MODEL 1
REMARK VINA RESULT:    -4.876      0.000      0.000
REMARK INTER + INTRA:          -5.594
REMARK INTER:                  -5.446
REMARK INTRA:                  -0.148
REMARK UNBOUND:                -0.148
REMARK SMILES O=C([O-])c1ccccc1C(=O)[O-]
REMARK SMILES IDX 4 1 9 2 5 3 8 4 6 5 7 6 2 7 1 8 3 9 10 10 11 11 12 12
REMARK H PARENT
REMARK Flexibility Score: inf
ROOT
ATOM      1  C   UNL     1      35.830  18.873  10.315  1.00  0.00     0.006 A 
ATOM      2  C   UNL     1      35.248  19.000  11.608  1.00  0.00     0.006 A 
ATOM      3  C   UNL     1      35.352  19.683   9.268  1.00  0.00     0.010 A 
ATOM      4  C   UNL     1      34.166  19.881  11.788  1.00  0.00     0.010 A 
ATOM      5  C   UNL     1      34.292  20.567   9.476  1.00  0.00     0.001 A 
ATOM      6  C   UNL     1      33.694  20.657  10.729  1.00  0.00     0.001 A 
ENDROOT
BRANCH   1   7
ATOM      7  C   UNL     1      36.878  17.877   9.995  1.00  0.00     0.072 C 
ATOM      8  O   UNL     1      36.624  16.644  10.013  1.00  0.00    -0.545 OA
ATOM      9  O   UNL     1      38.143  18.299   9.602  1.00  0.00    -0.545 OA
ENDBRANCH   1   7
BRANCH   2  10
ATOM     10  C   UNL     1      35.770  18.293  12.800  1.00  0.00     0.072 C 
ATOM     11  O   UNL     1      35.200  17.259  13.239  1.00  0.00    -0.545 OA
ATOM     12  O   UNL     1      36.942  18.728  13.411  1.00  0.00    -0.545 OA
ENDBRANCH   2  10
TORSDOF 2
ENDMDL
MODEL 2
REMARK VINA RESULT:    -4.868      0.047      2.887
REMARK INTER + INTRA:          -5.584
REMARK INTER:                  -5.445
REMARK INTRA:                  -0.139
REMARK UNBOUND:                -0.148
REMARK SMILES O=C([O-])c1ccccc1C(=O)[O-]
REMARK SMILES IDX 4 1 9 2 5 3 8 4 6 5 7 6 2 7 1 8 3 9 10 10 11 11 12 12
REMARK H PARENT
REMARK Flexibility Score: inf
ROOT
ATOM      1  C   UNL     1      35.265  18.971  11.600  1.00  0.00     0.006 A 
ATOM      2  C   UNL     1      35.833  18.836  10.301  1.00  0.00     0.006 A 
ATOM      3  C   UNL     1      34.180  19.849  11.783  1.00  0.00     0.010 A 
ATOM      4  C   UNL     1      35.339  19.633   9.252  1.00  0.00     0.010 A 
ATOM      5  C   UNL     1      33.692  20.612  10.722  1.00  0.00     0.001 A 
ATOM      6  C   UNL     1      34.277  20.513   9.463  1.00  0.00     0.001 A 
ENDROOT
BRANCH   1   7
ATOM      7  C   UNL     1      35.804  18.279  12.793  1.00  0.00     0.072 C 
ATOM      8  O   UNL     1      35.238  17.253  13.254  1.00  0.00    -0.545 OA
ATOM      9  O   UNL     1      36.985  18.719  13.379  1.00  0.00    -0.545 OA
ENDBRANCH   1   7
BRANCH   2  10
ATOM     10  C   UNL     1      36.883  17.843   9.979  1.00  0.00     0.072 C 
ATOM     11  O   UNL     1      36.642  16.607  10.035  1.00  0.00    -0.545 OA
ATOM     12  O   UNL     1      38.134  18.267   9.544  1.00  0.00    -0.545 OA
ENDBRANCH   2  10
TORSDOF 2
ENDMDL
MODEL 3
REMARK VINA RESULT:    -4.855      1.635      3.175
REMARK INTER + INTRA:          -5.570
REMARK INTER:                  -5.386
REMARK INTRA:                  -0.184
REMARK UNBOUND:                -0.148
REMARK SMILES O=C([O-])c1ccccc1C(=O)[O-]
REMARK SMILES IDX 4 1 9 2 5 3 8 4 6 5 7 6 2 7 1 8 3 9 10 10 11 11 12 12
REMARK H PARENT
REMARK Flexibility Score: inf
ROOT
ATOM      1  C   UNL     1      35.719  18.802  10.452  1.00  0.00     0.006 A 
ATOM      2  C   UNL     1      37.056  18.320  10.546  1.00  0.00     0.006 A 
ATOM      3  C   UNL     1      35.266  19.326   9.228  1.00  0.00     0.010 A 
ATOM      4  C   UNL     1      37.907  18.443   9.433  1.00  0.00     0.010 A 
ATOM      5  C   UNL     1      36.122  19.417   8.130  1.00  0.00     0.001 A 
ATOM      6  C   UNL     1      37.442  18.987   8.235  1.00  0.00     0.001 A 
ENDROOT
BRANCH   1   7
ATOM      7  C   UNL     1      34.792  18.842  11.607  1.00  0.00     0.072 C 
ATOM      8  O   UNL     1      34.513  19.932  12.173  1.00  0.00    -0.545 OA
ATOM      9  O   UNL     1      34.164  17.679  12.036  1.00  0.00    -0.545 OA
ENDBRANCH   1   7
BRANCH   2  10
ATOM     10  C   UNL     1      37.581  17.629  11.746  1.00  0.00     0.072 C 
ATOM     11  O   UNL     1      37.378  16.398  11.923  1.00  0.00    -0.545 OA
ATOM     12  O   UNL     1      38.369  18.320  12.660  1.00  0.00    -0.545 OA
ENDBRANCH   2  10
TORSDOF 2
ENDMDL
MODEL 4
REMARK VINA RESULT:    -4.844      1.525      2.443
REMARK INTER + INTRA:          -5.558
REMARK INTER:                  -5.381
REMARK INTRA:                  -0.177
REMARK UNBOUND:                -0.148
REMARK SMILES O=C([O-])c1ccccc1C(=O)[O-]
REMARK SMILES IDX 4 1 9 2 5 3 8 4 6 5 7 6 2 7 1 8 3 9 10 10 11 11 12 12
REMARK H PARENT
REMARK Flexibility Score: inf
ROOT
ATOM      1  C   UNL     1      35.112  19.638   9.326  1.00  0.00     0.006 A 
ATOM      2  C   UNL     1      35.561  18.899  10.457  1.00  0.00     0.006 A 
ATOM      3  C   UNL     1      34.153  20.651   9.509  1.00  0.00     0.010 A 
ATOM      4  C   UNL     1      34.985  19.155  11.714  1.00  0.00     0.010 A 
ATOM      5  C   UNL     1      33.612  20.903  10.770  1.00  0.00     0.001 A 
ATOM      6  C   UNL     1      34.018  20.149  11.868  1.00  0.00     0.001 A 
ENDROOT
BRANCH   1   7
ATOM      7  C   UNL     1      35.557  19.350   7.944  1.00  0.00     0.072 C 
ATOM      8  O   UNL     1      34.778  18.812   7.113  1.00  0.00    -0.545 OA
ATOM      9  O   UNL     1      36.826  19.734   7.526  1.00  0.00    -0.545 OA
ENDBRANCH   1   7
BRANCH   2  10
ATOM     10  C   UNL     1      36.662  17.910  10.389  1.00  0.00     0.072 C 
ATOM     11  O   UNL     1      36.417  16.678  10.285  1.00  0.00    -0.545 OA
ATOM     12  O   UNL     1      37.984  18.338  10.369  1.00  0.00    -0.545 OA
ENDBRANCH   2  10
TORSDOF 2
ENDMDL
MODEL 5
REMARK VINA RESULT:    -4.842      1.635      2.720
REMARK INTER + INTRA:          -5.556
REMARK INTER:                  -5.370
REMARK INTRA:                  -0.186
REMARK UNBOUND:                -0.148
REMARK SMILES O=C([O-])c1ccccc1C(=O)[O-]
REMARK SMILES IDX 4 1 9 2 5 3 8 4 6 5 7 6 2 7 1 8 3 9 10 10 11 11 12 12
REMARK H PARENT
REMARK Flexibility Score: inf
ROOT
ATOM      1  C   UNL     1      37.055  18.244  10.495  1.00  0.00     0.006 A 
ATOM      2  C   UNL     1      35.732  18.763  10.404  1.00  0.00     0.006 A 
ATOM      3  C   UNL     1      37.902  18.330   9.375  1.00  0.00     0.010 A 
ATOM      4  C   UNL     1      35.285  19.285   9.176  1.00  0.00     0.010 A 
ATOM      5  C   UNL     1      37.444  18.873   8.174  1.00  0.00     0.001 A 
ATOM      6  C   UNL     1      36.136  19.339   8.072  1.00  0.00     0.001 A 
ENDROOT
BRANCH   1   7
ATOM      7  C   UNL     1      37.570  17.553  11.699  1.00  0.00     0.072 C 
ATOM      8  O   UNL     1      37.328  16.333  11.897  1.00  0.00    -0.545 OA
ATOM      9  O   UNL     1      38.389  18.231  12.595  1.00  0.00    -0.545 OA
ENDBRANCH   1   7
BRANCH   2  10
ATOM     10  C   UNL     1      34.815  18.842  11.564  1.00  0.00     0.072 C 
ATOM     11  O   UNL     1      34.576  19.945  12.124  1.00  0.00    -0.545 OA
ATOM     12  O   UNL     1      34.149  17.703  12.006  1.00  0.00    -0.545 OA
ENDBRANCH   2  10
TORSDOF 2
ENDMDL
MODEL 6
REMARK VINA RESULT:    -4.840      1.398      3.301
REMARK INTER + INTRA:          -5.553
REMARK INTER:                  -5.332
REMARK INTRA:                  -0.221
REMARK UNBOUND:                -0.148
REMARK SMILES O=C([O-])c1ccccc1C(=O)[O-]
REMARK SMILES IDX 4 1 9 2 5 3 8 4 6 5 7 6 2 7 1 8 3 9 10 10 11 11 12 12
REMARK H PARENT
REMARK Flexibility Score: inf
ROOT
ATOM      1  C   UNL     1      36.330  18.465  10.909  1.00  0.00     0.006 A 
ATOM      2  C   UNL     1      36.765  18.876   9.616  1.00  0.00     0.006 A 
ATOM      3  C   UNL     1      35.033  18.807  11.334  1.00  0.00     0.010 A 
ATOM      4  C   UNL     1      35.912  19.669   8.828  1.00  0.00     0.010 A 
ATOM      5  C   UNL     1      34.196  19.575  10.525  1.00  0.00     0.001 A 
ATOM      6  C   UNL     1      34.638  20.014   9.280  1.00  0.00     0.001 A 
ENDROOT
BRANCH   1   7
ATOM      7  C   UNL     1      37.204  17.747  11.864  1.00  0.00     0.072 C 
ATOM      8  O   UNL     1      37.281  16.490  11.850  1.00  0.00    -0.545 OA
ATOM      9  O   UNL     1      38.007  18.460  12.747  1.00  0.00    -0.545 OA
ENDBRANCH   1   7
BRANCH   2  10
ATOM     10  C   UNL     1      38.056  18.452   9.027  1.00  0.00     0.072 C 
ATOM     11  O   UNL     1      39.062  19.209   9.066  1.00  0.00    -0.545 OA
ATOM     12  O   UNL     1      38.190  17.179   8.482  1.00  0.00    -0.545 OA
ENDBRANCH   2  10
TORSDOF 2
ENDMDL
MODEL 7
REMARK VINA RESULT:    -4.819      1.465      3.143
REMARK INTER + INTRA:          -5.530
REMARK INTER:                  -5.375
REMARK INTRA:                  -0.156
REMARK UNBOUND:                -0.148
REMARK SMILES O=C([O-])c1ccccc1C(=O)[O-]
REMARK SMILES IDX 4 1 9 2 5 3 8 4 6 5 7 6 2 7 1 8 3 9 10 10 11 11 12 12
REMARK H PARENT
REMARK Flexibility Score: inf
ROOT
ATOM      1  C   UNL     1      35.510  18.837  10.688  1.00  0.00     0.006 A 
ATOM      2  C   UNL     1      35.198  19.594   9.522  1.00  0.00     0.006 A 
ATOM      3  C   UNL     1      34.823  19.110  11.884  1.00  0.00     0.010 A 
ATOM      4  C   UNL     1      34.260  20.638   9.616  1.00  0.00     0.010 A 
ATOM      5  C   UNL     1      33.879  20.136  11.947  1.00  0.00     0.001 A 
ATOM      6  C   UNL     1      33.607  20.905  10.819  1.00  0.00     0.001 A 
ENDROOT
BRANCH   1   7
ATOM      7  C   UNL     1      36.579  17.812  10.723  1.00  0.00     0.072 C 
ATOM      8  O   UNL     1      36.328  16.609  10.450  1.00  0.00    -0.545 OA
ATOM      9  O   UNL     1      37.891  18.182  10.992  1.00  0.00    -0.545 OA
ENDBRANCH   1   7
BRANCH   2  10
ATOM     10  C   UNL     1      35.767  19.293   8.188  1.00  0.00     0.072 C 
ATOM     11  O   UNL     1      35.037  18.852   7.260  1.00  0.00    -0.545 OA
ATOM     12  O   UNL     1      37.106  19.560   7.925  1.00  0.00    -0.545 OA
ENDBRANCH   2  10
TORSDOF 2
ENDMDL
MODEL 8
REMARK VINA RESULT:    -4.691      6.838      8.305
REMARK INTER + INTRA:          -5.387
REMARK INTER:                  -5.169
REMARK INTRA:                  -0.218
REMARK UNBOUND:                -0.148
REMARK SMILES O=C([O-])c1ccccc1C(=O)[O-]
REMARK SMILES IDX 4 1 9 2 5 3 8 4 6 5 7 6 2 7 1 8 3 9 10 10 11 11 12 12
REMARK H PARENT
REMARK Flexibility Score: inf
ROOT
ATOM      1  C   UNL     1      31.446  14.749  14.716  1.00  0.00     0.006 A 
ATOM      2  C   UNL     1      31.748  13.378  14.958  1.00  0.00     0.006 A 
ATOM      3  C   UNL     1      32.494  15.688  14.705  1.00  0.00     0.010 A 
ATOM      4  C   UNL     1      33.074  13.011  15.247  1.00  0.00     0.010 A 
ATOM      5  C   UNL     1      33.806  15.296  14.971  1.00  0.00     0.001 A 
ATOM      6  C   UNL     1      34.094  13.963  15.252  1.00  0.00     0.001 A 
ENDROOT
BRANCH   1   7
ATOM      7  C   UNL     1      30.064  15.252  14.539  1.00  0.00     0.072 C 
ATOM      8  O   UNL     1      29.585  15.431  13.389  1.00  0.00    -0.545 OA
ATOM      9  O   UNL     1      29.255  15.470  15.648  1.00  0.00    -0.545 OA
ENDBRANCH   1   7
BRANCH   2  10
ATOM     10  C   UNL     1      30.738  12.300  14.857  1.00  0.00     0.072 C 
ATOM     11  O   UNL     1      30.426  11.811  13.738  1.00  0.00    -0.545 OA
ATOM     12  O   UNL     1      30.171  11.765  16.009  1.00  0.00    -0.545 OA
ENDBRANCH   2  10
TORSDOF 2
ENDMDL
MODEL 9
REMARK VINA RESULT:    -4.687      6.827      8.252
REMARK INTER + INTRA:          -5.383
REMARK INTER:                  -5.165
REMARK INTRA:                  -0.218
REMARK UNBOUND:                -0.148
REMARK SMILES O=C([O-])c1ccccc1C(=O)[O-]
REMARK SMILES IDX 4 1 9 2 5 3 8 4 6 5 7 6 2 7 1 8 3 9 10 10 11 11 12 12
REMARK H PARENT
REMARK Flexibility Score: inf
ROOT
ATOM      1  C   UNL     1      31.760  13.380  14.952  1.00  0.00     0.006 A 
ATOM      2  C   UNL     1      31.441  14.746  14.705  1.00  0.00     0.006 A 
ATOM      3  C   UNL     1      33.092  13.031  15.240  1.00  0.00     0.010 A 
ATOM      4  C   UNL     1      32.476  15.698  14.687  1.00  0.00     0.010 A 
ATOM      5  C   UNL     1      34.099  13.997  15.239  1.00  0.00     0.001 A 
ATOM      6  C   UNL     1      33.794  15.324  14.952  1.00  0.00     0.001 A 
ENDROOT
BRANCH   1   7
ATOM      7  C   UNL     1      30.764  12.288  14.858  1.00  0.00     0.072 C 
ATOM      8  O   UNL     1      30.466  11.781  13.744  1.00  0.00    -0.545 OA
ATOM      9  O   UNL     1      30.195  11.763  16.011  1.00  0.00    -0.545 OA
ENDBRANCH   1   7
BRANCH   2  10
ATOM     10  C   UNL     1      30.053  15.231  14.528  1.00  0.00     0.072 C 
ATOM     11  O   UNL     1      29.582  15.436  13.378  1.00  0.00    -0.545 OA
ATOM     12  O   UNL     1      29.227  15.400  15.634  1.00  0.00    -0.545 OA
ENDBRANCH   2  10
TORSDOF 2
ENDMDL
