MODEL 1
REMARK VINA RESULT:    -3.546      0.000      0.000
REMARK INTER + INTRA:          -3.546
REMARK INTER:                  -3.546
REMARK INTRA:                   0.000
REMARK UNBOUND:                 0.000
REMARK SMILES CC1(C)C(=O)[C@@]2(C)CC[C@@H]1C2
REMARK SMILES IDX 1 1 2 2 10 3 9 4 8 5 6 6 11 7 4 8 5 9 7 10 3 11
REMARK H PARENT
REMARK Flexibility Score: inf
ROOT
ATOM      1  C   UNL     1     138.970 142.143 143.086  1.00  0.00     0.020 C 
ATOM      2  C   UNL     1     139.875 142.060 141.839  1.00  0.00     0.027 C 
ATOM      3  C   UNL     1     141.047 143.105 141.901  1.00  0.00     0.003 C 
ATOM      4  C   UNL     1     141.838 143.139 140.570  1.00  0.00     0.005 C 
ATOM      5  C   UNL     1     142.543 141.764 140.546  1.00  0.00     0.015 C 
ATOM      6  C   UNL     1     142.149 141.161 141.909  1.00  0.00     0.027 C 
ATOM      7  C   UNL     1     142.079 142.399 142.781  1.00  0.00     0.019 C 
ATOM      8  C   UNL     1     140.691 140.799 141.843  1.00  0.00     0.144 C 
ATOM      9  O   UNL     1     140.244 139.668 141.732  1.00  0.00    -0.298 OA
ATOM     10  C   UNL     1     143.075 140.061 142.433  1.00  0.00     0.020 C 
ATOM     11  C   UNL     1     139.000 142.164 140.570  1.00  0.00     0.020 C 
ENDROOT
TORSDOF 0
ENDMDL
MODEL 2
REMARK VINA RESULT:    -3.524      1.857      3.848
REMARK INTER + INTRA:          -3.524
REMARK INTER:                  -3.524
REMARK INTRA:                   0.000
REMARK UNBOUND:                 0.000
REMARK SMILES CC1(C)C(=O)[C@@]2(C)CC[C@@H]1C2
REMARK SMILES IDX 1 1 2 2 10 3 9 4 8 5 6 6 11 7 4 8 5 9 7 10 3 11
REMARK H PARENT
REMARK Flexibility Score: inf
ROOT
ATOM      1  C   UNL     1     142.790 139.428 143.125  1.00  0.00     0.020 C 
ATOM      2  C   UNL     1     141.832 139.586 141.926  1.00  0.00     0.027 C 
ATOM      3  C   UNL     1     140.608 138.606 142.029  1.00  0.00     0.003 C 
ATOM      4  C   UNL     1     139.752 138.643 140.738  1.00  0.00     0.005 C 
ATOM      5  C   UNL     1     139.124 140.054 140.774  1.00  0.00     0.015 C 
ATOM      6  C   UNL     1     139.618 140.607 142.125  1.00  0.00     0.027 C 
ATOM      7  C   UNL     1     139.661 139.350 142.971  1.00  0.00     0.019 C 
ATOM      8  C   UNL     1     141.089 140.889 141.992  1.00  0.00     0.144 C 
ATOM      9  O   UNL     1     141.593 141.997 141.879  1.00  0.00    -0.298 OA
ATOM     10  C   UNL     1     138.782 141.747 142.714  1.00  0.00     0.020 C 
ATOM     11  C   UNL     1     142.636 139.459 140.614  1.00  0.00     0.020 C 
ENDROOT
TORSDOF 0
ENDMDL
MODEL 3
REMARK VINA RESULT:    -3.499      1.868      2.789
REMARK INTER + INTRA:          -3.499
REMARK INTER:                  -3.499
REMARK INTRA:                   0.000
REMARK UNBOUND:                 0.000
REMARK SMILES CC1(C)C(=O)[C@@]2(C)CC[C@@H]1C2
REMARK SMILES IDX 1 1 2 2 10 3 9 4 8 5 6 6 11 7 4 8 5 9 7 10 3 11
REMARK H PARENT
REMARK Flexibility Score: inf
ROOT
ATOM      1  C   UNL     1     138.000 141.756 141.970  1.00  0.00     0.020 C 
ATOM      2  C   UNL     1     139.471 141.322 141.795  1.00  0.00     0.027 C 
ATOM      3  C   UNL     1     140.065 140.732 143.124  1.00  0.00     0.003 C 
ATOM      4  C   UNL     1     141.586 140.470 142.990  1.00  0.00     0.005 C 
ATOM      5  C   UNL     1     141.653 139.301 141.982  1.00  0.00     0.015 C 
ATOM      6  C   UNL     1     140.164 138.977 141.745  1.00  0.00     0.027 C 
ATOM      7  C   UNL     1     139.565 139.288 143.102  1.00  0.00     0.019 C 
ATOM      8  C   UNL     1     139.577 140.097 140.932  1.00  0.00     0.144 C 
ATOM      9  O   UNL     1     139.303 140.044 139.743  1.00  0.00    -0.298 OA
ATOM     10  C   UNL     1     139.874 137.567 141.225  1.00  0.00     0.020 C 
ATOM     11  C   UNL     1     140.279 142.500 141.207  1.00  0.00     0.020 C 
ENDROOT
TORSDOF 0
ENDMDL
MODEL 4
REMARK VINA RESULT:    -3.496      1.443      3.263
REMARK INTER + INTRA:          -3.496
REMARK INTER:                  -3.496
REMARK INTRA:                   0.000
REMARK UNBOUND:                 0.000
REMARK SMILES CC1(C)C(=O)[C@@]2(C)CC[C@@H]1C2
REMARK SMILES IDX 1 1 2 2 10 3 9 4 8 5 6 6 11 7 4 8 5 9 7 10 3 11
REMARK H PARENT
REMARK Flexibility Score: inf
ROOT
ATOM      1  C   UNL     1     143.653 139.798 141.880  1.00  0.00     0.020 C 
ATOM      2  C   UNL     1     142.191 140.267 141.728  1.00  0.00     0.027 C 
ATOM      3  C   UNL     1     141.643 140.900 143.058  1.00  0.00     0.003 C 
ATOM      4  C   UNL     1     140.126 141.199 142.952  1.00  0.00     0.005 C 
ATOM      5  C   UNL     1     140.068 142.349 141.921  1.00  0.00     0.015 C 
ATOM      6  C   UNL     1     141.558 142.629 141.645  1.00  0.00     0.027 C 
ATOM      7  C   UNL     1     142.180 142.330 142.995  1.00  0.00     0.019 C 
ATOM      8  C   UNL     1     142.097 141.477 140.843  1.00  0.00     0.144 C 
ATOM      9  O   UNL     1     142.346 141.499 139.647  1.00  0.00    -0.298 OA
ATOM     10  C   UNL     1     141.873 144.020 141.089  1.00  0.00     0.020 C 
ATOM     11  C   UNL     1     141.339 139.100 141.183  1.00  0.00     0.020 C 
ENDROOT
TORSDOF 0
ENDMDL
MODEL 5
REMARK VINA RESULT:    -3.484      1.478      2.735
REMARK INTER + INTRA:          -3.484
REMARK INTER:                  -3.484
REMARK INTRA:                   0.000
REMARK UNBOUND:                 0.000
REMARK SMILES CC1(C)C(=O)[C@@]2(C)CC[C@@H]1C2
REMARK SMILES IDX 1 1 2 2 10 3 9 4 8 5 6 6 11 7 4 8 5 9 7 10 3 11
REMARK H PARENT
REMARK Flexibility Score: inf
ROOT
ATOM      1  C   UNL     1     141.850 142.513 143.125  1.00  0.00     0.020 C 
ATOM      2  C   UNL     1     141.902 141.658 141.841  1.00  0.00     0.027 C 
ATOM      3  C   UNL     1     142.984 140.524 141.943  1.00  0.00     0.003 C 
ATOM      4  C   UNL     1     143.154 139.790 140.589  1.00  0.00     0.005 C 
ATOM      5  C   UNL     1     141.815 139.036 140.429  1.00  0.00     0.015 C 
ATOM      6  C   UNL     1     141.091 139.352 141.753  1.00  0.00     0.027 C 
ATOM      7  C   UNL     1     142.253 139.432 142.723  1.00  0.00     0.019 C 
ATOM      8  C   UNL     1     140.678 140.797 141.713  1.00  0.00     0.144 C 
ATOM      9  O   UNL     1     139.541 141.206 141.529  1.00  0.00    -0.298 OA
ATOM     10  C   UNL     1     139.991 138.366 142.151  1.00  0.00     0.020 C 
ATOM     11  C   UNL     1     142.070 142.588 140.620  1.00  0.00     0.020 C 
ENDROOT
TORSDOF 0
ENDMDL
MODEL 6
REMARK VINA RESULT:    -3.440      1.462      2.552
REMARK INTER + INTRA:          -3.440
REMARK INTER:                  -3.440
REMARK INTRA:                   0.000
REMARK UNBOUND:                 0.000
REMARK SMILES CC1(C)C(=O)[C@@]2(C)CC[C@@H]1C2
REMARK SMILES IDX 1 1 2 2 10 3 9 4 8 5 6 6 11 7 4 8 5 9 7 10 3 11
REMARK H PARENT
REMARK Flexibility Score: inf
ROOT
ATOM      1  C   UNL     1     139.540 138.767 142.932  1.00  0.00     0.020 C 
ATOM      2  C   UNL     1     139.708 139.842 141.838  1.00  0.00     0.027 C 
ATOM      3  C   UNL     1     138.805 141.098 142.115  1.00  0.00     0.003 C 
ATOM      4  C   UNL     1     138.843 142.088 140.924  1.00  0.00     0.005 C 
ATOM      5  C   UNL     1     140.288 142.632 140.967  1.00  0.00     0.015 C 
ATOM      6  C   UNL     1     140.862 141.963 142.231  1.00  0.00     0.027 C 
ATOM      7  C   UNL     1     139.637 141.894 143.121  1.00  0.00     0.019 C 
ATOM      8  C   UNL     1     141.054 140.503 141.928  1.00  0.00     0.144 C 
ATOM      9  O   UNL     1     142.126 139.957 141.713  1.00  0.00    -0.298 OA
ATOM     10  C   UNL     1     142.068 142.667 142.857  1.00  0.00     0.020 C 
ATOM     11  C   UNL     1     139.487 139.196 140.454  1.00  0.00     0.020 C 
ENDROOT
TORSDOF 0
ENDMDL
MODEL 7
REMARK VINA RESULT:    -3.440      1.483      2.994
REMARK INTER + INTRA:          -3.440
REMARK INTER:                  -3.440
REMARK INTRA:                   0.000
REMARK UNBOUND:                 0.000
REMARK SMILES CC1(C)C(=O)[C@@]2(C)CC[C@@H]1C2
REMARK SMILES IDX 1 1 2 2 10 3 9 4 8 5 6 6 11 7 4 8 5 9 7 10 3 11
REMARK H PARENT
REMARK Flexibility Score: inf
ROOT
ATOM      1  C   UNL     1     139.508 139.586 140.398  1.00  0.00     0.020 C 
ATOM      2  C   UNL     1     140.415 139.760 141.634  1.00  0.00     0.027 C 
ATOM      3  C   UNL     1     141.935 139.615 141.262  1.00  0.00     0.003 C 
ATOM      4  C   UNL     1     142.823 139.610 142.532  1.00  0.00     0.005 C 
ATOM      5  C   UNL     1     142.688 141.056 143.060  1.00  0.00     0.015 C 
ATOM      6  C   UNL     1     141.825 141.730 141.975  1.00  0.00     0.027 C 
ATOM      7  C   UNL     1     142.283 141.004 140.726  1.00  0.00     0.019 C 
ATOM      8  C   UNL     1     140.428 141.187 142.102  1.00  0.00     0.144 C 
ATOM      9  O   UNL     1     139.474 141.783 142.579  1.00  0.00    -0.298 OA
ATOM     10  C   UNL     1     141.932 143.255 141.905  1.00  0.00     0.020 C 
ATOM     11  C   UNL     1     139.941 138.803 142.749  1.00  0.00     0.020 C 
ENDROOT
TORSDOF 0
ENDMDL
MODEL 8
REMARK VINA RESULT:    -3.406      1.471      3.253
REMARK INTER + INTRA:          -3.406
REMARK INTER:                  -3.406
REMARK INTRA:                   0.000
REMARK UNBOUND:                 0.000
REMARK SMILES CC1(C)C(=O)[C@@]2(C)CC[C@@H]1C2
REMARK SMILES IDX 1 1 2 2 10 3 9 4 8 5 6 6 11 7 4 8 5 9 7 10 3 11
REMARK H PARENT
REMARK Flexibility Score: inf
ROOT
ATOM      1  C   UNL     1     142.449 141.712 140.631  1.00  0.00     0.020 C 
ATOM      2  C   UNL     1     141.500 141.512 141.831  1.00  0.00     0.027 C 
ATOM      3  C   UNL     1     140.001 141.755 141.432  1.00  0.00     0.003 C 
ATOM      4  C   UNL     1     139.079 141.731 142.678  1.00  0.00     0.005 C 
ATOM      5  C   UNL     1     139.129 140.251 143.121  1.00  0.00     0.015 C 
ATOM      6  C   UNL     1     139.987 139.599 142.019  1.00  0.00     0.027 C 
ATOM      7  C   UNL     1     139.599 140.420 140.806  1.00  0.00     0.019 C 
ATOM      8  C   UNL     1     141.405 140.062 142.212  1.00  0.00     0.144 C 
ATOM      9  O   UNL     1     142.314 139.391 142.676  1.00  0.00    -0.298 OA
ATOM     10  C   UNL     1     139.807 138.088 141.855  1.00  0.00     0.020 C 
ATOM     11  C   UNL     1     141.990 142.376 143.014  1.00  0.00     0.020 C 
ENDROOT
TORSDOF 0
ENDMDL
MODEL 9
REMARK VINA RESULT:    -3.170      1.776      2.640
REMARK INTER + INTRA:          -3.170
REMARK INTER:                  -3.170
REMARK INTRA:                   0.000
REMARK UNBOUND:                 0.000
REMARK SMILES CC1(C)C(=O)[C@@]2(C)CC[C@@H]1C2
REMARK SMILES IDX 1 1 2 2 10 3 9 4 8 5 6 6 11 7 4 8 5 9 7 10 3 11
REMARK H PARENT
REMARK Flexibility Score: inf
ROOT
ATOM      1  C   UNL     1     139.860 137.975 141.797  1.00  0.00     0.020 C 
ATOM      2  C   UNL     1     140.305 139.452 141.751  1.00  0.00     0.027 C 
ATOM      3  C   UNL     1     140.907 139.919 143.125  1.00  0.00     0.003 C 
ATOM      4  C   UNL     1     141.182 141.444 143.125  1.00  0.00     0.005 C 
ATOM      5  C   UNL     1     142.346 141.591 142.120  1.00  0.00     0.015 C 
ATOM      6  C   UNL     1     142.656 140.127 141.750  1.00  0.00     0.027 C 
ATOM      7  C   UNL     1     142.347 139.412 143.050  1.00  0.00     0.019 C 
ATOM      8  C   UNL     1     141.527 139.624 140.894  1.00  0.00     0.144 C 
ATOM      9  O   UNL     1     141.572 139.456 139.685  1.00  0.00    -0.298 OA
ATOM     10  C   UNL     1     144.061 139.872 141.198  1.00  0.00     0.020 C 
ATOM     11  C   UNL     1     139.132 140.319 141.244  1.00  0.00     0.020 C 
ENDROOT
TORSDOF 0
ENDMDL
