MODEL 1
REMARK VINA RESULT:    -2.978      0.000      0.000
REMARK INTER + INTRA:          -3.065
REMARK INTER:                  -3.065
REMARK INTRA:                   0.000
REMARK UNBOUND:                 0.000
REMARK SMILES CC1(C)[C@H]2CC[C@]1(C)[C@H](O)C2
REMARK SMILES IDX 1 1 2 2 4 3 5 4 6 5 7 6 9 7 11 8 8 9 3 10 10 11
REMARK H PARENT 10 12
REMARK Flexibility Score: inf
ROOT
ATOM      1  C   UNL     1     168.437 156.436 171.606  1.00  0.00     0.012 C 
ATOM      2  C   UNL     1     168.397 157.836 170.918  1.00  0.00    -0.025 C 
ATOM      3  C   UNL     1     168.079 157.778 169.414  1.00  0.00    -0.002 C 
ATOM      4  C   UNL     1     168.231 159.250 168.961  1.00  0.00     0.005 C 
ATOM      5  C   UNL     1     169.397 159.758 169.832  1.00  0.00     0.010 C 
ATOM      6  C   UNL     1     169.772 158.498 170.664  1.00  0.00    -0.001 C 
ATOM      7  C   UNL     1     170.468 157.489 169.703  1.00  0.00     0.121 C 
ATOM      8  C   UNL     1     169.291 157.016 168.818  1.00  0.00     0.036 C 
ATOM      9  C   UNL     1     170.600 158.821 171.915  1.00  0.00     0.015 C 
ATOM     10  C   UNL     1     167.383 158.687 171.744  1.00  0.00     0.012 C 
ENDROOT
BRANCH   7  11
ATOM     11  O   UNL     1     171.480 158.095 168.939  1.00  0.00    -0.393 OA
ATOM     12  H   UNL     1     172.332 157.936 169.425  1.00  0.00     0.210 HD
ENDBRANCH   7  11
TORSDOF 1
ENDMDL
MODEL 2
REMARK VINA RESULT:    -2.969     15.546     16.819
REMARK INTER + INTRA:          -3.056
REMARK INTER:                  -3.056
REMARK INTRA:                   0.000
REMARK UNBOUND:                 0.000
REMARK SMILES CC1(C)[C@H]2CC[C@]1(C)[C@H](O)C2
REMARK SMILES IDX 1 1 2 2 4 3 5 4 6 5 7 6 9 7 11 8 8 9 3 10 10 11
REMARK H PARENT 10 12
REMARK Flexibility Score: inf
ROOT
ATOM      1  C   UNL     1     162.823 174.742 171.611  1.00  0.00     0.012 C 
ATOM      2  C   UNL     1     162.889 173.370 170.873  1.00  0.00    -0.025 C 
ATOM      3  C   UNL     1     163.168 173.492 169.364  1.00  0.00    -0.002 C 
ATOM      4  C   UNL     1     163.051 172.033 168.862  1.00  0.00     0.005 C 
ATOM      5  C   UNL     1     161.925 171.456 169.742  1.00  0.00     0.010 C 
ATOM      6  C   UNL     1     161.531 172.673 170.628  1.00  0.00    -0.001 C 
ATOM      7  C   UNL     1     160.779 173.692 169.721  1.00  0.00     0.121 C 
ATOM      8  C   UNL     1     161.917 174.235 168.825  1.00  0.00     0.036 C 
ATOM      9  C   UNL     1     160.746 172.279 171.886  1.00  0.00     0.015 C 
ATOM     10  C   UNL     1     163.951 172.524 171.642  1.00  0.00     0.012 C 
ENDROOT
BRANCH   7  11
ATOM     11  O   UNL     1     159.767 173.081 168.961  1.00  0.00    -0.393 OA
ATOM     12  H   UNL     1     160.114 173.014 168.033  1.00  0.00     0.210 HD
ENDBRANCH   7  11
TORSDOF 1
ENDMDL
MODEL 3
REMARK VINA RESULT:    -2.966      9.432     10.919
REMARK INTER + INTRA:          -3.052
REMARK INTER:                  -3.052
REMARK INTRA:                   0.000
REMARK UNBOUND:                 0.000
REMARK SMILES CC1(C)[C@H]2CC[C@]1(C)[C@H](O)C2
REMARK SMILES IDX 1 1 2 2 4 3 5 4 6 5 7 6 9 7 11 8 8 9 3 10 10 11
REMARK H PARENT 10 12
REMARK Flexibility Score: inf
ROOT
ATOM      1  C   UNL     1     171.205 169.725 172.241  1.00  0.00     0.012 C 
ATOM      2  C   UNL     1     171.681 169.396 170.793  1.00  0.00    -0.025 C 
ATOM      3  C   UNL     1     170.872 168.278 170.113  1.00  0.00    -0.002 C 
ATOM      4  C   UNL     1     171.617 168.061 168.775  1.00  0.00     0.005 C 
ATOM      5  C   UNL     1     173.091 168.287 169.163  1.00  0.00     0.010 C 
ATOM      6  C   UNL     1     172.998 168.591 170.686  1.00  0.00    -0.001 C 
ATOM      7  C   UNL     1     172.647 167.258 171.411  1.00  0.00     0.121 C 
ATOM      8  C   UNL     1     171.177 167.031 170.984  1.00  0.00     0.036 C 
ATOM      9  C   UNL     1     174.250 169.280 171.246  1.00  0.00     0.015 C 
ATOM     10  C   UNL     1     171.656 170.750 170.019  1.00  0.00     0.012 C 
ENDROOT
BRANCH   7  11
ATOM     11  O   UNL     1     173.475 166.198 171.004  1.00  0.00    -0.393 OA
ATOM     12  H   UNL     1     173.796 166.426 170.092  1.00  0.00     0.210 HD
ENDBRANCH   7  11
TORSDOF 1
ENDMDL
MODEL 4
REMARK VINA RESULT:    -2.954     10.421     11.625
REMARK INTER + INTRA:          -3.040
REMARK INTER:                  -3.040
REMARK INTRA:                   0.000
REMARK UNBOUND:                 0.000
REMARK SMILES CC1(C)[C@H]2CC[C@]1(C)[C@H](O)C2
REMARK SMILES IDX 1 1 2 2 4 3 5 4 6 5 7 6 9 7 11 8 8 9 3 10 10 11
REMARK H PARENT 10 12
REMARK Flexibility Score: inf
ROOT
ATOM      1  C   UNL     1     160.040 161.510 172.258  1.00  0.00     0.012 C 
ATOM      2  C   UNL     1     159.552 161.832 170.812  1.00  0.00    -0.025 C 
ATOM      3  C   UNL     1     160.354 162.947 170.121  1.00  0.00    -0.002 C 
ATOM      4  C   UNL     1     159.597 163.157 168.787  1.00  0.00     0.005 C 
ATOM      5  C   UNL     1     158.127 162.930 169.188  1.00  0.00     0.010 C 
ATOM      6  C   UNL     1     158.233 162.634 170.712  1.00  0.00    -0.001 C 
ATOM      7  C   UNL     1     158.588 163.971 171.428  1.00  0.00     0.121 C 
ATOM      8  C   UNL     1     160.054 164.198 170.988  1.00  0.00     0.036 C 
ATOM      9  C   UNL     1     156.987 161.946 171.286  1.00  0.00     0.015 C 
ATOM     10  C   UNL     1     159.572 160.473 170.044  1.00  0.00     0.012 C 
ENDROOT
BRANCH   7  11
ATOM     11  O   UNL     1     157.756 165.028 171.023  1.00  0.00    -0.393 OA
ATOM     12  H   UNL     1     158.174 165.862 171.363  1.00  0.00     0.210 HD
ENDBRANCH   7  11
TORSDOF 1
ENDMDL
MODEL 5
REMARK VINA RESULT:    -2.928      1.725      2.690
REMARK INTER + INTRA:          -3.013
REMARK INTER:                  -3.013
REMARK INTRA:                   0.000
REMARK UNBOUND:                 0.000
REMARK SMILES CC1(C)[C@H]2CC[C@]1(C)[C@H](O)C2
REMARK SMILES IDX 1 1 2 2 4 3 5 4 6 5 7 6 9 7 11 8 8 9 3 10 10 11
REMARK H PARENT 10 12
REMARK Flexibility Score: inf
ROOT
ATOM      1  C   UNL     1     170.930 158.144 169.748  1.00  0.00     0.012 C 
ATOM      2  C   UNL     1     169.648 158.180 170.635  1.00  0.00    -0.025 C 
ATOM      3  C   UNL     1     168.506 157.291 170.111  1.00  0.00    -0.002 C 
ATOM      4  C   UNL     1     167.337 157.607 171.075  1.00  0.00     0.005 C 
ATOM      5  C   UNL     1     167.532 159.107 171.370  1.00  0.00     0.010 C 
ATOM      6  C   UNL     1     168.787 159.460 170.519  1.00  0.00    -0.001 C 
ATOM      7  C   UNL     1     168.357 159.451 169.022  1.00  0.00     0.121 C 
ATOM      8  C   UNL     1     168.135 157.944 168.754  1.00  0.00     0.036 C 
ATOM      9  C   UNL     1     169.467 160.765 170.953  1.00  0.00     0.015 C 
ATOM     10  C   UNL     1     170.118 157.814 172.077  1.00  0.00     0.012 C 
ENDROOT
BRANCH   7  11
ATOM     11  O   UNL     1     167.186 160.196 168.801  1.00  0.00    -0.393 OA
ATOM     12  H   UNL     1     166.788 160.367 169.695  1.00  0.00     0.210 HD
ENDBRANCH   7  11
TORSDOF 1
ENDMDL
MODEL 6
REMARK VINA RESULT:    -2.920     14.711     15.952
REMARK INTER + INTRA:          -3.006
REMARK INTER:                  -3.006
REMARK INTRA:                   0.000
REMARK UNBOUND:                 0.000
REMARK SMILES CC1(C)[C@H]2CC[C@]1(C)[C@H](O)C2
REMARK SMILES IDX 1 1 2 2 4 3 5 4 6 5 7 6 9 7 11 8 8 9 3 10 10 11
REMARK H PARENT 10 12
REMARK Flexibility Score: inf
ROOT
ATOM      1  C   UNL     1     160.282 173.008 169.735  1.00  0.00     0.012 C 
ATOM      2  C   UNL     1     161.556 172.972 170.634  1.00  0.00    -0.025 C 
ATOM      3  C   UNL     1     162.707 173.851 170.113  1.00  0.00    -0.002 C 
ATOM      4  C   UNL     1     163.866 173.536 171.088  1.00  0.00     0.005 C 
ATOM      5  C   UNL     1     163.660 172.040 171.393  1.00  0.00     0.010 C 
ATOM      6  C   UNL     1     162.412 171.687 170.535  1.00  0.00    -0.001 C 
ATOM      7  C   UNL     1     162.854 171.683 169.041  1.00  0.00     0.121 C 
ATOM      8  C   UNL     1     163.086 173.187 168.764  1.00  0.00     0.036 C 
ATOM      9  C   UNL     1     161.720 170.389 170.972  1.00  0.00     0.015 C 
ATOM     10  C   UNL     1     161.075 173.351 172.069  1.00  0.00     0.012 C 
ENDROOT
BRANCH   7  11
ATOM     11  O   UNL     1     164.023 170.931 168.836  1.00  0.00    -0.393 OA
ATOM     12  H   UNL     1     164.588 171.063 169.642  1.00  0.00     0.210 HD
ENDBRANCH   7  11
TORSDOF 1
ENDMDL
MODEL 7
REMARK VINA RESULT:    -2.828     15.646     16.920
REMARK INTER + INTRA:          -2.911
REMARK INTER:                  -2.911
REMARK INTRA:                   0.000
REMARK UNBOUND:                 0.000
REMARK SMILES CC1(C)[C@H]2CC[C@]1(C)[C@H](O)C2
REMARK SMILES IDX 1 1 2 2 4 3 5 4 6 5 7 6 9 7 11 8 8 9 3 10 10 11
REMARK H PARENT 10 12
REMARK Flexibility Score: inf
ROOT
ATOM      1  C   UNL     1     161.204 174.686 172.062  1.00  0.00     0.012 C 
ATOM      2  C   UNL     1     161.332 173.240 171.492  1.00  0.00    -0.025 C 
ATOM      3  C   UNL     1     162.783 172.735 171.406  1.00  0.00    -0.002 C 
ATOM      4  C   UNL     1     162.642 171.365 170.700  1.00  0.00     0.005 C 
ATOM      5  C   UNL     1     161.489 171.608 169.707  1.00  0.00     0.010 C 
ATOM      6  C   UNL     1     161.129 173.100 169.965  1.00  0.00    -0.001 C 
ATOM      7  C   UNL     1     162.282 173.970 169.382  1.00  0.00     0.121 C 
ATOM      8  C   UNL     1     163.437 173.688 170.372  1.00  0.00     0.036 C 
ATOM      9  C   UNL     1     159.742 173.490 169.437  1.00  0.00     0.015 C 
ATOM     10  C   UNL     1     160.407 172.350 172.378  1.00  0.00     0.012 C 
ENDROOT
BRANCH   7  11
ATOM     11  O   UNL     1     162.620 173.596 168.071  1.00  0.00    -0.393 OA
ATOM     12  H   UNL     1     163.130 172.747 168.143  1.00  0.00     0.210 HD
ENDBRANCH   7  11
TORSDOF 1
ENDMDL
MODEL 8
REMARK VINA RESULT:    -2.818     15.448     16.561
REMARK INTER + INTRA:          -2.900
REMARK INTER:                  -2.900
REMARK INTRA:                   0.000
REMARK UNBOUND:                 0.000
REMARK SMILES CC1(C)[C@H]2CC[C@]1(C)[C@H](O)C2
REMARK SMILES IDX 1 1 2 2 4 3 5 4 6 5 7 6 9 7 11 8 8 9 3 10 10 11
REMARK H PARENT 10 12
REMARK Flexibility Score: inf
ROOT
ATOM      1  C   UNL     1     162.422 172.184 172.469  1.00  0.00     0.012 C 
ATOM      2  C   UNL     1     161.845 173.171 171.408  1.00  0.00    -0.025 C 
ATOM      3  C   UNL     1     160.791 172.539 170.482  1.00  0.00    -0.002 C 
ATOM      4  C   UNL     1     160.489 173.665 169.464  1.00  0.00     0.005 C 
ATOM      5  C   UNL     1     161.862 174.343 169.287  1.00  0.00     0.010 C 
ATOM      6  C   UNL     1     162.779 173.502 170.220  1.00  0.00    -0.001 C 
ATOM      7  C   UNL     1     162.987 172.112 169.548  1.00  0.00     0.121 C 
ATOM      8  C   UNL     1     161.593 171.460 169.707  1.00  0.00     0.036 C 
ATOM      9  C   UNL     1     164.092 174.209 170.580  1.00  0.00     0.015 C 
ATOM     10  C   UNL     1     161.319 174.400 172.213  1.00  0.00     0.012 C 
ENDROOT
BRANCH   7  11
ATOM     11  O   UNL     1     163.355 172.225 168.197  1.00  0.00    -0.393 OA
ATOM     12  H   UNL     1     163.024 171.405 167.745  1.00  0.00     0.210 HD
ENDBRANCH   7  11
TORSDOF 1
ENDMDL
MODEL 9
REMARK VINA RESULT:    -2.809      1.518      2.937
REMARK INTER + INTRA:          -2.891
REMARK INTER:                  -2.891
REMARK INTRA:                   0.000
REMARK UNBOUND:                 0.000
REMARK SMILES CC1(C)[C@H]2CC[C@]1(C)[C@H](O)C2
REMARK SMILES IDX 1 1 2 2 4 3 5 4 6 5 7 6 9 7 11 8 8 9 3 10 10 11
REMARK H PARENT 10 12
REMARK Flexibility Score: inf
ROOT
ATOM      1  C   UNL     1     168.841 159.044 172.469  1.00  0.00     0.012 C 
ATOM      2  C   UNL     1     169.367 158.038 171.400  1.00  0.00    -0.025 C 
ATOM      3  C   UNL     1     170.413 158.638 170.446  1.00  0.00    -0.002 C 
ATOM      4  C   UNL     1     170.661 157.500 169.427  1.00  0.00     0.005 C 
ATOM      5  C   UNL     1     169.269 156.857 169.286  1.00  0.00     0.010 C 
ATOM      6  C   UNL     1     168.396 157.725 170.237  1.00  0.00    -0.001 C 
ATOM      7  C   UNL     1     168.208 159.117 169.563  1.00  0.00     0.121 C 
ATOM      8  C   UNL     1     169.621 159.733 169.684  1.00  0.00     0.036 C 
ATOM      9  C   UNL     1     167.074 157.054 170.632  1.00  0.00     0.015 C 
ATOM     10  C   UNL     1     169.881 156.799 172.199  1.00  0.00     0.012 C 
ENDROOT
BRANCH   7  11
ATOM     11  O   UNL     1     167.804 159.007 168.221  1.00  0.00    -0.393 OA
ATOM     12  H   UNL     1     168.435 158.373 167.788  1.00  0.00     0.210 HD
ENDBRANCH   7  11
TORSDOF 1
ENDMDL
