MODEL 1
REMARK VINA RESULT:    -6.060      0.000      0.000
REMARK INTER + INTRA:         -20.734
REMARK INTER:                 -15.981
REMARK INTRA:                  -4.754
REMARK UNBOUND:                -4.754
REMARK SMILES CCCCCCCCCCCCCCCCCCCCCCCCCCCCCC(=O)[O-]
REMARK SMILES IDX 16 1 17 2 18 3 19 4 20 5 21 6 22 7 23 8 24 9 25 10 26 11
REMARK SMILES IDX 27 12 28 13 29 14 30 15 31 16 32 17 15 18 14 19 13 20 12 21
REMARK SMILES IDX 11 22 10 23 9 24 8 25 7 26 6 27 5 28 4 29 3 30 2 31 1 32
REMARK H PARENT
REMARK Flexibility Score: inf
ROOT
ATOM      1  C   UNL     1      66.882   5.256  20.597  1.00  0.00     0.000 C 
ENDROOT
BRANCH   1   2
ATOM      2  C   UNL     1      67.343   6.537  21.315  1.00  0.00     0.000 C 
BRANCH   2   3
ATOM      3  C   UNL     1      66.419   7.736  21.046  1.00  0.00     0.000 C 
BRANCH   3   4
ATOM      4  C   UNL     1      66.879   8.580  19.846  1.00  0.00     0.000 C 
BRANCH   4   5
ATOM      5  C   UNL     1      65.701   9.227  19.096  1.00  0.00     0.000 C 
BRANCH   5   6
ATOM      6  C   UNL     1      64.364   9.058  19.837  1.00  0.00     0.000 C 
BRANCH   6   7
ATOM      7  C   UNL     1      63.500  10.329  19.803  1.00  0.00     0.000 C 
BRANCH   7   8
ATOM      8  C   UNL     1      62.485  10.331  20.952  1.00  0.00     0.000 C 
BRANCH   8   9
ATOM      9  C   UNL     1      63.007  11.125  22.156  1.00  0.00     0.000 C 
BRANCH   9  10
ATOM     10  C   UNL     1      63.785  12.368  21.697  1.00  0.00     0.000 C 
BRANCH  10  11
ATOM     11  C   UNL     1      65.157  12.501  22.381  1.00  0.00     0.000 C 
BRANCH  11  12
ATOM     12  C   UNL     1      65.946  11.183  22.526  1.00  0.00     0.000 C 
BRANCH  12  13
ATOM     13  C   UNL     1      67.423  11.256  22.099  1.00  0.00     0.006 C 
BRANCH  13  14
ATOM     14  C   UNL     1      68.343  10.409  22.988  1.00  0.00     0.053 C 
BRANCH  14  15
ATOM     15  C   UNL     1      69.778  10.612  22.610  1.00  0.00     0.041 C 
ATOM     16  O   UNL     1      70.478   9.639  22.222  1.00  0.00    -0.550 OA
ATOM     17  O   UNL     1      70.346  11.879  22.692  1.00  0.00    -0.550 OA
ENDBRANCH  14  15
ENDBRANCH  13  14
ENDBRANCH  12  13
ENDBRANCH  11  12
ENDBRANCH  10  11
ENDBRANCH   9  10
ENDBRANCH   8   9
ENDBRANCH   7   8
ENDBRANCH   6   7
ENDBRANCH   5   6
ENDBRANCH   4   5
ENDBRANCH   3   4
ENDBRANCH   2   3
ENDBRANCH   1   2
BRANCH   1  18
ATOM     18  C   UNL     1      65.377   5.195  20.270  1.00  0.00     0.000 C 
BRANCH  18  19
ATOM     19  C   UNL     1      65.034   4.666  18.864  1.00  0.00     0.000 C 
BRANCH  19  20
ATOM     20  C   UNL     1      65.217   3.148  18.681  1.00  0.00     0.000 C 
BRANCH  20  21
ATOM     21  C   UNL     1      64.534   2.303  19.778  1.00  0.00     0.000 C 
BRANCH  21  22
ATOM     22  C   UNL     1      63.493   1.328  19.207  1.00  0.00     0.000 C 
BRANCH  22  23
ATOM     23  C   UNL     1      62.149   1.473  19.930  1.00  0.00     0.000 C 
BRANCH  23  24
ATOM     24  C   UNL     1      61.428   2.760  19.500  1.00  0.00    -0.000 C 
BRANCH  24  25
ATOM     25  C   UNL     1      60.910   3.578  20.703  1.00  0.00    -0.000 C 
BRANCH  25  26
ATOM     26  C   UNL     1      61.569   3.195  22.042  1.00  0.00    -0.000 C 
BRANCH  26  27
ATOM     27  C   UNL     1      62.628   4.190  22.552  1.00  0.00    -0.000 C 
BRANCH  27  28
ATOM     28  C   UNL     1      63.858   3.549  23.229  1.00  0.00    -0.000 C 
BRANCH  28  29
ATOM     29  C   UNL     1      64.940   4.541  23.689  1.00  0.00    -0.000 C 
BRANCH  29  30
ATOM     30  C   UNL     1      66.274   3.858  24.026  1.00  0.00    -0.000 C 
BRANCH  30  31
ATOM     31  C   UNL     1      67.108   4.722  24.979  1.00  0.00    -0.003 C 
ATOM     32  C   UNL     1      68.548   4.848  24.491  1.00  0.00     0.004 C 
ENDBRANCH  30  31
ENDBRANCH  29  30
ENDBRANCH  28  29
ENDBRANCH  27  28
ENDBRANCH  26  27
ENDBRANCH  25  26
ENDBRANCH  24  25
ENDBRANCH  23  24
ENDBRANCH  22  23
ENDBRANCH  21  22
ENDBRANCH  20  21
ENDBRANCH  19  20
ENDBRANCH  18  19
ENDBRANCH   1  18
TORSDOF 28
ENDMDL
MODEL 2
REMARK VINA RESULT:    -6.060      2.451      6.957
REMARK INTER + INTRA:         -20.734
REMARK INTER:                 -16.081
REMARK INTRA:                  -4.653
REMARK UNBOUND:                -4.754
REMARK SMILES CCCCCCCCCCCCCCCCCCCCCCCCCCCCCC(=O)[O-]
REMARK SMILES IDX 16 1 17 2 18 3 19 4 20 5 21 6 22 7 23 8 24 9 25 10 26 11
REMARK SMILES IDX 27 12 28 13 29 14 30 15 31 16 32 17 15 18 14 19 13 20 12 21
REMARK SMILES IDX 11 22 10 23 9 24 8 25 7 26 6 27 5 28 4 29 3 30 2 31 1 32
REMARK H PARENT
REMARK Flexibility Score: inf
ROOT
ATOM      1  C   UNL     1      63.403   3.985  22.726  1.00  0.00     0.000 C 
ENDROOT
BRANCH   1   2
ATOM      2  C   UNL     1      62.095   4.335  21.994  1.00  0.00     0.000 C 
BRANCH   2   3
ATOM      3  C   UNL     1      61.397   3.101  21.397  1.00  0.00     0.000 C 
BRANCH   3   4
ATOM      4  C   UNL     1      61.842   2.809  19.955  1.00  0.00     0.000 C 
BRANCH   4   5
ATOM      5  C   UNL     1      62.492   1.423  19.809  1.00  0.00     0.000 C 
BRANCH   5   6
ATOM      6  C   UNL     1      63.846   1.478  19.082  1.00  0.00     0.000 C 
BRANCH   6   7
ATOM      7  C   UNL     1      64.862   2.391  19.785  1.00  0.00     0.000 C 
BRANCH   7   8
ATOM      8  C   UNL     1      65.649   3.221  18.764  1.00  0.00     0.000 C 
BRANCH   8   9
ATOM      9  C   UNL     1      64.979   4.577  18.513  1.00  0.00     0.000 C 
BRANCH   9  10
ATOM     10  C   UNL     1      64.978   5.433  19.789  1.00  0.00     0.000 C 
BRANCH  10  11
ATOM     11  C   UNL     1      66.296   5.332  20.578  1.00  0.00     0.000 C 
BRANCH  11  12
ATOM     12  C   UNL     1      66.760   6.643  21.245  1.00  0.00     0.000 C 
BRANCH  12  13
ATOM     13  C   UNL     1      66.633   7.902  20.370  1.00  0.00     0.006 C 
BRANCH  13  14
ATOM     14  C   UNL     1      67.161   9.166  21.062  1.00  0.00     0.053 C 
BRANCH  14  15
ATOM     15  C   UNL     1      66.050  10.137  21.310  1.00  0.00     0.041 C 
ATOM     16  O   UNL     1      66.074  10.888  22.322  1.00  0.00    -0.550 OA
ATOM     17  O   UNL     1      64.979  10.210  20.425  1.00  0.00    -0.550 OA
ENDBRANCH  14  15
ENDBRANCH  13  14
ENDBRANCH  12  13
ENDBRANCH  11  12
ENDBRANCH  10  11
ENDBRANCH   9  10
ENDBRANCH   8   9
ENDBRANCH   7   8
ENDBRANCH   6   7
ENDBRANCH   5   6
ENDBRANCH   4   5
ENDBRANCH   3   4
ENDBRANCH   2   3
ENDBRANCH   1   2
BRANCH   1  18
ATOM     18  C   UNL     1      63.449   2.572  23.342  1.00  0.00     0.000 C 
BRANCH  18  19
ATOM     19  C   UNL     1      64.798   1.840  23.200  1.00  0.00     0.000 C 
BRANCH  19  20
ATOM     20  C   UNL     1      66.040   2.725  23.414  1.00  0.00     0.000 C 
BRANCH  20  21
ATOM     21  C   UNL     1      66.194   3.240  24.861  1.00  0.00     0.000 C 
BRANCH  21  22
ATOM     22  C   UNL     1      66.637   4.710  24.918  1.00  0.00     0.000 C 
BRANCH  22  23
ATOM     23  C   UNL     1      67.736   4.912  25.968  1.00  0.00     0.000 C 
BRANCH  23  24
ATOM     24  C   UNL     1      69.111   5.076  25.302  1.00  0.00    -0.000 C 
BRANCH  24  25
ATOM     25  C   UNL     1      69.027   5.063  23.761  1.00  0.00    -0.000 C 
BRANCH  25  26
ATOM     26  C   UNL     1      70.190   5.804  23.071  1.00  0.00    -0.000 C 
BRANCH  26  27
ATOM     27  C   UNL     1      69.988   7.322  22.912  1.00  0.00    -0.000 C 
BRANCH  27  28
ATOM     28  C   UNL     1      70.681   7.950  21.684  1.00  0.00    -0.000 C 
BRANCH  28  29
ATOM     29  C   UNL     1      70.290   7.335  20.329  1.00  0.00    -0.000 C 
BRANCH  29  30
ATOM     30  C   UNL     1      71.495   7.107  19.405  1.00  0.00    -0.000 C 
BRANCH  30  31
ATOM     31  C   UNL     1      72.778   7.670  20.028  1.00  0.00    -0.003 C 
ATOM     32  C   UNL     1      73.831   6.579  20.201  1.00  0.00     0.004 C 
ENDBRANCH  30  31
ENDBRANCH  29  30
ENDBRANCH  28  29
ENDBRANCH  27  28
ENDBRANCH  26  27
ENDBRANCH  25  26
ENDBRANCH  24  25
ENDBRANCH  23  24
ENDBRANCH  22  23
ENDBRANCH  21  22
ENDBRANCH  20  21
ENDBRANCH  19  20
ENDBRANCH  18  19
ENDBRANCH   1  18
TORSDOF 28
ENDMDL
MODEL 3
REMARK VINA RESULT:    -5.998      2.697      6.323
REMARK INTER + INTRA:         -20.570
REMARK INTER:                 -16.925
REMARK INTRA:                  -3.645
REMARK UNBOUND:                -4.754
REMARK SMILES CCCCCCCCCCCCCCCCCCCCCCCCCCCCCC(=O)[O-]
REMARK SMILES IDX 16 1 17 2 18 3 19 4 20 5 21 6 22 7 23 8 24 9 25 10 26 11
REMARK SMILES IDX 27 12 28 13 29 14 30 15 31 16 32 17 15 18 14 19 13 20 12 21
REMARK SMILES IDX 11 22 10 23 9 24 8 25 7 26 6 27 5 28 4 29 3 30 2 31 1 32
REMARK H PARENT
REMARK Flexibility Score: inf
ROOT
ATOM      1  C   UNL     1      60.881   3.584  20.800  1.00  0.00     0.000 C 
ENDROOT
BRANCH   1   2
ATOM      2  C   UNL     1      61.361   2.851  19.536  1.00  0.00     0.000 C 
BRANCH   2   3
ATOM      3  C   UNL     1      61.743   1.385  19.804  1.00  0.00     0.000 C 
BRANCH   3   4
ATOM      4  C   UNL     1      63.116   1.015  19.220  1.00  0.00     0.000 C 
BRANCH   4   5
ATOM      5  C   UNL     1      64.263   1.817  19.859  1.00  0.00     0.000 C 
BRANCH   5   6
ATOM      6  C   UNL     1      64.993   2.715  18.847  1.00  0.00     0.000 C 
BRANCH   6   7
ATOM      7  C   UNL     1      64.771   4.213  19.111  1.00  0.00     0.000 C 
BRANCH   7   8
ATOM      8  C   UNL     1      65.908   4.794  19.960  1.00  0.00     0.000 C 
BRANCH   8   9
ATOM      9  C   UNL     1      65.638   6.258  20.325  1.00  0.00     0.000 C 
BRANCH   9  10
ATOM     10  C   UNL     1      66.871   6.895  20.984  1.00  0.00     0.000 C 
BRANCH  10  11
ATOM     11  C   UNL     1      67.059   8.373  20.598  1.00  0.00     0.000 C 
BRANCH  11  12
ATOM     12  C   UNL     1      66.144   8.874  19.463  1.00  0.00     0.000 C 
BRANCH  12  13
ATOM     13  C   UNL     1      65.921  10.397  19.426  1.00  0.00     0.006 C 
BRANCH  13  14
ATOM     14  C   UNL     1      65.934  11.035  20.821  1.00  0.00     0.053 C 
BRANCH  14  15
ATOM     15  C   UNL     1      66.522  12.411  20.768  1.00  0.00     0.041 C 
ATOM     16  O   UNL     1      66.699  13.069  21.828  1.00  0.00    -0.550 OA
ATOM     17  O   UNL     1      66.871  12.972  19.543  1.00  0.00    -0.550 OA
ENDBRANCH  14  15
ENDBRANCH  13  14
ENDBRANCH  12  13
ENDBRANCH  11  12
ENDBRANCH  10  11
ENDBRANCH   9  10
ENDBRANCH   8   9
ENDBRANCH   7   8
ENDBRANCH   6   7
ENDBRANCH   5   6
ENDBRANCH   4   5
ENDBRANCH   3   4
ENDBRANCH   2   3
ENDBRANCH   1   2
BRANCH   1  18
ATOM     18  C   UNL     1      60.979   2.768  22.106  1.00  0.00     0.000 C 
BRANCH  18  19
ATOM     19  C   UNL     1      62.020   3.280  23.120  1.00  0.00     0.000 C 
BRANCH  19  20
ATOM     20  C   UNL     1      63.084   4.226  22.534  1.00  0.00     0.000 C 
BRANCH  20  21
ATOM     21  C   UNL     1      64.458   4.123  23.229  1.00  0.00     0.000 C 
BRANCH  21  22
ATOM     22  C   UNL     1      65.103   2.739  23.054  1.00  0.00     0.000 C 
BRANCH  22  23
ATOM     23  C   UNL     1      66.425   2.648  23.826  1.00  0.00     0.000 C 
BRANCH  23  24
ATOM     24  C   UNL     1      67.484   3.580  23.217  1.00  0.00    -0.000 C 
BRANCH  24  25
ATOM     25  C   UNL     1      68.028   4.604  24.237  1.00  0.00    -0.000 C 
BRANCH  25  26
ATOM     26  C   UNL     1      69.439   5.125  23.899  1.00  0.00    -0.000 C 
BRANCH  26  27
ATOM     27  C   UNL     1      70.361   4.101  23.211  1.00  0.00    -0.000 C 
BRANCH  27  28
ATOM     28  C   UNL     1      70.697   4.409  21.737  1.00  0.00    -0.000 C 
BRANCH  28  29
ATOM     29  C   UNL     1      72.164   4.171  21.339  1.00  0.00    -0.000 C 
BRANCH  29  30
ATOM     30  C   UNL     1      72.817   3.022  22.120  1.00  0.00    -0.000 C 
BRANCH  30  31
ATOM     31  C   UNL     1      74.169   2.640  21.506  1.00  0.00    -0.003 C 
ATOM     32  C   UNL     1      73.988   1.966  20.150  1.00  0.00     0.004 C 
ENDBRANCH  30  31
ENDBRANCH  29  30
ENDBRANCH  28  29
ENDBRANCH  27  28
ENDBRANCH  26  27
ENDBRANCH  25  26
ENDBRANCH  24  25
ENDBRANCH  23  24
ENDBRANCH  22  23
ENDBRANCH  21  22
ENDBRANCH  20  21
ENDBRANCH  19  20
ENDBRANCH  18  19
ENDBRANCH   1  18
TORSDOF 28
ENDMDL
MODEL 4
REMARK VINA RESULT:    -5.993      2.607      5.860
REMARK INTER + INTRA:         -20.557
REMARK INTER:                 -15.744
REMARK INTRA:                  -4.814
REMARK UNBOUND:                -4.754
REMARK SMILES CCCCCCCCCCCCCCCCCCCCCCCCCCCCCC(=O)[O-]
REMARK SMILES IDX 16 1 17 2 18 3 19 4 20 5 21 6 22 7 23 8 24 9 25 10 26 11
REMARK SMILES IDX 27 12 28 13 29 14 30 15 31 16 32 17 15 18 14 19 13 20 12 21
REMARK SMILES IDX 11 22 10 23 9 24 8 25 7 26 6 27 5 28 4 29 3 30 2 31 1 32
REMARK H PARENT
REMARK Flexibility Score: inf
ROOT
ATOM      1  C   UNL     1      61.776   2.059  19.788  1.00  0.00     0.000 C 
ENDROOT
BRANCH   1   2
ATOM      2  C   UNL     1      63.284   2.010  19.490  1.00  0.00     0.000 C 
BRANCH   2   3
ATOM      3  C   UNL     1      63.838   3.354  18.988  1.00  0.00     0.000 C 
BRANCH   3   4
ATOM      4  C   UNL     1      65.359   3.322  18.767  1.00  0.00     0.000 C 
BRANCH   4   5
ATOM      5  C   UNL     1      66.125   4.114  19.840  1.00  0.00     0.000 C 
BRANCH   5   6
ATOM      6  C   UNL     1      65.382   5.387  20.279  1.00  0.00     0.000 C 
BRANCH   6   7
ATOM      7  C   UNL     1      66.071   6.103  21.452  1.00  0.00     0.000 C 
BRANCH   7   8
ATOM      8  C   UNL     1      67.496   6.524  21.075  1.00  0.00     0.000 C 
BRANCH   8   9
ATOM      9  C   UNL     1      67.846   7.896  21.663  1.00  0.00     0.000 C 
BRANCH   9  10
ATOM     10  C   UNL     1      66.903   8.981  21.121  1.00  0.00     0.000 C 
BRANCH  10  11
ATOM     11  C   UNL     1      66.741   8.924  19.592  1.00  0.00     0.000 C 
BRANCH  11  12
ATOM     12  C   UNL     1      65.422   9.513  19.052  1.00  0.00     0.000 C 
BRANCH  12  13
ATOM     13  C   UNL     1      64.232   9.453  20.027  1.00  0.00     0.006 C 
BRANCH  13  14
ATOM     14  C   UNL     1      63.582  10.822  20.261  1.00  0.00     0.053 C 
BRANCH  14  15
ATOM     15  C   UNL     1      62.765  10.813  21.516  1.00  0.00     0.041 C 
ATOM     16  O   UNL     1      63.111  11.512  22.506  1.00  0.00    -0.550 OA
ATOM     17  O   UNL     1      61.621  10.025  21.596  1.00  0.00    -0.550 OA
ENDBRANCH  14  15
ENDBRANCH  13  14
ENDBRANCH  12  13
ENDBRANCH  11  12
ENDBRANCH  10  11
ENDBRANCH   9  10
ENDBRANCH   8   9
ENDBRANCH   7   8
ENDBRANCH   6   7
ENDBRANCH   5   6
ENDBRANCH   4   5
ENDBRANCH   3   4
ENDBRANCH   2   3
ENDBRANCH   1   2
BRANCH   1  18
ATOM     18  C   UNL     1      61.408   2.365  21.254  1.00  0.00     0.000 C 
BRANCH  18  19
ATOM     19  C   UNL     1      61.577   3.837  21.678  1.00  0.00     0.000 C 
BRANCH  19  20
ATOM     20  C   UNL     1      62.824   4.126  22.534  1.00  0.00     0.000 C 
BRANCH  20  21
ATOM     21  C   UNL     1      63.387   2.880  23.251  1.00  0.00     0.000 C 
BRANCH  21  22
ATOM     22  C   UNL     1      64.804   2.520  22.780  1.00  0.00     0.000 C 
BRANCH  22  23
ATOM     23  C   UNL     1      65.783   2.483  23.960  1.00  0.00     0.000 C 
BRANCH  23  24
ATOM     24  C   UNL     1      66.042   3.895  24.506  1.00  0.00    -0.000 C 
BRANCH  24  25
ATOM     25  C   UNL     1      67.510   4.338  24.328  1.00  0.00    -0.000 C 
BRANCH  25  26
ATOM     26  C   UNL     1      68.272   3.542  23.251  1.00  0.00    -0.000 C 
BRANCH  26  27
ATOM     27  C   UNL     1      69.734   3.975  23.036  1.00  0.00    -0.000 C 
BRANCH  27  28
ATOM     28  C   UNL     1      70.255   5.038  24.027  1.00  0.00    -0.000 C 
BRANCH  28  29
ATOM     29  C   UNL     1      70.534   6.421  23.413  1.00  0.00    -0.000 C 
BRANCH  29  30
ATOM     30  C   UNL     1      71.388   6.349  22.140  1.00  0.00    -0.000 C 
BRANCH  30  31
ATOM     31  C   UNL     1      71.531   7.733  21.495  1.00  0.00    -0.003 C 
ATOM     32  C   UNL     1      71.478   7.639  19.973  1.00  0.00     0.004 C 
ENDBRANCH  30  31
ENDBRANCH  29  30
ENDBRANCH  28  29
ENDBRANCH  27  28
ENDBRANCH  26  27
ENDBRANCH  25  26
ENDBRANCH  24  25
ENDBRANCH  23  24
ENDBRANCH  22  23
ENDBRANCH  21  22
ENDBRANCH  20  21
ENDBRANCH  19  20
ENDBRANCH  18  19
ENDBRANCH   1  18
TORSDOF 28
ENDMDL
MODEL 5
REMARK VINA RESULT:    -5.990      7.015     11.444
REMARK INTER + INTRA:         -20.549
REMARK INTER:                 -15.528
REMARK INTRA:                  -5.021
REMARK UNBOUND:                -4.754
REMARK SMILES CCCCCCCCCCCCCCCCCCCCCCCCCCCCCC(=O)[O-]
REMARK SMILES IDX 16 1 17 2 18 3 19 4 20 5 21 6 22 7 23 8 24 9 25 10 26 11
REMARK SMILES IDX 27 12 28 13 29 14 30 15 31 16 32 17 15 18 14 19 13 20 12 21
REMARK SMILES IDX 11 22 10 23 9 24 8 25 7 26 6 27 5 28 4 29 3 30 2 31 1 32
REMARK H PARENT
REMARK Flexibility Score: inf
ROOT
ATOM      1  C   UNL     1      75.678   7.558  23.527  1.00  0.00     0.000 C 
ENDROOT
BRANCH   1   2
ATOM      2  C   UNL     1      76.247   7.182  24.906  1.00  0.00     0.000 C 
BRANCH   2   3
ATOM      3  C   UNL     1      75.859   8.187  26.005  1.00  0.00     0.000 C 
BRANCH   3   4
ATOM      4  C   UNL     1      77.067   8.651  26.835  1.00  0.00     0.000 C 
BRANCH   4   5
ATOM      5  C   UNL     1      78.325   8.860  25.976  1.00  0.00     0.000 C 
BRANCH   5   6
ATOM      6  C   UNL     1      78.698  10.344  25.825  1.00  0.00     0.000 C 
BRANCH   6   7
ATOM      7  C   UNL     1      77.799  11.085  24.822  1.00  0.00     0.000 C 
BRANCH   7   8
ATOM      8  C   UNL     1      77.008  12.200  25.516  1.00  0.00     0.000 C 
BRANCH   8   9
ATOM      9  C   UNL     1      75.576  12.286  24.974  1.00  0.00     0.000 C 
BRANCH   9  10
ATOM     10  C   UNL     1      75.248  11.070  24.094  1.00  0.00     0.000 C 
BRANCH  10  11
ATOM     11  C   UNL     1      73.815  11.107  23.534  1.00  0.00     0.000 C 
BRANCH  11  12
ATOM     12  C   UNL     1      73.606  10.323  22.222  1.00  0.00     0.000 C 
BRANCH  12  13
ATOM     13  C   UNL     1      72.317  10.666  21.454  1.00  0.00     0.006 C 
BRANCH  13  14
ATOM     14  C   UNL     1      71.689  11.992  21.903  1.00  0.00     0.053 C 
BRANCH  14  15
ATOM     15  C   UNL     1      70.481  11.745  22.752  1.00  0.00     0.041 C 
ATOM     16  O   UNL     1      69.640  10.866  22.423  1.00  0.00    -0.550 OA
ATOM     17  O   UNL     1      70.278  12.493  23.908  1.00  0.00    -0.550 OA
ENDBRANCH  14  15
ENDBRANCH  13  14
ENDBRANCH  12  13
ENDBRANCH  11  12
ENDBRANCH  10  11
ENDBRANCH   9  10
ENDBRANCH   8   9
ENDBRANCH   7   8
ENDBRANCH   6   7
ENDBRANCH   5   6
ENDBRANCH   4   5
ENDBRANCH   3   4
ENDBRANCH   2   3
ENDBRANCH   1   2
BRANCH   1  18
ATOM     18  C   UNL     1      76.716   8.076  22.511  1.00  0.00     0.000 C 
BRANCH  18  19
ATOM     19  C   UNL     1      77.968   7.194  22.346  1.00  0.00     0.000 C 
BRANCH  19  20
ATOM     20  C   UNL     1      77.967   6.295  21.095  1.00  0.00     0.000 C 
BRANCH  20  21
ATOM     21  C   UNL     1      78.589   4.902  21.330  1.00  0.00     0.000 C 
BRANCH  21  22
ATOM     22  C   UNL     1      78.364   4.390  22.761  1.00  0.00     0.000 C 
BRANCH  22  23
ATOM     23  C   UNL     1      77.534   3.101  22.759  1.00  0.00     0.000 C 
BRANCH  23  24
ATOM     24  C   UNL     1      77.023   2.776  21.347  1.00  0.00    -0.000 C 
BRANCH  24  25
ATOM     25  C   UNL     1      75.504   2.505  21.315  1.00  0.00    -0.000 C 
BRANCH  25  26
ATOM     26  C   UNL     1      74.718   3.255  22.408  1.00  0.00    -0.000 C 
BRANCH  26  27
ATOM     27  C   UNL     1      74.380   4.720  22.074  1.00  0.00    -0.000 C 
BRANCH  27  28
ATOM     28  C   UNL     1      74.217   5.029  20.571  1.00  0.00    -0.000 C 
BRANCH  28  29
ATOM     29  C   UNL     1      74.327   6.517  20.195  1.00  0.00    -0.000 C 
BRANCH  29  30
ATOM     30  C   UNL     1      72.965   7.225  20.151  1.00  0.00    -0.000 C 
BRANCH  30  31
ATOM     31  C   UNL     1      71.824   6.212  20.003  1.00  0.00    -0.003 C 
ATOM     32  C   UNL     1      70.801   6.367  21.125  1.00  0.00     0.004 C 
ENDBRANCH  30  31
ENDBRANCH  29  30
ENDBRANCH  28  29
ENDBRANCH  27  28
ENDBRANCH  26  27
ENDBRANCH  25  26
ENDBRANCH  24  25
ENDBRANCH  23  24
ENDBRANCH  22  23
ENDBRANCH  21  22
ENDBRANCH  20  21
ENDBRANCH  19  20
ENDBRANCH  18  19
ENDBRANCH   1  18
TORSDOF 28
ENDMDL
MODEL 6
REMARK VINA RESULT:    -5.961      7.821     12.413
REMARK INTER + INTRA:         -20.471
REMARK INTER:                 -15.755
REMARK INTRA:                  -4.717
REMARK UNBOUND:                -4.754
REMARK SMILES CCCCCCCCCCCCCCCCCCCCCCCCCCCCCC(=O)[O-]
REMARK SMILES IDX 16 1 17 2 18 3 19 4 20 5 21 6 22 7 23 8 24 9 25 10 26 11
REMARK SMILES IDX 27 12 28 13 29 14 30 15 31 16 32 17 15 18 14 19 13 20 12 21
REMARK SMILES IDX 11 22 10 23 9 24 8 25 7 26 6 27 5 28 4 29 3 30 2 31 1 32
REMARK H PARENT
REMARK Flexibility Score: inf
ROOT
ATOM      1  C   UNL     1      78.146  10.518  25.290  1.00  0.00     0.000 C 
ENDROOT
BRANCH   1   2
ATOM      2  C   UNL     1      77.972   9.633  26.536  1.00  0.00     0.000 C 
BRANCH   2   3
ATOM      3  C   UNL     1      76.723   8.738  26.462  1.00  0.00     0.000 C 
BRANCH   3   4
ATOM      4  C   UNL     1      76.915   7.529  25.531  1.00  0.00     0.000 C 
BRANCH   4   5
ATOM      5  C   UNL     1      75.947   7.549  24.336  1.00  0.00     0.000 C 
BRANCH   5   6
ATOM      6  C   UNL     1      76.540   8.256  23.106  1.00  0.00     0.000 C 
BRANCH   6   7
ATOM      7  C   UNL     1      76.190   7.550  21.787  1.00  0.00     0.000 C 
BRANCH   7   8
ATOM      8  C   UNL     1      74.843   6.826  21.894  1.00  0.00     0.000 C 
BRANCH   8   9
ATOM      9  C   UNL     1      74.400   6.271  20.535  1.00  0.00     0.000 C 
BRANCH   9  10
ATOM     10  C   UNL     1      73.225   7.082  19.968  1.00  0.00     0.000 C 
BRANCH  10  11
ATOM     11  C   UNL     1      72.215   7.507  21.048  1.00  0.00     0.000 C 
BRANCH  11  12
ATOM     12  C   UNL     1      71.770   8.982  20.983  1.00  0.00     0.000 C 
BRANCH  12  13
ATOM     13  C   UNL     1      72.146   9.832  22.210  1.00  0.00     0.006 C 
BRANCH  13  14
ATOM     14  C   UNL     1      73.585  10.362  22.150  1.00  0.00     0.053 C 
BRANCH  14  15
ATOM     15  C   UNL     1      73.874  11.242  23.326  1.00  0.00     0.041 C 
ATOM     16  O   UNL     1      74.350  10.753  24.385  1.00  0.00    -0.550 OA
ATOM     17  O   UNL     1      73.610  12.607  23.256  1.00  0.00    -0.550 OA
ENDBRANCH  14  15
ENDBRANCH  13  14
ENDBRANCH  12  13
ENDBRANCH  11  12
ENDBRANCH  10  11
ENDBRANCH   9  10
ENDBRANCH   8   9
ENDBRANCH   7   8
ENDBRANCH   6   7
ENDBRANCH   5   6
ENDBRANCH   4   5
ENDBRANCH   3   4
ENDBRANCH   2   3
ENDBRANCH   1   2
BRANCH   1  18
ATOM     18  C   UNL     1      79.375  10.188  24.419  1.00  0.00     0.000 C 
BRANCH  18  19
ATOM     19  C   UNL     1      80.551   9.532  25.168  1.00  0.00     0.000 C 
BRANCH  19  20
ATOM     20  C   UNL     1      80.640   8.002  25.018  1.00  0.00     0.000 C 
BRANCH  20  21
ATOM     21  C   UNL     1      80.300   7.495  23.600  1.00  0.00     0.000 C 
BRANCH  21  22
ATOM     22  C   UNL     1      79.584   6.136  23.617  1.00  0.00     0.000 C 
BRANCH  22  23
ATOM     23  C   UNL     1      80.240   5.158  22.635  1.00  0.00     0.000 C 
BRANCH  23  24
ATOM     24  C   UNL     1      79.526   5.179  21.276  1.00  0.00    -0.000 C 
BRANCH  24  25
ATOM     25  C   UNL     1      78.069   4.674  21.364  1.00  0.00    -0.000 C 
BRANCH  25  26
ATOM     26  C   UNL     1      77.951   3.192  21.769  1.00  0.00    -0.000 C 
BRANCH  26  27
ATOM     27  C   UNL     1      76.648   2.501  21.326  1.00  0.00    -0.000 C 
BRANCH  27  28
ATOM     28  C   UNL     1      75.349   3.168  21.827  1.00  0.00    -0.000 C 
BRANCH  28  29
ATOM     29  C   UNL     1      74.048   2.557  21.276  1.00  0.00    -0.000 C 
BRANCH  29  30
ATOM     30  C   UNL     1      72.860   2.717  22.235  1.00  0.00    -0.000 C 
BRANCH  30  31
ATOM     31  C   UNL     1      71.806   3.665  21.651  1.00  0.00    -0.003 C 
ATOM     32  C   UNL     1      71.024   4.368  22.756  1.00  0.00     0.004 C 
ENDBRANCH  30  31
ENDBRANCH  29  30
ENDBRANCH  28  29
ENDBRANCH  27  28
ENDBRANCH  26  27
ENDBRANCH  25  26
ENDBRANCH  24  25
ENDBRANCH  23  24
ENDBRANCH  22  23
ENDBRANCH  21  22
ENDBRANCH  20  21
ENDBRANCH  19  20
ENDBRANCH  18  19
ENDBRANCH   1  18
TORSDOF 28
ENDMDL
MODEL 7
REMARK VINA RESULT:    -5.914      2.107      6.460
REMARK INTER + INTRA:         -20.349
REMARK INTER:                 -15.788
REMARK INTRA:                  -4.561
REMARK UNBOUND:                -4.754
REMARK SMILES CCCCCCCCCCCCCCCCCCCCCCCCCCCCCC(=O)[O-]
REMARK SMILES IDX 16 1 17 2 18 3 19 4 20 5 21 6 22 7 23 8 24 9 25 10 26 11
REMARK SMILES IDX 27 12 28 13 29 14 30 15 31 16 32 17 15 18 14 19 13 20 12 21
REMARK SMILES IDX 11 22 10 23 9 24 8 25 7 26 6 27 5 28 4 29 3 30 2 31 1 32
REMARK H PARENT
REMARK Flexibility Score: inf
ROOT
ATOM      1  C   UNL     1      61.769   3.198  23.161  1.00  0.00     0.000 C 
ENDROOT
BRANCH   1   2
ATOM      2  C   UNL     1      60.876   2.511  22.113  1.00  0.00     0.000 C 
BRANCH   2   3
ATOM      3  C   UNL     1      61.097   3.058  20.692  1.00  0.00     0.000 C 
BRANCH   3   4
ATOM      4  C   UNL     1      62.140   2.251  19.902  1.00  0.00     0.000 C 
BRANCH   4   5
ATOM      5  C   UNL     1      63.225   3.145  19.278  1.00  0.00     0.000 C 
BRANCH   5   6
ATOM      6  C   UNL     1      64.585   2.435  19.169  1.00  0.00     0.000 C 
BRANCH   6   7
ATOM      7  C   UNL     1      65.739   3.403  18.862  1.00  0.00     0.000 C 
BRANCH   7   8
ATOM      8  C   UNL     1      65.520   4.753  19.555  1.00  0.00     0.000 C 
BRANCH   8   9
ATOM      9  C   UNL     1      66.589   5.011  20.623  1.00  0.00     0.000 C 
BRANCH   9  10
ATOM     10  C   UNL     1      66.670   6.505  20.968  1.00  0.00     0.000 C 
BRANCH  10  11
ATOM     11  C   UNL     1      65.980   7.399  19.923  1.00  0.00     0.000 C 
BRANCH  11  12
ATOM     12  C   UNL     1      66.512   8.845  19.846  1.00  0.00     0.000 C 
BRANCH  12  13
ATOM     13  C   UNL     1      65.615   9.831  19.076  1.00  0.00     0.006 C 
BRANCH  13  14
ATOM     14  C   UNL     1      65.180  11.032  19.926  1.00  0.00     0.053 C 
BRANCH  14  15
ATOM     15  C   UNL     1      66.270  12.056  19.991  1.00  0.00     0.041 C 
ATOM     16  O   UNL     1      66.951  12.196  21.042  1.00  0.00    -0.550 OA
ATOM     17  O   UNL     1      66.531  12.866  18.889  1.00  0.00    -0.550 OA
ENDBRANCH  14  15
ENDBRANCH  13  14
ENDBRANCH  12  13
ENDBRANCH  11  12
ENDBRANCH  10  11
ENDBRANCH   9  10
ENDBRANCH   8   9
ENDBRANCH   7   8
ENDBRANCH   6   7
ENDBRANCH   5   6
ENDBRANCH   4   5
ENDBRANCH   3   4
ENDBRANCH   2   3
ENDBRANCH   1   2
BRANCH   1  18
ATOM     18  C   UNL     1      62.630   4.360  22.627  1.00  0.00     0.000 C 
BRANCH  18  19
ATOM     19  C   UNL     1      64.125   4.289  22.994  1.00  0.00     0.000 C 
BRANCH  19  20
ATOM     20  C   UNL     1      64.750   2.885  22.895  1.00  0.00     0.000 C 
BRANCH  20  21
ATOM     21  C   UNL     1      66.155   2.784  23.527  1.00  0.00     0.000 C 
BRANCH  21  22
ATOM     22  C   UNL     1      66.345   3.761  24.697  1.00  0.00     0.000 C 
BRANCH  22  23
ATOM     23  C   UNL     1      67.616   4.598  24.514  1.00  0.00     0.000 C 
BRANCH  23  24
ATOM     24  C   UNL     1      68.588   3.918  23.538  1.00  0.00    -0.000 C 
BRANCH  24  25
ATOM     25  C   UNL     1      69.978   4.589  23.522  1.00  0.00    -0.000 C 
BRANCH  25  26
ATOM     26  C   UNL     1      71.032   3.813  22.709  1.00  0.00    -0.000 C 
BRANCH  26  27
ATOM     27  C   UNL     1      71.209   4.290  21.255  1.00  0.00    -0.000 C 
BRANCH  27  28
ATOM     28  C   UNL     1      70.271   5.436  20.822  1.00  0.00    -0.000 C 
BRANCH  28  29
ATOM     29  C   UNL     1      70.971   6.773  20.522  1.00  0.00    -0.000 C 
BRANCH  29  30
ATOM     30  C   UNL     1      70.053   7.988  20.722  1.00  0.00    -0.000 C 
BRANCH  30  31
ATOM     31  C   UNL     1      70.079   8.461  22.180  1.00  0.00    -0.003 C 
ATOM     32  C   UNL     1      68.841   9.288  22.512  1.00  0.00     0.004 C 
ENDBRANCH  30  31
ENDBRANCH  29  30
ENDBRANCH  28  29
ENDBRANCH  27  28
ENDBRANCH  26  27
ENDBRANCH  25  26
ENDBRANCH  24  25
ENDBRANCH  23  24
ENDBRANCH  22  23
ENDBRANCH  21  22
ENDBRANCH  20  21
ENDBRANCH  19  20
ENDBRANCH  18  19
ENDBRANCH   1  18
TORSDOF 28
ENDMDL
MODEL 8
REMARK VINA RESULT:    -5.906      2.062      6.255
REMARK INTER + INTRA:         -20.327
REMARK INTER:                 -16.377
REMARK INTRA:                  -3.950
REMARK UNBOUND:                -4.754
REMARK SMILES CCCCCCCCCCCCCCCCCCCCCCCCCCCCCC(=O)[O-]
REMARK SMILES IDX 16 1 17 2 18 3 19 4 20 5 21 6 22 7 23 8 24 9 25 10 26 11
REMARK SMILES IDX 27 12 28 13 29 14 30 15 31 16 32 17 15 18 14 19 13 20 12 21
REMARK SMILES IDX 11 22 10 23 9 24 8 25 7 26 6 27 5 28 4 29 3 30 2 31 1 32
REMARK H PARENT
REMARK Flexibility Score: inf
ROOT
ATOM      1  C   UNL     1      60.875   3.634  20.782  1.00  0.00     0.000 C 
ENDROOT
BRANCH   1   2
ATOM      2  C   UNL     1      61.341   2.876  19.528  1.00  0.00     0.000 C 
BRANCH   2   3
ATOM      3  C   UNL     1      61.715   1.413  19.820  1.00  0.00     0.000 C 
BRANCH   3   4
ATOM      4  C   UNL     1      63.076   1.019  19.223  1.00  0.00     0.000 C 
BRANCH   4   5
ATOM      5  C   UNL     1      64.240   1.816  19.839  1.00  0.00     0.000 C 
BRANCH   5   6
ATOM      6  C   UNL     1      65.029   2.616  18.790  1.00  0.00     0.000 C 
BRANCH   6   7
ATOM      7  C   UNL     1      64.784   4.130  18.889  1.00  0.00     0.000 C 
BRANCH   7   8
ATOM      8  C   UNL     1      65.779   4.784  19.855  1.00  0.00     0.000 C 
BRANCH   8   9
ATOM      9  C   UNL     1      65.474   6.274  20.045  1.00  0.00     0.000 C 
BRANCH   9  10
ATOM     10  C   UNL     1      66.489   6.924  20.998  1.00  0.00     0.000 C 
BRANCH  10  11
ATOM     11  C   UNL     1      66.788   8.391  20.643  1.00  0.00     0.000 C 
BRANCH  11  12
ATOM     12  C   UNL     1      66.140   8.893  19.336  1.00  0.00     0.000 C 
BRANCH  12  13
ATOM     13  C   UNL     1      66.153  10.420  19.145  1.00  0.00     0.006 C 
BRANCH  13  14
ATOM     14  C   UNL     1      65.722  11.183  20.405  1.00  0.00     0.053 C 
BRANCH  14  15
ATOM     15  C   UNL     1      66.643  12.335  20.666  1.00  0.00     0.041 C 
ATOM     16  O   UNL     1      66.512  13.413  20.027  1.00  0.00    -0.550 OA
ATOM     17  O   UNL     1      67.654  12.215  21.615  1.00  0.00    -0.550 OA
ENDBRANCH  14  15
ENDBRANCH  13  14
ENDBRANCH  12  13
ENDBRANCH  11  12
ENDBRANCH  10  11
ENDBRANCH   9  10
ENDBRANCH   8   9
ENDBRANCH   7   8
ENDBRANCH   6   7
ENDBRANCH   5   6
ENDBRANCH   4   5
ENDBRANCH   3   4
ENDBRANCH   2   3
ENDBRANCH   1   2
BRANCH   1  18
ATOM     18  C   UNL     1      61.033   2.863  22.109  1.00  0.00     0.000 C 
BRANCH  18  19
ATOM     19  C   UNL     1      62.045   3.468  23.100  1.00  0.00     0.000 C 
BRANCH  19  20
ATOM     20  C   UNL     1      63.134   4.347  22.458  1.00  0.00     0.000 C 
BRANCH  20  21
ATOM     21  C   UNL     1      64.488   4.300  23.199  1.00  0.00     0.000 C 
BRANCH  21  22
ATOM     22  C   UNL     1      65.110   2.895  23.199  1.00  0.00     0.000 C 
BRANCH  22  23
ATOM     23  C   UNL     1      66.366   2.850  24.078  1.00  0.00     0.000 C 
BRANCH  23  24
ATOM     24  C   UNL     1      67.555   3.521  23.374  1.00  0.00    -0.000 C 
BRANCH  24  25
ATOM     25  C   UNL     1      68.146   4.688  24.194  1.00  0.00    -0.000 C 
BRANCH  25  26
ATOM     26  C   UNL     1      69.682   4.788  24.112  1.00  0.00    -0.000 C 
BRANCH  26  27
ATOM     27  C   UNL     1      70.239   6.223  24.089  1.00  0.00    -0.000 C 
BRANCH  27  28
ATOM     28  C   UNL     1      69.752   7.096  22.913  1.00  0.00    -0.000 C 
BRANCH  28  29
ATOM     29  C   UNL     1      70.870   7.700  22.044  1.00  0.00    -0.000 C 
BRANCH  29  30
ATOM     30  C   UNL     1      70.397   8.059  20.627  1.00  0.00    -0.000 C 
BRANCH  30  31
ATOM     31  C   UNL     1      71.034   7.132  19.585  1.00  0.00    -0.003 C 
ATOM     32  C   UNL     1      72.511   7.458  19.388  1.00  0.00     0.004 C 
ENDBRANCH  30  31
ENDBRANCH  29  30
ENDBRANCH  28  29
ENDBRANCH  27  28
ENDBRANCH  26  27
ENDBRANCH  25  26
ENDBRANCH  24  25
ENDBRANCH  23  24
ENDBRANCH  22  23
ENDBRANCH  21  22
ENDBRANCH  20  21
ENDBRANCH  19  20
ENDBRANCH  18  19
ENDBRANCH   1  18
TORSDOF 28
ENDMDL
MODEL 9
REMARK VINA RESULT:    -5.878      1.238      6.846
REMARK INTER + INTRA:         -20.254
REMARK INTER:                 -15.916
REMARK INTRA:                  -4.338
REMARK UNBOUND:                -4.754
REMARK SMILES CCCCCCCCCCCCCCCCCCCCCCCCCCCCCC(=O)[O-]
REMARK SMILES IDX 16 1 17 2 18 3 19 4 20 5 21 6 22 7 23 8 24 9 25 10 26 11
REMARK SMILES IDX 27 12 28 13 29 14 30 15 31 16 32 17 15 18 14 19 13 20 12 21
REMARK SMILES IDX 11 22 10 23 9 24 8 25 7 26 6 27 5 28 4 29 3 30 2 31 1 32
REMARK H PARENT
REMARK Flexibility Score: inf
ROOT
ATOM      1  C   UNL     1      63.991   3.259  18.945  1.00  0.00     0.000 C 
ENDROOT
BRANCH   1   2
ATOM      2  C   UNL     1      63.797   1.841  19.509  1.00  0.00     0.000 C 
BRANCH   2   3
ATOM      3  C   UNL     1      62.337   1.547  19.896  1.00  0.00     0.000 C 
BRANCH   3   4
ATOM      4  C   UNL     1      61.429   2.780  19.758  1.00  0.00     0.000 C 
BRANCH   4   5
ATOM      5  C   UNL     1      60.881   3.260  21.112  1.00  0.00     0.000 C 
BRANCH   5   6
ATOM      6  C   UNL     1      61.771   4.332  21.764  1.00  0.00     0.000 C 
BRANCH   6   7
ATOM      7  C   UNL     1      62.454   3.838  23.049  1.00  0.00     0.000 C 
BRANCH   7   8
ATOM      8  C   UNL     1      63.978   3.819  22.886  1.00  0.00     0.000 C 
BRANCH   8   9
ATOM      9  C   UNL     1      64.559   2.444  23.237  1.00  0.00     0.000 C 
BRANCH   9  10
ATOM     10  C   UNL     1      65.848   2.587  24.059  1.00  0.00     0.000 C 
BRANCH  10  11
ATOM     11  C   UNL     1      66.973   3.301  23.289  1.00  0.00     0.000 C 
BRANCH  11  12
ATOM     12  C   UNL     1      67.820   4.280  24.127  1.00  0.00     0.000 C 
BRANCH  12  13
ATOM     13  C   UNL     1      69.318   4.317  23.772  1.00  0.00     0.006 C 
BRANCH  13  14
ATOM     14  C   UNL     1      69.954   5.693  24.010  1.00  0.00     0.053 C 
BRANCH  14  15
ATOM     15  C   UNL     1      70.015   6.475  22.734  1.00  0.00     0.041 C 
ATOM     16  O   UNL     1      70.147   5.883  21.630  1.00  0.00    -0.550 OA
ATOM     17  O   UNL     1      69.933   7.864  22.766  1.00  0.00    -0.550 OA
ENDBRANCH  14  15
ENDBRANCH  13  14
ENDBRANCH  12  13
ENDBRANCH  11  12
ENDBRANCH  10  11
ENDBRANCH   9  10
ENDBRANCH   8   9
ENDBRANCH   7   8
ENDBRANCH   6   7
ENDBRANCH   5   6
ENDBRANCH   4   5
ENDBRANCH   3   4
ENDBRANCH   2   3
ENDBRANCH   1   2
BRANCH   1  18
ATOM     18  C   UNL     1      65.458   3.679  18.721  1.00  0.00     0.000 C 
BRANCH  18  19
ATOM     19  C   UNL     1      66.141   4.339  19.934  1.00  0.00     0.000 C 
BRANCH  19  20
ATOM     20  C   UNL     1      65.699   5.787  20.218  1.00  0.00     0.000 C 
BRANCH  20  21
ATOM     21  C   UNL     1      66.504   6.474  21.342  1.00  0.00     0.000 C 
BRANCH  21  22
ATOM     22  C   UNL     1      66.819   7.944  21.026  1.00  0.00     0.000 C 
BRANCH  22  23
ATOM     23  C   UNL     1      66.390   8.303  19.598  1.00  0.00     0.000 C 
BRANCH  23  24
ATOM     24  C   UNL     1      65.445   9.514  19.595  1.00  0.00    -0.000 C 
BRANCH  24  25
ATOM     25  C   UNL     1      64.116   9.230  20.328  1.00  0.00    -0.000 C 
BRANCH  25  26
ATOM     26  C   UNL     1      63.131  10.415  20.308  1.00  0.00    -0.000 C 
BRANCH  26  27
ATOM     27  C   UNL     1      63.113  11.266  21.591  1.00  0.00    -0.000 C 
BRANCH  27  28
ATOM     28  C   UNL     1      63.843  12.622  21.489  1.00  0.00    -0.000 C 
BRANCH  28  29
ATOM     29  C   UNL     1      65.103  12.751  22.363  1.00  0.00    -0.000 C 
BRANCH  29  30
ATOM     30  C   UNL     1      65.560  11.411  22.956  1.00  0.00    -0.000 C 
BRANCH  30  31
ATOM     31  C   UNL     1      66.871  11.573  23.735  1.00  0.00    -0.003 C 
ATOM     32  C   UNL     1      67.958  10.658  23.179  1.00  0.00     0.004 C 
ENDBRANCH  30  31
ENDBRANCH  29  30
ENDBRANCH  28  29
ENDBRANCH  27  28
ENDBRANCH  26  27
ENDBRANCH  25  26
ENDBRANCH  24  25
ENDBRANCH  23  24
ENDBRANCH  22  23
ENDBRANCH  21  22
ENDBRANCH  20  21
ENDBRANCH  19  20
ENDBRANCH  18  19
ENDBRANCH   1  18
TORSDOF 28
ENDMDL
