MODEL 1
REMARK VINA RESULT:    -7.270      0.000      0.000
REMARK INTER + INTRA:          -8.831
REMARK INTER:                  -8.545
REMARK INTRA:                  -0.286
REMARK UNBOUND:                -0.286
REMARK SMILES O=c1c(O)c(-c2ccc(O)cc2)oc2cc(O)cc(O)c12
REMARK SMILES IDX 5 1 3 2 2 3 1 4 21 5 19 6 18 7 16 8 15 9 14 10 13 11 6 12
REMARK SMILES IDX 7 13 8 14 9 15 12 16 11 17 10 18 4 20 20 22 17 24
REMARK H PARENT 10 19 4 21 20 23 17 25
REMARK Flexibility Score: inf
ROOT
ATOM      1  C   UNL     1      31.300   4.454  18.323  1.00  0.00     0.180 A 
ATOM      2  C   UNL     1      30.918   4.458  19.676  1.00  0.00     0.208 A 
ATOM      3  C   UNL     1      30.548   5.672  20.275  1.00  0.00     0.238 A 
ATOM      4  O   UNL     1      30.260   5.679  21.500  1.00  0.00    -0.285 OA
ATOM      5  C   UNL     1      30.548   6.864  19.511  1.00  0.00     0.111 A 
ATOM      6  C   UNL     1      30.153   8.144  20.005  1.00  0.00     0.134 A 
ATOM      7  C   UNL     1      30.318   9.277  19.198  1.00  0.00     0.093 A 
ATOM      8  C   UNL     1      30.801   9.168  17.895  1.00  0.00     0.123 A 
ATOM      9  C   UNL     1      31.134   7.914  17.380  1.00  0.00     0.094 A 
ATOM     10  C   UNL     1      31.015   6.771  18.174  1.00  0.00     0.146 A 
ATOM     11  O   UNL     1      31.353   5.598  17.651  1.00  0.00    -0.452 OA
ENDROOT
BRANCH   1  12
ATOM     12  C   UNL     1      31.679   3.210  17.615  1.00  0.00     0.021 A 
ATOM     13  C   UNL     1      30.706   2.345  17.083  1.00  0.00     0.016 A 
ATOM     14  C   UNL     1      31.089   1.187  16.397  1.00  0.00     0.047 A 
ATOM     15  C   UNL     1      32.446   0.888  16.222  1.00  0.00     0.115 A 
ATOM     16  C   UNL     1      33.038   2.913  17.417  1.00  0.00     0.016 A 
ATOM     17  C   UNL     1      33.418   1.755  16.731  1.00  0.00     0.047 A 
BRANCH  15  18
ATOM     18  O   UNL     1      32.839  -0.262  15.542  1.00  0.00    -0.508 OA
ATOM     19  H   UNL     1      32.879  -0.290  14.530  1.00  0.00     0.293 HD
ENDBRANCH  15  18
ENDBRANCH   1  12
BRANCH   2  20
ATOM     20  O   UNL     1      30.947   3.274  20.417  1.00  0.00    -0.502 OA
ATOM     21  H   UNL     1      31.108   3.263  21.417  1.00  0.00     0.293 HD
ENDBRANCH   2  20
BRANCH   6  22
ATOM     22  O   UNL     1      29.573   8.351  21.260  1.00  0.00    -0.507 OA
ATOM     23  H   UNL     1      30.086   8.555  22.104  1.00  0.00     0.293 HD
ENDBRANCH   6  22
BRANCH   8  24
ATOM     24  O   UNL     1      30.936  10.315  17.115  1.00  0.00    -0.508 OA
ATOM     25  H   UNL     1      30.213  11.024  17.087  1.00  0.00     0.293 HD
ENDBRANCH   8  24
TORSDOF 5
ENDMDL
MODEL 2
REMARK VINA RESULT:    -7.189      4.044      6.733
REMARK INTER + INTRA:          -8.736
REMARK INTER:                  -8.442
REMARK INTRA:                  -0.294
REMARK UNBOUND:                -0.286
REMARK SMILES O=c1c(O)c(-c2ccc(O)cc2)oc2cc(O)cc(O)c12
REMARK SMILES IDX 5 1 3 2 2 3 1 4 21 5 19 6 18 7 16 8 15 9 14 10 13 11 6 12
REMARK SMILES IDX 7 13 8 14 9 15 12 16 11 17 10 18 4 20 20 22 17 24
REMARK H PARENT 10 19 4 21 20 23 17 25
REMARK Flexibility Score: inf
ROOT
ATOM      1  C   UNL     1      28.450   2.325  20.303  1.00  0.00     0.180 A 
ATOM      2  C   UNL     1      29.375   3.252  20.812  1.00  0.00     0.208 A 
ATOM      3  C   UNL     1      30.525   3.548  20.062  1.00  0.00     0.238 A 
ATOM      4  O   UNL     1      31.377   4.336  20.548  1.00  0.00    -0.285 OA
ATOM      5  C   UNL     1      30.727   2.927  18.806  1.00  0.00     0.111 A 
ATOM      6  C   UNL     1      31.835   3.183  17.944  1.00  0.00     0.134 A 
ATOM      7  C   UNL     1      32.001   2.414  16.785  1.00  0.00     0.093 A 
ATOM      8  C   UNL     1      31.064   1.446  16.423  1.00  0.00     0.123 A 
ATOM      9  C   UNL     1      29.944   1.229  17.228  1.00  0.00     0.094 A 
ATOM     10  C   UNL     1      29.772   1.955  18.409  1.00  0.00     0.146 A 
ATOM     11  O   UNL     1      28.699   1.710  19.152  1.00  0.00    -0.452 OA
ENDROOT
BRANCH   1  12
ATOM     12  C   UNL     1      27.202   1.980  21.023  1.00  0.00     0.021 A 
ATOM     13  C   UNL     1      26.042   2.765  20.895  1.00  0.00     0.016 A 
ATOM     14  C   UNL     1      24.868   2.407  21.566  1.00  0.00     0.047 A 
ATOM     15  C   UNL     1      24.835   1.253  22.359  1.00  0.00     0.115 A 
ATOM     16  C   UNL     1      27.154   0.814  21.804  1.00  0.00     0.016 A 
ATOM     17  C   UNL     1      25.980   0.457  22.474  1.00  0.00     0.047 A 
BRANCH  15  18
ATOM     18  O   UNL     1      23.673   0.886  23.033  1.00  0.00    -0.508 OA
ATOM     19  H   UNL     1      23.008   1.579  23.355  1.00  0.00     0.293 HD
ENDBRANCH  15  18
ENDBRANCH   1  12
BRANCH   2  20
ATOM     20  O   UNL     1      29.168   3.837  22.064  1.00  0.00    -0.502 OA
ATOM     21  H   UNL     1      28.243   3.990  22.446  1.00  0.00     0.293 HD
ENDBRANCH   2  20
BRANCH   6  22
ATOM     22  O   UNL     1      32.780   4.190  18.165  1.00  0.00    -0.507 OA
ATOM     23  H   UNL     1      33.755   4.028  18.364  1.00  0.00     0.293 HD
ENDBRANCH   6  22
BRANCH   8  24
ATOM     24  O   UNL     1      31.252   0.712  15.254  1.00  0.00    -0.508 OA
ATOM     25  H   UNL     1      31.511  -0.267  15.280  1.00  0.00     0.293 HD
ENDBRANCH   8  24
TORSDOF 5
ENDMDL
MODEL 3
REMARK VINA RESULT:    -7.044      1.835      6.897
REMARK INTER + INTRA:          -8.566
REMARK INTER:                  -8.272
REMARK INTRA:                  -0.294
REMARK UNBOUND:                -0.286
REMARK SMILES O=c1c(O)c(-c2ccc(O)cc2)oc2cc(O)cc(O)c12
REMARK SMILES IDX 5 1 3 2 2 3 1 4 21 5 19 6 18 7 16 8 15 9 14 10 13 11 6 12
REMARK SMILES IDX 7 13 8 14 9 15 12 16 11 17 10 18 4 20 20 22 17 24
REMARK H PARENT 10 19 4 21 20 23 17 25
REMARK Flexibility Score: inf
ROOT
ATOM      1  C   UNL     1      31.360   5.632  18.390  1.00  0.00     0.180 A 
ATOM      2  C   UNL     1      32.567   5.250  17.780  1.00  0.00     0.208 A 
ATOM      3  C   UNL     1      32.681   3.955  17.249  1.00  0.00     0.238 A 
ATOM      4  O   UNL     1      33.781   3.600  16.752  1.00  0.00    -0.285 OA
ATOM      5  C   UNL     1      31.582   3.065  17.320  1.00  0.00     0.111 A 
ATOM      6  C   UNL     1      31.574   1.744  16.779  1.00  0.00     0.134 A 
ATOM      7  C   UNL     1      30.478   0.905  17.024  1.00  0.00     0.093 A 
ATOM      8  C   UNL     1      29.366   1.361  17.730  1.00  0.00     0.123 A 
ATOM      9  C   UNL     1      29.339   2.670  18.212  1.00  0.00     0.094 A 
ATOM     10  C   UNL     1      30.431   3.518  18.016  1.00  0.00     0.146 A 
ATOM     11  O   UNL     1      30.371   4.753  18.500  1.00  0.00    -0.452 OA
ENDROOT
BRANCH   1  12
ATOM     12  C   UNL     1      31.155   6.988  18.951  1.00  0.00     0.021 A 
ATOM     13  C   UNL     1      30.605   8.025  18.176  1.00  0.00     0.016 A 
ATOM     14  C   UNL     1      30.398   9.291  18.734  1.00  0.00     0.047 A 
ATOM     15  C   UNL     1      30.725   9.532  20.075  1.00  0.00     0.115 A 
ATOM     16  C   UNL     1      31.461   7.233  20.300  1.00  0.00     0.016 A 
ATOM     17  C   UNL     1      31.254   8.499  20.855  1.00  0.00     0.047 A 
BRANCH  15  18
ATOM     18  O   UNL     1      30.525  10.788  20.641  1.00  0.00    -0.508 OA
ATOM     19  H   UNL     1      30.976  11.615  20.267  1.00  0.00     0.293 HD
ENDBRANCH  15  18
ENDBRANCH   1  12
BRANCH   2  20
ATOM     20  O   UNL     1      33.646   6.136  17.740  1.00  0.00    -0.502 OA
ATOM     21  H   UNL     1      34.557   5.869  17.387  1.00  0.00     0.293 HD
ENDBRANCH   2  20
BRANCH   6  22
ATOM     22  O   UNL     1      32.594   1.221  15.980  1.00  0.00    -0.507 OA
ATOM     23  H   UNL     1      32.503   1.010  14.998  1.00  0.00     0.293 HD
ENDBRANCH   6  22
BRANCH   8  24
ATOM     24  O   UNL     1      28.287   0.504  17.940  1.00  0.00    -0.508 OA
ATOM     25  H   UNL     1      27.857   0.408  18.852  1.00  0.00     0.293 HD
ENDBRANCH   8  24
TORSDOF 5
ENDMDL
MODEL 4
REMARK VINA RESULT:    -6.935      4.340      7.125
REMARK INTER + INTRA:          -8.437
REMARK INTER:                  -8.151
REMARK INTRA:                  -0.286
REMARK UNBOUND:                -0.286
REMARK SMILES O=c1c(O)c(-c2ccc(O)cc2)oc2cc(O)cc(O)c12
REMARK SMILES IDX 5 1 3 2 2 3 1 4 21 5 19 6 18 7 16 8 15 9 14 10 13 11 6 12
REMARK SMILES IDX 7 13 8 14 9 15 12 16 11 17 10 18 4 20 20 22 17 24
REMARK H PARENT 10 19 4 21 20 23 17 25
REMARK Flexibility Score: inf
ROOT
ATOM      1  C   UNL     1      29.315   3.228  20.777  1.00  0.00     0.180 A 
ATOM      2  C   UNL     1      29.819   1.918  20.829  1.00  0.00     0.208 A 
ATOM      3  C   UNL     1      28.931   0.856  21.064  1.00  0.00     0.238 A 
ATOM      4  O   UNL     1      29.395  -0.310  21.165  1.00  0.00    -0.285 OA
ATOM      5  C   UNL     1      27.548   1.115  21.226  1.00  0.00     0.111 A 
ATOM      6  C   UNL     1      26.554   0.112  21.428  1.00  0.00     0.134 A 
ATOM      7  C   UNL     1      25.235   0.493  21.707  1.00  0.00     0.093 A 
ATOM      8  C   UNL     1      24.863   1.837  21.726  1.00  0.00     0.123 A 
ATOM      9  C   UNL     1      25.815   2.824  21.470  1.00  0.00     0.094 A 
ATOM     10  C   UNL     1      27.146   2.477  21.225  1.00  0.00     0.146 A 
ATOM     11  O   UNL     1      28.023   3.446  20.998  1.00  0.00    -0.452 OA
ENDROOT
BRANCH   1  12
ATOM     12  C   UNL     1      30.184   4.397  20.509  1.00  0.00     0.021 A 
ATOM     13  C   UNL     1      30.547   4.756  19.198  1.00  0.00     0.016 A 
ATOM     14  C   UNL     1      31.349   5.877  18.968  1.00  0.00     0.047 A 
ATOM     15  C   UNL     1      31.787   6.663  20.043  1.00  0.00     0.115 A 
ATOM     16  C   UNL     1      30.611   5.202  21.579  1.00  0.00     0.016 A 
ATOM     17  C   UNL     1      31.413   6.323  21.347  1.00  0.00     0.047 A 
BRANCH  15  18
ATOM     18  O   UNL     1      32.587   7.781  19.826  1.00  0.00    -0.508 OA
ATOM     19  H   UNL     1      32.819   8.420  20.578  1.00  0.00     0.293 HD
ENDBRANCH  15  18
ENDBRANCH   1  12
BRANCH   2  20
ATOM     20  O   UNL     1      31.189   1.686  20.689  1.00  0.00    -0.502 OA
ATOM     21  H   UNL     1      31.730   1.184  21.384  1.00  0.00     0.293 HD
ENDBRANCH   2  20
BRANCH   6  22
ATOM     22  O   UNL     1      26.801  -1.261  21.339  1.00  0.00    -0.507 OA
ATOM     23  H   UNL     1      26.193  -1.925  20.885  1.00  0.00     0.293 HD
ENDBRANCH   6  22
BRANCH   8  24
ATOM     24  O   UNL     1      23.538   2.179  21.990  1.00  0.00    -0.508 OA
ATOM     25  H   UNL     1      23.275   2.658  22.843  1.00  0.00     0.293 HD
ENDBRANCH   8  24
TORSDOF 5
ENDMDL
MODEL 5
REMARK VINA RESULT:    -6.901      2.232      3.492
REMARK INTER + INTRA:          -8.397
REMARK INTER:                  -8.116
REMARK INTRA:                  -0.281
REMARK UNBOUND:                -0.286
REMARK SMILES O=c1c(O)c(-c2ccc(O)cc2)oc2cc(O)cc(O)c12
REMARK SMILES IDX 5 1 3 2 2 3 1 4 21 5 19 6 18 7 16 8 15 9 14 10 13 11 6 12
REMARK SMILES IDX 7 13 8 14 9 15 12 16 11 17 10 18 4 20 20 22 17 24
REMARK H PARENT 10 19 4 21 20 23 17 25
REMARK Flexibility Score: inf
ROOT
ATOM      1  C   UNL     1      31.153   4.648  19.217  1.00  0.00     0.180 A 
ATOM      2  C   UNL     1      31.599   5.079  17.956  1.00  0.00     0.208 A 
ATOM      3  C   UNL     1      31.520   6.444  17.636  1.00  0.00     0.238 A 
ATOM      4  O   UNL     1      31.870   6.817  16.486  1.00  0.00    -0.285 OA
ATOM      5  C   UNL     1      31.011   7.363  18.585  1.00  0.00     0.111 A 
ATOM      6  C   UNL     1      30.923   8.773  18.382  1.00  0.00     0.134 A 
ATOM      7  C   UNL     1      30.281   9.569  19.340  1.00  0.00     0.093 A 
ATOM      8  C   UNL     1      29.785   9.017  20.520  1.00  0.00     0.123 A 
ATOM      9  C   UNL     1      29.919   7.649  20.756  1.00  0.00     0.094 A 
ATOM     10  C   UNL     1      30.521   6.823  19.804  1.00  0.00     0.146 A 
ATOM     11  O   UNL     1      30.620   5.524  20.061  1.00  0.00    -0.452 OA
ENDROOT
BRANCH   1  12
ATOM     12  C   UNL     1      31.227   3.230  19.637  1.00  0.00     0.021 A 
ATOM     13  C   UNL     1      32.422   2.673  20.126  1.00  0.00     0.016 A 
ATOM     14  C   UNL     1      32.463   1.337  20.540  1.00  0.00     0.047 A 
ATOM     15  C   UNL     1      31.307   0.548  20.483  1.00  0.00     0.115 A 
ATOM     16  C   UNL     1      30.069   2.436  19.603  1.00  0.00     0.016 A 
ATOM     17  C   UNL     1      30.111   1.101  20.017  1.00  0.00     0.047 A 
BRANCH  15  18
ATOM     18  O   UNL     1      31.336  -0.784  20.891  1.00  0.00    -0.508 OA
ATOM     19  H   UNL     1      31.076  -1.535  20.262  1.00  0.00     0.293 HD
ENDBRANCH  15  18
ENDBRANCH   1  12
BRANCH   2  20
ATOM     20  O   UNL     1      32.077   4.153  17.026  1.00  0.00    -0.502 OA
ATOM     21  H   UNL     1      32.311   4.410  16.074  1.00  0.00     0.293 HD
ENDBRANCH   2  20
BRANCH   6  22
ATOM     22  O   UNL     1      31.468   9.438  17.281  1.00  0.00    -0.507 OA
ATOM     23  H   UNL     1      31.063   9.446  16.357  1.00  0.00     0.293 HD
ENDBRANCH   6  22
BRANCH   8  24
ATOM     24  O   UNL     1      29.167   9.843  21.457  1.00  0.00    -0.508 OA
ATOM     25  H   UNL     1      29.654  10.629  21.872  1.00  0.00     0.293 HD
ENDBRANCH   8  24
TORSDOF 5
ENDMDL
MODEL 6
REMARK VINA RESULT:    -6.878      3.344      7.118
REMARK INTER + INTRA:          -8.370
REMARK INTER:                  -8.088
REMARK INTRA:                  -0.281
REMARK UNBOUND:                -0.286
REMARK SMILES O=c1c(O)c(-c2ccc(O)cc2)oc2cc(O)cc(O)c12
REMARK SMILES IDX 5 1 3 2 2 3 1 4 21 5 19 6 18 7 16 8 15 9 14 10 13 11 6 12
REMARK SMILES IDX 7 13 8 14 9 15 12 16 11 17 10 18 4 20 20 22 17 24
REMARK H PARENT 10 19 4 21 20 23 17 25
REMARK Flexibility Score: inf
ROOT
ATOM      1  C   UNL     1      30.013   3.428  19.764  1.00  0.00     0.180 A 
ATOM      2  C   UNL     1      30.898   2.374  19.484  1.00  0.00     0.208 A 
ATOM      3  C   UNL     1      30.375   1.096  19.228  1.00  0.00     0.238 A 
ATOM      4  O   UNL     1      31.174   0.143  19.032  1.00  0.00    -0.285 OA
ATOM      5  C   UNL     1      28.974   0.892  19.239  1.00  0.00     0.111 A 
ATOM      6  C   UNL     1      28.334  -0.351  18.955  1.00  0.00     0.134 A 
ATOM      7  C   UNL     1      26.948  -0.469  19.124  1.00  0.00     0.093 A 
ATOM      8  C   UNL     1      26.173   0.627  19.503  1.00  0.00     0.123 A 
ATOM      9  C   UNL     1      26.782   1.863  19.725  1.00  0.00     0.094 A 
ATOM     10  C   UNL     1      28.166   2.002  19.601  1.00  0.00     0.146 A 
ATOM     11  O   UNL     1      28.708   3.192  19.832  1.00  0.00    -0.452 OA
ENDROOT
BRANCH   1  12
ATOM     12  C   UNL     1      30.487   4.808  20.019  1.00  0.00     0.021 A 
ATOM     13  C   UNL     1      30.515   5.774  18.996  1.00  0.00     0.016 A 
ATOM     14  C   UNL     1      30.944   7.077  19.266  1.00  0.00     0.047 A 
ATOM     15  C   UNL     1      31.335   7.436  20.563  1.00  0.00     0.115 A 
ATOM     16  C   UNL     1      30.861   5.182  21.320  1.00  0.00     0.016 A 
ATOM     17  C   UNL     1      31.290   6.486  21.588  1.00  0.00     0.047 A 
BRANCH  15  18
ATOM     18  O   UNL     1      31.765   8.730  20.843  1.00  0.00    -0.508 OA
ATOM     19  H   UNL     1      32.188   8.966  21.733  1.00  0.00     0.293 HD
ENDBRANCH  15  18
ENDBRANCH   1  12
BRANCH   2  20
ATOM     20  O   UNL     1      32.278   2.591  19.499  1.00  0.00    -0.502 OA
ATOM     21  H   UNL     1      32.895   2.121  20.150  1.00  0.00     0.293 HD
ENDBRANCH   2  20
BRANCH   6  22
ATOM     22  O   UNL     1      29.003  -1.484  18.481  1.00  0.00    -0.507 OA
ATOM     23  H   UNL     1      29.779  -1.928  18.947  1.00  0.00     0.293 HD
ENDBRANCH   6  22
BRANCH   8  24
ATOM     24  O   UNL     1      24.795   0.477  19.645  1.00  0.00    -0.508 OA
ATOM     25  H   UNL     1      24.331   0.666  20.525  1.00  0.00     0.293 HD
ENDBRANCH   8  24
TORSDOF 5
ENDMDL
MODEL 7
REMARK VINA RESULT:    -6.846      1.758      6.771
REMARK INTER + INTRA:          -8.332
REMARK INTER:                  -8.039
REMARK INTRA:                  -0.294
REMARK UNBOUND:                -0.286
REMARK SMILES O=c1c(O)c(-c2ccc(O)cc2)oc2cc(O)cc(O)c12
REMARK SMILES IDX 5 1 3 2 2 3 1 4 21 5 19 6 18 7 16 8 15 9 14 10 13 11 6 12
REMARK SMILES IDX 7 13 8 14 9 15 12 16 11 17 10 18 4 20 20 22 17 24
REMARK H PARENT 10 19 4 21 20 23 17 25
REMARK Flexibility Score: inf
ROOT
ATOM      1  C   UNL     1      31.536   4.329  18.415  1.00  0.00     0.180 A 
ATOM      2  C   UNL     1      30.529   3.393  18.125  1.00  0.00     0.208 A 
ATOM      3  C   UNL     1      30.849   2.267  17.350  1.00  0.00     0.238 A 
ATOM      4  O   UNL     1      29.932   1.460  17.047  1.00  0.00    -0.285 OA
ATOM      5  C   UNL     1      32.175   2.082  16.889  1.00  0.00     0.111 A 
ATOM      6  C   UNL     1      32.620   0.958  16.130  1.00  0.00     0.134 A 
ATOM      7  C   UNL     1      33.923   0.944  15.616  1.00  0.00     0.093 A 
ATOM      8  C   UNL     1      34.815   1.981  15.887  1.00  0.00     0.123 A 
ATOM      9  C   UNL     1      34.409   3.056  16.678  1.00  0.00     0.094 A 
ATOM     10  C   UNL     1      33.105   3.116  17.174  1.00  0.00     0.146 A 
ATOM     11  O   UNL     1      32.755   4.162  17.913  1.00  0.00    -0.452 OA
ENDROOT
BRANCH   1  12
ATOM     12  C   UNL     1      31.282   5.528  19.246  1.00  0.00     0.021 A 
ATOM     13  C   UNL     1      31.491   5.513  20.637  1.00  0.00     0.016 A 
ATOM     14  C   UNL     1      31.267   6.665  21.398  1.00  0.00     0.047 A 
ATOM     15  C   UNL     1      30.846   7.848  20.778  1.00  0.00     0.115 A 
ATOM     16  C   UNL     1      30.879   6.725  18.630  1.00  0.00     0.016 A 
ATOM     17  C   UNL     1      30.656   7.875  19.393  1.00  0.00     0.047 A 
BRANCH  15  18
ATOM     18  O   UNL     1      30.619   9.000  21.526  1.00  0.00    -0.508 OA
ATOM     19  H   UNL     1      31.049   9.136  22.433  1.00  0.00     0.293 HD
ENDBRANCH  15  18
ENDBRANCH   1  12
BRANCH   2  20
ATOM     20  O   UNL     1      29.222   3.605  18.571  1.00  0.00    -0.502 OA
ATOM     21  H   UNL     1      28.533   4.101  18.019  1.00  0.00     0.293 HD
ENDBRANCH   2  20
BRANCH   6  22
ATOM     22  O   UNL     1      31.838  -0.173  15.879  1.00  0.00    -0.507 OA
ATOM     23  H   UNL     1      31.744  -0.618  14.979  1.00  0.00     0.293 HD
ENDBRANCH   6  22
BRANCH   8  24
ATOM     24  O   UNL     1      36.109   1.925  15.373  1.00  0.00    -0.508 OA
ATOM     25  H   UNL     1      36.483   2.672  14.800  1.00  0.00     0.293 HD
ENDBRANCH   8  24
TORSDOF 5
ENDMDL
MODEL 8
REMARK VINA RESULT:    -6.806      3.104      4.587
REMARK INTER + INTRA:          -8.285
REMARK INTER:                  -7.985
REMARK INTRA:                  -0.300
REMARK UNBOUND:                -0.286
REMARK SMILES O=c1c(O)c(-c2ccc(O)cc2)oc2cc(O)cc(O)c12
REMARK SMILES IDX 5 1 3 2 2 3 1 4 21 5 19 6 18 7 16 8 15 9 14 10 13 11 6 12
REMARK SMILES IDX 7 13 8 14 9 15 12 16 11 17 10 18 4 20 20 22 17 24
REMARK H PARENT 10 19 4 21 20 23 17 25
REMARK Flexibility Score: inf
ROOT
ATOM      1  C   UNL     1      29.594   3.504  19.314  1.00  0.00     0.180 A 
ATOM      2  C   UNL     1      30.341   3.491  18.124  1.00  0.00     0.208 A 
ATOM      3  C   UNL     1      31.246   4.536  17.877  1.00  0.00     0.238 A 
ATOM      4  O   UNL     1      31.872   4.549  16.785  1.00  0.00    -0.285 OA
ATOM      5  C   UNL     1      31.406   5.571  18.831  1.00  0.00     0.111 A 
ATOM      6  C   UNL     1      32.323   6.656  18.702  1.00  0.00     0.134 A 
ATOM      7  C   UNL     1      32.302   7.693  19.645  1.00  0.00     0.093 A 
ATOM      8  C   UNL     1      31.446   7.649  20.744  1.00  0.00     0.123 A 
ATOM      9  C   UNL     1      30.586   6.563  20.911  1.00  0.00     0.094 A 
ATOM     10  C   UNL     1      30.558   5.532  19.969  1.00  0.00     0.146 A 
ATOM     11  O   UNL     1      29.718   4.522  20.158  1.00  0.00    -0.452 OA
ENDROOT
BRANCH   1  12
ATOM     12  C   UNL     1      28.638   2.425  19.656  1.00  0.00     0.021 A 
ATOM     13  C   UNL     1      29.048   1.281  20.365  1.00  0.00     0.016 A 
ATOM     14  C   UNL     1      28.123   0.287  20.697  1.00  0.00     0.047 A 
ATOM     15  C   UNL     1      26.776   0.430  20.340  1.00  0.00     0.115 A 
ATOM     16  C   UNL     1      27.282   2.570  19.320  1.00  0.00     0.016 A 
ATOM     17  C   UNL     1      26.359   1.574  19.654  1.00  0.00     0.047 A 
BRANCH  15  18
ATOM     18  O   UNL     1      25.846  -0.555  20.665  1.00  0.00    -0.508 OA
ATOM     19  H   UNL     1      25.911  -1.491  20.283  1.00  0.00     0.293 HD
ENDBRANCH  15  18
ENDBRANCH   1  12
BRANCH   2  20
ATOM     20  O   UNL     1      30.152   2.473  17.186  1.00  0.00    -0.502 OA
ATOM     21  H   UNL     1      30.766   1.671  17.123  1.00  0.00     0.293 HD
ENDBRANCH   2  20
BRANCH   6  22
ATOM     22  O   UNL     1      33.285   6.751  17.692  1.00  0.00    -0.507 OA
ATOM     23  H   UNL     1      33.751   5.963  17.268  1.00  0.00     0.293 HD
ENDBRANCH   6  22
BRANCH   8  24
ATOM     24  O   UNL     1      31.464   8.690  21.671  1.00  0.00    -0.508 OA
ATOM     25  H   UNL     1      32.128   9.452  21.597  1.00  0.00     0.293 HD
ENDBRANCH   8  24
TORSDOF 5
ENDMDL
MODEL 9
REMARK VINA RESULT:    -6.769      4.422      6.456
REMARK INTER + INTRA:          -8.242
REMARK INTER:                  -7.948
REMARK INTRA:                  -0.294
REMARK UNBOUND:                -0.286
REMARK SMILES O=c1c(O)c(-c2ccc(O)cc2)oc2cc(O)cc(O)c12
REMARK SMILES IDX 5 1 3 2 2 3 1 4 21 5 19 6 18 7 16 8 15 9 14 10 13 11 6 12
REMARK SMILES IDX 7 13 8 14 9 15 12 16 11 17 10 18 4 20 20 22 17 24
REMARK H PARENT 10 19 4 21 20 23 17 25
REMARK Flexibility Score: inf
ROOT
ATOM      1  C   UNL     1      28.019   2.277  20.293  1.00  0.00     0.180 A 
ATOM      2  C   UNL     1      28.269   1.689  19.042  1.00  0.00     0.208 A 
ATOM      3  C   UNL     1      29.289   2.217  18.234  1.00  0.00     0.238 A 
ATOM      4  O   UNL     1      29.473   1.722  17.091  1.00  0.00    -0.285 OA
ATOM      5  C   UNL     1      30.057   3.313  18.694  1.00  0.00     0.111 A 
ATOM      6  C   UNL     1      31.141   3.902  17.976  1.00  0.00     0.134 A 
ATOM      7  C   UNL     1      31.744   5.067  18.469  1.00  0.00     0.093 A 
ATOM      8  C   UNL     1      31.348   5.624  19.684  1.00  0.00     0.123 A 
ATOM      9  C   UNL     1      30.329   5.022  20.424  1.00  0.00     0.094 A 
ATOM     10  C   UNL     1      29.683   3.882  19.941  1.00  0.00     0.146 A 
ATOM     11  O   UNL     1      28.711   3.346  20.669  1.00  0.00    -0.452 OA
ENDROOT
BRANCH   1  12
ATOM     12  C   UNL     1      26.977   1.762  21.211  1.00  0.00     0.021 A 
ATOM     13  C   UNL     1      27.278   0.806  22.199  1.00  0.00     0.016 A 
ATOM     14  C   UNL     1      26.283   0.352  23.070  1.00  0.00     0.047 A 
ATOM     15  C   UNL     1      24.980   0.857  22.976  1.00  0.00     0.115 A 
ATOM     16  C   UNL     1      25.673   2.278  21.138  1.00  0.00     0.016 A 
ATOM     17  C   UNL     1      24.679   1.823  22.010  1.00  0.00     0.047 A 
BRANCH  15  18
ATOM     18  O   UNL     1      23.981   0.412  23.837  1.00  0.00    -0.508 OA
ATOM     19  H   UNL     1      23.041   0.228  23.507  1.00  0.00     0.293 HD
ENDBRANCH  15  18
ENDBRANCH   1  12
BRANCH   2  20
ATOM     20  O   UNL     1      27.485   0.622  18.597  1.00  0.00    -0.502 OA
ATOM     21  H   UNL     1      26.477   0.612  18.690  1.00  0.00     0.293 HD
ENDBRANCH   2  20
BRANCH   6  22
ATOM     22  O   UNL     1      31.677   3.372  16.799  1.00  0.00    -0.507 OA
ATOM     23  H   UNL     1      32.395   3.814  16.245  1.00  0.00     0.293 HD
ENDBRANCH   6  22
BRANCH   8  24
ATOM     24  O   UNL     1      31.982   6.773  20.152  1.00  0.00    -0.508 OA
ATOM     25  H   UNL     1      32.855   6.725  20.664  1.00  0.00     0.293 HD
ENDBRANCH   8  24
TORSDOF 5
ENDMDL
