MODEL 1
REMARK VINA RESULT:     9.100      0.000      0.000
REMARK INTER + INTRA:           9.954
REMARK INTER:                  10.164
REMARK INTRA:                  -0.210
REMARK UNBOUND:                -0.210
REMARK SMILES CC(C)c1ccc(C(=O)[O-])cc1
REMARK SMILES IDX 7 1 6 2 11 3 5 4 12 5 4 6 8 7 9 8 10 9 2 10 1 11 3 12
REMARK H PARENT
REMARK Flexibility Score: inf
ROOT
ATOM      1  C   UNL     1     -20.328  -4.386  17.867  1.00  0.00    -0.003 A 
ATOM      2  C   UNL     1     -20.878  -5.013  18.997  1.00  0.00     0.010 A 
ATOM      3  C   UNL     1     -20.565  -4.940  16.598  1.00  0.00     0.010 A 
ATOM      4  C   UNL     1     -21.650  -6.170  18.861  1.00  0.00     0.004 A 
ATOM      5  C   UNL     1     -21.338  -6.097  16.461  1.00  0.00     0.004 A 
ATOM      6  C   UNL     1     -21.890  -6.725  17.590  1.00  0.00    -0.045 A 
ENDROOT
BRANCH   1   7
ATOM      7  C   UNL     1     -19.511  -3.162  18.016  1.00  0.00     0.071 C 
ATOM      8  O   UNL     1     -20.034  -2.022  17.893  1.00  0.00    -0.545 OA
ATOM      9  O   UNL     1     -18.150  -3.251  18.292  1.00  0.00    -0.545 OA
ENDBRANCH   1   7
BRANCH   6  10
ATOM     10  C   UNL     1     -22.726  -7.981  17.428  1.00  0.00     0.013 C 
ATOM     11  C   UNL     1     -22.176  -9.125  18.289  1.00  0.00     0.012 C 
ATOM     12  C   UNL     1     -22.821  -8.395  15.955  1.00  0.00     0.012 C 
ENDBRANCH   6  10
TORSDOF 2
ENDMDL
MODEL 2
REMARK VINA RESULT:     9.160      0.020      1.398
REMARK INTER + INTRA:          10.021
REMARK INTER:                  10.230
REMARK INTRA:                  -0.209
REMARK UNBOUND:                -0.210
REMARK SMILES CC(C)c1ccc(C(=O)[O-])cc1
REMARK SMILES IDX 7 1 6 2 11 3 5 4 12 5 4 6 8 7 9 8 10 9 2 10 1 11 3 12
REMARK H PARENT
REMARK Flexibility Score: inf
ROOT
ATOM      1  C   UNL     1     -20.324  -4.386  17.865  1.00  0.00    -0.003 A 
ATOM      2  C   UNL     1     -20.541  -4.942  16.593  1.00  0.00     0.010 A 
ATOM      3  C   UNL     1     -20.895  -5.011  18.987  1.00  0.00     0.010 A 
ATOM      4  C   UNL     1     -21.311  -6.099  16.445  1.00  0.00     0.004 A 
ATOM      5  C   UNL     1     -21.666  -6.169  18.839  1.00  0.00     0.004 A 
ATOM      6  C   UNL     1     -21.882  -6.726  17.568  1.00  0.00    -0.045 A 
ENDROOT
BRANCH   1   7
ATOM      7  C   UNL     1     -19.509  -3.162  18.017  1.00  0.00     0.071 C 
ATOM      8  O   UNL     1     -20.034  -2.022  17.900  1.00  0.00    -0.545 OA
ATOM      9  O   UNL     1     -18.148  -3.251  18.291  1.00  0.00    -0.545 OA
ENDBRANCH   1   7
BRANCH   6  10
ATOM     10  C   UNL     1     -22.721  -7.981  17.422  1.00  0.00     0.013 C 
ATOM     11  C   UNL     1     -22.155  -9.125  18.273  1.00  0.00     0.012 C 
ATOM     12  C   UNL     1     -22.844  -8.397  15.952  1.00  0.00     0.012 C 
ENDBRANCH   6  10
TORSDOF 2
ENDMDL
MODEL 3
REMARK VINA RESULT:    10.756      3.049      5.087
REMARK INTER + INTRA:          11.804
REMARK INTER:                  12.011
REMARK INTRA:                  -0.207
REMARK UNBOUND:                -0.210
REMARK SMILES CC(C)c1ccc(C(=O)[O-])cc1
REMARK SMILES IDX 7 1 6 2 11 3 5 4 12 5 4 6 8 7 9 8 10 9 2 10 1 11 3 12
REMARK H PARENT
REMARK Flexibility Score: inf
ROOT
ATOM      1  C   UNL     1     -21.770  -6.900  17.358  1.00  0.00    -0.003 A 
ATOM      2  C   UNL     1     -21.769  -6.446  18.687  1.00  0.00     0.010 A 
ATOM      3  C   UNL     1     -21.061  -6.170  16.388  1.00  0.00     0.010 A 
ATOM      4  C   UNL     1     -21.074  -5.287  19.040  1.00  0.00     0.004 A 
ATOM      5  C   UNL     1     -20.365  -5.010  16.742  1.00  0.00     0.004 A 
ATOM      6  C   UNL     1     -20.363  -4.555  18.071  1.00  0.00    -0.045 A 
ENDROOT
BRANCH   1   7
ATOM      7  C   UNL     1     -22.508  -8.127  16.987  1.00  0.00     0.071 C 
ATOM      8  O   UNL     1     -22.522  -9.125  17.758  1.00  0.00    -0.545 OA
ATOM      9  O   UNL     1     -23.198  -8.199  15.781  1.00  0.00    -0.545 OA
ENDBRANCH   1   7
BRANCH   6  10
ATOM     10  C   UNL     1     -19.603  -3.295  18.441  1.00  0.00     0.013 C 
ATOM     11  C   UNL     1     -20.053  -2.108  17.581  1.00  0.00     0.012 C 
ATOM     12  C   UNL     1     -18.089  -3.511  18.336  1.00  0.00     0.012 C 
ENDBRANCH   6  10
TORSDOF 2
ENDMDL
MODEL 4
REMARK VINA RESULT:    10.804      3.047      5.275
REMARK INTER + INTRA:          11.858
REMARK INTER:                  12.062
REMARK INTRA:                  -0.204
REMARK UNBOUND:                -0.210
REMARK SMILES CC(C)c1ccc(C(=O)[O-])cc1
REMARK SMILES IDX 7 1 6 2 11 3 5 4 12 5 4 6 8 7 9 8 10 9 2 10 1 11 3 12
REMARK H PARENT
REMARK Flexibility Score: inf
ROOT
ATOM      1  C   UNL     1     -21.764  -6.902  17.364  1.00  0.00    -0.003 A 
ATOM      2  C   UNL     1     -21.058  -6.186  16.383  1.00  0.00     0.010 A 
ATOM      3  C   UNL     1     -21.757  -6.429  18.688  1.00  0.00     0.010 A 
ATOM      4  C   UNL     1     -20.360  -5.023  16.718  1.00  0.00     0.004 A 
ATOM      5  C   UNL     1     -21.059  -5.265  19.023  1.00  0.00     0.004 A 
ATOM      6  C   UNL     1     -20.353  -4.548  18.042  1.00  0.00    -0.045 A 
ENDROOT
BRANCH   1   7
ATOM      7  C   UNL     1     -22.501  -8.133  17.006  1.00  0.00     0.071 C 
ATOM      8  O   UNL     1     -22.509  -9.125  17.783  1.00  0.00    -0.545 OA
ATOM      9  O   UNL     1     -23.197  -8.214  15.804  1.00  0.00    -0.545 OA
ENDBRANCH   1   7
BRANCH   6  10
ATOM     10  C   UNL     1     -19.600  -3.287  18.419  1.00  0.00     0.013 C 
ATOM     11  C   UNL     1     -20.052  -2.097  17.564  1.00  0.00     0.012 C 
ATOM     12  C   UNL     1     -18.085  -3.496  18.317  1.00  0.00     0.012 C 
ENDBRANCH   6  10
TORSDOF 2
ENDMDL
