MODEL 1
REMARK VINA RESULT:    -3.967      0.000      0.000
REMARK INTER + INTRA:          -7.217
REMARK INTER:                  -6.286
REMARK INTRA:                  -0.930
REMARK UNBOUND:                -0.930
REMARK SMILES CCCCCCCCCCCC(=O)[O-]
REMARK SMILES IDX 7 1 8 2 9 3 10 4 11 5 12 6 13 7 14 8 6 9 5 10 4 11 3 12 2 13
REMARK SMILES IDX 1 14
REMARK H PARENT
REMARK Flexibility Score: inf
ROOT
ATOM      1  C   UNL     1      27.206  33.663   3.721  1.00  0.00     0.000 C 
ENDROOT
BRANCH   1   2
ATOM      2  C   UNL     1      28.613  34.012   4.230  1.00  0.00     0.000 C 
BRANCH   2   3
ATOM      3  C   UNL     1      29.683  33.000   3.779  1.00  0.00     0.000 C 
BRANCH   3   4
ATOM      4  C   UNL     1      30.870  33.608   3.008  1.00  0.00     0.006 C 
BRANCH   4   5
ATOM      5  C   UNL     1      30.933  33.144   1.547  1.00  0.00     0.053 C 
BRANCH   5   6
ATOM      6  C   UNL     1      32.337  32.787   1.174  1.00  0.00     0.041 C 
ATOM      7  O   UNL     1      32.714  32.867  -0.025  1.00  0.00    -0.550 OA
ATOM      8  O   UNL     1      33.216  32.317   2.142  1.00  0.00    -0.550 OA
ENDBRANCH   5   6
ENDBRANCH   4   5
ENDBRANCH   3   4
ENDBRANCH   2   3
ENDBRANCH   1   2
BRANCH   1   9
ATOM      9  C   UNL     1      27.276  32.888   2.401  1.00  0.00     0.000 C 
BRANCH   9  10
ATOM     10  C   UNL     1      26.996  33.808   1.206  1.00  0.00    -0.000 C 
BRANCH  10  11
ATOM     11  C   UNL     1      26.083  34.972   1.608  1.00  0.00    -0.000 C 
BRANCH  11  12
ATOM     12  C   UNL     1      24.629  34.697   1.197  1.00  0.00    -0.000 C 
BRANCH  12  13
ATOM     13  C   UNL     1      24.524  33.694   0.038  1.00  0.00    -0.003 C 
ATOM     14  C   UNL     1      23.630  32.499   0.367  1.00  0.00     0.004 C 
ENDBRANCH  12  13
ENDBRANCH  11  12
ENDBRANCH  10  11
ENDBRANCH   9  10
ENDBRANCH   1   9
TORSDOF 10
ENDMDL
MODEL 2
REMARK VINA RESULT:    -3.951      3.578      6.512
REMARK INTER + INTRA:          -7.191
REMARK INTER:                  -6.180
REMARK INTRA:                  -1.011
REMARK UNBOUND:                -0.930
REMARK SMILES CCCCCCCCCCCC(=O)[O-]
REMARK SMILES IDX 7 1 8 2 9 3 10 4 11 5 12 6 13 7 14 8 6 9 5 10 4 11 3 12 2 13
REMARK SMILES IDX 1 14
REMARK H PARENT
REMARK Flexibility Score: inf
ROOT
ATOM      1  C   UNL     1      29.657  33.642   3.425  1.00  0.00     0.000 C 
ENDROOT
BRANCH   1   2
ATOM      2  C   UNL     1      28.253  33.851   4.013  1.00  0.00     0.000 C 
BRANCH   2   3
ATOM      3  C   UNL     1      27.155  33.116   3.222  1.00  0.00     0.000 C 
BRANCH   3   4
ATOM      4  C   UNL     1      26.225  34.027   2.400  1.00  0.00     0.006 C 
BRANCH   4   5
ATOM      5  C   UNL     1      25.977  33.502   0.980  1.00  0.00     0.053 C 
BRANCH   5   6
ATOM      6  C   UNL     1      24.512  33.491   0.676  1.00  0.00     0.041 C 
ATOM      7  O   UNL     1      23.877  32.404   0.656  1.00  0.00    -0.550 OA
ATOM      8  O   UNL     1      23.858  34.678   0.365  1.00  0.00    -0.550 OA
ENDBRANCH   5   6
ENDBRANCH   4   5
ENDBRANCH   3   4
ENDBRANCH   2   3
ENDBRANCH   1   2
BRANCH   1   9
ATOM      9  C   UNL     1      30.028  34.781   2.469  1.00  0.00     0.000 C 
BRANCH   9  10
ATOM     10  C   UNL     1      30.155  34.273   1.028  1.00  0.00    -0.000 C 
BRANCH  10  11
ATOM     11  C   UNL     1      30.844  32.904   0.984  1.00  0.00    -0.000 C 
BRANCH  11  12
ATOM     12  C   UNL     1      32.364  33.060   0.819  1.00  0.00    -0.000 C 
BRANCH  12  13
ATOM     13  C   UNL     1      33.147  32.471   2.002  1.00  0.00    -0.003 C 
ATOM     14  C   UNL     1      33.481  33.513   3.070  1.00  0.00     0.004 C 
ENDBRANCH  12  13
ENDBRANCH  11  12
ENDBRANCH  10  11
ENDBRANCH   9  10
ENDBRANCH   1   9
TORSDOF 10
ENDMDL
MODEL 3
REMARK VINA RESULT:    -3.922      3.345      5.445
REMARK INTER + INTRA:          -7.145
REMARK INTER:                  -5.500
REMARK INTRA:                  -1.644
REMARK UNBOUND:                -0.930
REMARK SMILES CCCCCCCCCCCC(=O)[O-]
REMARK SMILES IDX 7 1 8 2 9 3 10 4 11 5 12 6 13 7 14 8 6 9 5 10 4 11 3 12 2 13
REMARK SMILES IDX 1 14
REMARK H PARENT
REMARK Flexibility Score: inf
ROOT
ATOM      1  C   UNL     1      29.496  32.837   3.656  1.00  0.00     0.000 C 
ENDROOT
BRANCH   1   2
ATOM      2  C   UNL     1      28.519  33.866   4.243  1.00  0.00     0.000 C 
BRANCH   2   3
ATOM      3  C   UNL     1      27.135  33.834   3.568  1.00  0.00     0.000 C 
BRANCH   3   4
ATOM      4  C   UNL     1      27.092  33.117   2.206  1.00  0.00     0.006 C 
BRANCH   4   5
ATOM      5  C   UNL     1      26.809  34.069   1.038  1.00  0.00     0.053 C 
BRANCH   5   6
ATOM      6  C   UNL     1      25.589  33.632   0.291  1.00  0.00     0.041 C 
ATOM      7  O   UNL     1      24.748  32.872   0.840  1.00  0.00    -0.550 OA
ATOM      8  O   UNL     1      25.405  34.022  -1.030  1.00  0.00    -0.550 OA
ENDBRANCH   5   6
ENDBRANCH   4   5
ENDBRANCH   3   4
ENDBRANCH   2   3
ENDBRANCH   1   2
BRANCH   1   9
ATOM      9  C   UNL     1      30.778  33.516   3.163  1.00  0.00     0.000 C 
BRANCH   9  10
ATOM     10  C   UNL     1      30.923  33.384   1.642  1.00  0.00    -0.000 C 
BRANCH  10  11
ATOM     11  C   UNL     1      30.440  34.653   0.929  1.00  0.00    -0.000 C 
BRANCH  11  12
ATOM     12  C   UNL     1      30.588  35.882   1.839  1.00  0.00    -0.000 C 
BRANCH  12  13
ATOM     13  C   UNL     1      29.298  36.713   1.919  1.00  0.00    -0.003 C 
ATOM     14  C   UNL     1      29.093  37.357   3.290  1.00  0.00     0.004 C 
ENDBRANCH  12  13
ENDBRANCH  11  12
ENDBRANCH  10  11
ENDBRANCH   9  10
ENDBRANCH   1   9
TORSDOF 10
ENDMDL
MODEL 4
REMARK VINA RESULT:    -3.909      1.334      2.346
REMARK INTER + INTRA:          -7.125
REMARK INTER:                  -6.523
REMARK INTRA:                  -0.602
REMARK UNBOUND:                -0.930
REMARK SMILES CCCCCCCCCCCC(=O)[O-]
REMARK SMILES IDX 7 1 8 2 9 3 10 4 11 5 12 6 13 7 14 8 6 9 5 10 4 11 3 12 2 13
REMARK SMILES IDX 1 14
REMARK H PARENT
REMARK Flexibility Score: inf
ROOT
ATOM      1  C   UNL     1      29.692  33.263   3.900  1.00  0.00     0.000 C 
ENDROOT
BRANCH   1   2
ATOM      2  C   UNL     1      30.644  33.457   2.710  1.00  0.00     0.000 C 
BRANCH   2   3
ATOM      3  C   UNL     1      32.119  33.207   3.074  1.00  0.00     0.000 C 
BRANCH   3   4
ATOM      4  C   UNL     1      32.942  32.483   1.992  1.00  0.00     0.006 C 
BRANCH   4   5
ATOM      5  C   UNL     1      33.333  33.399   0.826  1.00  0.00     0.053 C 
BRANCH   5   6
ATOM      6  C   UNL     1      32.694  32.930  -0.443  1.00  0.00     0.041 C 
ATOM      7  O   UNL     1      33.389  32.384  -1.339  1.00  0.00    -0.550 OA
ATOM      8  O   UNL     1      31.337  33.144  -0.658  1.00  0.00    -0.550 OA
ENDBRANCH   5   6
ENDBRANCH   4   5
ENDBRANCH   3   4
ENDBRANCH   2   3
ENDBRANCH   1   2
BRANCH   1   9
ATOM      9  C   UNL     1      28.539  34.272   3.852  1.00  0.00     0.000 C 
BRANCH   9  10
ATOM     10  C   UNL     1      27.185  33.559   3.760  1.00  0.00    -0.000 C 
BRANCH  10  11
ATOM     11  C   UNL     1      26.971  32.958   2.366  1.00  0.00    -0.000 C 
BRANCH  11  12
ATOM     12  C   UNL     1      27.006  34.050   1.286  1.00  0.00    -0.000 C 
BRANCH  12  13
ATOM     13  C   UNL     1      25.865  33.907   0.267  1.00  0.00    -0.003 C 
ATOM     14  C   UNL     1      24.689  33.092   0.804  1.00  0.00     0.004 C 
ENDBRANCH  12  13
ENDBRANCH  11  12
ENDBRANCH  10  11
ENDBRANCH   9  10
ENDBRANCH   1   9
TORSDOF 10
ENDMDL
MODEL 5
REMARK VINA RESULT:    -3.905      3.683      5.991
REMARK INTER + INTRA:          -7.119
REMARK INTER:                  -5.710
REMARK INTRA:                  -1.409
REMARK UNBOUND:                -0.930
REMARK SMILES CCCCCCCCCCCC(=O)[O-]
REMARK SMILES IDX 7 1 8 2 9 3 10 4 11 5 12 6 13 7 14 8 6 9 5 10 4 11 3 12 2 13
REMARK SMILES IDX 1 14
REMARK H PARENT
REMARK Flexibility Score: inf
ROOT
ATOM      1  C   UNL     1      28.574  33.919   4.301  1.00  0.00     0.000 C 
ENDROOT
BRANCH   1   2
ATOM      2  C   UNL     1      27.218  34.008   3.585  1.00  0.00     0.000 C 
BRANCH   2   3
ATOM      3  C   UNL     1      27.052  32.949   2.480  1.00  0.00     0.000 C 
BRANCH   3   4
ATOM      4  C   UNL     1      26.333  33.442   1.209  1.00  0.00     0.006 C 
BRANCH   4   5
ATOM      5  C   UNL     1      25.783  34.867   1.349  1.00  0.00     0.053 C 
BRANCH   5   6
ATOM      6  C   UNL     1      24.343  34.913   0.946  1.00  0.00     0.041 C 
ATOM      7  O   UNL     1      23.657  35.945   1.164  1.00  0.00    -0.550 OA
ATOM      8  O   UNL     1      23.746  33.796   0.374  1.00  0.00    -0.550 OA
ENDBRANCH   5   6
ENDBRANCH   4   5
ENDBRANCH   3   4
ENDBRANCH   2   3
ENDBRANCH   1   2
BRANCH   1   9
ATOM      9  C   UNL     1      29.443  32.811   3.697  1.00  0.00     0.000 C 
BRANCH   9  10
ATOM     10  C   UNL     1      30.929  33.188   3.743  1.00  0.00    -0.000 C 
BRANCH  10  11
ATOM     11  C   UNL     1      31.570  33.075   2.355  1.00  0.00    -0.000 C 
BRANCH  11  12
ATOM     12  C   UNL     1      30.506  32.820   1.278  1.00  0.00    -0.000 C 
BRANCH  12  13
ATOM     13  C   UNL     1      30.385  33.983   0.281  1.00  0.00    -0.003 C 
ATOM     14  C   UNL     1      29.666  35.196   0.870  1.00  0.00     0.004 C 
ENDBRANCH  12  13
ENDBRANCH  11  12
ENDBRANCH  10  11
ENDBRANCH   9  10
ENDBRANCH   1   9
TORSDOF 10
ENDMDL
MODEL 6
REMARK VINA RESULT:    -3.900      1.323      2.567
REMARK INTER + INTRA:          -7.110
REMARK INTER:                  -5.788
REMARK INTRA:                  -1.322
REMARK UNBOUND:                -0.930
REMARK SMILES CCCCCCCCCCCC(=O)[O-]
REMARK SMILES IDX 7 1 8 2 9 3 10 4 11 5 12 6 13 7 14 8 6 9 5 10 4 11 3 12 2 13
REMARK SMILES IDX 1 14
REMARK H PARENT
REMARK Flexibility Score: inf
ROOT
ATOM      1  C   UNL     1      27.198  33.641   3.722  1.00  0.00     0.000 C 
ENDROOT
BRANCH   1   2
ATOM      2  C   UNL     1      28.600  33.991   4.242  1.00  0.00     0.000 C 
BRANCH   2   3
ATOM      3  C   UNL     1      29.670  32.966   3.824  1.00  0.00     0.000 C 
BRANCH   3   4
ATOM      4  C   UNL     1      30.897  33.562   3.109  1.00  0.00     0.006 C 
BRANCH   4   5
ATOM      5  C   UNL     1      30.910  33.273   1.603  1.00  0.00     0.053 C 
BRANCH   5   6
ATOM      6  C   UNL     1      32.274  32.841   1.166  1.00  0.00     0.041 C 
ATOM      7  O   UNL     1      32.598  32.898  -0.049  1.00  0.00    -0.550 OA
ATOM      8  O   UNL     1      33.171  32.326   2.094  1.00  0.00    -0.550 OA
ENDBRANCH   5   6
ENDBRANCH   4   5
ENDBRANCH   3   4
ENDBRANCH   2   3
ENDBRANCH   1   2
BRANCH   1   9
ATOM      9  C   UNL     1      27.276  32.931   2.366  1.00  0.00     0.000 C 
BRANCH   9  10
ATOM     10  C   UNL     1      26.369  33.611   1.334  1.00  0.00    -0.000 C 
BRANCH  10  11
ATOM     11  C   UNL     1      26.211  35.106   1.638  1.00  0.00    -0.000 C 
BRANCH  11  12
ATOM     12  C   UNL     1      27.370  35.914   1.035  1.00  0.00    -0.000 C 
BRANCH  12  13
ATOM     13  C   UNL     1      27.951  36.937   2.023  1.00  0.00    -0.003 C 
ATOM     14  C   UNL     1      29.477  36.894   2.091  1.00  0.00     0.004 C 
ENDBRANCH  12  13
ENDBRANCH  11  12
ENDBRANCH  10  11
ENDBRANCH   9  10
ENDBRANCH   1   9
TORSDOF 10
ENDMDL
MODEL 7
REMARK VINA RESULT:    -3.897      4.111      6.716
REMARK INTER + INTRA:          -7.106
REMARK INTER:                  -6.231
REMARK INTRA:                  -0.874
REMARK UNBOUND:                -0.930
REMARK SMILES CCCCCCCCCCCC(=O)[O-]
REMARK SMILES IDX 7 1 8 2 9 3 10 4 11 5 12 6 13 7 14 8 6 9 5 10 4 11 3 12 2 13
REMARK SMILES IDX 1 14
REMARK H PARENT
REMARK Flexibility Score: inf
ROOT
ATOM      1  C   UNL     1      27.128  32.867   2.599  1.00  0.00     0.000 C 
ENDROOT
BRANCH   1   2
ATOM      2  C   UNL     1      26.952  33.635   1.280  1.00  0.00     0.000 C 
BRANCH   2   3
ATOM      3  C   UNL     1      25.829  34.686   1.341  1.00  0.00     0.000 C 
BRANCH   3   4
ATOM      4  C   UNL     1      24.400  34.112   1.332  1.00  0.00     0.006 C 
BRANCH   4   5
ATOM      5  C   UNL     1      24.291  32.792   0.560  1.00  0.00     0.053 C 
BRANCH   5   6
ATOM      6  C   UNL     1      23.023  32.754  -0.234  1.00  0.00     0.041 C 
ATOM      7  O   UNL     1      22.466  33.826  -0.590  1.00  0.00    -0.550 OA
ATOM      8  O   UNL     1      22.429  31.535  -0.537  1.00  0.00    -0.550 OA
ENDBRANCH   5   6
ENDBRANCH   4   5
ENDBRANCH   3   4
ENDBRANCH   2   3
ENDBRANCH   1   2
BRANCH   1   9
ATOM      9  C   UNL     1      27.301  33.832   3.777  1.00  0.00     0.000 C 
BRANCH   9  10
ATOM     10  C   UNL     1      28.775  34.209   3.971  1.00  0.00    -0.000 C 
BRANCH  10  11
ATOM     11  C   UNL     1      29.662  32.959   4.021  1.00  0.00    -0.000 C 
BRANCH  11  12
ATOM     12  C   UNL     1      31.097  33.286   3.580  1.00  0.00    -0.000 C 
BRANCH  12  13
ATOM     13  C   UNL     1      31.157  33.867   2.159  1.00  0.00    -0.003 C 
ATOM     14  C   UNL     1      30.696  32.875   1.092  1.00  0.00     0.004 C 
ENDBRANCH  12  13
ENDBRANCH  11  12
ENDBRANCH  10  11
ENDBRANCH   9  10
ENDBRANCH   1   9
TORSDOF 10
ENDMDL
MODEL 8
REMARK VINA RESULT:    -3.822      1.690      2.750
REMARK INTER + INTRA:          -6.987
REMARK INTER:                  -5.827
REMARK INTRA:                  -1.160
REMARK UNBOUND:                -0.930
REMARK SMILES CCCCCCCCCCCC(=O)[O-]
REMARK SMILES IDX 7 1 8 2 9 3 10 4 11 5 12 6 13 7 14 8 6 9 5 10 4 11 3 12 2 13
REMARK SMILES IDX 1 14
REMARK H PARENT
REMARK Flexibility Score: inf
ROOT
ATOM      1  C   UNL     1      28.544  34.002   4.206  1.00  0.00     0.000 C 
ENDROOT
BRANCH   1   2
ATOM      2  C   UNL     1      29.602  33.027   3.669  1.00  0.00     0.000 C 
BRANCH   2   3
ATOM      3  C   UNL     1      30.732  33.732   2.897  1.00  0.00     0.000 C 
BRANCH   3   4
ATOM      4  C   UNL     1      31.406  32.879   1.806  1.00  0.00     0.006 C 
BRANCH   4   5
ATOM      5  C   UNL     1      32.860  32.523   2.139  1.00  0.00     0.053 C 
BRANCH   5   6
ATOM      6  C   UNL     1      33.578  33.717   2.683  1.00  0.00     0.041 C 
ATOM      7  O   UNL     1      33.894  33.767   3.901  1.00  0.00    -0.550 OA
ATOM      8  O   UNL     1      33.855  34.798   1.855  1.00  0.00    -0.550 OA
ENDBRANCH   5   6
ENDBRANCH   4   5
ENDBRANCH   3   4
ENDBRANCH   2   3
ENDBRANCH   1   2
BRANCH   1   9
ATOM      9  C   UNL     1      27.137  33.587   3.762  1.00  0.00     0.000 C 
BRANCH   9  10
ATOM     10  C   UNL     1      27.168  32.927   2.377  1.00  0.00    -0.000 C 
BRANCH  10  11
ATOM     11  C   UNL     1      26.613  33.871   1.304  1.00  0.00    -0.000 C 
BRANCH  11  12
ATOM     12  C   UNL     1      27.751  34.583   0.558  1.00  0.00    -0.000 C 
BRANCH  12  13
ATOM     13  C   UNL     1      27.998  36.007   1.080  1.00  0.00    -0.003 C 
ATOM     14  C   UNL     1      26.755  36.628   1.716  1.00  0.00     0.004 C 
ENDBRANCH  12  13
ENDBRANCH  11  12
ENDBRANCH  10  11
ENDBRANCH   9  10
ENDBRANCH   1   9
TORSDOF 10
ENDMDL
MODEL 9
REMARK VINA RESULT:    -3.774      1.886      3.255
REMARK INTER + INTRA:          -6.911
REMARK INTER:                  -5.331
REMARK INTRA:                  -1.580
REMARK UNBOUND:                -0.930
REMARK SMILES CCCCCCCCCCCC(=O)[O-]
REMARK SMILES IDX 7 1 8 2 9 3 10 4 11 5 12 6 13 7 14 8 6 9 5 10 4 11 3 12 2 13
REMARK SMILES IDX 1 14
REMARK H PARENT
REMARK Flexibility Score: inf
ROOT
ATOM      1  C   UNL     1      25.459  33.495   1.276  1.00  0.00     0.000 C 
ENDROOT
BRANCH   1   2
ATOM      2  C   UNL     1      26.807  33.219   1.959  1.00  0.00     0.000 C 
BRANCH   2   3
ATOM      3  C   UNL     1      26.824  33.630   3.443  1.00  0.00     0.000 C 
BRANCH   3   4
ATOM      4  C   UNL     1      28.217  33.953   4.013  1.00  0.00     0.006 C 
BRANCH   4   5
ATOM      5  C   UNL     1      29.258  34.234   2.922  1.00  0.00     0.053 C 
BRANCH   5   6
ATOM      6  C   UNL     1      30.446  33.341   3.091  1.00  0.00     0.041 C 
ATOM      7  O   UNL     1      31.123  32.989   2.089  1.00  0.00    -0.550 OA
ATOM      8  O   UNL     1      30.777  32.855   4.351  1.00  0.00    -0.550 OA
ENDBRANCH   5   6
ENDBRANCH   4   5
ENDBRANCH   3   4
ENDBRANCH   2   3
ENDBRANCH   1   2
BRANCH   1   9
ATOM      9  C   UNL     1      25.662  33.977  -0.164  1.00  0.00     0.000 C 
BRANCH   9  10
ATOM     10  C   UNL     1      27.037  34.632  -0.339  1.00  0.00    -0.000 C 
BRANCH  10  11
ATOM     11  C   UNL     1      26.917  36.160  -0.398  1.00  0.00    -0.000 C 
BRANCH  11  12
ATOM     12  C   UNL     1      27.697  36.816   0.751  1.00  0.00    -0.000 C 
BRANCH  12  13
ATOM     13  C   UNL     1      26.824  37.059   1.993  1.00  0.00    -0.003 C 
ATOM     14  C   UNL     1      25.355  37.297   1.646  1.00  0.00     0.004 C 
ENDBRANCH  12  13
ENDBRANCH  11  12
ENDBRANCH  10  11
ENDBRANCH   9  10
ENDBRANCH   1   9
TORSDOF 10
ENDMDL
