MODEL 1
REMARK VINA RESULT:    -5.662      0.000      0.000
REMARK INTER + INTRA:          -6.467
REMARK INTER:                  -6.159
REMARK INTRA:                  -0.308
REMARK UNBOUND:                -0.308
REMARK SMILES CC1=C[C@@H]2[C@@H](CC1)[C@@](C)(O)CC[C@H]2C(C)C
REMARK SMILES IDX 1 1 2 2 3 3 4 4 13 5 12 6 11 7 8 8 5 9 6 10 7 11 9 12 14 13
REMARK SMILES IDX 15 14 16 15 10 16
REMARK H PARENT 10 17
REMARK Flexibility Score: inf
ROOT
ATOM      1  C   UNL     1      44.046 -42.027  -5.976  1.00  0.00     0.039 C 
ATOM      2  C   UNL     1      42.827 -41.470  -5.293  1.00  0.00    -0.077 C 
ATOM      3  C   UNL     1      42.983 -40.721  -4.182  1.00  0.00    -0.024 C 
ATOM      4  C   UNL     1      41.798 -40.178  -3.400  1.00  0.00     0.021 C 
ATOM      5  C   UNL     1      42.237 -39.089  -2.349  1.00  0.00    -0.001 C 
ATOM      6  C   UNL     1      41.046 -38.187  -1.920  1.00  0.00     0.007 C 
ATOM      7  C   UNL     1      40.161 -37.725  -3.070  1.00  0.00     0.035 C 
ATOM      8  C   UNL     1      39.572 -38.924  -3.834  1.00  0.00     0.065 C 
ATOM      9  C   UNL     1      40.758 -39.706  -4.458  1.00  0.00     0.028 C 
ATOM     10  C   UNL     1      40.299 -40.956  -5.247  1.00  0.00     0.011 C 
ATOM     11  C   UNL     1      41.475 -41.662  -5.953  1.00  0.00     0.031 C 
ATOM     12  C   UNL     1      38.613 -38.388  -4.924  1.00  0.00     0.042 C 
ENDROOT
BRANCH   5  13
ATOM     13  C   UNL     1      42.862 -39.714  -1.037  1.00  0.00    -0.014 C 
ATOM     14  C   UNL     1      42.977 -38.748   0.155  1.00  0.00     0.007 C 
ATOM     15  C   UNL     1      42.083 -40.961  -0.567  1.00  0.00     0.007 C 
ENDBRANCH   5  13
BRANCH   8  16
ATOM     16  O   UNL     1      38.859 -39.770  -2.959  1.00  0.00    -0.390 OA
ATOM     17  H   UNL     1      39.469 -40.501  -2.678  1.00  0.00     0.211 HD
ENDBRANCH   8  16
TORSDOF 2
ENDMDL
MODEL 2
REMARK VINA RESULT:    -5.506      1.635      4.257
REMARK INTER + INTRA:          -6.296
REMARK INTER:                  -6.023
REMARK INTRA:                  -0.273
REMARK UNBOUND:                -0.308
REMARK SMILES CC1=C[C@@H]2[C@@H](CC1)[C@@](C)(O)CC[C@H]2C(C)C
REMARK SMILES IDX 1 1 2 2 3 3 4 4 13 5 12 6 11 7 8 8 5 9 6 10 7 11 9 12 14 13
REMARK SMILES IDX 15 14 16 15 10 16
REMARK H PARENT 10 17
REMARK Flexibility Score: inf
ROOT
ATOM      1  C   UNL     1      43.698 -42.173  -6.104  1.00  0.00     0.039 C 
ATOM      2  C   UNL     1      42.824 -41.310  -5.235  1.00  0.00    -0.077 C 
ATOM      3  C   UNL     1      41.565 -41.042  -5.635  1.00  0.00    -0.024 C 
ATOM      4  C   UNL     1      40.643 -40.128  -4.845  1.00  0.00     0.021 C 
ATOM      5  C   UNL     1      39.150 -40.227  -5.340  1.00  0.00    -0.001 C 
ATOM      6  C   UNL     1      38.150 -39.720  -4.264  1.00  0.00     0.007 C 
ATOM      7  C   UNL     1      38.446 -40.204  -2.852  1.00  0.00     0.035 C 
ATOM      8  C   UNL     1      39.854 -39.775  -2.401  1.00  0.00     0.065 C 
ATOM      9  C   UNL     1      40.874 -40.468  -3.343  1.00  0.00     0.028 C 
ATOM     10  C   UNL     1      42.341 -40.105  -3.006  1.00  0.00     0.011 C 
ATOM     11  C   UNL     1      43.347 -40.883  -3.877  1.00  0.00     0.031 C 
ATOM     12  C   UNL     1      40.055 -40.215  -0.931  1.00  0.00     0.042 C 
ENDROOT
BRANCH   5  13
ATOM     13  C   UNL     1      38.884 -39.409  -6.668  1.00  0.00    -0.014 C 
ATOM     14  C   UNL     1      37.608 -39.802  -7.431  1.00  0.00     0.007 C 
ATOM     15  C   UNL     1      38.833 -37.889  -6.404  1.00  0.00     0.007 C 
ENDBRANCH   5  13
BRANCH   8  16
ATOM     16  O   UNL     1      40.003 -38.376  -2.495  1.00  0.00    -0.390 OA
ATOM     17  H   UNL     1      40.201 -38.029  -1.587  1.00  0.00     0.211 HD
ENDBRANCH   8  16
TORSDOF 2
ENDMDL
MODEL 3
REMARK VINA RESULT:    -5.084      0.975      1.324
REMARK INTER + INTRA:          -5.838
REMARK INTER:                  -5.646
REMARK INTRA:                  -0.191
REMARK UNBOUND:                -0.308
REMARK SMILES CC1=C[C@@H]2[C@@H](CC1)[C@@](C)(O)CC[C@H]2C(C)C
REMARK SMILES IDX 1 1 2 2 3 3 4 4 13 5 12 6 11 7 8 8 5 9 6 10 7 11 9 12 14 13
REMARK SMILES IDX 15 14 16 15 10 16
REMARK H PARENT 10 17
REMARK Flexibility Score: inf
ROOT
ATOM      1  C   UNL     1      43.814 -41.502  -5.582  1.00  0.00     0.039 C 
ATOM      2  C   UNL     1      42.421 -41.208  -5.096  1.00  0.00    -0.077 C 
ATOM      3  C   UNL     1      42.259 -40.493  -3.964  1.00  0.00    -0.024 C 
ATOM      4  C   UNL     1      40.886 -40.210  -3.376  1.00  0.00     0.021 C 
ATOM      5  C   UNL     1      40.944 -39.108  -2.252  1.00  0.00    -0.001 C 
ATOM      6  C   UNL     1      39.553 -38.458  -2.008  1.00  0.00     0.007 C 
ATOM      7  C   UNL     1      38.788 -38.115  -3.278  1.00  0.00     0.035 C 
ATOM      8  C   UNL     1      38.559 -39.366  -4.145  1.00  0.00     0.065 C 
ATOM      9  C   UNL     1      39.953 -39.889  -4.581  1.00  0.00     0.028 C 
ATOM     10  C   UNL     1      39.866 -41.167  -5.452  1.00  0.00     0.011 C 
ATOM     11  C   UNL     1      41.248 -41.613  -5.969  1.00  0.00     0.031 C 
ATOM     12  C   UNL     1      37.699 -38.966  -5.368  1.00  0.00     0.042 C 
ENDROOT
BRANCH   5  13
ATOM     13  C   UNL     1      41.463 -39.666  -0.865  1.00  0.00    -0.014 C 
ATOM     14  C   UNL     1      41.038 -41.109  -0.543  1.00  0.00     0.007 C 
ATOM     15  C   UNL     1      43.001 -39.585  -0.754  1.00  0.00     0.007 C 
ENDBRANCH   5  13
BRANCH   8  16
ATOM     16  O   UNL     1      37.891 -40.366  -3.409  1.00  0.00    -0.390 OA
ATOM     17  H   UNL     1      36.964 -40.434  -3.759  1.00  0.00     0.211 HD
ENDBRANCH   8  16
TORSDOF 2
ENDMDL
MODEL 4
REMARK VINA RESULT:    -5.041      1.730      4.055
REMARK INTER + INTRA:          -5.791
REMARK INTER:                  -5.658
REMARK INTRA:                  -0.133
REMARK UNBOUND:                -0.308
REMARK SMILES CC1=C[C@@H]2[C@@H](CC1)[C@@](C)(O)CC[C@H]2C(C)C
REMARK SMILES IDX 1 1 2 2 3 3 4 4 13 5 12 6 11 7 8 8 5 9 6 10 7 11 9 12 14 13
REMARK SMILES IDX 15 14 16 15 10 16
REMARK H PARENT 10 17
REMARK Flexibility Score: inf
ROOT
ATOM      1  C   UNL     1      37.911 -38.729  -7.657  1.00  0.00     0.039 C 
ATOM      2  C   UNL     1      38.300 -39.395  -6.366  1.00  0.00    -0.077 C 
ATOM      3  C   UNL     1      39.609 -39.553  -6.079  1.00  0.00    -0.024 C 
ATOM      4  C   UNL     1      40.081 -40.272  -4.826  1.00  0.00     0.021 C 
ATOM      5  C   UNL     1      41.618 -40.049  -4.563  1.00  0.00    -0.001 C 
ATOM      6  C   UNL     1      41.998 -40.329  -3.083  1.00  0.00     0.007 C 
ATOM      7  C   UNL     1      41.029 -39.747  -2.064  1.00  0.00     0.035 C 
ATOM      8  C   UNL     1      39.605 -40.290  -2.278  1.00  0.00     0.065 C 
ATOM      9  C   UNL     1      39.133 -39.816  -3.678  1.00  0.00     0.028 C 
ATOM     10  C   UNL     1      37.709 -40.313  -4.028  1.00  0.00     0.011 C 
ATOM     11  C   UNL     1      37.209 -39.745  -5.372  1.00  0.00     0.031 C 
ATOM     12  C   UNL     1      38.693 -39.735  -1.158  1.00  0.00     0.042 C 
ENDROOT
BRANCH   5  13
ATOM     13  C   UNL     1      42.539 -40.957  -5.476  1.00  0.00    -0.014 C 
ATOM     14  C   UNL     1      43.764 -41.562  -4.768  1.00  0.00     0.007 C 
ATOM     15  C   UNL     1      41.744 -42.111  -6.124  1.00  0.00     0.007 C 
ENDBRANCH   5  13
BRANCH   8  16
ATOM     16  O   UNL     1      39.597 -41.699  -2.232  1.00  0.00    -0.390 OA
ATOM     17  H   UNL     1      38.721 -42.011  -2.580  1.00  0.00     0.211 HD
ENDBRANCH   8  16
TORSDOF 2
ENDMDL
MODEL 5
REMARK VINA RESULT:    -4.817      1.930      4.754
REMARK INTER + INTRA:          -5.548
REMARK INTER:                  -5.240
REMARK INTRA:                  -0.308
REMARK UNBOUND:                -0.308
REMARK SMILES CC1=C[C@@H]2[C@@H](CC1)[C@@](C)(O)CC[C@H]2C(C)C
REMARK SMILES IDX 1 1 2 2 3 3 4 4 13 5 12 6 11 7 8 8 5 9 6 10 7 11 9 12 14 13
REMARK SMILES IDX 15 14 16 15 10 16
REMARK H PARENT 10 17
REMARK Flexibility Score: inf
ROOT
ATOM      1  C   UNL     1      39.624 -42.266   0.200  1.00  0.00     0.039 C 
ATOM      2  C   UNL     1      40.501 -41.401  -0.663  1.00  0.00    -0.077 C 
ATOM      3  C   UNL     1      40.014 -40.929  -1.828  1.00  0.00    -0.024 C 
ATOM      4  C   UNL     1      40.859 -40.103  -2.783  1.00  0.00     0.021 C 
ATOM      5  C   UNL     1      39.984 -39.416  -3.900  1.00  0.00    -0.001 C 
ATOM      6  C   UNL     1      40.717 -38.208  -4.547  1.00  0.00     0.007 C 
ATOM      7  C   UNL     1      41.417 -37.292  -3.553  1.00  0.00     0.035 C 
ATOM      8  C   UNL     1      42.459 -38.064  -2.724  1.00  0.00     0.065 C 
ATOM      9  C   UNL     1      41.695 -39.133  -1.898  1.00  0.00     0.028 C 
ATOM     10  C   UNL     1      42.636 -39.998  -1.024  1.00  0.00     0.011 C 
ATOM     11  C   UNL     1      41.857 -40.981  -0.127  1.00  0.00     0.031 C 
ATOM     12  C   UNL     1      43.197 -37.062  -1.805  1.00  0.00     0.042 C 
ENDROOT
BRANCH   5  13
ATOM     13  C   UNL     1      39.575 -40.409  -5.062  1.00  0.00    -0.014 C 
ATOM     14  C   UNL     1      38.894 -39.749  -6.273  1.00  0.00     0.007 C 
ATOM     15  C   UNL     1      40.785 -41.218  -5.577  1.00  0.00     0.007 C 
ENDBRANCH   5  13
BRANCH   8  16
ATOM     16  O   UNL     1      43.393 -38.702  -3.567  1.00  0.00    -0.390 OA
ATOM     17  H   UNL     1      44.129 -39.049  -2.998  1.00  0.00     0.211 HD
ENDBRANCH   8  16
TORSDOF 2
ENDMDL
MODEL 6
REMARK VINA RESULT:    -4.747      1.541      1.883
REMARK INTER + INTRA:          -5.471
REMARK INTER:                  -5.218
REMARK INTRA:                  -0.253
REMARK UNBOUND:                -0.308
REMARK SMILES CC1=C[C@@H]2[C@@H](CC1)[C@@](C)(O)CC[C@H]2C(C)C
REMARK SMILES IDX 1 1 2 2 3 3 4 4 13 5 12 6 11 7 8 8 5 9 6 10 7 11 9 12 14 13
REMARK SMILES IDX 15 14 16 15 10 16
REMARK H PARENT 10 17
REMARK Flexibility Score: inf
ROOT
ATOM      1  C   UNL     1      43.756 -41.534  -5.433  1.00  0.00     0.039 C 
ATOM      2  C   UNL     1      42.415 -40.940  -5.103  1.00  0.00    -0.077 C 
ATOM      3  C   UNL     1      42.361 -39.803  -4.379  1.00  0.00    -0.024 C 
ATOM      4  C   UNL     1      41.044 -39.177  -3.952  1.00  0.00     0.021 C 
ATOM      5  C   UNL     1      41.239 -37.714  -3.401  1.00  0.00    -0.001 C 
ATOM      6  C   UNL     1      39.916 -36.900  -3.441  1.00  0.00     0.007 C 
ATOM      7  C   UNL     1      39.120 -37.057  -4.729  1.00  0.00     0.035 C 
ATOM      8  C   UNL     1      38.755 -38.530  -4.982  1.00  0.00     0.065 C 
ATOM      9  C   UNL     1      40.083 -39.312  -5.170  1.00  0.00     0.028 C 
ATOM     10  C   UNL     1      39.857 -40.823  -5.417  1.00  0.00     0.011 C 
ATOM     11  C   UNL     1      41.174 -41.568  -5.710  1.00  0.00     0.031 C 
ATOM     12  C   UNL     1      37.872 -38.608  -6.250  1.00  0.00     0.042 C 
ENDROOT
BRANCH   5  13
ATOM     13  C   UNL     1      41.779 -37.680  -1.915  1.00  0.00    -0.014 C 
ATOM     14  C   UNL     1      43.217 -37.159  -1.755  1.00  0.00     0.007 C 
ATOM     15  C   UNL     1      40.865 -36.848  -0.991  1.00  0.00     0.007 C 
ENDBRANCH   5  13
BRANCH   8  16
ATOM     16  O   UNL     1      38.047 -39.063  -3.885  1.00  0.00    -0.390 OA
ATOM     17  H   UNL     1      37.217 -39.482  -4.232  1.00  0.00     0.211 HD
ENDBRANCH   8  16
TORSDOF 2
ENDMDL
MODEL 7
REMARK VINA RESULT:    -4.652      1.994      4.365
REMARK INTER + INTRA:          -5.368
REMARK INTER:                  -5.067
REMARK INTRA:                  -0.301
REMARK UNBOUND:                -0.308
REMARK SMILES CC1=C[C@@H]2[C@@H](CC1)[C@@](C)(O)CC[C@H]2C(C)C
REMARK SMILES IDX 1 1 2 2 3 3 4 4 13 5 12 6 11 7 8 8 5 9 6 10 7 11 9 12 14 13
REMARK SMILES IDX 15 14 16 15 10 16
REMARK H PARENT 10 17
REMARK Flexibility Score: inf
ROOT
ATOM      1  C   UNL     1      39.629 -41.484   0.644  1.00  0.00     0.039 C 
ATOM      2  C   UNL     1      39.403 -40.661  -0.595  1.00  0.00    -0.077 C 
ATOM      3  C   UNL     1      40.125 -40.933  -1.702  1.00  0.00    -0.024 C 
ATOM      4  C   UNL     1      40.000 -40.107  -2.972  1.00  0.00     0.021 C 
ATOM      5  C   UNL     1      40.696 -40.806  -4.200  1.00  0.00    -0.001 C 
ATOM      6  C   UNL     1      40.163 -40.261  -5.554  1.00  0.00     0.007 C 
ATOM      7  C   UNL     1      38.651 -40.098  -5.614  1.00  0.00     0.035 C 
ATOM      8  C   UNL     1      38.150 -39.147  -4.513  1.00  0.00     0.065 C 
ATOM      9  C   UNL     1      38.483 -39.803  -3.147  1.00  0.00     0.028 C 
ATOM     10  C   UNL     1      38.043 -38.933  -1.944  1.00  0.00     0.011 C 
ATOM     11  C   UNL     1      38.279 -39.643  -0.596  1.00  0.00     0.031 C 
ATOM     12  C   UNL     1      36.625 -38.951  -4.688  1.00  0.00     0.042 C 
ENDROOT
BRANCH   5  13
ATOM     13  C   UNL     1      42.269 -40.634  -4.199  1.00  0.00    -0.014 C 
ATOM     14  C   UNL     1      42.994 -41.259  -5.403  1.00  0.00     0.007 C 
ATOM     15  C   UNL     1      42.684 -39.150  -4.110  1.00  0.00     0.007 C 
ENDBRANCH   5  13
BRANCH   8  16
ATOM     16  O   UNL     1      38.796 -37.896  -4.603  1.00  0.00    -0.390 OA
ATOM     17  H   UNL     1      39.451 -37.945  -5.347  1.00  0.00     0.211 HD
ENDBRANCH   8  16
TORSDOF 2
ENDMDL
MODEL 8
REMARK VINA RESULT:    -4.650      1.806      3.738
REMARK INTER + INTRA:          -5.366
REMARK INTER:                  -5.056
REMARK INTRA:                  -0.310
REMARK UNBOUND:                -0.308
REMARK SMILES CC1=C[C@@H]2[C@@H](CC1)[C@@](C)(O)CC[C@H]2C(C)C
REMARK SMILES IDX 1 1 2 2 3 3 4 4 13 5 12 6 11 7 8 8 5 9 6 10 7 11 9 12 14 13
REMARK SMILES IDX 15 14 16 15 10 16
REMARK H PARENT 10 17
REMARK Flexibility Score: inf
ROOT
ATOM      1  C   UNL     1      36.855 -40.755  -4.225  1.00  0.00     0.039 C 
ATOM      2  C   UNL     1      38.315 -40.398  -4.286  1.00  0.00    -0.077 C 
ATOM      3  C   UNL     1      38.976 -40.146  -3.137  1.00  0.00    -0.024 C 
ATOM      4  C   UNL     1      40.434 -39.716  -3.121  1.00  0.00     0.021 C 
ATOM      5  C   UNL     1      41.053 -39.793  -1.674  1.00  0.00    -0.001 C 
ATOM      6  C   UNL     1      42.606 -39.854  -1.713  1.00  0.00     0.007 C 
ATOM      7  C   UNL     1      43.171 -40.802  -2.762  1.00  0.00     0.035 C 
ATOM      8  C   UNL     1      42.696 -40.417  -4.174  1.00  0.00     0.065 C 
ATOM      9  C   UNL     1      41.153 -40.574  -4.203  1.00  0.00     0.028 C 
ATOM     10  C   UNL     1      40.540 -40.198  -5.575  1.00  0.00     0.011 C 
ATOM     11  C   UNL     1      39.022 -40.462  -5.626  1.00  0.00     0.031 C 
ATOM     12  C   UNL     1      43.378 -41.357  -5.196  1.00  0.00     0.042 C 
ENDROOT
BRANCH   5  13
ATOM     13  C   UNL     1      40.644 -38.568  -0.761  1.00  0.00    -0.014 C 
ATOM     14  C   UNL     1      41.440 -38.436   0.549  1.00  0.00     0.007 C 
ATOM     15  C   UNL     1      40.748 -37.227  -1.519  1.00  0.00     0.007 C 
ENDBRANCH   5  13
BRANCH   8  16
ATOM     16  O   UNL     1      43.038 -39.080  -4.466  1.00  0.00    -0.390 OA
ATOM     17  H   UNL     1      42.501 -38.491  -3.875  1.00  0.00     0.211 HD
ENDBRANCH   8  16
TORSDOF 2
ENDMDL
MODEL 9
REMARK VINA RESULT:    -4.604      1.492      4.407
REMARK INTER + INTRA:          -5.316
REMARK INTER:                  -5.053
REMARK INTRA:                  -0.263
REMARK UNBOUND:                -0.308
REMARK SMILES CC1=C[C@@H]2[C@@H](CC1)[C@@](C)(O)CC[C@H]2C(C)C
REMARK SMILES IDX 1 1 2 2 3 3 4 4 13 5 12 6 11 7 8 8 5 9 6 10 7 11 9 12 14 13
REMARK SMILES IDX 15 14 16 15 10 16
REMARK H PARENT 10 17
REMARK Flexibility Score: inf
ROOT
ATOM      1  C   UNL     1      39.341 -36.185  -5.529  1.00  0.00     0.039 C 
ATOM      2  C   UNL     1      39.621 -37.283  -4.541  1.00  0.00    -0.077 C 
ATOM      3  C   UNL     1      40.721 -38.046  -4.703  1.00  0.00    -0.024 C 
ATOM      4  C   UNL     1      41.038 -39.214  -3.783  1.00  0.00     0.021 C 
ATOM      5  C   UNL     1      42.512 -39.736  -3.982  1.00  0.00    -0.001 C 
ATOM      6  C   UNL     1      43.007 -40.549  -2.753  1.00  0.00     0.007 C 
ATOM      7  C   UNL     1      42.667 -39.925  -1.407  1.00  0.00     0.035 C 
ATOM      8  C   UNL     1      41.148 -39.740  -1.248  1.00  0.00     0.065 C 
ATOM      9  C   UNL     1      40.683 -38.743  -2.342  1.00  0.00     0.028 C 
ATOM     10  C   UNL     1      39.158 -38.481  -2.303  1.00  0.00     0.011 C 
ATOM     11  C   UNL     1      38.726 -37.407  -3.322  1.00  0.00     0.031 C 
ATOM     12  C   UNL     1      40.865 -39.192   0.171  1.00  0.00     0.042 C 
ENDROOT
BRANCH   5  13
ATOM     13  C   UNL     1      42.676 -40.651  -5.262  1.00  0.00    -0.014 C 
ATOM     14  C   UNL     1      43.836 -41.659  -5.198  1.00  0.00     0.007 C 
ATOM     15  C   UNL     1      41.382 -41.432  -5.578  1.00  0.00     0.007 C 
ENDBRANCH   5  13
BRANCH   8  16
ATOM     16  O   UNL     1      40.477 -40.969  -1.416  1.00  0.00    -0.390 OA
ATOM     17  H   UNL     1      40.166 -41.020  -2.358  1.00  0.00     0.211 HD
ENDBRANCH   8  16
TORSDOF 2
ENDMDL
