MODEL 1
REMARK VINA RESULT:    -4.120      0.000      0.000
REMARK INTER + INTRA:          -8.384
REMARK INTER:                  -7.010
REMARK INTRA:                  -1.373
REMARK UNBOUND:                -1.373
REMARK SMILES CCCCCCCCCCCCCC(=O)[O-]
REMARK SMILES IDX 8 1 9 2 10 3 11 4 12 5 13 6 14 7 15 8 16 9 7 10 6 11 5 12
REMARK SMILES IDX 4 13 3 14 2 15 1 16
REMARK H PARENT
REMARK Flexibility Score: inf
ROOT
ATOM      1  C   UNL     1      10.605 -27.595 -29.841  1.00  0.00     0.000 C 
ENDROOT
BRANCH   1   2
ATOM      2  C   UNL     1      10.989 -26.118 -30.037  1.00  0.00     0.000 C 
BRANCH   2   3
ATOM      3  C   UNL     1       9.769 -25.182 -30.011  1.00  0.00     0.000 C 
BRANCH   3   4
ATOM      4  C   UNL     1       9.520 -24.500 -31.365  1.00  0.00     0.000 C 
BRANCH   4   5
ATOM      5  C   UNL     1      10.789 -24.523 -32.231  1.00  0.00     0.006 C 
BRANCH   5   6
ATOM      6  C   UNL     1      11.352 -23.117 -32.475  1.00  0.00     0.053 C 
BRANCH   6   7
ATOM      7  C   UNL     1      11.964 -22.542 -31.234  1.00  0.00     0.041 C 
ATOM      8  O   UNL     1      12.852 -23.181 -30.610  1.00  0.00    -0.550 OA
ATOM      9  O   UNL     1      11.579 -21.285 -30.787  1.00  0.00    -0.550 OA
ENDBRANCH   6   7
ENDBRANCH   5   6
ENDBRANCH   4   5
ENDBRANCH   3   4
ENDBRANCH   2   3
ENDBRANCH   1   2
BRANCH   1  10
ATOM     10  C   UNL     1       9.101 -27.784 -29.583  1.00  0.00     0.000 C 
BRANCH  10  11
ATOM     11  C   UNL     1       8.808 -28.340 -28.182  1.00  0.00    -0.000 C 
BRANCH  11  12
ATOM     12  C   UNL     1       8.385 -27.220 -27.224  1.00  0.00    -0.000 C 
BRANCH  12  13
ATOM     13  C   UNL     1       9.470 -26.952 -26.175  1.00  0.00    -0.000 C 
BRANCH  13  14
ATOM     14  C   UNL     1      10.217 -25.647 -26.477  1.00  0.00    -0.000 C 
BRANCH  14  15
ATOM     15  C   UNL     1      10.616 -24.930 -25.181  1.00  0.00    -0.003 C 
ATOM     16  C   UNL     1       9.426 -24.798 -24.235  1.00  0.00     0.004 C 
ENDBRANCH  14  15
ENDBRANCH  13  14
ENDBRANCH  12  13
ENDBRANCH  11  12
ENDBRANCH  10  11
ENDBRANCH   1  10
TORSDOF 12
ENDMDL
MODEL 2
REMARK VINA RESULT:    -4.050      1.533      2.328
REMARK INTER + INTRA:          -8.265
REMARK INTER:                  -6.469
REMARK INTRA:                  -1.796
REMARK UNBOUND:                -1.373
REMARK SMILES CCCCCCCCCCCCCC(=O)[O-]
REMARK SMILES IDX 8 1 9 2 10 3 11 4 12 5 13 6 14 7 15 8 16 9 7 10 6 11 5 12
REMARK SMILES IDX 4 13 3 14 2 15 1 16
REMARK H PARENT
REMARK Flexibility Score: inf
ROOT
ATOM      1  C   UNL     1       9.073 -28.211 -29.773  1.00  0.00     0.000 C 
ENDROOT
BRANCH   1   2
ATOM      2  C   UNL     1      10.525 -27.742 -29.972  1.00  0.00     0.000 C 
BRANCH   2   3
ATOM      3  C   UNL     1      10.627 -26.508 -30.883  1.00  0.00     0.000 C 
BRANCH   3   4
ATOM      4  C   UNL     1       9.662 -25.387 -30.469  1.00  0.00     0.000 C 
BRANCH   4   5
ATOM      5  C   UNL     1      10.347 -24.015 -30.555  1.00  0.00     0.006 C 
BRANCH   5   6
ATOM      6  C   UNL     1      11.819 -24.125 -30.971  1.00  0.00     0.053 C 
BRANCH   6   7
ATOM      7  C   UNL     1      12.152 -23.181 -32.085  1.00  0.00     0.041 C 
ATOM      8  O   UNL     1      12.133 -21.937 -31.890  1.00  0.00    -0.550 OA
ATOM      9  O   UNL     1      12.518 -23.676 -33.331  1.00  0.00    -0.550 OA
ENDBRANCH   6   7
ENDBRANCH   5   6
ENDBRANCH   4   5
ENDBRANCH   3   4
ENDBRANCH   2   3
ENDBRANCH   1   2
BRANCH   1  10
ATOM     10  C   UNL     1       8.755 -28.542 -28.305  1.00  0.00     0.000 C 
BRANCH  10  11
ATOM     11  C   UNL     1       8.394 -27.295 -27.484  1.00  0.00    -0.000 C 
BRANCH  11  12
ATOM     12  C   UNL     1       9.531 -26.920 -26.527  1.00  0.00    -0.000 C 
BRANCH  12  13
ATOM     13  C   UNL     1      10.210 -25.616 -26.961  1.00  0.00    -0.000 C 
BRANCH  13  14
ATOM     14  C   UNL     1      11.643 -25.535 -26.421  1.00  0.00    -0.000 C 
BRANCH  14  15
ATOM     15  C   UNL     1      12.662 -25.882 -27.513  1.00  0.00    -0.003 C 
ATOM     16  C   UNL     1      13.054 -27.356 -27.453  1.00  0.00     0.004 C 
ENDBRANCH  14  15
ENDBRANCH  13  14
ENDBRANCH  12  13
ENDBRANCH  11  12
ENDBRANCH  10  11
ENDBRANCH   1  10
TORSDOF 12
ENDMDL
MODEL 3
REMARK VINA RESULT:    -3.977      1.249      2.880
REMARK INTER + INTRA:          -8.140
REMARK INTER:                  -6.416
REMARK INTRA:                  -1.723
REMARK UNBOUND:                -1.373
REMARK SMILES CCCCCCCCCCCCCC(=O)[O-]
REMARK SMILES IDX 8 1 9 2 10 3 11 4 12 5 13 6 14 7 15 8 16 9 7 10 6 11 5 12
REMARK SMILES IDX 4 13 3 14 2 15 1 16
REMARK H PARENT
REMARK Flexibility Score: inf
ROOT
ATOM      1  C   UNL     1      11.310 -25.804 -29.762  1.00  0.00     0.000 C 
ENDROOT
BRANCH   1   2
ATOM      2  C   UNL     1      10.262 -24.677 -29.776  1.00  0.00     0.000 C 
BRANCH   2   3
ATOM      3  C   UNL     1       9.464 -24.628 -31.089  1.00  0.00     0.000 C 
BRANCH   3   4
ATOM      4  C   UNL     1      10.321 -24.983 -32.314  1.00  0.00     0.000 C 
BRANCH   4   5
ATOM      5  C   UNL     1      10.806 -23.713 -33.029  1.00  0.00     0.006 C 
BRANCH   5   6
ATOM      6  C   UNL     1      12.329 -23.547 -32.949  1.00  0.00     0.053 C 
BRANCH   6   7
ATOM      7  C   UNL     1      12.724 -22.567 -31.887  1.00  0.00     0.041 C 
ATOM      8  O   UNL     1      12.550 -21.333 -32.065  1.00  0.00    -0.550 OA
ATOM      9  O   UNL     1      13.254 -23.021 -30.685  1.00  0.00    -0.550 OA
ENDBRANCH   6   7
ENDBRANCH   5   6
ENDBRANCH   4   5
ENDBRANCH   3   4
ENDBRANCH   2   3
ENDBRANCH   1   2
BRANCH   1  10
ATOM     10  C   UNL     1      11.730 -26.202 -28.338  1.00  0.00     0.000 C 
BRANCH  10  11
ATOM     11  C   UNL     1      10.933 -25.456 -27.257  1.00  0.00    -0.000 C 
BRANCH  11  12
ATOM     12  C   UNL     1      10.393 -26.430 -26.203  1.00  0.00    -0.000 C 
BRANCH  12  13
ATOM     13  C   UNL     1       9.756 -27.658 -26.863  1.00  0.00    -0.000 C 
BRANCH  13  14
ATOM     14  C   UNL     1       8.349 -27.337 -27.382  1.00  0.00    -0.000 C 
BRANCH  14  15
ATOM     15  C   UNL     1       8.209 -27.718 -28.861  1.00  0.00    -0.003 C 
ATOM     16  C   UNL     1       8.997 -28.985 -29.180  1.00  0.00     0.004 C 
ENDBRANCH  14  15
ENDBRANCH  13  14
ENDBRANCH  12  13
ENDBRANCH  11  12
ENDBRANCH  10  11
ENDBRANCH   1  10
TORSDOF 12
ENDMDL
MODEL 4
REMARK VINA RESULT:    -3.947      2.293      3.345
REMARK INTER + INTRA:          -8.089
REMARK INTER:                  -6.277
REMARK INTRA:                  -1.813
REMARK UNBOUND:                -1.373
REMARK SMILES CCCCCCCCCCCCCC(=O)[O-]
REMARK SMILES IDX 8 1 9 2 10 3 11 4 12 5 13 6 14 7 15 8 16 9 7 10 6 11 5 12
REMARK SMILES IDX 4 13 3 14 2 15 1 16
REMARK H PARENT
REMARK Flexibility Score: inf
ROOT
ATOM      1  C   UNL     1      10.867 -29.451 -28.269  1.00  0.00     0.000 C 
ENDROOT
BRANCH   1   2
ATOM      2  C   UNL     1       9.334 -29.347 -28.346  1.00  0.00     0.000 C 
BRANCH   2   3
ATOM      3  C   UNL     1       8.858 -28.534 -29.562  1.00  0.00     0.000 C 
BRANCH   3   4
ATOM      4  C   UNL     1       9.506 -27.143 -29.632  1.00  0.00     0.000 C 
BRANCH   4   5
ATOM      5  C   UNL     1      10.565 -27.088 -30.744  1.00  0.00     0.006 C 
BRANCH   5   6
ATOM      6  C   UNL     1      11.024 -25.654 -31.038  1.00  0.00     0.053 C 
BRANCH   6   7
ATOM      7  C   UNL     1       9.894 -24.800 -31.527  1.00  0.00     0.041 C 
ATOM      8  O   UNL     1       9.288 -24.033 -30.733  1.00  0.00    -0.550 OA
ATOM      9  O   UNL     1       9.533 -24.825 -32.869  1.00  0.00    -0.550 OA
ENDBRANCH   6   7
ENDBRANCH   5   6
ENDBRANCH   4   5
ENDBRANCH   3   4
ENDBRANCH   2   3
ENDBRANCH   1   2
BRANCH   1  10
ATOM     10  C   UNL     1      11.380 -29.536 -26.822  1.00  0.00     0.000 C 
BRANCH  10  11
ATOM     11  C   UNL     1      12.592 -28.626 -26.571  1.00  0.00    -0.000 C 
BRANCH  11  12
ATOM     12  C   UNL     1      12.747 -27.596 -27.696  1.00  0.00    -0.000 C 
BRANCH  12  13
ATOM     13  C   UNL     1      12.770 -26.169 -27.136  1.00  0.00    -0.000 C 
BRANCH  13  14
ATOM     14  C   UNL     1      11.402 -25.494 -27.292  1.00  0.00    -0.000 C 
BRANCH  14  15
ATOM     15  C   UNL     1      10.652 -25.457 -25.955  1.00  0.00    -0.003 C 
ATOM     16  C   UNL     1       9.468 -26.420 -25.960  1.00  0.00     0.004 C 
ENDBRANCH  14  15
ENDBRANCH  13  14
ENDBRANCH  12  13
ENDBRANCH  11  12
ENDBRANCH  10  11
ENDBRANCH   1  10
TORSDOF 12
ENDMDL
MODEL 5
REMARK VINA RESULT:    -3.930      2.006      4.010
REMARK INTER + INTRA:          -8.060
REMARK INTER:                  -6.594
REMARK INTRA:                  -1.466
REMARK UNBOUND:                -1.373
REMARK SMILES CCCCCCCCCCCCCC(=O)[O-]
REMARK SMILES IDX 8 1 9 2 10 3 11 4 12 5 13 6 14 7 15 8 16 9 7 10 6 11 5 12
REMARK SMILES IDX 4 13 3 14 2 15 1 16
REMARK H PARENT
REMARK Flexibility Score: inf
ROOT
ATOM      1  C   UNL     1      11.130 -26.720 -26.816  1.00  0.00     0.000 C 
ENDROOT
BRANCH   1   2
ATOM      2  C   UNL     1      12.107 -26.787 -28.002  1.00  0.00     0.000 C 
BRANCH   2   3
ATOM      3  C   UNL     1      11.940 -25.606 -28.972  1.00  0.00     0.000 C 
BRANCH   3   4
ATOM      4  C   UNL     1      10.618 -24.853 -28.762  1.00  0.00     0.000 C 
BRANCH   4   5
ATOM      5  C   UNL     1       9.683 -25.041 -29.967  1.00  0.00     0.006 C 
BRANCH   5   6
ATOM      6  C   UNL     1       9.878 -23.953 -31.030  1.00  0.00     0.053 C 
BRANCH   6   7
ATOM      7  C   UNL     1      10.535 -24.495 -32.263  1.00  0.00     0.041 C 
ATOM      8  O   UNL     1      10.985 -23.710 -33.139  1.00  0.00    -0.550 OA
ATOM      9  O   UNL     1      10.681 -25.867 -32.427  1.00  0.00    -0.550 OA
ENDBRANCH   6   7
ENDBRANCH   5   6
ENDBRANCH   4   5
ENDBRANCH   3   4
ENDBRANCH   2   3
ENDBRANCH   1   2
BRANCH   1  10
ATOM     10  C   UNL     1      10.068 -27.831 -26.862  1.00  0.00     0.000 C 
BRANCH  10  11
ATOM     11  C   UNL     1       8.640 -27.279 -26.973  1.00  0.00    -0.000 C 
BRANCH  11  12
ATOM     12  C   UNL     1       8.002 -27.668 -28.312  1.00  0.00    -0.000 C 
BRANCH  12  13
ATOM     13  C   UNL     1       8.898 -28.642 -29.086  1.00  0.00    -0.000 C 
BRANCH  13  14
ATOM     14  C   UNL     1       8.058 -29.655 -29.874  1.00  0.00    -0.000 C 
BRANCH  14  15
ATOM     15  C   UNL     1       8.282 -31.079 -29.351  1.00  0.00    -0.003 C 
ATOM     16  C   UNL     1       9.433 -31.125 -28.351  1.00  0.00     0.004 C 
ENDBRANCH  14  15
ENDBRANCH  13  14
ENDBRANCH  12  13
ENDBRANCH  11  12
ENDBRANCH  10  11
ENDBRANCH   1  10
TORSDOF 12
ENDMDL
MODEL 6
REMARK VINA RESULT:    -3.901      3.649      6.631
REMARK INTER + INTRA:          -8.011
REMARK INTER:                  -7.050
REMARK INTRA:                  -0.961
REMARK UNBOUND:                -1.373
REMARK SMILES CCCCCCCCCCCCCC(=O)[O-]
REMARK SMILES IDX 8 1 9 2 10 3 11 4 12 5 13 6 14 7 15 8 16 9 7 10 6 11 5 12
REMARK SMILES IDX 4 13 3 14 2 15 1 16
REMARK H PARENT
REMARK Flexibility Score: inf
ROOT
ATOM      1  C   UNL     1       8.379 -26.991 -28.021  1.00  0.00     0.000 C 
ENDROOT
BRANCH   1   2
ATOM      2  C   UNL     1       8.683 -27.155 -26.522  1.00  0.00     0.000 C 
BRANCH   2   3
ATOM      3  C   UNL     1       9.681 -26.106 -26.003  1.00  0.00     0.000 C 
BRANCH   3   4
ATOM      4  C   UNL     1       9.161 -25.358 -24.766  1.00  0.00     0.000 C 
BRANCH   4   5
ATOM      5  C   UNL     1      10.324 -24.769 -23.954  1.00  0.00     0.006 C 
BRANCH   5   6
ATOM      6  C   UNL     1      10.179 -25.041 -22.451  1.00  0.00     0.053 C 
BRANCH   6   7
ATOM      7  C   UNL     1       9.435 -23.941 -21.757  1.00  0.00     0.041 C 
ATOM      8  O   UNL     1       9.013 -24.102 -20.582  1.00  0.00    -0.550 OA
ATOM      9  O   UNL     1       9.238 -22.723 -22.398  1.00  0.00    -0.550 OA
ENDBRANCH   6   7
ENDBRANCH   5   6
ENDBRANCH   4   5
ENDBRANCH   3   4
ENDBRANCH   2   3
ENDBRANCH   1   2
BRANCH   1  10
ATOM     10  C   UNL     1       8.612 -28.287 -28.815  1.00  0.00     0.000 C 
BRANCH  10  11
ATOM     11  C   UNL     1       9.595 -28.097 -29.980  1.00  0.00    -0.000 C 
BRANCH  11  12
ATOM     12  C   UNL     1      10.941 -27.559 -29.480  1.00  0.00    -0.000 C 
BRANCH  12  13
ATOM     13  C   UNL     1      11.210 -26.153 -30.027  1.00  0.00    -0.000 C 
BRANCH  13  14
ATOM     14  C   UNL     1      10.951 -26.090 -31.537  1.00  0.00    -0.000 C 
BRANCH  14  15
ATOM     15  C   UNL     1      10.056 -24.897 -31.892  1.00  0.00    -0.003 C 
ATOM     16  C   UNL     1       9.449 -24.271 -30.639  1.00  0.00     0.004 C 
ENDBRANCH  14  15
ENDBRANCH  13  14
ENDBRANCH  12  13
ENDBRANCH  11  12
ENDBRANCH  10  11
ENDBRANCH   1  10
TORSDOF 12
ENDMDL
MODEL 7
REMARK VINA RESULT:    -3.892      2.427      6.119
REMARK INTER + INTRA:          -7.995
REMARK INTER:                  -6.720
REMARK INTRA:                  -1.275
REMARK UNBOUND:                -1.373
REMARK SMILES CCCCCCCCCCCCCC(=O)[O-]
REMARK SMILES IDX 8 1 9 2 10 3 11 4 12 5 13 6 14 7 15 8 16 9 7 10 6 11 5 12
REMARK SMILES IDX 4 13 3 14 2 15 1 16
REMARK H PARENT
REMARK Flexibility Score: inf
ROOT
ATOM      1  C   UNL     1      10.795 -26.616 -31.211  1.00  0.00     0.000 C 
ENDROOT
BRANCH   1   2
ATOM      2  C   UNL     1      10.558 -27.384 -29.898  1.00  0.00     0.000 C 
BRANCH   2   3
ATOM      3  C   UNL     1       9.394 -28.383 -30.001  1.00  0.00     0.000 C 
BRANCH   3   4
ATOM      4  C   UNL     1       8.389 -28.238 -28.847  1.00  0.00     0.000 C 
BRANCH   4   5
ATOM      5  C   UNL     1       8.550 -26.880 -28.148  1.00  0.00     0.006 C 
BRANCH   5   6
ATOM      6  C   UNL     1       8.606 -27.015 -26.621  1.00  0.00     0.053 C 
BRANCH   6   7
ATOM      7  C   UNL     1       9.610 -26.081 -26.018  1.00  0.00     0.041 C 
ATOM      8  O   UNL     1       9.635 -25.892 -24.773  1.00  0.00    -0.550 OA
ATOM      9  O   UNL     1      10.543 -25.446 -26.829  1.00  0.00    -0.550 OA
ENDBRANCH   6   7
ENDBRANCH   5   6
ENDBRANCH   4   5
ENDBRANCH   3   4
ENDBRANCH   2   3
ENDBRANCH   1   2
BRANCH   1  10
ATOM     10  C   UNL     1       9.908 -25.366 -31.332  1.00  0.00     0.000 C 
BRANCH  10  11
ATOM     11  C   UNL     1      10.204 -24.325 -30.243  1.00  0.00    -0.000 C 
BRANCH  11  12
ATOM     12  C   UNL     1      10.859 -23.074 -30.842  1.00  0.00    -0.000 C 
BRANCH  12  13
ATOM     13  C   UNL     1      12.387 -23.185 -30.812  1.00  0.00    -0.000 C 
BRANCH  13  14
ATOM     14  C   UNL     1      13.001 -22.689 -32.127  1.00  0.00    -0.000 C 
BRANCH  14  15
ATOM     15  C   UNL     1      12.451 -23.478 -33.322  1.00  0.00    -0.003 C 
ATOM     16  C   UNL     1      11.903 -22.541 -34.395  1.00  0.00     0.004 C 
ENDBRANCH  14  15
ENDBRANCH  13  14
ENDBRANCH  12  13
ENDBRANCH  11  12
ENDBRANCH  10  11
ENDBRANCH   1  10
TORSDOF 12
ENDMDL
MODEL 8
REMARK VINA RESULT:    -3.874      3.044      5.671
REMARK INTER + INTRA:          -7.964
REMARK INTER:                  -6.311
REMARK INTRA:                  -1.653
REMARK UNBOUND:                -1.373
REMARK SMILES CCCCCCCCCCCCCC(=O)[O-]
REMARK SMILES IDX 8 1 9 2 10 3 11 4 12 5 13 6 14 7 15 8 16 9 7 10 6 11 5 12
REMARK SMILES IDX 4 13 3 14 2 15 1 16
REMARK H PARENT
REMARK Flexibility Score: inf
ROOT
ATOM      1  C   UNL     1       8.645 -27.019 -27.058  1.00  0.00     0.000 C 
ENDROOT
BRANCH   1   2
ATOM      2  C   UNL     1       9.459 -26.408 -25.905  1.00  0.00     0.000 C 
BRANCH   2   3
ATOM      3  C   UNL     1      10.591 -25.494 -26.400  1.00  0.00     0.000 C 
BRANCH   3   4
ATOM      4  C   UNL     1      11.961 -25.889 -25.828  1.00  0.00     0.000 C 
BRANCH   4   5
ATOM      5  C   UNL     1      13.011 -25.999 -26.944  1.00  0.00     0.006 C 
BRANCH   5   6
ATOM      6  C   UNL     1      13.205 -27.445 -27.419  1.00  0.00     0.053 C 
BRANCH   6   7
ATOM      7  C   UNL     1      14.432 -28.063 -26.824  1.00  0.00     0.041 C 
ATOM      8  O   UNL     1      15.576 -27.666 -27.170  1.00  0.00    -0.550 OA
ATOM      9  O   UNL     1      14.313 -29.057 -25.860  1.00  0.00    -0.550 OA
ENDBRANCH   6   7
ENDBRANCH   5   6
ENDBRANCH   4   5
ENDBRANCH   3   4
ENDBRANCH   2   3
ENDBRANCH   1   2
BRANCH   1  10
ATOM     10  C   UNL     1       9.501 -27.898 -27.984  1.00  0.00     0.000 C 
BRANCH  10  11
ATOM     11  C   UNL     1       9.185 -27.674 -29.471  1.00  0.00    -0.000 C 
BRANCH  11  12
ATOM     12  C   UNL     1      10.460 -27.358 -30.261  1.00  0.00    -0.000 C 
BRANCH  12  13
ATOM     13  C   UNL     1      10.947 -25.932 -29.977  1.00  0.00    -0.000 C 
BRANCH  13  14
ATOM     14  C   UNL     1       9.805 -24.920 -30.132  1.00  0.00    -0.000 C 
BRANCH  14  15
ATOM     15  C   UNL     1       9.561 -24.588 -31.609  1.00  0.00    -0.003 C 
ATOM     16  C   UNL     1      10.866 -24.239 -32.318  1.00  0.00     0.004 C 
ENDBRANCH  14  15
ENDBRANCH  13  14
ENDBRANCH  12  13
ENDBRANCH  11  12
ENDBRANCH  10  11
ENDBRANCH   1  10
TORSDOF 12
ENDMDL
MODEL 9
REMARK VINA RESULT:    -3.872      3.172      5.692
REMARK INTER + INTRA:          -7.962
REMARK INTER:                  -6.140
REMARK INTRA:                  -1.822
REMARK UNBOUND:                -1.373
REMARK SMILES CCCCCCCCCCCCCC(=O)[O-]
REMARK SMILES IDX 8 1 9 2 10 3 11 4 12 5 13 6 14 7 15 8 16 9 7 10 6 11 5 12
REMARK SMILES IDX 4 13 3 14 2 15 1 16
REMARK H PARENT
REMARK Flexibility Score: inf
ROOT
ATOM      1  C   UNL     1       8.883 -26.695 -28.362  1.00  0.00     0.000 C 
ENDROOT
BRANCH   1   2
ATOM      2  C   UNL     1       8.672 -27.132 -26.902  1.00  0.00     0.000 C 
BRANCH   2   3
ATOM      3  C   UNL     1       9.476 -26.279 -25.907  1.00  0.00     0.000 C 
BRANCH   3   4
ATOM      4  C   UNL     1      10.639 -25.531 -26.577  1.00  0.00     0.000 C 
BRANCH   4   5
ATOM      5  C   UNL     1      11.991 -26.089 -26.107  1.00  0.00     0.006 C 
BRANCH   5   6
ATOM      6  C   UNL     1      12.495 -27.225 -27.006  1.00  0.00     0.053 C 
BRANCH   6   7
ATOM      7  C   UNL     1      12.220 -28.570 -26.406  1.00  0.00     0.041 C 
ATOM      8  O   UNL     1      12.532 -28.807 -25.209  1.00  0.00    -0.550 OA
ATOM      9  O   UNL     1      11.588 -29.552 -27.159  1.00  0.00    -0.550 OA
ENDBRANCH   6   7
ENDBRANCH   5   6
ENDBRANCH   4   5
ENDBRANCH   3   4
ENDBRANCH   2   3
ENDBRANCH   1   2
BRANCH   1  10
ATOM     10  C   UNL     1       9.257 -27.868 -29.282  1.00  0.00     0.000 C 
BRANCH  10  11
ATOM     11  C   UNL     1      10.605 -27.659 -29.987  1.00  0.00    -0.000 C 
BRANCH  11  12
ATOM     12  C   UNL     1      10.402 -27.271 -31.457  1.00  0.00    -0.000 C 
BRANCH  12  13
ATOM     13  C   UNL     1      11.025 -25.903 -31.757  1.00  0.00    -0.000 C 
BRANCH  13  14
ATOM     14  C   UNL     1       9.945 -24.821 -31.881  1.00  0.00    -0.000 C 
BRANCH  14  15
ATOM     15  C   UNL     1       9.906 -23.938 -30.628  1.00  0.00    -0.003 C 
ATOM     16  C   UNL     1      11.254 -23.937 -29.912  1.00  0.00     0.004 C 
ENDBRANCH  14  15
ENDBRANCH  13  14
ENDBRANCH  12  13
ENDBRANCH  11  12
ENDBRANCH  10  11
ENDBRANCH   1  10
TORSDOF 12
ENDMDL
