MODEL 1
REMARK VINA RESULT:    -6.008      0.000      0.000
REMARK INTER + INTRA:          -8.011
REMARK INTER:                  -7.413
REMARK INTRA:                  -0.598
REMARK UNBOUND:                -0.598
REMARK SMILES CC(C)=CCC[C@H](C)c1ccc(C)cc1
REMARK SMILES IDX 6 1 7 2 8 3 9 4 13 5 12 6 11 7 14 8 10 9 15 10 5 11 4 12
REMARK SMILES IDX 2 13 1 14 3 15
REMARK H PARENT
REMARK Flexibility Score: inf
ROOT
ATOM      1  C   UNL     1     -15.333 -22.682 -41.366  1.00  0.00     0.012 C 
ENDROOT
BRANCH   1   2
ATOM      2  C   UNL     1     -14.550 -22.944 -42.675  1.00  0.00     0.016 C 
ATOM      3  C   UNL     1     -15.371 -23.730 -43.709  1.00  0.00     0.013 C 
BRANCH   2   4
ATOM      4  C   UNL     1     -13.250 -23.668 -42.371  1.00  0.00    -0.045 A 
ATOM      5  C   UNL     1      -9.585 -25.779 -41.491  1.00  0.00     0.044 C 
ATOM      6  C   UNL     1     -10.844 -25.020 -41.788  1.00  0.00    -0.051 A 
ATOM      7  C   UNL     1     -11.825 -24.863 -40.800  1.00  0.00     0.004 A 
ATOM      8  C   UNL     1     -11.081 -24.523 -43.078  1.00  0.00     0.004 A 
ATOM      9  C   UNL     1     -13.016 -24.188 -41.086  1.00  0.00     0.004 A 
ATOM     10  C   UNL     1     -12.270 -23.847 -43.366  1.00  0.00     0.004 A 
ENDBRANCH   2   4
ENDBRANCH   1   2
BRANCH   1  11
ATOM     11  C   UNL     1     -15.262 -21.220 -40.880  1.00  0.00     0.028 C 
BRANCH  11  12
ATOM     12  C   UNL     1     -15.018 -21.121 -39.392  1.00  0.00    -0.028 C 
ATOM     13  C   UNL     1     -14.755 -19.969 -38.736  1.00  0.00    -0.080 C 
ATOM     14  C   UNL     1     -14.726 -18.631 -39.440  1.00  0.00     0.039 C 
ATOM     15  C   UNL     1     -14.516 -20.029 -37.249  1.00  0.00     0.039 C 
ENDBRANCH  11  12
ENDBRANCH   1  11
TORSDOF 4
ENDMDL
MODEL 2
REMARK VINA RESULT:    -5.892      1.069      1.868
REMARK INTER + INTRA:          -7.868
REMARK INTER:                  -7.001
REMARK INTRA:                  -0.868
REMARK UNBOUND:                -0.598
REMARK SMILES CC(C)=CCC[C@H](C)c1ccc(C)cc1
REMARK SMILES IDX 6 1 7 2 8 3 9 4 13 5 12 6 11 7 14 8 10 9 15 10 5 11 4 12
REMARK SMILES IDX 2 13 1 14 3 15
REMARK H PARENT
REMARK Flexibility Score: inf
ROOT
ATOM      1  C   UNL     1     -16.185 -22.602 -39.915  1.00  0.00     0.012 C 
ENDROOT
BRANCH   1   2
ATOM      2  C   UNL     1     -15.848 -22.333 -41.401  1.00  0.00     0.016 C 
ATOM      3  C   UNL     1     -16.982 -22.752 -42.349  1.00  0.00     0.013 C 
BRANCH   2   4
ATOM      4  C   UNL     1     -14.556 -23.035 -41.779  1.00  0.00    -0.045 A 
ATOM      5  C   UNL     1     -10.901 -25.086 -42.830  1.00  0.00     0.044 C 
ATOM      6  C   UNL     1     -12.155 -24.348 -42.463  1.00  0.00    -0.051 A 
ATOM      7  C   UNL     1     -12.563 -24.270 -41.124  1.00  0.00     0.004 A 
ATOM      8  C   UNL     1     -12.965 -23.791 -43.462  1.00  0.00     0.004 A 
ATOM      9  C   UNL     1     -13.750 -23.615 -40.784  1.00  0.00     0.004 A 
ATOM     10  C   UNL     1     -14.152 -23.135 -43.125  1.00  0.00     0.004 A 
ENDBRANCH   2   4
ENDBRANCH   1   2
BRANCH   1  11
ATOM     11  C   UNL     1     -16.720 -21.365 -39.164  1.00  0.00     0.028 C 
BRANCH  11  12
ATOM     12  C   UNL     1     -16.023 -20.092 -39.585  1.00  0.00    -0.028 C 
ATOM     13  C   UNL     1     -15.001 -19.521 -38.909  1.00  0.00    -0.080 C 
ATOM     14  C   UNL     1     -14.414 -20.143 -37.663  1.00  0.00     0.039 C 
ATOM     15  C   UNL     1     -14.417 -18.238 -39.443  1.00  0.00     0.039 C 
ENDBRANCH  11  12
ENDBRANCH   1  11
TORSDOF 4
ENDMDL
MODEL 3
REMARK VINA RESULT:    -5.864      1.027      2.007
REMARK INTER + INTRA:          -7.833
REMARK INTER:                  -7.035
REMARK INTRA:                  -0.798
REMARK UNBOUND:                -0.598
REMARK SMILES CC(C)=CCC[C@H](C)c1ccc(C)cc1
REMARK SMILES IDX 6 1 7 2 8 3 9 4 13 5 12 6 11 7 14 8 10 9 15 10 5 11 4 12
REMARK SMILES IDX 2 13 1 14 3 15
REMARK H PARENT
REMARK Flexibility Score: inf
ROOT
ATOM      1  C   UNL     1     -15.788 -22.674 -40.022  1.00  0.00     0.012 C 
ENDROOT
BRANCH   1   2
ATOM      2  C   UNL     1     -15.383 -22.426 -41.495  1.00  0.00     0.016 C 
ATOM      3  C   UNL     1     -16.517 -22.743 -42.482  1.00  0.00     0.013 C 
BRANCH   2   4
ATOM      4  C   UNL     1     -14.142 -23.231 -41.839  1.00  0.00    -0.045 A 
ATOM      5  C   UNL     1     -10.584 -25.468 -42.839  1.00  0.00     0.044 C 
ATOM      6  C   UNL     1     -11.836 -24.717 -42.495  1.00  0.00    -0.051 A 
ATOM      7  C   UNL     1     -12.559 -24.052 -43.496  1.00  0.00     0.004 A 
ATOM      8  C   UNL     1     -12.254 -24.613 -41.161  1.00  0.00     0.004 A 
ATOM      9  C   UNL     1     -13.705 -23.320 -43.172  1.00  0.00     0.004 A 
ATOM     10  C   UNL     1     -13.400 -23.883 -40.835  1.00  0.00     0.004 A 
ENDBRANCH   2   4
ENDBRANCH   1   2
BRANCH   1  11
ATOM     11  C   UNL     1     -16.489 -21.472 -39.358  1.00  0.00     0.028 C 
BRANCH  11  12
ATOM     12  C   UNL     1     -15.857 -20.155 -39.743  1.00  0.00    -0.028 C 
ATOM     13  C   UNL     1     -14.891 -19.533 -39.030  1.00  0.00    -0.080 C 
ATOM     14  C   UNL     1     -14.304 -20.136 -37.775  1.00  0.00     0.039 C 
ATOM     15  C   UNL     1     -14.368 -18.211 -39.531  1.00  0.00     0.039 C 
ENDBRANCH  11  12
ENDBRANCH   1  11
TORSDOF 4
ENDMDL
MODEL 4
REMARK VINA RESULT:    -5.812      1.823      2.618
REMARK INTER + INTRA:          -7.769
REMARK INTER:                  -7.000
REMARK INTRA:                  -0.770
REMARK UNBOUND:                -0.598
REMARK SMILES CC(C)=CCC[C@H](C)c1ccc(C)cc1
REMARK SMILES IDX 6 1 7 2 8 3 9 4 13 5 12 6 11 7 14 8 10 9 15 10 5 11 4 12
REMARK SMILES IDX 2 13 1 14 3 15
REMARK H PARENT
REMARK Flexibility Score: inf
ROOT
ATOM      1  C   UNL     1     -14.190 -23.150 -40.614  1.00  0.00     0.012 C 
ENDROOT
BRANCH   1   2
ATOM      2  C   UNL     1     -14.653 -22.707 -42.023  1.00  0.00     0.016 C 
ATOM      3  C   UNL     1     -16.180 -22.744 -42.183  1.00  0.00     0.013 C 
BRANCH   2   4
ATOM      4  C   UNL     1     -13.988 -23.565 -43.085  1.00  0.00    -0.045 A 
ATOM      5  C   UNL     1     -12.130 -25.975 -46.151  1.00  0.00     0.044 C 
ATOM      6  C   UNL     1     -12.771 -25.161 -45.067  1.00  0.00    -0.051 A 
ATOM      7  C   UNL     1     -14.161 -25.189 -44.891  1.00  0.00     0.004 A 
ATOM      8  C   UNL     1     -11.993 -24.312 -44.267  1.00  0.00     0.004 A 
ATOM      9  C   UNL     1     -14.765 -24.402 -43.905  1.00  0.00     0.004 A 
ATOM     10  C   UNL     1     -12.593 -23.525 -43.280  1.00  0.00     0.004 A 
ENDBRANCH   2   4
ENDBRANCH   1   2
BRANCH   1  11
ATOM     11  C   UNL     1     -14.883 -22.392 -39.464  1.00  0.00     0.028 C 
BRANCH  11  12
ATOM     12  C   UNL     1     -14.382 -20.973 -39.328  1.00  0.00    -0.028 C 
ATOM     13  C   UNL     1     -15.159 -19.873 -39.443  1.00  0.00    -0.080 C 
ATOM     14  C   UNL     1     -16.650 -19.964 -39.677  1.00  0.00     0.039 C 
ATOM     15  C   UNL     1     -14.512 -18.519 -39.299  1.00  0.00     0.039 C 
ENDBRANCH  11  12
ENDBRANCH   1  11
TORSDOF 4
ENDMDL
MODEL 5
REMARK VINA RESULT:    -5.576      3.104      5.331
REMARK INTER + INTRA:          -7.478
REMARK INTER:                  -6.327
REMARK INTRA:                  -1.151
REMARK UNBOUND:                -0.598
REMARK SMILES CC(C)=CCC[C@H](C)c1ccc(C)cc1
REMARK SMILES IDX 6 1 7 2 8 3 9 4 13 5 12 6 11 7 14 8 10 9 15 10 5 11 4 12
REMARK SMILES IDX 2 13 1 14 3 15
REMARK H PARENT
REMARK Flexibility Score: inf
ROOT
ATOM      1  C   UNL     1     -14.360 -19.997 -37.354  1.00  0.00     0.012 C 
ENDROOT
BRANCH   1   2
ATOM      2  C   UNL     1     -14.363 -19.663 -38.866  1.00  0.00     0.016 C 
ATOM      3  C   UNL     1     -14.988 -18.292 -39.168  1.00  0.00     0.013 C 
BRANCH   2   4
ATOM      4  C   UNL     1     -15.079 -20.754 -39.640  1.00  0.00    -0.045 A 
ATOM      5  C   UNL     1     -17.113 -23.900 -41.794  1.00  0.00     0.044 C 
ATOM      6  C   UNL     1     -16.397 -22.796 -41.072  1.00  0.00    -0.051 A 
ATOM      7  C   UNL     1     -15.084 -22.984 -40.618  1.00  0.00     0.004 A 
ATOM      8  C   UNL     1     -17.059 -21.595 -40.784  1.00  0.00     0.004 A 
ATOM      9  C   UNL     1     -14.428 -21.970 -39.913  1.00  0.00     0.004 A 
ATOM     10  C   UNL     1     -16.406 -20.579 -40.080  1.00  0.00     0.004 A 
ENDBRANCH   2   4
ENDBRANCH   1   2
BRANCH   1  11
ATOM     11  C   UNL     1     -15.770 -20.127 -36.743  1.00  0.00     0.028 C 
BRANCH  11  12
ATOM     12  C   UNL     1     -15.810 -21.114 -35.599  1.00  0.00    -0.028 C 
ATOM     13  C   UNL     1     -16.177 -22.409 -35.720  1.00  0.00    -0.080 C 
ATOM     14  C   UNL     1     -16.544 -23.020 -37.053  1.00  0.00     0.039 C 
ATOM     15  C   UNL     1     -16.184 -23.270 -34.483  1.00  0.00     0.039 C 
ENDBRANCH  11  12
ENDBRANCH   1  11
TORSDOF 4
ENDMDL
MODEL 6
REMARK VINA RESULT:    -5.555      1.832      6.321
REMARK INTER + INTRA:          -7.453
REMARK INTER:                  -6.762
REMARK INTRA:                  -0.691
REMARK UNBOUND:                -0.598
REMARK SMILES CC(C)=CCC[C@H](C)c1ccc(C)cc1
REMARK SMILES IDX 6 1 7 2 8 3 9 4 13 5 12 6 11 7 14 8 10 9 15 10 5 11 4 12
REMARK SMILES IDX 2 13 1 14 3 15
REMARK H PARENT
REMARK Flexibility Score: inf
ROOT
ATOM      1  C   UNL     1     -15.519 -22.007 -41.337  1.00  0.00     0.012 C 
ENDROOT
BRANCH   1   2
ATOM      2  C   UNL     1     -14.606 -22.513 -40.194  1.00  0.00     0.016 C 
ATOM      3  C   UNL     1     -14.721 -24.029 -39.972  1.00  0.00     0.013 C 
BRANCH   2   4
ATOM      4  C   UNL     1     -14.914 -21.764 -38.909  1.00  0.00    -0.045 A 
ATOM      5  C   UNL     1     -15.808 -19.583 -35.289  1.00  0.00     0.044 C 
ATOM      6  C   UNL     1     -15.477 -20.357 -36.531  1.00  0.00    -0.051 A 
ATOM      7  C   UNL     1     -14.513 -19.875 -37.428  1.00  0.00     0.004 A 
ATOM      8  C   UNL     1     -16.178 -21.530 -36.841  1.00  0.00     0.004 A 
ATOM      9  C   UNL     1     -14.230 -20.575 -38.605  1.00  0.00     0.004 A 
ATOM     10  C   UNL     1     -15.896 -22.233 -38.016  1.00  0.00     0.004 A 
ENDBRANCH   2   4
ENDBRANCH   1   2
BRANCH   1  11
ATOM     11  C   UNL     1     -15.369 -22.799 -42.651  1.00  0.00     0.028 C 
BRANCH  11  12
ATOM     12  C   UNL     1     -13.948 -22.796 -43.165  1.00  0.00    -0.028 C 
ATOM     13  C   UNL     1     -13.244 -23.909 -43.473  1.00  0.00    -0.080 C 
ATOM     14  C   UNL     1     -13.844 -25.293 -43.374  1.00  0.00     0.039 C 
ATOM     15  C   UNL     1     -11.826 -23.748 -43.959  1.00  0.00     0.039 C 
ENDBRANCH  11  12
ENDBRANCH   1  11
TORSDOF 4
ENDMDL
MODEL 7
REMARK VINA RESULT:    -5.361      4.777      6.805
REMARK INTER + INTRA:          -7.213
REMARK INTER:                  -6.715
REMARK INTRA:                  -0.498
REMARK UNBOUND:                -0.598
REMARK SMILES CC(C)=CCC[C@H](C)c1ccc(C)cc1
REMARK SMILES IDX 6 1 7 2 8 3 9 4 13 5 12 6 11 7 14 8 10 9 15 10 5 11 4 12
REMARK SMILES IDX 2 13 1 14 3 15
REMARK H PARENT
REMARK Flexibility Score: inf
ROOT
ATOM      1  C   UNL     1     -10.403 -26.591 -36.246  1.00  0.00     0.012 C 
ENDROOT
BRANCH   1   2
ATOM      2  C   UNL     1      -9.234 -26.853 -37.226  1.00  0.00     0.016 C 
ATOM      3  C   UNL     1      -7.944 -26.128 -36.814  1.00  0.00     0.013 C 
BRANCH   2   4
ATOM      4  C   UNL     1      -9.636 -26.458 -38.636  1.00  0.00    -0.045 A 
ATOM      5  C   UNL     1     -10.815 -25.286 -42.624  1.00  0.00     0.044 C 
ATOM      6  C   UNL     1     -10.403 -25.722 -41.249  1.00  0.00    -0.051 A 
ATOM      7  C   UNL     1     -11.372 -26.084 -40.302  1.00  0.00     0.004 A 
ATOM      8  C   UNL     1      -9.051 -25.702 -40.877  1.00  0.00     0.004 A 
ATOM      9  C   UNL     1     -10.992 -26.454 -39.008  1.00  0.00     0.004 A 
ATOM     10  C   UNL     1      -8.669 -26.073 -39.585  1.00  0.00     0.004 A 
ENDBRANCH   2   4
ENDBRANCH   1   2
BRANCH   1  11
ATOM     11  C   UNL     1     -10.027 -25.688 -35.054  1.00  0.00     0.028 C 
BRANCH  11  12
ATOM     12  C   UNL     1     -11.197 -25.437 -34.132  1.00  0.00    -0.028 C 
ATOM     13  C   UNL     1     -11.177 -24.577 -33.089  1.00  0.00    -0.080 C 
ATOM     14  C   UNL     1      -9.967 -23.731 -32.767  1.00  0.00     0.039 C 
ATOM     15  C   UNL     1     -12.420 -24.445 -32.246  1.00  0.00     0.039 C 
ENDBRANCH  11  12
ENDBRANCH   1  11
TORSDOF 4
ENDMDL
MODEL 8
REMARK VINA RESULT:    -5.322      0.978      2.122
REMARK INTER + INTRA:          -7.165
REMARK INTER:                  -6.056
REMARK INTRA:                  -1.109
REMARK UNBOUND:                -0.598
REMARK SMILES CC(C)=CCC[C@H](C)c1ccc(C)cc1
REMARK SMILES IDX 6 1 7 2 8 3 9 4 13 5 12 6 11 7 14 8 10 9 15 10 5 11 4 12
REMARK SMILES IDX 2 13 1 14 3 15
REMARK H PARENT
REMARK Flexibility Score: inf
ROOT
ATOM      1  C   UNL     1     -14.932 -22.746 -43.091  1.00  0.00     0.012 C 
ENDROOT
BRANCH   1   2
ATOM      2  C   UNL     1     -14.580 -24.247 -43.233  1.00  0.00     0.016 C 
ATOM      3  C   UNL     1     -15.655 -25.166 -42.634  1.00  0.00     0.013 C 
BRANCH   2   4
ATOM      4  C   UNL     1     -13.229 -24.529 -42.600  1.00  0.00    -0.045 A 
ATOM      5  C   UNL     1      -9.367 -25.269 -40.810  1.00  0.00     0.044 C 
ATOM      6  C   UNL     1     -10.710 -25.041 -41.439  1.00  0.00    -0.051 A 
ATOM      7  C   UNL     1     -10.804 -24.645 -42.781  1.00  0.00     0.004 A 
ATOM      8  C   UNL     1     -11.878 -25.154 -40.672  1.00  0.00     0.004 A 
ATOM      9  C   UNL     1     -12.052 -24.396 -43.358  1.00  0.00     0.004 A 
ATOM     10  C   UNL     1     -13.127 -24.906 -41.247  1.00  0.00     0.004 A 
ENDBRANCH   2   4
ENDBRANCH   1   2
BRANCH   1  11
ATOM     11  C   UNL     1     -15.849 -22.433 -41.891  1.00  0.00     0.028 C 
BRANCH  11  12
ATOM     12  C   UNL     1     -15.193 -21.507 -40.893  1.00  0.00    -0.028 C 
ATOM     13  C   UNL     1     -15.001 -21.803 -39.588  1.00  0.00    -0.080 C 
ATOM     14  C   UNL     1     -15.390 -23.140 -39.001  1.00  0.00     0.039 C 
ATOM     15  C   UNL     1     -14.346 -20.770 -38.708  1.00  0.00     0.039 C 
ENDBRANCH  11  12
ENDBRANCH   1  11
TORSDOF 4
ENDMDL
MODEL 9
REMARK VINA RESULT:    -5.301      1.340      6.317
REMARK INTER + INTRA:          -7.139
REMARK INTER:                  -6.627
REMARK INTRA:                  -0.513
REMARK UNBOUND:                -0.598
REMARK SMILES CC(C)=CCC[C@H](C)c1ccc(C)cc1
REMARK SMILES IDX 6 1 7 2 8 3 9 4 13 5 12 6 11 7 14 8 10 9 15 10 5 11 4 12
REMARK SMILES IDX 2 13 1 14 3 15
REMARK H PARENT
REMARK Flexibility Score: inf
ROOT
ATOM      1  C   UNL     1     -13.720 -23.150 -40.767  1.00  0.00     0.012 C 
ENDROOT
BRANCH   1   2
ATOM      2  C   UNL     1     -15.201 -22.931 -40.373  1.00  0.00     0.016 C 
ATOM      3  C   UNL     1     -16.020 -22.272 -41.492  1.00  0.00     0.013 C 
BRANCH   2   4
ATOM      4  C   UNL     1     -15.286 -22.108 -39.099  1.00  0.00    -0.045 A 
ATOM      5  C   UNL     1     -15.545 -19.716 -35.511  1.00  0.00     0.044 C 
ATOM      6  C   UNL     1     -15.434 -20.564 -36.744  1.00  0.00    -0.051 A 
ATOM      7  C   UNL     1     -14.537 -20.216 -37.763  1.00  0.00     0.004 A 
ATOM      8  C   UNL     1     -16.276 -21.671 -36.917  1.00  0.00     0.004 A 
ATOM      9  C   UNL     1     -14.460 -20.984 -38.929  1.00  0.00     0.004 A 
ATOM     10  C   UNL     1     -16.200 -22.441 -38.081  1.00  0.00     0.004 A 
ENDBRANCH   2   4
ENDBRANCH   1   2
BRANCH   1  11
ATOM     11  C   UNL     1     -13.378 -24.614 -41.114  1.00  0.00     0.028 C 
BRANCH  11  12
ATOM     12  C   UNL     1     -11.971 -24.985 -40.710  1.00  0.00    -0.028 C 
ATOM     13  C   UNL     1     -10.906 -24.968 -41.544  1.00  0.00    -0.080 C 
ATOM     14  C   UNL     1     -11.019 -24.517 -42.982  1.00  0.00     0.039 C 
ATOM     15  C   UNL     1      -9.563 -25.382 -41.000  1.00  0.00     0.039 C 
ENDBRANCH  11  12
ENDBRANCH   1  11
TORSDOF 4
ENDMDL
