MODEL 1
REMARK VINA RESULT:    -5.676      0.000      0.000
REMARK INTER + INTRA:          -5.676
REMARK INTER:                  -5.676
REMARK INTRA:                   0.000
REMARK UNBOUND:                 0.000
REMARK SMILES O=c1ccc2ccccc2o1
REMARK SMILES IDX 7 1 8 2 9 3 10 4 5 5 6 6 4 7 3 8 2 9 1 10 11 11
REMARK H PARENT
REMARK Flexibility Score: inf
ROOT
ATOM      1  C   UNL     1      -2.060   1.984   0.418  1.00  0.00     0.001 A 
ATOM      2  C   UNL     1      -3.215   1.200   0.329  1.00  0.00     0.004 A 
ATOM      3  C   UNL     1      -3.123  -0.195   0.352  1.00  0.00     0.048 A 
ATOM      4  C   UNL     1      -1.872  -0.813   0.465  1.00  0.00     0.138 A 
ATOM      5  C   UNL     1      -0.704  -0.022   0.555  1.00  0.00     0.018 A 
ATOM      6  C   UNL     1      -0.804   1.377   0.531  1.00  0.00     0.012 A 
ATOM      7  C   UNL     1       0.530  -0.667   0.667  1.00  0.00     0.019 A 
ATOM      8  C   UNL     1       0.575  -2.060   0.685  1.00  0.00     0.094 A 
ATOM      9  C   UNL     1      -0.622  -2.779   0.591  1.00  0.00     0.336 A 
ATOM     10  O   UNL     1      -0.602  -4.038   0.606  1.00  0.00    -0.246 OA
ATOM     11  O   UNL     1      -1.784  -2.141   0.486  1.00  0.00    -0.423 OA
ENDROOT
TORSDOF 0
ENDMDL
MODEL 2
REMARK VINA RESULT:    -5.060      1.257      3.403
REMARK INTER + INTRA:          -5.060
REMARK INTER:                  -5.060
REMARK INTRA:                   0.000
REMARK UNBOUND:                 0.000
REMARK SMILES O=c1ccc2ccccc2o1
REMARK SMILES IDX 7 1 8 2 9 3 10 4 5 5 6 6 4 7 3 8 2 9 1 10 11 11
REMARK H PARENT
REMARK Flexibility Score: inf
ROOT
ATOM      1  C   UNL     1       1.062  -0.294   0.076  1.00  0.00     0.001 A 
ATOM      2  C   UNL     1       0.917  -1.664   0.318  1.00  0.00     0.004 A 
ATOM      3  C   UNL     1      -0.352  -2.212   0.532  1.00  0.00     0.048 A 
ATOM      4  C   UNL     1      -1.484  -1.388   0.504  1.00  0.00     0.138 A 
ATOM      5  C   UNL     1      -1.339  -0.003   0.260  1.00  0.00     0.018 A 
ATOM      6  C   UNL     1      -0.063   0.538   0.046  1.00  0.00     0.012 A 
ATOM      7  C   UNL     1      -2.487   0.793   0.238  1.00  0.00     0.019 A 
ATOM      8  C   UNL     1      -3.732   0.205   0.456  1.00  0.00     0.094 A 
ATOM      9  C   UNL     1      -3.800  -1.172   0.692  1.00  0.00     0.336 A 
ATOM     10  O   UNL     1      -4.915  -1.721   0.892  1.00  0.00    -0.246 OA
ATOM     11  O   UNL     1      -2.692  -1.909   0.708  1.00  0.00    -0.423 OA
ENDROOT
TORSDOF 0
ENDMDL
MODEL 3
REMARK VINA RESULT:    -5.031      1.607      2.329
REMARK INTER + INTRA:          -5.031
REMARK INTER:                  -5.031
REMARK INTRA:                   0.000
REMARK UNBOUND:                 0.000
REMARK SMILES O=c1ccc2ccccc2o1
REMARK SMILES IDX 7 1 8 2 9 3 10 4 5 5 6 6 4 7 3 8 2 9 1 10 11 11
REMARK H PARENT
REMARK Flexibility Score: inf
ROOT
ATOM      1  C   UNL     1      -3.411   0.654   0.478  1.00  0.00     0.001 A 
ATOM      2  C   UNL     1      -2.490   1.694   0.305  1.00  0.00     0.004 A 
ATOM      3  C   UNL     1      -1.128   1.411   0.161  1.00  0.00     0.048 A 
ATOM      4  C   UNL     1      -0.680   0.085   0.190  1.00  0.00     0.138 A 
ATOM      5  C   UNL     1      -1.610  -0.966   0.364  1.00  0.00     0.018 A 
ATOM      6  C   UNL     1      -2.974  -0.675   0.507  1.00  0.00     0.012 A 
ATOM      7  C   UNL     1      -1.133  -2.279   0.388  1.00  0.00     0.019 A 
ATOM      8  C   UNL     1       0.233  -2.514   0.241  1.00  0.00     0.094 A 
ATOM      9  C   UNL     1       1.095  -1.425   0.073  1.00  0.00     0.336 A 
ATOM     10  O   UNL     1       2.332  -1.617  -0.061  1.00  0.00    -0.246 OA
ATOM     11  O   UNL     1       0.616  -0.184   0.054  1.00  0.00    -0.423 OA
ENDROOT
TORSDOF 0
ENDMDL
MODEL 4
REMARK VINA RESULT:    -4.795      1.565      3.813
REMARK INTER + INTRA:          -4.795
REMARK INTER:                  -4.795
REMARK INTRA:                   0.000
REMARK UNBOUND:                 0.000
REMARK SMILES O=c1ccc2ccccc2o1
REMARK SMILES IDX 7 1 8 2 9 3 10 4 5 5 6 6 4 7 3 8 2 9 1 10 11 11
REMARK H PARENT
REMARK Flexibility Score: inf
ROOT
ATOM      1  C   UNL     1       0.852  -2.675   0.326  1.00  0.00     0.001 A 
ATOM      2  C   UNL     1      -0.408  -3.279   0.380  1.00  0.00     0.004 A 
ATOM      3  C   UNL     1      -1.564  -2.492   0.441  1.00  0.00     0.048 A 
ATOM      4  C   UNL     1      -1.461  -1.096   0.447  1.00  0.00     0.138 A 
ATOM      5  C   UNL     1      -0.187  -0.486   0.391  1.00  0.00     0.018 A 
ATOM      6  C   UNL     1       0.967  -1.281   0.331  1.00  0.00     0.012 A 
ATOM      7  C   UNL     1      -0.117   0.910   0.399  1.00  0.00     0.019 A 
ATOM      8  C   UNL     1      -1.294   1.655   0.460  1.00  0.00     0.094 A 
ATOM      9  C   UNL     1      -2.520   0.982   0.513  1.00  0.00     0.336 A 
ATOM     10  O   UNL     1      -3.594   1.637   0.569  1.00  0.00    -0.246 OA
ATOM     11  O   UNL     1      -2.560  -0.348   0.505  1.00  0.00    -0.423 OA
ENDROOT
TORSDOF 0
ENDMDL
MODEL 5
REMARK VINA RESULT:    -4.702      2.027      4.355
REMARK INTER + INTRA:          -4.702
REMARK INTER:                  -4.702
REMARK INTRA:                   0.000
REMARK UNBOUND:                 0.000
REMARK SMILES O=c1ccc2ccccc2o1
REMARK SMILES IDX 7 1 8 2 9 3 10 4 5 5 6 6 4 7 3 8 2 9 1 10 11 11
REMARK H PARENT
REMARK Flexibility Score: inf
ROOT
ATOM      1  C   UNL     1      -0.731  -3.080   0.465  1.00  0.00     0.001 A 
ATOM      2  C   UNL     1       0.566  -2.575   0.603  1.00  0.00     0.004 A 
ATOM      3  C   UNL     1       0.778  -1.196   0.699  1.00  0.00     0.048 A 
ATOM      4  C   UNL     1      -0.310  -0.315   0.657  1.00  0.00     0.138 A 
ATOM      5  C   UNL     1      -1.621  -0.825   0.517  1.00  0.00     0.018 A 
ATOM      6  C   UNL     1      -1.826  -2.209   0.421  1.00  0.00     0.012 A 
ATOM      7  C   UNL     1      -2.686   0.079   0.479  1.00  0.00     0.019 A 
ATOM      8  C   UNL     1      -2.428   1.445   0.577  1.00  0.00     0.094 A 
ATOM      9  C   UNL     1      -1.104   1.878   0.714  1.00  0.00     0.336 A 
ATOM     10  O   UNL     1      -0.852   3.108   0.805  1.00  0.00    -0.246 OA
ATOM     11  O   UNL     1      -0.108   0.997   0.748  1.00  0.00    -0.423 OA
ENDROOT
TORSDOF 0
ENDMDL
MODEL 6
REMARK VINA RESULT:    -4.449      9.651     10.998
REMARK INTER + INTRA:          -4.449
REMARK INTER:                  -4.449
REMARK INTRA:                   0.000
REMARK UNBOUND:                 0.000
REMARK SMILES O=c1ccc2ccccc2o1
REMARK SMILES IDX 7 1 8 2 9 3 10 4 5 5 6 6 4 7 3 8 2 9 1 10 11 11
REMARK H PARENT
REMARK Flexibility Score: inf
ROOT
ATOM      1  C   UNL     1      -1.298 -10.125   6.547  1.00  0.00     0.001 A 
ATOM      2  C   UNL     1      -0.697  -9.372   5.533  1.00  0.00     0.004 A 
ATOM      3  C   UNL     1       0.072  -8.248   5.852  1.00  0.00     0.048 A 
ATOM      4  C   UNL     1       0.243  -7.872   7.190  1.00  0.00     0.138 A 
ATOM      5  C   UNL     1      -0.364  -8.633   8.215  1.00  0.00     0.018 A 
ATOM      6  C   UNL     1      -1.134  -9.759   7.888  1.00  0.00     0.012 A 
ATOM      7  C   UNL     1      -0.176  -8.234   9.541  1.00  0.00     0.019 A 
ATOM      8  C   UNL     1       0.598  -7.107   9.813  1.00  0.00     0.094 A 
ATOM      9  C   UNL     1       1.168  -6.402   8.747  1.00  0.00     0.336 A 
ATOM     10  O   UNL     1       1.870  -5.381   8.973  1.00  0.00    -0.246 OA
ATOM     11  O   UNL     1       0.974  -6.802   7.494  1.00  0.00    -0.423 OA
ENDROOT
TORSDOF 0
ENDMDL
MODEL 7
REMARK VINA RESULT:    -4.427     10.611     11.771
REMARK INTER + INTRA:          -4.427
REMARK INTER:                  -4.427
REMARK INTRA:                   0.000
REMARK UNBOUND:                 0.000
REMARK SMILES O=c1ccc2ccccc2o1
REMARK SMILES IDX 7 1 8 2 9 3 10 4 5 5 6 6 4 7 3 8 2 9 1 10 11 11
REMARK H PARENT
REMARK Flexibility Score: inf
ROOT
ATOM      1  C   UNL     1     -10.030   1.115  -9.570  1.00  0.00     0.001 A 
ATOM      2  C   UNL     1      -9.735   0.131  -8.619  1.00  0.00     0.004 A 
ATOM      3  C   UNL     1      -8.421  -0.046  -8.174  1.00  0.00     0.048 A 
ATOM      4  C   UNL     1      -7.394   0.761  -8.679  1.00  0.00     0.138 A 
ATOM      5  C   UNL     1      -7.692   1.755  -9.639  1.00  0.00     0.018 A 
ATOM      6  C   UNL     1      -9.012   1.927 -10.081  1.00  0.00     0.012 A 
ATOM      7  C   UNL     1      -6.646   2.545 -10.125  1.00  0.00     0.019 A 
ATOM      8  C   UNL     1      -5.352   2.332  -9.653  1.00  0.00     0.094 A 
ATOM      9  C   UNL     1      -5.132   1.330  -8.702  1.00  0.00     0.336 A 
ATOM     10  O   UNL     1      -3.970   1.123  -8.264  1.00  0.00    -0.246 OA
ATOM     11  O   UNL     1      -6.144   0.591  -8.256  1.00  0.00    -0.423 OA
ENDROOT
TORSDOF 0
ENDMDL
MODEL 8
REMARK VINA RESULT:    -4.222      9.953     11.094
REMARK INTER + INTRA:          -4.222
REMARK INTER:                  -4.222
REMARK INTRA:                   0.000
REMARK UNBOUND:                 0.000
REMARK SMILES O=c1ccc2ccccc2o1
REMARK SMILES IDX 7 1 8 2 9 3 10 4 5 5 6 6 4 7 3 8 2 9 1 10 11 11
REMARK H PARENT
REMARK Flexibility Score: inf
ROOT
ATOM      1  C   UNL     1      -3.884  -2.619  -9.526  1.00  0.00     0.001 A 
ATOM      2  C   UNL     1      -2.796  -1.919  -8.995  1.00  0.00     0.004 A 
ATOM      3  C   UNL     1      -2.925  -0.567  -8.658  1.00  0.00     0.048 A 
ATOM      4  C   UNL     1      -4.146   0.090  -8.851  1.00  0.00     0.138 A 
ATOM      5  C   UNL     1      -5.246  -0.618  -9.388  1.00  0.00     0.018 A 
ATOM      6  C   UNL     1      -5.109  -1.972  -9.724  1.00  0.00     0.012 A 
ATOM      7  C   UNL     1      -6.452   0.065  -9.570  1.00  0.00     0.019 A 
ATOM      8  C   UNL     1      -6.535   1.412  -9.221  1.00  0.00     0.094 A 
ATOM      9  C   UNL     1      -5.405   2.047  -8.694  1.00  0.00     0.336 A 
ATOM     10  O   UNL     1      -5.461   3.264  -8.373  1.00  0.00    -0.246 OA
ATOM     11  O   UNL     1      -4.269   1.376  -8.531  1.00  0.00    -0.423 OA
ENDROOT
TORSDOF 0
ENDMDL
MODEL 9
REMARK VINA RESULT:    -4.218     10.056     11.095
REMARK INTER + INTRA:          -4.218
REMARK INTER:                  -4.218
REMARK INTRA:                   0.000
REMARK UNBOUND:                 0.000
REMARK SMILES O=c1ccc2ccccc2o1
REMARK SMILES IDX 7 1 8 2 9 3 10 4 5 5 6 6 4 7 3 8 2 9 1 10 11 11
REMARK H PARENT
REMARK Flexibility Score: inf
ROOT
ATOM      1  C   UNL     1      -2.418  -0.089  -9.655  1.00  0.00     0.001 A 
ATOM      2  C   UNL     1      -2.957  -0.983  -8.724  1.00  0.00     0.004 A 
ATOM      3  C   UNL     1      -4.264  -0.810  -8.256  1.00  0.00     0.048 A 
ATOM      4  C   UNL     1      -5.038   0.261  -8.719  1.00  0.00     0.138 A 
ATOM      5  C   UNL     1      -4.494   1.165  -9.660  1.00  0.00     0.018 A 
ATOM      6  C   UNL     1      -3.183   0.985 -10.125  1.00  0.00     0.012 A 
ATOM      7  C   UNL     1      -5.291   2.224 -10.104  1.00  0.00     0.019 A 
ATOM      8  C   UNL     1      -6.588   2.358  -9.610  1.00  0.00     0.094 A 
ATOM      9  C   UNL     1      -7.059   1.425  -8.680  1.00  0.00     0.336 A 
ATOM     10  O   UNL     1      -8.228   1.530  -8.222  1.00  0.00    -0.246 OA
ATOM     11  O   UNL     1      -6.281   0.426  -8.273  1.00  0.00    -0.423 OA
ENDROOT
TORSDOF 0
ENDMDL
