MODEL 1
REMARK VINA RESULT:    -4.466      0.000      0.000
REMARK INTER + INTRA:          -7.656
REMARK INTER:                  -7.076
REMARK INTRA:                  -0.580
REMARK UNBOUND:                -0.580
REMARK SMILES CCCCCCCCCCCC(=O)[O-]
REMARK SMILES IDX 7 1 8 2 9 3 10 4 11 5 12 6 13 7 14 8 6 9 5 10 4 11 3 12 2 13
REMARK SMILES IDX 1 14
REMARK H PARENT
REMARK Flexibility Score: inf
ROOT
ATOM      1  C   UNL     1      -3.548  37.131  19.444  1.00  0.00     0.000 C 
ENDROOT
BRANCH   1   2
ATOM      2  C   UNL     1      -5.005  37.007  19.921  1.00  0.00     0.000 C 
BRANCH   2   3
ATOM      3  C   UNL     1      -5.497  35.550  19.942  1.00  0.00     0.000 C 
BRANCH   3   4
ATOM      4  C   UNL     1      -6.120  35.156  21.293  1.00  0.00     0.006 C 
BRANCH   4   5
ATOM      5  C   UNL     1      -5.884  36.223  22.371  1.00  0.00     0.053 C 
BRANCH   5   6
ATOM      6  C   UNL     1      -5.872  35.627  23.745  1.00  0.00     0.041 C 
ATOM      7  O   UNL     1      -6.125  36.343  24.750  1.00  0.00    -0.550 OA
ATOM      8  O   UNL     1      -5.546  34.287  23.919  1.00  0.00    -0.550 OA
ENDBRANCH   5   6
ENDBRANCH   4   5
ENDBRANCH   3   4
ENDBRANCH   2   3
ENDBRANCH   1   2
BRANCH   1   9
ATOM      9  C   UNL     1      -3.428  37.151  17.912  1.00  0.00     0.000 C 
BRANCH   9  10
ATOM     10  C   UNL     1      -1.995  36.887  17.429  1.00  0.00    -0.000 C 
BRANCH  10  11
ATOM     11  C   UNL     1      -1.991  36.352  15.988  1.00  0.00    -0.000 C 
BRANCH  11  12
ATOM     12  C   UNL     1      -3.408  36.135  15.425  1.00  0.00    -0.000 C 
BRANCH  12  13
ATOM     13  C   UNL     1      -3.709  36.898  14.123  1.00  0.00    -0.003 C 
ATOM     14  C   UNL     1      -4.252  38.304  14.365  1.00  0.00     0.004 C 
ENDBRANCH  12  13
ENDBRANCH  11  12
ENDBRANCH  10  11
ENDBRANCH   9  10
ENDBRANCH   1   9
TORSDOF 10
ENDMDL
MODEL 2
REMARK VINA RESULT:    -4.217      3.992      7.571
REMARK INTER + INTRA:          -7.263
REMARK INTER:                  -6.706
REMARK INTRA:                  -0.557
REMARK UNBOUND:                -0.580
REMARK SMILES CCCCCCCCCCCC(=O)[O-]
REMARK SMILES IDX 7 1 8 2 9 3 10 4 11 5 12 6 13 7 14 8 6 9 5 10 4 11 3 12 2 13
REMARK SMILES IDX 1 14
REMARK H PARENT
REMARK Flexibility Score: inf
ROOT
ATOM      1  C   UNL     1      -3.974  36.642  20.006  1.00  0.00     0.000 C 
ENDROOT
BRANCH   1   2
ATOM      2  C   UNL     1      -3.659  37.279  18.642  1.00  0.00     0.000 C 
BRANCH   2   3
ATOM      3  C   UNL     1      -2.152  37.303  18.337  1.00  0.00     0.000 C 
BRANCH   3   4
ATOM      4  C   UNL     1      -1.821  36.714  16.954  1.00  0.00     0.006 C 
BRANCH   4   5
ATOM      5  C   UNL     1      -3.059  36.130  16.263  1.00  0.00     0.053 C 
BRANCH   5   6
ATOM      6  C   UNL     1      -3.247  36.699  14.890  1.00  0.00     0.041 C 
ATOM      7  O   UNL     1      -4.238  37.434  14.637  1.00  0.00    -0.550 OA
ATOM      8  O   UNL     1      -2.345  36.387  13.879  1.00  0.00    -0.550 OA
ENDBRANCH   5   6
ENDBRANCH   4   5
ENDBRANCH   3   4
ENDBRANCH   2   3
ENDBRANCH   1   2
BRANCH   1   9
ATOM      9  C   UNL     1      -4.714  35.301  19.875  1.00  0.00     0.000 C 
BRANCH   9  10
ATOM     10  C   UNL     1      -6.068  35.301  20.600  1.00  0.00    -0.000 C 
BRANCH  10  11
ATOM     11  C   UNL     1      -5.916  35.794  22.047  1.00  0.00    -0.000 C 
BRANCH  11  12
ATOM     12  C   UNL     1      -5.697  34.648  23.051  1.00  0.00    -0.000 C 
BRANCH  12  13
ATOM     13  C   UNL     1      -5.986  35.011  24.519  1.00  0.00    -0.003 C 
ATOM     14  C   UNL     1      -6.047  36.518  24.761  1.00  0.00     0.004 C 
ENDBRANCH  12  13
ENDBRANCH  11  12
ENDBRANCH  10  11
ENDBRANCH   9  10
ENDBRANCH   1   9
TORSDOF 10
ENDMDL
MODEL 3
REMARK VINA RESULT:    -4.046      1.047      1.423
REMARK INTER + INTRA:          -6.992
REMARK INTER:                  -6.623
REMARK INTRA:                  -0.370
REMARK UNBOUND:                -0.580
REMARK SMILES CCCCCCCCCCCC(=O)[O-]
REMARK SMILES IDX 7 1 8 2 9 3 10 4 11 5 12 6 13 7 14 8 6 9 5 10 4 11 3 12 2 13
REMARK SMILES IDX 1 14
REMARK H PARENT
REMARK Flexibility Score: inf
ROOT
ATOM      1  C   UNL     1      -4.351  35.917  19.350  1.00  0.00     0.000 C 
ENDROOT
BRANCH   1   2
ATOM      2  C   UNL     1      -4.586  35.120  20.644  1.00  0.00     0.000 C 
BRANCH   2   3
ATOM      3  C   UNL     1      -6.025  35.258  21.169  1.00  0.00     0.000 C 
BRANCH   3   4
ATOM      4  C   UNL     1      -6.125  35.025  22.687  1.00  0.00     0.006 C 
BRANCH   4   5
ATOM      5  C   UNL     1      -5.990  36.329  23.482  1.00  0.00     0.053 C 
BRANCH   5   6
ATOM      6  C   UNL     1      -5.920  36.074  24.957  1.00  0.00     0.041 C 
ATOM      7  O   UNL     1      -5.690  37.020  25.755  1.00  0.00    -0.550 OA
ATOM      8  O   UNL     1      -6.074  34.782  25.446  1.00  0.00    -0.550 OA
ENDBRANCH   5   6
ENDBRANCH   4   5
ENDBRANCH   3   4
ENDBRANCH   2   3
ENDBRANCH   1   2
BRANCH   1   9
ATOM      9  C   UNL     1      -3.357  37.073  19.540  1.00  0.00     0.000 C 
BRANCH   9  10
ATOM     10  C   UNL     1      -2.371  37.204  18.370  1.00  0.00    -0.000 C 
BRANCH  10  11
ATOM     11  C   UNL     1      -3.092  37.028  17.024  1.00  0.00    -0.000 C 
BRANCH  11  12
ATOM     12  C   UNL     1      -2.137  36.653  15.877  1.00  0.00    -0.000 C 
BRANCH  12  13
ATOM     13  C   UNL     1      -2.815  36.461  14.508  1.00  0.00    -0.003 C 
ATOM     14  C   UNL     1      -4.037  37.357  14.315  1.00  0.00     0.004 C 
ENDBRANCH  12  13
ENDBRANCH  11  12
ENDBRANCH  10  11
ENDBRANCH   9  10
ENDBRANCH   1   9
TORSDOF 10
ENDMDL
MODEL 4
REMARK VINA RESULT:    -3.599      4.053      7.466
REMARK INTER + INTRA:          -6.283
REMARK INTER:                  -5.826
REMARK INTRA:                  -0.457
REMARK UNBOUND:                -0.580
REMARK SMILES CCCCCCCCCCCC(=O)[O-]
REMARK SMILES IDX 7 1 8 2 9 3 10 4 11 5 12 6 13 7 14 8 6 9 5 10 4 11 3 12 2 13
REMARK SMILES IDX 1 14
REMARK H PARENT
REMARK Flexibility Score: inf
ROOT
ATOM      1  C   UNL     1      -2.809  36.929  19.031  1.00  0.00     0.000 C 
ENDROOT
BRANCH   1   2
ATOM      2  C   UNL     1      -3.631  36.905  17.731  1.00  0.00     0.000 C 
BRANCH   2   3
ATOM      3  C   UNL     1      -3.113  35.864  16.725  1.00  0.00     0.000 C 
BRANCH   3   4
ATOM      4  C   UNL     1      -2.173  36.477  15.672  1.00  0.00     0.006 C 
BRANCH   4   5
ATOM      5  C   UNL     1      -2.813  36.518  14.279  1.00  0.00     0.053 C 
BRANCH   5   6
ATOM      6  C   UNL     1      -4.048  37.367  14.262  1.00  0.00     0.041 C 
ATOM      7  O   UNL     1      -3.996  38.571  14.626  1.00  0.00    -0.550 OA
ATOM      8  O   UNL     1      -5.264  36.816  13.876  1.00  0.00    -0.550 OA
ENDBRANCH   5   6
ENDBRANCH   4   5
ENDBRANCH   3   4
ENDBRANCH   2   3
ENDBRANCH   1   2
BRANCH   1   9
ATOM      9  C   UNL     1      -3.647  37.345  20.251  1.00  0.00     0.000 C 
BRANCH   9  10
ATOM     10  C   UNL     1      -5.119  36.925  20.128  1.00  0.00    -0.000 C 
BRANCH  10  11
ATOM     11  C   UNL     1      -5.761  36.767  21.515  1.00  0.00    -0.000 C 
BRANCH  11  12
ATOM     12  C   UNL     1      -6.091  35.303  21.860  1.00  0.00    -0.000 C 
BRANCH  12  13
ATOM     13  C   UNL     1      -5.889  34.926  23.338  1.00  0.00    -0.003 C 
ATOM     14  C   UNL     1      -6.122  36.097  24.291  1.00  0.00     0.004 C 
ENDBRANCH  12  13
ENDBRANCH  11  12
ENDBRANCH  10  11
ENDBRANCH   9  10
ENDBRANCH   1   9
TORSDOF 10
ENDMDL
MODEL 5
REMARK VINA RESULT:    -3.214      2.367      3.188
REMARK INTER + INTRA:          -5.674
REMARK INTER:                  -4.998
REMARK INTRA:                  -0.676
REMARK UNBOUND:                -0.580
REMARK SMILES CCCCCCCCCCCC(=O)[O-]
REMARK SMILES IDX 7 1 8 2 9 3 10 4 11 5 12 6 13 7 14 8 6 9 5 10 4 11 3 12 2 13
REMARK SMILES IDX 1 14
REMARK H PARENT
REMARK Flexibility Score: inf
ROOT
ATOM      1  C   UNL     1      -4.142  35.391  20.053  1.00  0.00     0.000 C 
ENDROOT
BRANCH   1   2
ATOM      2  C   UNL     1      -5.004  35.372  21.327  1.00  0.00     0.000 C 
BRANCH   2   3
ATOM      3  C   UNL     1      -5.893  36.619  21.457  1.00  0.00     0.000 C 
BRANCH   3   4
ATOM      4  C   UNL     1      -5.215  37.887  20.910  1.00  0.00     0.006 C 
BRANCH   4   5
ATOM      5  C   UNL     1      -6.125  39.119  21.008  1.00  0.00     0.053 C 
BRANCH   5   6
ATOM      6  C   UNL     1      -5.804  39.950  22.213  1.00  0.00     0.041 C 
ATOM      7  O   UNL     1      -5.374  39.406  23.263  1.00  0.00    -0.550 OA
ATOM      8  O   UNL     1      -6.015  41.324  22.185  1.00  0.00    -0.550 OA
ENDBRANCH   5   6
ENDBRANCH   4   5
ENDBRANCH   3   4
ENDBRANCH   2   3
ENDBRANCH   1   2
BRANCH   1   9
ATOM      9  C   UNL     1      -4.910  34.904  18.814  1.00  0.00     0.000 C 
BRANCH   9  10
ATOM     10  C   UNL     1      -4.238  35.326  17.499  1.00  0.00    -0.000 C 
BRANCH  10  11
ATOM     11  C   UNL     1      -3.375  36.580  17.703  1.00  0.00    -0.000 C 
BRANCH  11  12
ATOM     12  C   UNL     1      -2.673  37.042  16.413  1.00  0.00    -0.000 C 
BRANCH  12  13
ATOM     13  C   UNL     1      -3.149  36.336  15.130  1.00  0.00    -0.003 C 
ATOM     14  C   UNL     1      -4.012  37.229  14.241  1.00  0.00     0.004 C 
ENDBRANCH  12  13
ENDBRANCH  11  12
ENDBRANCH  10  11
ENDBRANCH   9  10
ENDBRANCH   1   9
TORSDOF 10
ENDMDL
MODEL 6
REMARK VINA RESULT:    -3.087      4.252      6.916
REMARK INTER + INTRA:          -5.471
REMARK INTER:                  -4.999
REMARK INTRA:                  -0.472
REMARK UNBOUND:                -0.580
REMARK SMILES CCCCCCCCCCCC(=O)[O-]
REMARK SMILES IDX 7 1 8 2 9 3 10 4 11 5 12 6 13 7 14 8 6 9 5 10 4 11 3 12 2 13
REMARK SMILES IDX 1 14
REMARK H PARENT
REMARK Flexibility Score: inf
ROOT
ATOM      1  C   UNL     1      -4.683  35.332  20.173  1.00  0.00     0.000 C 
ENDROOT
BRANCH   1   2
ATOM      2  C   UNL     1      -5.170  34.685  18.865  1.00  0.00     0.000 C 
BRANCH   2   3
ATOM      3  C   UNL     1      -4.230  34.968  17.682  1.00  0.00     0.000 C 
BRANCH   3   4
ATOM      4  C   UNL     1      -3.582  36.362  17.763  1.00  0.00     0.006 C 
BRANCH   4   5
ATOM      5  C   UNL     1      -3.413  37.003  16.380  1.00  0.00     0.053 C 
BRANCH   5   6
ATOM      6  C   UNL     1      -2.364  36.304  15.570  1.00  0.00     0.041 C 
ATOM      7  O   UNL     1      -1.485  35.605  16.138  1.00  0.00    -0.550 OA
ATOM      8  O   UNL     1      -2.338  36.456  14.188  1.00  0.00    -0.550 OA
ENDBRANCH   5   6
ENDBRANCH   4   5
ENDBRANCH   3   4
ENDBRANCH   2   3
ENDBRANCH   1   2
BRANCH   1   9
ATOM      9  C   UNL     1      -5.828  35.588  21.167  1.00  0.00     0.000 C 
BRANCH   9  10
ATOM     10  C   UNL     1      -5.719  36.957  21.853  1.00  0.00    -0.000 C 
BRANCH  10  11
ATOM     11  C   UNL     1      -5.347  38.050  20.840  1.00  0.00    -0.000 C 
BRANCH  11  12
ATOM     12  C   UNL     1      -6.107  39.369  21.073  1.00  0.00    -0.000 C 
BRANCH  12  13
ATOM     13  C   UNL     1      -5.869  40.017  22.449  1.00  0.00    -0.003 C 
ATOM     14  C   UNL     1      -6.125  41.523  22.452  1.00  0.00     0.004 C 
ENDBRANCH  12  13
ENDBRANCH  11  12
ENDBRANCH  10  11
ENDBRANCH   9  10
ENDBRANCH   1   9
TORSDOF 10
ENDMDL
MODEL 7
REMARK VINA RESULT:    -2.903      4.210      6.505
REMARK INTER + INTRA:          -5.181
REMARK INTER:                  -4.047
REMARK INTRA:                  -1.133
REMARK UNBOUND:                -0.580
REMARK SMILES CCCCCCCCCCCC(=O)[O-]
REMARK SMILES IDX 7 1 8 2 9 3 10 4 11 5 12 6 13 7 14 8 6 9 5 10 4 11 3 12 2 13
REMARK SMILES IDX 1 14
REMARK H PARENT
REMARK Flexibility Score: inf
ROOT
ATOM      1  C   UNL     1      -6.081  34.356  18.835  1.00  0.00     0.000 C 
ENDROOT
BRANCH   1   2
ATOM      2  C   UNL     1      -4.650  34.373  18.272  1.00  0.00     0.000 C 
BRANCH   2   3
ATOM      3  C   UNL     1      -4.519  35.257  17.020  1.00  0.00     0.000 C 
BRANCH   3   4
ATOM      4  C   UNL     1      -3.063  35.662  16.733  1.00  0.00     0.006 C 
BRANCH   4   5
ATOM      5  C   UNL     1      -2.959  37.079  16.156  1.00  0.00     0.053 C 
BRANCH   5   6
ATOM      6  C   UNL     1      -3.591  37.173  14.800  1.00  0.00     0.041 C 
ATOM      7  O   UNL     1      -3.494  36.216  13.988  1.00  0.00    -0.550 OA
ATOM      8  O   UNL     1      -4.258  38.333  14.423  1.00  0.00    -0.550 OA
ENDBRANCH   5   6
ENDBRANCH   4   5
ENDBRANCH   3   4
ENDBRANCH   2   3
ENDBRANCH   1   2
BRANCH   1   9
ATOM      9  C   UNL     1      -6.125  34.636  20.346  1.00  0.00     0.000 C 
BRANCH   9  10
ATOM     10  C   UNL     1      -5.032  35.615  20.797  1.00  0.00    -0.000 C 
BRANCH  10  11
ATOM     11  C   UNL     1      -5.329  37.037  20.297  1.00  0.00    -0.000 C 
BRANCH  11  12
ATOM     12  C   UNL     1      -4.088  37.741  19.717  1.00  0.00    -0.000 C 
BRANCH  12  13
ATOM     13  C   UNL     1      -2.748  37.055  20.036  1.00  0.00    -0.003 C 
ATOM     14  C   UNL     1      -1.557  37.721  19.348  1.00  0.00     0.004 C 
ENDBRANCH  12  13
ENDBRANCH  11  12
ENDBRANCH  10  11
ENDBRANCH   9  10
ENDBRANCH   1   9
TORSDOF 10
ENDMDL
MODEL 8
REMARK VINA RESULT:    -2.639      3.219      4.289
REMARK INTER + INTRA:          -4.762
REMARK INTER:                  -4.111
REMARK INTRA:                  -0.651
REMARK UNBOUND:                -0.580
REMARK SMILES CCCCCCCCCCCC(=O)[O-]
REMARK SMILES IDX 7 1 8 2 9 3 10 4 11 5 12 6 13 7 14 8 6 9 5 10 4 11 3 12 2 13
REMARK SMILES IDX 1 14
REMARK H PARENT
REMARK Flexibility Score: inf
ROOT
ATOM      1  C   UNL     1      -5.012  34.994  19.979  1.00  0.00     0.000 C 
ENDROOT
BRANCH   1   2
ATOM      2  C   UNL     1      -5.676  36.342  20.306  1.00  0.00     0.000 C 
BRANCH   2   3
ATOM      3  C   UNL     1      -4.725  37.533  20.099  1.00  0.00     0.000 C 
BRANCH   3   4
ATOM      4  C   UNL     1      -3.243  37.123  20.162  1.00  0.00     0.006 C 
BRANCH   4   5
ATOM      5  C   UNL     1      -2.466  37.571  18.917  1.00  0.00     0.053 C 
BRANCH   5   6
ATOM      6  C   UNL     1      -0.986  37.541  19.148  1.00  0.00     0.041 C 
ATOM      7  O   UNL     1      -0.195  37.939  18.252  1.00  0.00    -0.550 OA
ATOM      8  O   UNL     1      -0.479  37.039  20.341  1.00  0.00    -0.550 OA
ENDBRANCH   5   6
ENDBRANCH   4   5
ENDBRANCH   3   4
ENDBRANCH   2   3
ENDBRANCH   1   2
BRANCH   1   9
ATOM      9  C   UNL     1      -5.416  34.457  18.596  1.00  0.00     0.000 C 
BRANCH   9  10
ATOM     10  C   UNL     1      -4.228  34.372  17.626  1.00  0.00    -0.000 C 
BRANCH  10  11
ATOM     11  C   UNL     1      -4.035  35.701  16.880  1.00  0.00    -0.000 C 
BRANCH  11  12
ATOM     12  C   UNL     1      -2.745  35.735  16.039  1.00  0.00    -0.000 C 
BRANCH  12  13
ATOM     13  C   UNL     1      -2.905  36.347  14.635  1.00  0.00    -0.003 C 
ATOM     14  C   UNL     1      -3.922  37.485  14.592  1.00  0.00     0.004 C 
ENDBRANCH  12  13
ENDBRANCH  11  12
ENDBRANCH  10  11
ENDBRANCH   9  10
ENDBRANCH   1   9
TORSDOF 10
ENDMDL
