MODEL 1
REMARK VINA RESULT:    -4.754      0.000      0.000
REMARK INTER + INTRA:          -7.122
REMARK INTER:                  -6.700
REMARK INTRA:                  -0.422
REMARK UNBOUND:                -0.422
REMARK SMILES CCCCCCCCC(=O)[O-]
REMARK SMILES IDX 6 1 7 2 8 3 9 4 10 5 11 6 5 7 4 8 3 9 2 10 1 11
REMARK H PARENT
REMARK Flexibility Score: inf
ROOT
ATOM      1  C   UNL     1      41.229  54.062  60.050  1.00  0.00     0.000 C 
ENDROOT
BRANCH   1   2
ATOM      2  C   UNL     1      42.458  54.846  60.535  1.00  0.00     0.006 C 
BRANCH   2   3
ATOM      3  C   UNL     1      43.062  55.732  59.438  1.00  0.00     0.053 C 
BRANCH   3   4
ATOM      4  C   UNL     1      42.160  56.888  59.145  1.00  0.00     0.041 C 
ATOM      5  O   UNL     1      41.625  57.530  60.087  1.00  0.00    -0.550 OA
ATOM      6  O   UNL     1      41.950  57.290  57.832  1.00  0.00    -0.550 OA
ENDBRANCH   3   4
ENDBRANCH   2   3
ENDBRANCH   1   2
BRANCH   1   7
ATOM      7  C   UNL     1      40.092  54.043  61.087  1.00  0.00     0.000 C 
BRANCH   7   8
ATOM      8  C   UNL     1      38.727  54.423  60.485  1.00  0.00    -0.000 C 
BRANCH   8   9
ATOM      9  C   UNL     1      38.452  55.937  60.411  1.00  0.00    -0.000 C 
BRANCH   9  10
ATOM     10  C   UNL     1      37.037  56.263  59.910  1.00  0.00    -0.003 C 
ATOM     11  C   UNL     1      36.346  55.015  59.367  1.00  0.00     0.004 C 
ENDBRANCH   9  10
ENDBRANCH   8   9
ENDBRANCH   7   8
ENDBRANCH   1   7
TORSDOF 7
ENDMDL
MODEL 2
REMARK VINA RESULT:    -4.719      3.352      5.270
REMARK INTER + INTRA:          -7.072
REMARK INTER:                  -6.845
REMARK INTRA:                  -0.227
REMARK UNBOUND:                -0.422
REMARK SMILES CCCCCCCCC(=O)[O-]
REMARK SMILES IDX 6 1 7 2 8 3 9 4 10 5 11 6 5 7 4 8 3 9 2 10 1 11
REMARK H PARENT
REMARK Flexibility Score: inf
ROOT
ATOM      1  C   UNL     1      35.935  54.853  59.019  1.00  0.00     0.000 C 
ENDROOT
BRANCH   1   2
ATOM      2  C   UNL     1      37.176  55.381  59.756  1.00  0.00     0.006 C 
BRANCH   2   3
ATOM      3  C   UNL     1      38.014  54.256  60.379  1.00  0.00     0.053 C 
BRANCH   3   4
ATOM      4  C   UNL     1      39.425  54.708  60.584  1.00  0.00     0.041 C 
ATOM      5  O   UNL     1      39.720  55.929  60.491  1.00  0.00    -0.550 OA
ATOM      6  O   UNL     1      40.407  53.787  60.927  1.00  0.00    -0.550 OA
ENDBRANCH   3   4
ENDBRANCH   2   3
ENDBRANCH   1   2
BRANCH   1   7
ATOM      7  C   UNL     1      35.984  53.332  58.793  1.00  0.00     0.000 C 
BRANCH   7   8
ATOM      8  C   UNL     1      34.790  52.810  57.974  1.00  0.00    -0.000 C 
BRANCH   8   9
ATOM      9  C   UNL     1      34.548  51.293  58.076  1.00  0.00    -0.000 C 
BRANCH   9  10
ATOM     10  C   UNL     1      35.642  50.465  57.385  1.00  0.00    -0.003 C 
ATOM     11  C   UNL     1      35.089  49.134  56.883  1.00  0.00     0.004 C 
ENDBRANCH   9  10
ENDBRANCH   8   9
ENDBRANCH   7   8
ENDBRANCH   1   7
TORSDOF 7
ENDMDL
MODEL 3
REMARK VINA RESULT:    -4.705      1.961      3.634
REMARK INTER + INTRA:          -7.053
REMARK INTER:                  -6.735
REMARK INTRA:                  -0.318
REMARK UNBOUND:                -0.422
REMARK SMILES CCCCCCCCC(=O)[O-]
REMARK SMILES IDX 6 1 7 2 8 3 9 4 10 5 11 6 5 7 4 8 3 9 2 10 1 11
REMARK H PARENT
REMARK Flexibility Score: inf
ROOT
ATOM      1  C   UNL     1      37.947  56.669  59.537  1.00  0.00     0.000 C 
ENDROOT
BRANCH   1   2
ATOM      2  C   UNL     1      38.935  56.383  60.678  1.00  0.00     0.006 C 
BRANCH   2   3
ATOM      3  C   UNL     1      39.540  54.976  60.594  1.00  0.00     0.053 C 
BRANCH   3   4
ATOM      4  C   UNL     1      40.994  55.053  60.249  1.00  0.00     0.041 C 
ATOM      5  O   UNL     1      41.772  54.116  60.569  1.00  0.00    -0.550 OA
ATOM      6  O   UNL     1      41.481  56.137  59.529  1.00  0.00    -0.550 OA
ENDBRANCH   3   4
ENDBRANCH   2   3
ENDBRANCH   1   2
BRANCH   1   7
ATOM      7  C   UNL     1      36.512  56.226  59.871  1.00  0.00     0.000 C 
BRANCH   7   8
ATOM      8  C   UNL     1      35.875  55.371  58.761  1.00  0.00    -0.000 C 
BRANCH   8   9
ATOM      9  C   UNL     1      35.927  53.851  59.004  1.00  0.00    -0.000 C 
BRANCH   9  10
ATOM     10  C   UNL     1      34.925  53.073  58.139  1.00  0.00    -0.003 C 
ATOM     11  C   UNL     1      35.334  51.609  58.007  1.00  0.00     0.004 C 
ENDBRANCH   9  10
ENDBRANCH   8   9
ENDBRANCH   7   8
ENDBRANCH   1   7
TORSDOF 7
ENDMDL
MODEL 4
REMARK VINA RESULT:    -4.678      3.789      5.802
REMARK INTER + INTRA:          -7.015
REMARK INTER:                  -6.754
REMARK INTRA:                  -0.261
REMARK UNBOUND:                -0.422
REMARK SMILES CCCCCCCCC(=O)[O-]
REMARK SMILES IDX 6 1 7 2 8 3 9 4 10 5 11 6 5 7 4 8 3 9 2 10 1 11
REMARK H PARENT
REMARK Flexibility Score: inf
ROOT
ATOM      1  C   UNL     1      35.486  53.783  58.557  1.00  0.00     0.000 C 
ENDROOT
BRANCH   1   2
ATOM      2  C   UNL     1      36.358  54.662  59.467  1.00  0.00     0.006 C 
BRANCH   2   3
ATOM      3  C   UNL     1      37.452  53.862  60.186  1.00  0.00     0.053 C 
BRANCH   3   4
ATOM      4  C   UNL     1      38.621  54.741  60.500  1.00  0.00     0.041 C 
ATOM      5  O   UNL     1      39.795  54.299  60.393  1.00  0.00    -0.550 OA
ATOM      6  O   UNL     1      38.416  56.067  60.863  1.00  0.00    -0.550 OA
ENDBRANCH   3   4
ENDBRANCH   2   3
ENDBRANCH   1   2
BRANCH   1   7
ATOM      7  C   UNL     1      35.886  52.298  58.610  1.00  0.00     0.000 C 
BRANCH   7   8
ATOM      8  C   UNL     1      34.845  51.374  57.954  1.00  0.00    -0.000 C 
BRANCH   8   9
ATOM      9  C   UNL     1      33.378  51.775  58.200  1.00  0.00    -0.000 C 
BRANCH   9  10
ATOM     10  C   UNL     1      32.441  50.564  58.328  1.00  0.00    -0.003 C 
ATOM     11  C   UNL     1      31.202  50.914  59.147  1.00  0.00     0.004 C 
ENDBRANCH   9  10
ENDBRANCH   8   9
ENDBRANCH   7   8
ENDBRANCH   1   7
TORSDOF 7
ENDMDL
MODEL 5
REMARK VINA RESULT:    -4.612      0.977      1.825
REMARK INTER + INTRA:          -6.922
REMARK INTER:                  -6.313
REMARK INTRA:                  -0.609
REMARK UNBOUND:                -0.422
REMARK SMILES CCCCCCCCC(=O)[O-]
REMARK SMILES IDX 6 1 7 2 8 3 9 4 10 5 11 6 5 7 4 8 3 9 2 10 1 11
REMARK H PARENT
REMARK Flexibility Score: inf
ROOT
ATOM      1  C   UNL     1      42.634  54.918  60.625  1.00  0.00     0.000 C 
ENDROOT
BRANCH   1   2
ATOM      2  C   UNL     1      43.175  56.105  59.814  1.00  0.00     0.006 C 
BRANCH   2   3
ATOM      3  C   UNL     1      42.229  56.527  58.683  1.00  0.00     0.053 C 
BRANCH   3   4
ATOM      4  C   UNL     1      41.638  57.871  58.970  1.00  0.00     0.041 C 
ATOM      5  O   UNL     1      40.565  58.224  58.415  1.00  0.00    -0.550 OA
ATOM      6  O   UNL     1      42.248  58.715  59.890  1.00  0.00    -0.550 OA
ENDBRANCH   3   4
ENDBRANCH   2   3
ENDBRANCH   1   2
BRANCH   1   7
ATOM      7  C   UNL     1      41.406  54.264  59.968  1.00  0.00     0.000 C 
BRANCH   7   8
ATOM      8  C   UNL     1      40.348  53.814  60.991  1.00  0.00    -0.000 C 
BRANCH   8   9
ATOM      9  C   UNL     1      38.933  54.374  60.749  1.00  0.00    -0.000 C 
BRANCH   9  10
ATOM     10  C   UNL     1      38.909  55.904  60.624  1.00  0.00    -0.003 C 
ATOM     11  C   UNL     1      37.671  56.374  59.866  1.00  0.00     0.004 C 
ENDBRANCH   9  10
ENDBRANCH   8   9
ENDBRANCH   7   8
ENDBRANCH   1   7
TORSDOF 7
ENDMDL
MODEL 6
REMARK VINA RESULT:    -4.582      2.589      4.773
REMARK INTER + INTRA:          -6.880
REMARK INTER:                  -6.424
REMARK INTRA:                  -0.456
REMARK UNBOUND:                -0.422
REMARK SMILES CCCCCCCCC(=O)[O-]
REMARK SMILES IDX 6 1 7 2 8 3 9 4 10 5 11 6 5 7 4 8 3 9 2 10 1 11
REMARK H PARENT
REMARK Flexibility Score: inf
ROOT
ATOM      1  C   UNL     1      40.211  53.987  60.961  1.00  0.00     0.000 C 
ENDROOT
BRANCH   1   2
ATOM      2  C   UNL     1      39.035  54.910  60.605  1.00  0.00     0.006 C 
BRANCH   2   3
ATOM      3  C   UNL     1      37.760  54.132  60.257  1.00  0.00     0.053 C 
BRANCH   3   4
ATOM      4  C   UNL     1      36.736  55.046  59.663  1.00  0.00     0.041 C 
ATOM      5  O   UNL     1      36.773  56.282  59.904  1.00  0.00    -0.550 OA
ATOM      6  O   UNL     1      35.769  54.541  58.803  1.00  0.00    -0.550 OA
ENDBRANCH   3   4
ENDBRANCH   2   3
ENDBRANCH   1   2
BRANCH   1   7
ATOM      7  C   UNL     1      41.383  54.115  59.973  1.00  0.00     0.000 C 
BRANCH   7   8
ATOM      8  C   UNL     1      42.561  54.925  60.543  1.00  0.00    -0.000 C 
BRANCH   8   9
ATOM      9  C   UNL     1      43.160  55.964  59.576  1.00  0.00    -0.000 C 
BRANCH   9  10
ATOM     10  C   UNL     1      42.090  56.789  58.847  1.00  0.00    -0.003 C 
ATOM     11  C   UNL     1      41.385  57.744  59.806  1.00  0.00     0.004 C 
ENDBRANCH   9  10
ENDBRANCH   8   9
ENDBRANCH   7   8
ENDBRANCH   1   7
TORSDOF 7
ENDMDL
MODEL 7
REMARK VINA RESULT:    -4.564      2.487      4.573
REMARK INTER + INTRA:          -6.854
REMARK INTER:                  -6.299
REMARK INTRA:                  -0.555
REMARK UNBOUND:                -0.422
REMARK SMILES CCCCCCCCC(=O)[O-]
REMARK SMILES IDX 6 1 7 2 8 3 9 4 10 5 11 6 5 7 4 8 3 9 2 10 1 11
REMARK H PARENT
REMARK Flexibility Score: inf
ROOT
ATOM      1  C   UNL     1      41.425  54.176  59.948  1.00  0.00     0.000 C 
ENDROOT
BRANCH   1   2
ATOM      2  C   UNL     1      40.163  54.115  60.823  1.00  0.00     0.006 C 
BRANCH   2   3
ATOM      3  C   UNL     1      39.234  55.315  60.601  1.00  0.00     0.053 C 
BRANCH   3   4
ATOM      4  C   UNL     1      37.873  54.853  60.185  1.00  0.00     0.041 C 
ATOM      5  O   UNL     1      37.592  53.625  60.189  1.00  0.00    -0.550 OA
ATOM      6  O   UNL     1      36.899  55.781  59.841  1.00  0.00    -0.550 OA
ENDBRANCH   3   4
ENDBRANCH   2   3
ENDBRANCH   1   2
BRANCH   1   7
ATOM      7  C   UNL     1      42.606  54.856  60.662  1.00  0.00     0.000 C 
BRANCH   7   8
ATOM      8  C   UNL     1      42.780  56.331  60.258  1.00  0.00    -0.000 C 
BRANCH   8   9
ATOM      9  C   UNL     1      43.353  56.552  58.845  1.00  0.00    -0.000 C 
BRANCH   9  10
ATOM     10  C   UNL     1      42.550  57.574  58.028  1.00  0.00    -0.003 C 
ATOM     11  C   UNL     1      41.147  57.754  58.600  1.00  0.00     0.004 C 
ENDBRANCH   9  10
ENDBRANCH   8   9
ENDBRANCH   7   8
ENDBRANCH   1   7
TORSDOF 7
ENDMDL
MODEL 8
REMARK VINA RESULT:    -4.552      2.972      5.389
REMARK INTER + INTRA:          -6.837
REMARK INTER:                  -6.357
REMARK INTRA:                  -0.480
REMARK UNBOUND:                -0.422
REMARK SMILES CCCCCCCCC(=O)[O-]
REMARK SMILES IDX 6 1 7 2 8 3 9 4 10 5 11 6 5 7 4 8 3 9 2 10 1 11
REMARK H PARENT
REMARK Flexibility Score: inf
ROOT
ATOM      1  C   UNL     1      39.301  56.939  60.596  1.00  0.00     0.000 C 
ENDROOT
BRANCH   1   2
ATOM      2  C   UNL     1      38.590  55.597  60.363  1.00  0.00     0.006 C 
BRANCH   2   3
ATOM      3  C   UNL     1      37.164  55.771  59.826  1.00  0.00     0.053 C 
BRANCH   3   4
ATOM      4  C   UNL     1      36.538  54.439  59.562  1.00  0.00     0.041 C 
ATOM      5  O   UNL     1      35.588  54.335  58.742  1.00  0.00    -0.550 OA
ATOM      6  O   UNL     1      37.037  53.301  60.185  1.00  0.00    -0.550 OA
ENDBRANCH   3   4
ENDBRANCH   2   3
ENDBRANCH   1   2
BRANCH   1   7
ATOM      7  C   UNL     1      39.990  57.470  59.327  1.00  0.00     0.000 C 
BRANCH   7   8
ATOM      8  C   UNL     1      41.493  57.735  59.529  1.00  0.00    -0.000 C 
BRANCH   8   9
ATOM      9  C   UNL     1      42.422  56.620  59.013  1.00  0.00    -0.000 C 
BRANCH   9  10
ATOM     10  C   UNL     1      43.054  55.797  60.145  1.00  0.00    -0.003 C 
ATOM     11  C   UNL     1      42.208  54.568  60.467  1.00  0.00     0.004 C 
ENDBRANCH   9  10
ENDBRANCH   8   9
ENDBRANCH   7   8
ENDBRANCH   1   7
TORSDOF 7
ENDMDL
MODEL 9
REMARK VINA RESULT:    -4.538      4.007      6.233
REMARK INTER + INTRA:          -6.818
REMARK INTER:                  -6.496
REMARK INTRA:                  -0.322
REMARK UNBOUND:                -0.422
REMARK SMILES CCCCCCCCC(=O)[O-]
REMARK SMILES IDX 6 1 7 2 8 3 9 4 10 5 11 6 5 7 4 8 3 9 2 10 1 11
REMARK H PARENT
REMARK Flexibility Score: inf
ROOT
ATOM      1  C   UNL     1      36.299  55.586  59.868  1.00  0.00     0.000 C 
ENDROOT
BRANCH   1   2
ATOM      2  C   UNL     1      35.867  54.654  58.726  1.00  0.00     0.006 C 
BRANCH   2   3
ATOM      3  C   UNL     1      35.949  53.171  59.112  1.00  0.00     0.053 C 
BRANCH   3   4
ATOM      4  C   UNL     1      35.215  52.331  58.116  1.00  0.00     0.041 C 
ATOM      5  O   UNL     1      35.847  51.549  57.358  1.00  0.00    -0.550 OA
ATOM      6  O   UNL     1      33.828  52.373  58.059  1.00  0.00    -0.550 OA
ENDBRANCH   3   4
ENDBRANCH   2   3
ENDBRANCH   1   2
BRANCH   1   7
ATOM      7  C   UNL     1      37.621  56.314  59.570  1.00  0.00     0.000 C 
BRANCH   7   8
ATOM      8  C   UNL     1      38.771  55.869  60.491  1.00  0.00    -0.000 C 
BRANCH   8   9
ATOM      9  C   UNL     1      38.712  54.395  60.933  1.00  0.00    -0.000 C 
BRANCH   9  10
ATOM     10  C   UNL     1      40.099  53.801  61.222  1.00  0.00    -0.003 C 
ATOM     11  C   UNL     1      41.139  54.335  60.241  1.00  0.00     0.004 C 
ENDBRANCH   9  10
ENDBRANCH   8   9
ENDBRANCH   7   8
ENDBRANCH   1   7
TORSDOF 7
ENDMDL
