MODEL 1
REMARK VINA RESULT:    -4.775      0.000      0.000
REMARK INTER + INTRA:         -16.072
REMARK INTER:                 -12.592
REMARK INTRA:                  -3.479
REMARK UNBOUND:                -3.479
REMARK SMILES CCCCCCCCCCCCCCCCCCCCCCCCCCCCCC(=O)[O-]
REMARK SMILES IDX 16 1 17 2 18 3 19 4 20 5 21 6 22 7 23 8 24 9 25 10 26 11
REMARK SMILES IDX 27 12 28 13 29 14 30 15 31 16 32 17 15 18 14 19 13 20 12 21
REMARK SMILES IDX 11 22 10 23 9 24 8 25 7 26 6 27 5 28 4 29 3 30 2 31 1 32
REMARK H PARENT
REMARK Flexibility Score: inf
ROOT
ATOM      1  C   UNL     1     -49.575  11.901 -29.244  1.00  0.00     0.000 C 
ENDROOT
BRANCH   1   2
ATOM      2  C   UNL     1     -49.649  10.635 -30.109  1.00  0.00     0.000 C 
BRANCH   2   3
ATOM      3  C   UNL     1     -49.057   9.424 -29.371  1.00  0.00     0.000 C 
BRANCH   3   4
ATOM      4  C   UNL     1     -47.581   9.166 -29.745  1.00  0.00     0.000 C 
BRANCH   4   5
ATOM      5  C   UNL     1     -47.385   8.585 -31.160  1.00  0.00     0.000 C 
BRANCH   5   6
ATOM      6  C   UNL     1     -48.206   7.321 -31.469  1.00  0.00     0.000 C 
BRANCH   6   7
ATOM      7  C   UNL     1     -49.083   7.397 -32.735  1.00  0.00     0.000 C 
BRANCH   7   8
ATOM      8  C   UNL     1     -49.294   6.041 -33.439  1.00  0.00     0.000 C 
BRANCH   8   9
ATOM      9  C   UNL     1     -50.594   5.993 -34.263  1.00  0.00     0.000 C 
BRANCH   9  10
ATOM     10  C   UNL     1     -51.775   6.623 -33.507  1.00  0.00     0.000 C 
BRANCH  10  11
ATOM     11  C   UNL     1     -52.936   6.982 -34.447  1.00  0.00     0.000 C 
BRANCH  11  12
ATOM     12  C   UNL     1     -53.677   8.236 -33.961  1.00  0.00     0.000 C 
BRANCH  12  13
ATOM     13  C   UNL     1     -53.192   8.718 -32.586  1.00  0.00     0.006 C 
BRANCH  13  14
ATOM     14  C   UNL     1     -53.681   7.828 -31.435  1.00  0.00     0.053 C 
BRANCH  14  15
ATOM     15  C   UNL     1     -52.849   8.039 -30.206  1.00  0.00     0.041 C 
ATOM     16  O   UNL     1     -52.827   9.167 -29.645  1.00  0.00    -0.550 OA
ATOM     17  O   UNL     1     -52.063   7.007 -29.706  1.00  0.00    -0.550 OA
ENDBRANCH  14  15
ENDBRANCH  13  14
ENDBRANCH  12  13
ENDBRANCH  11  12
ENDBRANCH  10  11
ENDBRANCH   9  10
ENDBRANCH   8   9
ENDBRANCH   7   8
ENDBRANCH   6   7
ENDBRANCH   5   6
ENDBRANCH   4   5
ENDBRANCH   3   4
ENDBRANCH   2   3
ENDBRANCH   1   2
BRANCH   1  18
ATOM     18  C   UNL     1     -50.507  13.017 -29.746  1.00  0.00     0.000 C 
BRANCH  18  19
ATOM     19  C   UNL     1     -51.494  12.529 -30.817  1.00  0.00     0.000 C 
BRANCH  19  20
ATOM     20  C   UNL     1     -52.958  12.775 -30.418  1.00  0.00     0.000 C 
BRANCH  20  21
ATOM     21  C   UNL     1     -53.229  12.456 -28.937  1.00  0.00     0.000 C 
BRANCH  21  22
ATOM     22  C   UNL     1     -54.121  13.508 -28.257  1.00  0.00     0.000 C 
BRANCH  22  23
ATOM     23  C   UNL     1     -53.862  14.964 -28.692  1.00  0.00     0.000 C 
BRANCH  23  24
ATOM     24  C   UNL     1     -52.624  15.606 -28.030  1.00  0.00    -0.000 C 
BRANCH  24  25
ATOM     25  C   UNL     1     -52.939  16.961 -27.376  1.00  0.00    -0.000 C 
BRANCH  25  26
ATOM     26  C   UNL     1     -52.476  18.122 -28.264  1.00  0.00    -0.000 C 
BRANCH  26  27
ATOM     27  C   UNL     1     -53.672  18.919 -28.797  1.00  0.00    -0.000 C 
BRANCH  27  28
ATOM     28  C   UNL     1     -53.862  18.682 -30.300  1.00  0.00    -0.000 C 
BRANCH  28  29
ATOM     29  C   UNL     1     -52.568  18.160 -30.946  1.00  0.00    -0.000 C 
BRANCH  29  30
ATOM     30  C   UNL     1     -52.778  16.849 -31.725  1.00  0.00    -0.000 C 
BRANCH  30  31
ATOM     31  C   UNL     1     -51.511  15.989 -31.892  1.00  0.00    -0.003 C 
ATOM     32  C   UNL     1     -50.474  16.236 -30.798  1.00  0.00     0.004 C 
ENDBRANCH  30  31
ENDBRANCH  29  30
ENDBRANCH  28  29
ENDBRANCH  27  28
ENDBRANCH  26  27
ENDBRANCH  25  26
ENDBRANCH  24  25
ENDBRANCH  23  24
ENDBRANCH  22  23
ENDBRANCH  21  22
ENDBRANCH  20  21
ENDBRANCH  19  20
ENDBRANCH  18  19
ENDBRANCH   1  18
TORSDOF 28
ENDMDL
MODEL 2
REMARK VINA RESULT:    -4.443      2.418      9.104
REMARK INTER + INTRA:         -15.196
REMARK INTER:                 -10.686
REMARK INTRA:                  -4.510
REMARK UNBOUND:                -3.479
REMARK SMILES CCCCCCCCCCCCCCCCCCCCCCCCCCCCCC(=O)[O-]
REMARK SMILES IDX 16 1 17 2 18 3 19 4 20 5 21 6 22 7 23 8 24 9 25 10 26 11
REMARK SMILES IDX 27 12 28 13 29 14 30 15 31 16 32 17 15 18 14 19 13 20 12 21
REMARK SMILES IDX 11 22 10 23 9 24 8 25 7 26 6 27 5 28 4 29 3 30 2 31 1 32
REMARK H PARENT
REMARK Flexibility Score: inf
ROOT
ATOM      1  C   UNL     1     -50.076  12.750 -30.960  1.00  0.00     0.000 C 
ENDROOT
BRANCH   1   2
ATOM      2  C   UNL     1     -50.467  13.543 -29.705  1.00  0.00     0.000 C 
BRANCH   2   3
ATOM      3  C   UNL     1     -50.636  12.614 -28.492  1.00  0.00     0.000 C 
BRANCH   3   4
ATOM      4  C   UNL     1     -52.111  12.235 -28.238  1.00  0.00     0.000 C 
BRANCH   4   5
ATOM      5  C   UNL     1     -53.125  13.252 -28.798  1.00  0.00     0.000 C 
BRANCH   5   6
ATOM      6  C   UNL     1     -53.946  12.764 -30.003  1.00  0.00     0.000 C 
BRANCH   6   7
ATOM      7  C   UNL     1     -53.759  13.574 -31.302  1.00  0.00     0.000 C 
BRANCH   7   8
ATOM      8  C   UNL     1     -53.752  15.103 -31.097  1.00  0.00     0.000 C 
BRANCH   8   9
ATOM      9  C   UNL     1     -52.426  15.757 -31.529  1.00  0.00     0.000 C 
BRANCH   9  10
ATOM     10  C   UNL     1     -52.521  17.291 -31.541  1.00  0.00     0.000 C 
BRANCH  10  11
ATOM     11  C   UNL     1     -53.852  17.791 -30.959  1.00  0.00     0.000 C 
BRANCH  11  12
ATOM     12  C   UNL     1     -53.669  19.123 -30.218  1.00  0.00     0.000 C 
BRANCH  12  13
ATOM     13  C   UNL     1     -53.718  18.967 -28.691  1.00  0.00     0.006 C 
BRANCH  13  14
ATOM     14  C   UNL     1     -53.900  17.509 -28.246  1.00  0.00     0.053 C 
BRANCH  14  15
ATOM     15  C   UNL     1     -52.680  17.013 -27.531  1.00  0.00     0.041 C 
ATOM     16  O   UNL     1     -51.914  16.183 -28.090  1.00  0.00    -0.550 OA
ATOM     17  O   UNL     1     -52.413  17.428 -26.231  1.00  0.00    -0.550 OA
ENDBRANCH  14  15
ENDBRANCH  13  14
ENDBRANCH  12  13
ENDBRANCH  11  12
ENDBRANCH  10  11
ENDBRANCH   9  10
ENDBRANCH   8   9
ENDBRANCH   7   8
ENDBRANCH   6   7
ENDBRANCH   5   6
ENDBRANCH   4   5
ENDBRANCH   3   4
ENDBRANCH   2   3
ENDBRANCH   1   2
BRANCH   1  18
ATOM     18  C   UNL     1     -49.942  11.242 -30.688  1.00  0.00     0.000 C 
BRANCH  18  19
ATOM     19  C   UNL     1     -51.067  10.420 -31.336  1.00  0.00     0.000 C 
BRANCH  19  20
ATOM     20  C   UNL     1     -51.505   9.235 -30.459  1.00  0.00     0.000 C 
BRANCH  20  21
ATOM     21  C   UNL     1     -53.027   9.200 -30.229  1.00  0.00     0.000 C 
BRANCH  21  22
ATOM     22  C   UNL     1     -53.677   7.911 -30.757  1.00  0.00     0.000 C 
BRANCH  22  23
ATOM     23  C   UNL     1     -52.794   6.651 -30.672  1.00  0.00     0.000 C 
BRANCH  23  24
ATOM     24  C   UNL     1     -52.677   5.875 -32.001  1.00  0.00    -0.000 C 
BRANCH  24  25
ATOM     25  C   UNL     1     -52.302   6.782 -33.184  1.00  0.00    -0.000 C 
BRANCH  25  26
ATOM     26  C   UNL     1     -50.944   6.384 -33.774  1.00  0.00    -0.000 C 
BRANCH  26  27
ATOM     27  C   UNL     1     -49.830   7.307 -33.266  1.00  0.00    -0.000 C 
BRANCH  27  28
ATOM     28  C   UNL     1     -48.965   6.597 -32.218  1.00  0.00    -0.000 C 
BRANCH  28  29
ATOM     29  C   UNL     1     -48.488   7.581 -31.136  1.00  0.00    -0.000 C 
BRANCH  29  30
ATOM     30  C   UNL     1     -47.772   6.879 -29.968  1.00  0.00    -0.000 C 
BRANCH  30  31
ATOM     31  C   UNL     1     -46.895   7.803 -29.103  1.00  0.00    -0.003 C 
ATOM     32  C   UNL     1     -46.791   9.221 -29.660  1.00  0.00     0.004 C 
ENDBRANCH  30  31
ENDBRANCH  29  30
ENDBRANCH  28  29
ENDBRANCH  27  28
ENDBRANCH  26  27
ENDBRANCH  25  26
ENDBRANCH  24  25
ENDBRANCH  23  24
ENDBRANCH  22  23
ENDBRANCH  21  22
ENDBRANCH  20  21
ENDBRANCH  19  20
ENDBRANCH  18  19
ENDBRANCH   1  18
TORSDOF 28
ENDMDL
MODEL 3
REMARK VINA RESULT:    -4.356      1.851      8.502
REMARK INTER + INTRA:         -14.965
REMARK INTER:                 -11.040
REMARK INTRA:                  -3.924
REMARK UNBOUND:                -3.479
REMARK SMILES CCCCCCCCCCCCCCCCCCCCCCCCCCCCCC(=O)[O-]
REMARK SMILES IDX 16 1 17 2 18 3 19 4 20 5 21 6 22 7 23 8 24 9 25 10 26 11
REMARK SMILES IDX 27 12 28 13 29 14 30 15 31 16 32 17 15 18 14 19 13 20 12 21
REMARK SMILES IDX 11 22 10 23 9 24 8 25 7 26 6 27 5 28 4 29 3 30 2 31 1 32
REMARK H PARENT
REMARK Flexibility Score: inf
ROOT
ATOM      1  C   UNL     1     -51.785  16.561 -31.851  1.00  0.00     0.000 C 
ENDROOT
BRANCH   1   2
ATOM      2  C   UNL     1     -51.489  17.438 -30.626  1.00  0.00     0.000 C 
BRANCH   2   3
ATOM      3  C   UNL     1     -52.788  17.956 -29.989  1.00  0.00     0.000 C 
BRANCH   3   4
ATOM      4  C   UNL     1     -52.629  18.260 -28.483  1.00  0.00     0.000 C 
BRANCH   4   5
ATOM      5  C   UNL     1     -53.323  17.238 -27.561  1.00  0.00     0.000 C 
BRANCH   5   6
ATOM      6  C   UNL     1     -52.671  15.846 -27.517  1.00  0.00     0.000 C 
BRANCH   6   7
ATOM      7  C   UNL     1     -53.541  14.692 -28.055  1.00  0.00     0.000 C 
BRANCH   7   8
ATOM      8  C   UNL     1     -52.801  13.343 -28.169  1.00  0.00     0.000 C 
BRANCH   8   9
ATOM      9  C   UNL     1     -51.299  13.510 -28.463  1.00  0.00     0.000 C 
BRANCH   9  10
ATOM     10  C   UNL     1     -50.694  12.245 -29.095  1.00  0.00     0.000 C 
BRANCH  10  11
ATOM     11  C   UNL     1     -49.164  12.329 -29.201  1.00  0.00     0.000 C 
BRANCH  11  12
ATOM     12  C   UNL     1     -48.490  11.201 -28.407  1.00  0.00     0.000 C 
BRANCH  12  13
ATOM     13  C   UNL     1     -47.685  10.245 -29.299  1.00  0.00     0.006 C 
BRANCH  13  14
ATOM     14  C   UNL     1     -48.383   8.894 -29.508  1.00  0.00     0.053 C 
BRANCH  14  15
ATOM     15  C   UNL     1     -47.380   7.788 -29.634  1.00  0.00     0.041 C 
ATOM     16  O   UNL     1     -47.373   7.055 -30.659  1.00  0.00    -0.550 OA
ATOM     17  O   UNL     1     -46.482   7.535 -28.603  1.00  0.00    -0.550 OA
ENDBRANCH  14  15
ENDBRANCH  13  14
ENDBRANCH  12  13
ENDBRANCH  11  12
ENDBRANCH  10  11
ENDBRANCH   9  10
ENDBRANCH   8   9
ENDBRANCH   7   8
ENDBRANCH   6   7
ENDBRANCH   5   6
ENDBRANCH   4   5
ENDBRANCH   3   4
ENDBRANCH   2   3
ENDBRANCH   1   2
BRANCH   1  18
ATOM     18  C   UNL     1     -52.066  15.096 -31.476  1.00  0.00     0.000 C 
BRANCH  18  19
ATOM     19  C   UNL     1     -53.567  14.773 -31.427  1.00  0.00     0.000 C 
BRANCH  19  20
ATOM     20  C   UNL     1     -53.847  13.269 -31.570  1.00  0.00     0.000 C 
BRANCH  20  21
ATOM     21  C   UNL     1     -52.558  12.432 -31.648  1.00  0.00     0.000 C 
BRANCH  21  22
ATOM     22  C   UNL     1     -52.827  10.959 -31.999  1.00  0.00     0.000 C 
BRANCH  22  23
ATOM     23  C   UNL     1     -51.727  10.275 -32.835  1.00  0.00     0.000 C 
BRANCH  23  24
ATOM     24  C   UNL     1     -50.515   9.799 -32.007  1.00  0.00    -0.000 C 
BRANCH  24  25
ATOM     25  C   UNL     1     -49.357   9.302 -32.887  1.00  0.00    -0.000 C 
BRANCH  25  26
ATOM     26  C   UNL     1     -49.583   7.850 -33.326  1.00  0.00    -0.000 C 
BRANCH  26  27
ATOM     27  C   UNL     1     -50.352   7.064 -32.257  1.00  0.00    -0.000 C 
BRANCH  27  28
ATOM     28  C   UNL     1     -51.274   6.022 -32.900  1.00  0.00    -0.000 C 
BRANCH  28  29
ATOM     29  C   UNL     1     -52.243   6.681 -33.896  1.00  0.00    -0.000 C 
BRANCH  29  30
ATOM     30  C   UNL     1     -53.710   6.615 -33.432  1.00  0.00    -0.000 C 
BRANCH  30  31
ATOM     31  C   UNL     1     -54.039   7.493 -32.211  1.00  0.00    -0.003 C 
ATOM     32  C   UNL     1     -53.982   6.726 -30.891  1.00  0.00     0.004 C 
ENDBRANCH  30  31
ENDBRANCH  29  30
ENDBRANCH  28  29
ENDBRANCH  27  28
ENDBRANCH  26  27
ENDBRANCH  25  26
ENDBRANCH  24  25
ENDBRANCH  23  24
ENDBRANCH  22  23
ENDBRANCH  21  22
ENDBRANCH  20  21
ENDBRANCH  19  20
ENDBRANCH  18  19
ENDBRANCH   1  18
TORSDOF 28
ENDMDL
MODEL 4
REMARK VINA RESULT:    -4.274      1.583      3.631
REMARK INTER + INTRA:         -14.750
REMARK INTER:                 -11.619
REMARK INTRA:                  -3.131
REMARK UNBOUND:                -3.479
REMARK SMILES CCCCCCCCCCCCCCCCCCCCCCCCCCCCCC(=O)[O-]
REMARK SMILES IDX 16 1 17 2 18 3 19 4 20 5 21 6 22 7 23 8 24 9 25 10 26 11
REMARK SMILES IDX 27 12 28 13 29 14 30 15 31 16 32 17 15 18 14 19 13 20 12 21
REMARK SMILES IDX 11 22 10 23 9 24 8 25 7 26 6 27 5 28 4 29 3 30 2 31 1 32
REMARK H PARENT
REMARK Flexibility Score: inf
ROOT
ATOM      1  C   UNL     1     -49.277  11.501 -29.681  1.00  0.00     0.000 C 
ENDROOT
BRANCH   1   2
ATOM      2  C   UNL     1     -49.497   9.995 -29.479  1.00  0.00     0.000 C 
BRANCH   2   3
ATOM      3  C   UNL     1     -50.662   9.484 -30.344  1.00  0.00     0.000 C 
BRANCH   3   4
ATOM      4  C   UNL     1     -51.110   8.060 -29.951  1.00  0.00     0.000 C 
BRANCH   4   5
ATOM      5  C   UNL     1     -52.640   7.875 -29.905  1.00  0.00     0.000 C 
BRANCH   5   6
ATOM      6  C   UNL     1     -53.462   9.159 -30.107  1.00  0.00     0.000 C 
BRANCH   6   7
ATOM      7  C   UNL     1     -54.125   9.308 -31.491  1.00  0.00     0.000 C 
BRANCH   7   8
ATOM      8  C   UNL     1     -54.117   8.019 -32.338  1.00  0.00     0.000 C 
BRANCH   8   9
ATOM      9  C   UNL     1     -53.577   8.244 -33.762  1.00  0.00     0.000 C 
BRANCH   9  10
ATOM     10  C   UNL     1     -52.963   6.963 -34.351  1.00  0.00     0.000 C 
BRANCH  10  11
ATOM     11  C   UNL     1     -51.801   6.435 -33.496  1.00  0.00     0.000 C 
BRANCH  11  12
ATOM     12  C   UNL     1     -50.742   7.522 -33.267  1.00  0.00     0.000 C 
BRANCH  12  13
ATOM     13  C   UNL     1     -49.308   7.004 -33.456  1.00  0.00     0.006 C 
BRANCH  13  14
ATOM     14  C   UNL     1     -48.846   6.094 -32.310  1.00  0.00     0.053 C 
BRANCH  14  15
ATOM     15  C   UNL     1     -48.156   6.888 -31.242  1.00  0.00     0.041 C 
ATOM     16  O   UNL     1     -48.161   6.481 -30.050  1.00  0.00    -0.550 OA
ATOM     17  O   UNL     1     -47.548   8.099 -31.552  1.00  0.00    -0.550 OA
ENDBRANCH  14  15
ENDBRANCH  13  14
ENDBRANCH  12  13
ENDBRANCH  11  12
ENDBRANCH  10  11
ENDBRANCH   9  10
ENDBRANCH   8   9
ENDBRANCH   7   8
ENDBRANCH   6   7
ENDBRANCH   5   6
ENDBRANCH   4   5
ENDBRANCH   3   4
ENDBRANCH   2   3
ENDBRANCH   1   2
BRANCH   1  18
ATOM     18  C   UNL     1     -50.237  12.357 -28.837  1.00  0.00     0.000 C 
BRANCH  18  19
ATOM     19  C   UNL     1     -51.545  12.683 -29.573  1.00  0.00     0.000 C 
BRANCH  19  20
ATOM     20  C   UNL     1     -52.765  12.658 -28.637  1.00  0.00     0.000 C 
BRANCH  20  21
ATOM     21  C   UNL     1     -54.099  12.646 -29.405  1.00  0.00     0.000 C 
BRANCH  21  22
ATOM     22  C   UNL     1     -53.956  13.150 -30.850  1.00  0.00     0.000 C 
BRANCH  22  23
ATOM     23  C   UNL     1     -53.986  14.682 -31.015  1.00  0.00     0.000 C 
BRANCH  23  24
ATOM     24  C   UNL     1     -52.695  15.389 -30.550  1.00  0.00    -0.000 C 
BRANCH  24  25
ATOM     25  C   UNL     1     -52.100  16.305 -31.631  1.00  0.00    -0.000 C 
BRANCH  25  26
ATOM     26  C   UNL     1     -53.034  17.483 -31.930  1.00  0.00    -0.000 C 
BRANCH  26  27
ATOM     27  C   UNL     1     -52.545  18.764 -31.242  1.00  0.00    -0.000 C 
BRANCH  27  28
ATOM     28  C   UNL     1     -53.706  19.500 -30.564  1.00  0.00    -0.000 C 
BRANCH  28  29
ATOM     29  C   UNL     1     -53.945  18.966 -29.142  1.00  0.00    -0.000 C 
BRANCH  29  30
ATOM     30  C   UNL     1     -52.690  18.314 -28.533  1.00  0.00    -0.000 C 
BRANCH  30  31
ATOM     31  C   UNL     1     -52.927  17.585 -27.197  1.00  0.00    -0.003 C 
ATOM     32  C   UNL     1     -52.475  16.126 -27.225  1.00  0.00     0.004 C 
ENDBRANCH  30  31
ENDBRANCH  29  30
ENDBRANCH  28  29
ENDBRANCH  27  28
ENDBRANCH  26  27
ENDBRANCH  25  26
ENDBRANCH  24  25
ENDBRANCH  23  24
ENDBRANCH  22  23
ENDBRANCH  21  22
ENDBRANCH  20  21
ENDBRANCH  19  20
ENDBRANCH  18  19
ENDBRANCH   1  18
TORSDOF 28
ENDMDL
MODEL 5
REMARK VINA RESULT:    -4.226      1.615      5.091
REMARK INTER + INTRA:         -14.622
REMARK INTER:                 -10.712
REMARK INTRA:                  -3.910
REMARK UNBOUND:                -3.479
REMARK SMILES CCCCCCCCCCCCCCCCCCCCCCCCCCCCCC(=O)[O-]
REMARK SMILES IDX 16 1 17 2 18 3 19 4 20 5 21 6 22 7 23 8 24 9 25 10 26 11
REMARK SMILES IDX 27 12 28 13 29 14 30 15 31 16 32 17 15 18 14 19 13 20 12 21
REMARK SMILES IDX 11 22 10 23 9 24 8 25 7 26 6 27 5 28 4 29 3 30 2 31 1 32
REMARK H PARENT
REMARK Flexibility Score: inf
ROOT
ATOM      1  C   UNL     1     -52.619  15.252 -31.802  1.00  0.00     0.000 C 
ENDROOT
BRANCH   1   2
ATOM      2  C   UNL     1     -53.955  14.688 -31.297  1.00  0.00     0.000 C 
BRANCH   2   3
ATOM      3  C   UNL     1     -54.024  13.165 -31.498  1.00  0.00     0.000 C 
BRANCH   3   4
ATOM      4  C   UNL     1     -52.631  12.500 -31.468  1.00  0.00     0.000 C 
BRANCH   4   5
ATOM      5  C   UNL     1     -52.381  11.626 -30.222  1.00  0.00     0.000 C 
BRANCH   5   6
ATOM      6  C   UNL     1     -52.402  10.108 -30.470  1.00  0.00     0.000 C 
BRANCH   6   7
ATOM      7  C   UNL     1     -53.325   9.638 -31.612  1.00  0.00     0.000 C 
BRANCH   7   8
ATOM      8  C   UNL     1     -53.611   8.122 -31.611  1.00  0.00     0.000 C 
BRANCH   8   9
ATOM      9  C   UNL     1     -52.572   7.321 -30.805  1.00  0.00     0.000 C 
BRANCH   9  10
ATOM     10  C   UNL     1     -51.977   6.165 -31.626  1.00  0.00     0.000 C 
BRANCH  10  11
ATOM     11  C   UNL     1     -52.502   6.154 -33.070  1.00  0.00     0.000 C 
BRANCH  11  12
ATOM     12  C   UNL     1     -51.347   6.192 -34.081  1.00  0.00     0.000 C 
BRANCH  12  13
ATOM     13  C   UNL     1     -49.985   5.888 -33.440  1.00  0.00     0.006 C 
BRANCH  13  14
ATOM     14  C   UNL     1     -48.934   6.967 -33.733  1.00  0.00     0.053 C 
BRANCH  14  15
ATOM     15  C   UNL     1     -48.816   7.924 -32.585  1.00  0.00     0.041 C 
ATOM     16  O   UNL     1     -49.612   8.895 -32.488  1.00  0.00    -0.550 OA
ATOM     17  O   UNL     1     -47.800   7.771 -31.648  1.00  0.00    -0.550 OA
ENDBRANCH  14  15
ENDBRANCH  13  14
ENDBRANCH  12  13
ENDBRANCH  11  12
ENDBRANCH  10  11
ENDBRANCH   9  10
ENDBRANCH   8   9
ENDBRANCH   7   8
ENDBRANCH   6   7
ENDBRANCH   5   6
ENDBRANCH   4   5
ENDBRANCH   3   4
ENDBRANCH   2   3
ENDBRANCH   1   2
BRANCH   1  18
ATOM     18  C   UNL     1     -52.567  16.788 -31.744  1.00  0.00     0.000 C 
BRANCH  18  19
ATOM     19  C   UNL     1     -53.902  17.412 -31.310  1.00  0.00     0.000 C 
BRANCH  19  20
ATOM     20  C   UNL     1     -53.715  18.529 -30.270  1.00  0.00     0.000 C 
BRANCH  20  21
ATOM     21  C   UNL     1     -54.111  18.086 -28.850  1.00  0.00     0.000 C 
BRANCH  21  22
ATOM     22  C   UNL     1     -52.972  18.267 -27.833  1.00  0.00     0.000 C 
BRANCH  22  23
ATOM     23  C   UNL     1     -52.585  16.997 -27.051  1.00  0.00     0.000 C 
BRANCH  23  24
ATOM     24  C   UNL     1     -53.584  15.832 -27.212  1.00  0.00    -0.000 C 
BRANCH  24  25
ATOM     25  C   UNL     1     -53.020  14.682 -28.061  1.00  0.00    -0.000 C 
BRANCH  25  26
ATOM     26  C   UNL     1     -51.745  15.114 -28.795  1.00  0.00    -0.000 C 
BRANCH  26  27
ATOM     27  C   UNL     1     -50.623  14.087 -28.604  1.00  0.00    -0.000 C 
BRANCH  27  28
ATOM     28  C   UNL     1     -49.603  14.170 -29.745  1.00  0.00    -0.000 C 
BRANCH  28  29
ATOM     29  C   UNL     1     -48.900  12.819 -29.959  1.00  0.00    -0.000 C 
BRANCH  29  30
ATOM     30  C   UNL     1     -49.185  11.814 -28.827  1.00  0.00    -0.000 C 
BRANCH  30  31
ATOM     31  C   UNL     1     -48.969  10.338 -29.208  1.00  0.00    -0.003 C 
ATOM     32  C   UNL     1     -47.509   9.903 -29.106  1.00  0.00     0.004 C 
ENDBRANCH  30  31
ENDBRANCH  29  30
ENDBRANCH  28  29
ENDBRANCH  27  28
ENDBRANCH  26  27
ENDBRANCH  25  26
ENDBRANCH  24  25
ENDBRANCH  23  24
ENDBRANCH  22  23
ENDBRANCH  21  22
ENDBRANCH  20  21
ENDBRANCH  19  20
ENDBRANCH  18  19
ENDBRANCH   1  18
TORSDOF 28
ENDMDL
MODEL 6
REMARK VINA RESULT:    -4.197      1.705      8.404
REMARK INTER + INTRA:         -14.546
REMARK INTER:                 -11.316
REMARK INTRA:                  -3.230
REMARK UNBOUND:                -3.479
REMARK SMILES CCCCCCCCCCCCCCCCCCCCCCCCCCCCCC(=O)[O-]
REMARK SMILES IDX 16 1 17 2 18 3 19 4 20 5 21 6 22 7 23 8 24 9 25 10 26 11
REMARK SMILES IDX 27 12 28 13 29 14 30 15 31 16 32 17 15 18 14 19 13 20 12 21
REMARK SMILES IDX 11 22 10 23 9 24 8 25 7 26 6 27 5 28 4 29 3 30 2 31 1 32
REMARK H PARENT
REMARK Flexibility Score: inf
ROOT
ATOM      1  C   UNL     1     -51.398  15.717 -32.005  1.00  0.00     0.000 C 
ENDROOT
BRANCH   1   2
ATOM      2  C   UNL     1     -51.261  16.734 -30.863  1.00  0.00     0.000 C 
BRANCH   2   3
ATOM      3  C   UNL     1     -52.589  17.467 -30.612  1.00  0.00     0.000 C 
BRANCH   3   4
ATOM      4  C   UNL     1     -52.743  17.927 -29.146  1.00  0.00     0.000 C 
BRANCH   4   5
ATOM      5  C   UNL     1     -53.476  16.913 -28.245  1.00  0.00     0.000 C 
BRANCH   5   6
ATOM      6  C   UNL     1     -52.612  15.749 -27.729  1.00  0.00     0.000 C 
BRANCH   6   7
ATOM      7  C   UNL     1     -52.889  14.380 -28.383  1.00  0.00     0.000 C 
BRANCH   7   8
ATOM      8  C   UNL     1     -51.759  13.348 -28.192  1.00  0.00     0.000 C 
BRANCH   8   9
ATOM      9  C   UNL     1     -50.365  13.926 -28.496  1.00  0.00     0.000 C 
BRANCH   9  10
ATOM     10  C   UNL     1     -49.567  13.026 -29.455  1.00  0.00     0.000 C 
BRANCH  10  11
ATOM     11  C   UNL     1     -49.748  11.536 -29.129  1.00  0.00     0.000 C 
BRANCH  11  12
ATOM     12  C   UNL     1     -48.405  10.874 -28.793  1.00  0.00     0.000 C 
BRANCH  12  13
ATOM     13  C   UNL     1     -48.004   9.793 -29.809  1.00  0.00     0.006 C 
BRANCH  13  14
ATOM     14  C   UNL     1     -46.850   8.909 -29.315  1.00  0.00     0.053 C 
BRANCH  14  15
ATOM     15  C   UNL     1     -47.281   7.476 -29.216  1.00  0.00     0.041 C 
ATOM     16  O   UNL     1     -46.539   6.631 -28.647  1.00  0.00    -0.550 OA
ATOM     17  O   UNL     1     -48.478   7.063 -29.789  1.00  0.00    -0.550 OA
ENDBRANCH  14  15
ENDBRANCH  13  14
ENDBRANCH  12  13
ENDBRANCH  11  12
ENDBRANCH  10  11
ENDBRANCH   9  10
ENDBRANCH   8   9
ENDBRANCH   7   8
ENDBRANCH   6   7
ENDBRANCH   5   6
ENDBRANCH   4   5
ENDBRANCH   3   4
ENDBRANCH   2   3
ENDBRANCH   1   2
BRANCH   1  18
ATOM     18  C   UNL     1     -51.602  14.280 -31.496  1.00  0.00     0.000 C 
BRANCH  18  19
ATOM     19  C   UNL     1     -52.852  13.612 -32.088  1.00  0.00     0.000 C 
BRANCH  19  20
ATOM     20  C   UNL     1     -53.468  12.574 -31.136  1.00  0.00     0.000 C 
BRANCH  20  21
ATOM     21  C   UNL     1     -53.049  11.134 -31.480  1.00  0.00     0.000 C 
BRANCH  21  22
ATOM     22  C   UNL     1     -53.063  10.204 -30.256  1.00  0.00     0.000 C 
BRANCH  22  23
ATOM     23  C   UNL     1     -53.063   8.697 -30.579  1.00  0.00     0.000 C 
BRANCH  23  24
ATOM     24  C   UNL     1     -52.479   8.352 -31.965  1.00  0.00    -0.000 C 
BRANCH  24  25
ATOM     25  C   UNL     1     -53.565   7.993 -32.991  1.00  0.00    -0.000 C 
BRANCH  25  26
ATOM     26  C   UNL     1     -53.043   6.978 -34.014  1.00  0.00    -0.000 C 
BRANCH  26  27
ATOM     27  C   UNL     1     -52.097   5.967 -33.354  1.00  0.00    -0.000 C 
BRANCH  27  28
ATOM     28  C   UNL     1     -50.752   5.914 -34.089  1.00  0.00    -0.000 C 
BRANCH  28  29
ATOM     29  C   UNL     1     -49.594   6.300 -33.153  1.00  0.00    -0.000 C 
BRANCH  29  30
ATOM     30  C   UNL     1     -48.794   7.512 -33.665  1.00  0.00    -0.000 C 
BRANCH  30  31
ATOM     31  C   UNL     1     -48.781   8.723 -32.714  1.00  0.00    -0.003 C 
ATOM     32  C   UNL     1     -49.619   9.893 -33.225  1.00  0.00     0.004 C 
ENDBRANCH  30  31
ENDBRANCH  29  30
ENDBRANCH  28  29
ENDBRANCH  27  28
ENDBRANCH  26  27
ENDBRANCH  25  26
ENDBRANCH  24  25
ENDBRANCH  23  24
ENDBRANCH  22  23
ENDBRANCH  21  22
ENDBRANCH  20  21
ENDBRANCH  19  20
ENDBRANCH  18  19
ENDBRANCH   1  18
TORSDOF 28
ENDMDL
MODEL 7
REMARK VINA RESULT:    -3.723      2.096      9.474
REMARK INTER + INTRA:         -13.297
REMARK INTER:                  -9.719
REMARK INTRA:                  -3.578
REMARK UNBOUND:                -3.479
REMARK SMILES CCCCCCCCCCCCCCCCCCCCCCCCCCCCCC(=O)[O-]
REMARK SMILES IDX 16 1 17 2 18 3 19 4 20 5 21 6 22 7 23 8 24 9 25 10 26 11
REMARK SMILES IDX 27 12 28 13 29 14 30 15 31 16 32 17 15 18 14 19 13 20 12 21
REMARK SMILES IDX 11 22 10 23 9 24 8 25 7 26 6 27 5 28 4 29 3 30 2 31 1 32
REMARK H PARENT
REMARK Flexibility Score: inf
ROOT
ATOM      1  C   UNL     1     -51.635  11.090 -32.433  1.00  0.00     0.000 C 
ENDROOT
BRANCH   1   2
ATOM      2  C   UNL     1     -53.100  11.381 -32.079  1.00  0.00     0.000 C 
BRANCH   2   3
ATOM      3  C   UNL     1     -53.216  12.609 -31.162  1.00  0.00     0.000 C 
BRANCH   3   4
ATOM      4  C   UNL     1     -53.706  12.245 -29.744  1.00  0.00     0.000 C 
BRANCH   4   5
ATOM      5  C   UNL     1     -53.000  13.027 -28.617  1.00  0.00     0.000 C 
BRANCH   5   6
ATOM      6  C   UNL     1     -53.885  14.034 -27.863  1.00  0.00     0.000 C 
BRANCH   6   7
ATOM      7  C   UNL     1     -53.925  15.455 -28.461  1.00  0.00     0.000 C 
BRANCH   7   8
ATOM      8  C   UNL     1     -53.324  16.542 -27.546  1.00  0.00     0.000 C 
BRANCH   8   9
ATOM      9  C   UNL     1     -53.741  17.965 -27.959  1.00  0.00     0.000 C 
BRANCH   9  10
ATOM     10  C   UNL     1     -54.125  18.042 -29.446  1.00  0.00     0.000 C 
BRANCH  10  11
ATOM     11  C   UNL     1     -53.501  19.261 -30.141  1.00  0.00     0.000 C 
BRANCH  11  12
ATOM     12  C   UNL     1     -52.406  18.837 -31.130  1.00  0.00     0.000 C 
BRANCH  12  13
ATOM     13  C   UNL     1     -52.309  17.313 -31.292  1.00  0.00     0.006 C 
BRANCH  13  14
ATOM     14  C   UNL     1     -51.238  16.683 -30.391  1.00  0.00     0.053 C 
BRANCH  14  15
ATOM     15  C   UNL     1     -50.544  15.556 -31.094  1.00  0.00     0.041 C 
ATOM     16  O   UNL     1     -50.480  15.540 -32.353  1.00  0.00    -0.550 OA
ATOM     17  O   UNL     1     -50.009  14.499 -30.366  1.00  0.00    -0.550 OA
ENDBRANCH  14  15
ENDBRANCH  13  14
ENDBRANCH  12  13
ENDBRANCH  11  12
ENDBRANCH  10  11
ENDBRANCH   9  10
ENDBRANCH   8   9
ENDBRANCH   7   8
ENDBRANCH   6   7
ENDBRANCH   5   6
ENDBRANCH   4   5
ENDBRANCH   3   4
ENDBRANCH   2   3
ENDBRANCH   1   2
BRANCH   1  18
ATOM     18  C   UNL     1     -50.662  11.514 -31.320  1.00  0.00     0.000 C 
BRANCH  18  19
ATOM     19  C   UNL     1     -49.852  10.335 -30.759  1.00  0.00     0.000 C 
BRANCH  19  20
ATOM     20  C   UNL     1     -50.587   9.609 -29.621  1.00  0.00     0.000 C 
BRANCH  20  21
ATOM     21  C   UNL     1     -51.331   8.352 -30.105  1.00  0.00     0.000 C 
BRANCH  21  22
ATOM     22  C   UNL     1     -52.858   8.531 -30.110  1.00  0.00     0.000 C 
BRANCH  22  23
ATOM     23  C   UNL     1     -53.640   7.454 -30.886  1.00  0.00     0.000 C 
BRANCH  23  24
ATOM     24  C   UNL     1     -53.483   7.546 -32.419  1.00  0.00    -0.000 C 
BRANCH  24  25
ATOM     25  C   UNL     1     -52.663   6.383 -32.999  1.00  0.00    -0.000 C 
BRANCH  25  26
ATOM     26  C   UNL     1     -51.428   6.899 -33.747  1.00  0.00    -0.000 C 
BRANCH  26  27
ATOM     27  C   UNL     1     -50.287   5.875 -33.699  1.00  0.00    -0.000 C 
BRANCH  27  28
ATOM     28  C   UNL     1     -49.561   5.926 -32.350  1.00  0.00    -0.000 C 
BRANCH  28  29
ATOM     29  C   UNL     1     -48.997   7.331 -32.078  1.00  0.00    -0.000 C 
BRANCH  29  30
ATOM     30  C   UNL     1     -47.748   7.306 -31.178  1.00  0.00    -0.000 C 
BRANCH  30  31
ATOM     31  C   UNL     1     -47.946   6.607 -29.820  1.00  0.00    -0.003 C 
ATOM     32  C   UNL     1     -46.953   7.074 -28.758  1.00  0.00     0.004 C 
ENDBRANCH  30  31
ENDBRANCH  29  30
ENDBRANCH  28  29
ENDBRANCH  27  28
ENDBRANCH  26  27
ENDBRANCH  25  26
ENDBRANCH  24  25
ENDBRANCH  23  24
ENDBRANCH  22  23
ENDBRANCH  21  22
ENDBRANCH  20  21
ENDBRANCH  19  20
ENDBRANCH  18  19
ENDBRANCH   1  18
TORSDOF 28
ENDMDL
MODEL 8
REMARK VINA RESULT:    -3.675      5.795     11.718
REMARK INTER + INTRA:         -13.168
REMARK INTER:                 -11.220
REMARK INTRA:                  -1.949
REMARK UNBOUND:                -3.479
REMARK SMILES CCCCCCCCCCCCCCCCCCCCCCCCCCCCCC(=O)[O-]
REMARK SMILES IDX 16 1 17 2 18 3 19 4 20 5 21 6 22 7 23 8 24 9 25 10 26 11
REMARK SMILES IDX 27 12 28 13 29 14 30 15 31 16 32 17 15 18 14 19 13 20 12 21
REMARK SMILES IDX 11 22 10 23 9 24 8 25 7 26 6 27 5 28 4 29 3 30 2 31 1 32
REMARK H PARENT
REMARK Flexibility Score: inf
ROOT
ATOM      1  C   UNL     1     -50.459  13.935 -30.894  1.00  0.00     0.000 C 
ENDROOT
BRANCH   1   2
ATOM      2  C   UNL     1     -50.403  15.378 -31.417  1.00  0.00     0.000 C 
BRANCH   2   3
ATOM      3  C   UNL     1     -50.792  16.381 -30.319  1.00  0.00     0.000 C 
BRANCH   3   4
ATOM      4  C   UNL     1     -52.312  16.649 -30.273  1.00  0.00     0.000 C 
BRANCH   4   5
ATOM      5  C   UNL     1     -52.681  18.103 -29.919  1.00  0.00     0.000 C 
BRANCH   5   6
ATOM      6  C   UNL     1     -53.792  18.727 -30.781  1.00  0.00     0.000 C 
BRANCH   6   7
ATOM      7  C   UNL     1     -53.347  19.224 -32.172  1.00  0.00     0.000 C 
BRANCH   7   8
ATOM      8  C   UNL     1     -53.165  20.753 -32.268  1.00  0.00     0.000 C 
BRANCH   8   9
ATOM      9  C   UNL     1     -54.042  21.390 -33.362  1.00  0.00     0.000 C 
BRANCH   9  10
ATOM     10  C   UNL     1     -53.263  21.600 -34.671  1.00  0.00     0.000 C 
BRANCH  10  11
ATOM     11  C   UNL     1     -54.125  21.308 -35.908  1.00  0.00     0.000 C 
BRANCH  11  12
ATOM     12  C   UNL     1     -54.125  22.498 -36.878  1.00  0.00     0.000 C 
BRANCH  12  13
ATOM     13  C   UNL     1     -53.446  22.173 -38.217  1.00  0.00     0.006 C 
BRANCH  13  14
ATOM     14  C   UNL     1     -52.080  22.855 -38.375  1.00  0.00     0.053 C 
BRANCH  14  15
ATOM     15  C   UNL     1     -52.229  24.346 -38.411  1.00  0.00     0.041 C 
ATOM     16  O   UNL     1     -51.469  25.074 -37.718  1.00  0.00    -0.550 OA
ATOM     17  O   UNL     1     -53.234  24.932 -39.172  1.00  0.00    -0.550 OA
ENDBRANCH  14  15
ENDBRANCH  13  14
ENDBRANCH  12  13
ENDBRANCH  11  12
ENDBRANCH  10  11
ENDBRANCH   9  10
ENDBRANCH   8   9
ENDBRANCH   7   8
ENDBRANCH   6   7
ENDBRANCH   5   6
ENDBRANCH   4   5
ENDBRANCH   3   4
ENDBRANCH   2   3
ENDBRANCH   1   2
BRANCH   1  18
ATOM     18  C   UNL     1     -50.362  13.858 -29.361  1.00  0.00     0.000 C 
BRANCH  18  19
ATOM     19  C   UNL     1     -51.391  12.896 -28.748  1.00  0.00     0.000 C 
BRANCH  19  20
ATOM     20  C   UNL     1     -52.299  12.257 -29.811  1.00  0.00     0.000 C 
BRANCH  20  21
ATOM     21  C   UNL     1     -52.028  10.753 -29.994  1.00  0.00     0.000 C 
BRANCH  21  22
ATOM     22  C   UNL     1     -50.596  10.462 -30.470  1.00  0.00     0.000 C 
BRANCH  22  23
ATOM     23  C   UNL     1     -49.631   9.966 -29.375  1.00  0.00     0.000 C 
BRANCH  23  24
ATOM     24  C   UNL     1     -48.145   9.991 -29.790  1.00  0.00    -0.000 C 
BRANCH  24  25
ATOM     25  C   UNL     1     -47.612   8.599 -30.164  1.00  0.00    -0.000 C 
BRANCH  25  26
ATOM     26  C   UNL     1     -48.763   7.632 -30.465  1.00  0.00    -0.000 C 
BRANCH  26  27
ATOM     27  C   UNL     1     -48.565   6.945 -31.822  1.00  0.00    -0.000 C 
BRANCH  27  28
ATOM     28  C   UNL     1     -49.128   7.806 -32.959  1.00  0.00    -0.000 C 
BRANCH  28  29
ATOM     29  C   UNL     1     -50.647   7.995 -32.810  1.00  0.00    -0.000 C 
BRANCH  29  30
ATOM     30  C   UNL     1     -51.433   6.688 -33.024  1.00  0.00    -0.000 C 
BRANCH  30  31
ATOM     31  C   UNL     1     -52.633   6.807 -33.983  1.00  0.00    -0.003 C 
ATOM     32  C   UNL     1     -53.916   7.244 -33.280  1.00  0.00     0.004 C 
ENDBRANCH  30  31
ENDBRANCH  29  30
ENDBRANCH  28  29
ENDBRANCH  27  28
ENDBRANCH  26  27
ENDBRANCH  25  26
ENDBRANCH  24  25
ENDBRANCH  23  24
ENDBRANCH  22  23
ENDBRANCH  21  22
ENDBRANCH  20  21
ENDBRANCH  19  20
ENDBRANCH  18  19
ENDBRANCH   1  18
TORSDOF 28
ENDMDL
MODEL 9
REMARK VINA RESULT:    -2.431      1.429      3.219
REMARK INTER + INTRA:          -9.891
REMARK INTER:                  -6.688
REMARK INTRA:                  -3.202
REMARK UNBOUND:                -3.479
REMARK SMILES CCCCCCCCCCCCCCCCCCCCCCCCCCCCCC(=O)[O-]
REMARK SMILES IDX 16 1 17 2 18 3 19 4 20 5 21 6 22 7 23 8 24 9 25 10 26 11
REMARK SMILES IDX 27 12 28 13 29 14 30 15 31 16 32 17 15 18 14 19 13 20 12 21
REMARK SMILES IDX 11 22 10 23 9 24 8 25 7 26 6 27 5 28 4 29 3 30 2 31 1 32
REMARK H PARENT
REMARK Flexibility Score: inf
ROOT
ATOM      1  C   UNL     1     -52.069  12.946 -28.522  1.00  0.00     0.000 C 
ENDROOT
BRANCH   1   2
ATOM      2  C   UNL     1     -50.990  12.118 -29.233  1.00  0.00     0.000 C 
BRANCH   2   3
ATOM      3  C   UNL     1     -49.698  12.931 -29.416  1.00  0.00     0.000 C 
BRANCH   3   4
ATOM      4  C   UNL     1     -48.456  12.034 -29.605  1.00  0.00     0.000 C 
BRANCH   4   5
ATOM      5  C   UNL     1     -48.698  10.549 -29.269  1.00  0.00     0.000 C 
BRANCH   5   6
ATOM      6  C   UNL     1     -47.441   9.749 -28.888  1.00  0.00     0.000 C 
BRANCH   6   7
ATOM      7  C   UNL     1     -47.248   8.420 -29.647  1.00  0.00     0.000 C 
BRANCH   7   8
ATOM      8  C   UNL     1     -47.370   8.545 -31.180  1.00  0.00     0.000 C 
BRANCH   8   9
ATOM      9  C   UNL     1     -48.606   7.820 -31.741  1.00  0.00     0.000 C 
BRANCH   9  10
ATOM     10  C   UNL     1     -48.963   8.306 -33.156  1.00  0.00     0.000 C 
BRANCH  10  11
ATOM     11  C   UNL     1     -49.660   9.675 -33.135  1.00  0.00     0.000 C 
BRANCH  11  12
ATOM     12  C   UNL     1     -50.806   9.699 -32.114  1.00  0.00     0.000 C 
BRANCH  12  13
ATOM     13  C   UNL     1     -52.191   9.590 -32.770  1.00  0.00     0.006 C 
BRANCH  13  14
ATOM     14  C   UNL     1     -52.593   8.140 -33.075  1.00  0.00     0.053 C 
BRANCH  14  15
ATOM     15  C   UNL     1     -53.455   7.584 -31.982  1.00  0.00     0.041 C 
ATOM     16  O   UNL     1     -53.857   8.333 -31.051  1.00  0.00    -0.550 OA
ATOM     17  O   UNL     1     -53.776   6.232 -31.962  1.00  0.00    -0.550 OA
ENDBRANCH  14  15
ENDBRANCH  13  14
ENDBRANCH  12  13
ENDBRANCH  11  12
ENDBRANCH  10  11
ENDBRANCH   9  10
ENDBRANCH   8   9
ENDBRANCH   7   8
ENDBRANCH   6   7
ENDBRANCH   5   6
ENDBRANCH   4   5
ENDBRANCH   3   4
ENDBRANCH   2   3
ENDBRANCH   1   2
BRANCH   1  18
ATOM     18  C   UNL     1     -53.445  12.257 -28.530  1.00  0.00     0.000 C 
BRANCH  18  19
ATOM     19  C   UNL     1     -53.842  11.740 -29.921  1.00  0.00     0.000 C 
BRANCH  19  20
ATOM     20  C   UNL     1     -53.220  12.573 -31.054  1.00  0.00     0.000 C 
BRANCH  20  21
ATOM     21  C   UNL     1     -54.115  13.747 -31.485  1.00  0.00     0.000 C 
BRANCH  21  22
ATOM     22  C   UNL     1     -53.782  15.051 -30.742  1.00  0.00     0.000 C 
BRANCH  22  23
ATOM     23  C   UNL     1     -52.291  15.440 -30.740  1.00  0.00     0.000 C 
BRANCH  23  24
ATOM     24  C   UNL     1     -51.911  16.481 -31.814  1.00  0.00    -0.000 C 
BRANCH  24  25
ATOM     25  C   UNL     1     -52.999  17.547 -32.014  1.00  0.00    -0.000 C 
BRANCH  25  26
ATOM     26  C   UNL     1     -52.551  18.903 -31.456  1.00  0.00    -0.000 C 
BRANCH  26  27
ATOM     27  C   UNL     1     -53.758  19.777 -31.093  1.00  0.00    -0.000 C 
BRANCH  27  28
ATOM     28  C   UNL     1     -54.125  19.616 -29.613  1.00  0.00    -0.000 C 
BRANCH  28  29
ATOM     29  C   UNL     1     -53.186  18.617 -28.916  1.00  0.00    -0.000 C 
BRANCH  29  30
ATOM     30  C   UNL     1     -53.947  17.556 -28.100  1.00  0.00    -0.000 C 
BRANCH  30  31
ATOM     31  C   UNL     1     -53.049  16.549 -27.358  1.00  0.00    -0.003 C 
ATOM     32  C   UNL     1     -52.234  17.190 -26.236  1.00  0.00     0.004 C 
ENDBRANCH  30  31
ENDBRANCH  29  30
ENDBRANCH  28  29
ENDBRANCH  27  28
ENDBRANCH  26  27
ENDBRANCH  25  26
ENDBRANCH  24  25
ENDBRANCH  23  24
ENDBRANCH  22  23
ENDBRANCH  21  22
ENDBRANCH  20  21
ENDBRANCH  19  20
ENDBRANCH  18  19
ENDBRANCH   1  18
TORSDOF 28
ENDMDL
