MODEL 1
REMARK VINA RESULT:    -5.900      0.000      0.000
REMARK INTER + INTRA:         -19.047
REMARK INTER:                 -14.868
REMARK INTRA:                  -4.180
REMARK UNBOUND:                -4.180
REMARK SMILES CCCCCCCCCCCCCCCCCCCCCCCCCCCC(=O)[O-]
REMARK SMILES IDX 15 1 16 2 17 3 18 4 19 5 20 6 21 7 22 8 23 9 24 10 25 11
REMARK SMILES IDX 26 12 27 13 28 14 29 15 30 16 14 17 13 18 12 19 11 20 10 21
REMARK SMILES IDX 9 22 8 23 7 24 6 25 5 26 4 27 3 28 2 29 1 30
REMARK H PARENT
REMARK Flexibility Score: inf
ROOT
ATOM      1  C   UNL     1     119.193 179.225 126.724  1.00  0.00     0.000 C 
ENDROOT
BRANCH   1   2
ATOM      2  C   UNL     1     120.597 179.368 127.331  1.00  0.00     0.000 C 
BRANCH   2   3
ATOM      3  C   UNL     1     121.668 179.692 126.278  1.00  0.00     0.000 C 
BRANCH   3   4
ATOM      4  C   UNL     1     123.076 179.400 126.815  1.00  0.00     0.000 C 
BRANCH   4   5
ATOM      5  C   UNL     1     123.020 178.440 128.012  1.00  0.00     0.000 C 
BRANCH   5   6
ATOM      6  C   UNL     1     123.795 178.962 129.232  1.00  0.00     0.000 C 
BRANCH   6   7
ATOM      7  C   UNL     1     123.451 178.200 130.523  1.00  0.00     0.000 C 
BRANCH   7   8
ATOM      8  C   UNL     1     121.939 178.166 130.801  1.00  0.00     0.000 C 
BRANCH   8   9
ATOM      9  C   UNL     1     121.362 176.740 130.762  1.00  0.00     0.000 C 
BRANCH   9  10
ATOM     10  C   UNL     1     120.408 176.522 129.577  1.00  0.00     0.000 C 
BRANCH  10  11
ATOM     11  C   UNL     1     119.000 176.093 130.016  1.00  0.00     0.000 C 
BRANCH  11  12
ATOM     12  C   UNL     1     118.726 174.634 129.620  1.00  0.00     0.006 C 
BRANCH  12  13
ATOM     13  C   UNL     1     119.637 173.648 130.364  1.00  0.00     0.053 C 
BRANCH  13  14
ATOM     14  C   UNL     1     119.225 172.227 130.136  1.00  0.00     0.041 C 
ATOM     15  O   UNL     1     119.788 171.294 130.770  1.00  0.00    -0.550 OA
ATOM     16  O   UNL     1     118.205 171.932 129.241  1.00  0.00    -0.550 OA
ENDBRANCH  13  14
ENDBRANCH  12  13
ENDBRANCH  11  12
ENDBRANCH  10  11
ENDBRANCH   9  10
ENDBRANCH   8   9
ENDBRANCH   7   8
ENDBRANCH   6   7
ENDBRANCH   5   6
ENDBRANCH   4   5
ENDBRANCH   3   4
ENDBRANCH   2   3
ENDBRANCH   1   2
BRANCH   1  17
ATOM     17  C   UNL     1     118.818 177.758 126.445  1.00  0.00     0.000 C 
BRANCH  17  18
ATOM     18  C   UNL     1     117.745 177.619 125.353  1.00  0.00     0.000 C 
BRANCH  18  19
ATOM     19  C   UNL     1     117.465 178.940 124.620  1.00  0.00     0.000 C 
BRANCH  19  20
ATOM     20  C   UNL     1     117.231 178.694 123.121  1.00  0.00     0.000 C 
BRANCH  20  21
ATOM     21  C   UNL     1     118.511 178.851 122.279  1.00  0.00     0.000 C 
BRANCH  21  22
ATOM     22  C   UNL     1     119.736 179.374 123.053  1.00  0.00    -0.000 C 
BRANCH  22  23
ATOM     23  C   UNL     1     121.100 178.927 122.493  1.00  0.00    -0.000 C 
BRANCH  23  24
ATOM     24  C   UNL     1     121.885 177.992 123.438  1.00  0.00    -0.000 C 
BRANCH  24  25
ATOM     25  C   UNL     1     123.113 177.368 122.760  1.00  0.00    -0.000 C 
BRANCH  25  26
ATOM     26  C   UNL     1     123.875 176.457 123.731  1.00  0.00    -0.000 C 
BRANCH  26  27
ATOM     27  C   UNL     1     123.146 176.355 125.080  1.00  0.00    -0.000 C 
BRANCH  27  28
ATOM     28  C   UNL     1     123.011 174.895 125.563  1.00  0.00    -0.000 C 
BRANCH  28  29
ATOM     29  C   UNL     1     122.055 174.726 126.755  1.00  0.00    -0.003 C 
ATOM     30  C   UNL     1     120.595 174.567 126.335  1.00  0.00     0.004 C 
ENDBRANCH  28  29
ENDBRANCH  27  28
ENDBRANCH  26  27
ENDBRANCH  25  26
ENDBRANCH  24  25
ENDBRANCH  23  24
ENDBRANCH  22  23
ENDBRANCH  21  22
ENDBRANCH  20  21
ENDBRANCH  19  20
ENDBRANCH  18  19
ENDBRANCH  17  18
ENDBRANCH   1  17
TORSDOF 26
ENDMDL
MODEL 2
REMARK VINA RESULT:    -5.837      2.110      5.885
REMARK INTER + INTRA:         -18.890
REMARK INTER:                 -13.792
REMARK INTRA:                  -5.097
REMARK UNBOUND:                -4.180
REMARK SMILES CCCCCCCCCCCCCCCCCCCCCCCCCCCC(=O)[O-]
REMARK SMILES IDX 15 1 16 2 17 3 18 4 19 5 20 6 21 7 22 8 23 9 24 10 25 11
REMARK SMILES IDX 26 12 27 13 28 14 29 15 30 16 14 17 13 18 12 19 11 20 10 21
REMARK SMILES IDX 9 22 8 23 7 24 6 25 5 26 4 27 3 28 2 29 1 30
REMARK H PARENT
REMARK Flexibility Score: inf
ROOT
ATOM      1  C   UNL     1     118.879 173.618 129.608  1.00  0.00     0.000 C 
ENDROOT
BRANCH   1   2
ATOM      2  C   UNL     1     118.806 172.091 129.774  1.00  0.00     0.000 C 
BRANCH   2   3
ATOM      3  C   UNL     1     119.363 171.616 131.125  1.00  0.00     0.000 C 
BRANCH   3   4
ATOM      4  C   UNL     1     120.126 170.292 130.972  1.00  0.00     0.000 C 
BRANCH   4   5
ATOM      5  C   UNL     1     121.622 170.546 130.736  1.00  0.00     0.000 C 
BRANCH   5   6
ATOM      6  C   UNL     1     122.131 169.930 129.423  1.00  0.00     0.000 C 
BRANCH   6   7
ATOM      7  C   UNL     1     122.048 170.909 128.239  1.00  0.00     0.000 C 
BRANCH   7   8
ATOM      8  C   UNL     1     122.229 172.374 128.672  1.00  0.00     0.000 C 
BRANCH   8   9
ATOM      9  C   UNL     1     122.864 173.241 127.570  1.00  0.00     0.000 C 
BRANCH   9  10
ATOM     10  C   UNL     1     122.180 174.610 127.431  1.00  0.00     0.000 C 
BRANCH  10  11
ATOM     11  C   UNL     1     121.494 174.798 126.069  1.00  0.00     0.000 C 
BRANCH  11  12
ATOM     12  C   UNL     1     121.026 173.448 125.504  1.00  0.00     0.006 C 
BRANCH  12  13
ATOM     13  C   UNL     1     119.600 173.094 125.949  1.00  0.00     0.053 C 
BRANCH  13  14
ATOM     14  C   UNL     1     119.306 171.636 125.769  1.00  0.00     0.041 C 
ATOM     15  O   UNL     1     118.761 170.981 126.697  1.00  0.00    -0.550 OA
ATOM     16  O   UNL     1     119.612 171.006 124.570  1.00  0.00    -0.550 OA
ENDBRANCH  13  14
ENDBRANCH  12  13
ENDBRANCH  11  12
ENDBRANCH  10  11
ENDBRANCH   9  10
ENDBRANCH   8   9
ENDBRANCH   7   8
ENDBRANCH   6   7
ENDBRANCH   5   6
ENDBRANCH   4   5
ENDBRANCH   3   4
ENDBRANCH   2   3
ENDBRANCH   1   2
BRANCH   1  17
ATOM     17  C   UNL     1     119.913 174.264 130.546  1.00  0.00     0.000 C 
BRANCH  17  18
ATOM     18  C   UNL     1     119.624 175.750 130.812  1.00  0.00     0.000 C 
BRANCH  18  19
ATOM     19  C   UNL     1     118.671 176.367 129.776  1.00  0.00     0.000 C 
BRANCH  19  20
ATOM     20  C   UNL     1     119.460 177.031 128.636  1.00  0.00     0.000 C 
BRANCH  20  21
ATOM     21  C   UNL     1     118.857 176.755 127.246  1.00  0.00     0.000 C 
BRANCH  21  22
ATOM     22  C   UNL     1     119.070 177.877 126.212  1.00  0.00    -0.000 C 
BRANCH  22  23
ATOM     23  C   UNL     1     119.473 179.241 126.804  1.00  0.00    -0.000 C 
BRANCH  23  24
ATOM     24  C   UNL     1     120.814 179.782 126.264  1.00  0.00    -0.000 C 
BRANCH  24  25
ATOM     25  C   UNL     1     121.529 178.774 125.353  1.00  0.00    -0.000 C 
BRANCH  25  26
ATOM     26  C   UNL     1     122.841 178.294 125.985  1.00  0.00    -0.000 C 
BRANCH  26  27
ATOM     27  C   UNL     1     123.352 179.301 127.027  1.00  0.00    -0.000 C 
BRANCH  27  28
ATOM     28  C   UNL     1     123.892 178.607 128.296  1.00  0.00    -0.000 C 
BRANCH  28  29
ATOM     29  C   UNL     1     122.808 177.883 129.112  1.00  0.00    -0.003 C 
ATOM     30  C   UNL     1     123.381 176.934 130.162  1.00  0.00     0.004 C 
ENDBRANCH  28  29
ENDBRANCH  27  28
ENDBRANCH  26  27
ENDBRANCH  25  26
ENDBRANCH  24  25
ENDBRANCH  23  24
ENDBRANCH  22  23
ENDBRANCH  21  22
ENDBRANCH  20  21
ENDBRANCH  19  20
ENDBRANCH  18  19
ENDBRANCH  17  18
ENDBRANCH   1  17
TORSDOF 26
ENDMDL
MODEL 3
REMARK VINA RESULT:    -5.807      3.548      7.311
REMARK INTER + INTRA:         -18.813
REMARK INTER:                 -14.220
REMARK INTRA:                  -4.593
REMARK UNBOUND:                -4.180
REMARK SMILES CCCCCCCCCCCCCCCCCCCCCCCCCCCC(=O)[O-]
REMARK SMILES IDX 15 1 16 2 17 3 18 4 19 5 20 6 21 7 22 8 23 9 24 10 25 11
REMARK SMILES IDX 26 12 27 13 28 14 29 15 30 16 14 17 13 18 12 19 11 20 10 21
REMARK SMILES IDX 9 22 8 23 7 24 6 25 5 26 4 27 3 28 2 29 1 30
REMARK H PARENT
REMARK Flexibility Score: inf
ROOT
ATOM      1  C   UNL     1     118.955 171.891 129.895  1.00  0.00     0.000 C 
ENDROOT
BRANCH   1   2
ATOM      2  C   UNL     1     120.314 171.201 129.697  1.00  0.00     0.000 C 
BRANCH   2   3
ATOM      3  C   UNL     1     120.876 171.395 128.280  1.00  0.00     0.000 C 
BRANCH   3   4
ATOM      4  C   UNL     1     122.405 171.528 128.306  1.00  0.00     0.000 C 
BRANCH   4   5
ATOM      5  C   UNL     1     122.856 172.813 127.596  1.00  0.00     0.000 C 
BRANCH   5   6
ATOM      6  C   UNL     1     122.235 174.079 128.207  1.00  0.00     0.000 C 
BRANCH   6   7
ATOM      7  C   UNL     1     122.314 175.292 127.262  1.00  0.00     0.000 C 
BRANCH   7   8
ATOM      8  C   UNL     1     122.283 174.886 125.779  1.00  0.00     0.000 C 
BRANCH   8   9
ATOM      9  C   UNL     1     122.694 176.036 124.843  1.00  0.00     0.000 C 
BRANCH   9  10
ATOM     10  C   UNL     1     124.201 176.041 124.542  1.00  0.00     0.000 C 
BRANCH  10  11
ATOM     11  C   UNL     1     124.805 177.453 124.544  1.00  0.00     0.000 C 
BRANCH  11  12
ATOM     12  C   UNL     1     125.831 177.610 123.411  1.00  0.00     0.006 C 
BRANCH  12  13
ATOM     13  C   UNL     1     125.437 176.819 122.156  1.00  0.00     0.053 C 
BRANCH  13  14
ATOM     14  C   UNL     1     126.557 175.952 121.668  1.00  0.00     0.041 C 
ATOM     15  O   UNL     1     127.318 175.377 122.492  1.00  0.00    -0.550 OA
ATOM     16  O   UNL     1     126.747 175.760 120.306  1.00  0.00    -0.550 OA
ENDBRANCH  13  14
ENDBRANCH  12  13
ENDBRANCH  11  12
ENDBRANCH  10  11
ENDBRANCH   9  10
ENDBRANCH   8   9
ENDBRANCH   7   8
ENDBRANCH   6   7
ENDBRANCH   5   6
ENDBRANCH   4   5
ENDBRANCH   3   4
ENDBRANCH   2   3
ENDBRANCH   1   2
BRANCH   1  17
ATOM     17  C   UNL     1     119.027 173.412 129.673  1.00  0.00     0.000 C 
BRANCH  17  18
ATOM     18  C   UNL     1     119.776 174.139 130.801  1.00  0.00     0.000 C 
BRANCH  18  19
ATOM     19  C   UNL     1     119.776 175.666 130.629  1.00  0.00     0.000 C 
BRANCH  19  20
ATOM     20  C   UNL     1     118.630 176.111 129.707  1.00  0.00     0.000 C 
BRANCH  20  21
ATOM     21  C   UNL     1     119.076 177.133 128.644  1.00  0.00     0.000 C 
BRANCH  21  22
ATOM     22  C   UNL     1     119.011 176.627 127.190  1.00  0.00    -0.000 C 
BRANCH  22  23
ATOM     23  C   UNL     1     119.041 177.730 126.115  1.00  0.00    -0.000 C 
BRANCH  23  24
ATOM     24  C   UNL     1     119.098 179.161 126.693  1.00  0.00    -0.000 C 
BRANCH  24  25
ATOM     25  C   UNL     1     120.250 179.987 126.102  1.00  0.00    -0.000 C 
BRANCH  25  26
ATOM     26  C   UNL     1     121.494 179.118 125.881  1.00  0.00    -0.000 C 
BRANCH  26  27
ATOM     27  C   UNL     1     122.702 179.678 126.647  1.00  0.00    -0.000 C 
BRANCH  27  28
ATOM     28  C   UNL     1     123.227 178.693 127.714  1.00  0.00    -0.000 C 
BRANCH  28  29
ATOM     29  C   UNL     1     122.331 178.600 128.960  1.00  0.00    -0.003 C 
ATOM     30  C   UNL     1     122.954 177.777 130.086  1.00  0.00     0.004 C 
ENDBRANCH  28  29
ENDBRANCH  27  28
ENDBRANCH  26  27
ENDBRANCH  25  26
ENDBRANCH  24  25
ENDBRANCH  23  24
ENDBRANCH  22  23
ENDBRANCH  21  22
ENDBRANCH  20  21
ENDBRANCH  19  20
ENDBRANCH  18  19
ENDBRANCH  17  18
ENDBRANCH   1  17
TORSDOF 26
ENDMDL
MODEL 4
REMARK VINA RESULT:    -5.568      2.047      3.370
REMARK INTER + INTRA:         -18.210
REMARK INTER:                 -14.065
REMARK INTRA:                  -4.145
REMARK UNBOUND:                -4.180
REMARK SMILES CCCCCCCCCCCCCCCCCCCCCCCCCCCC(=O)[O-]
REMARK SMILES IDX 15 1 16 2 17 3 18 4 19 5 20 6 21 7 22 8 23 9 24 10 25 11
REMARK SMILES IDX 26 12 27 13 28 14 29 15 30 16 14 17 13 18 12 19 11 20 10 21
REMARK SMILES IDX 9 22 8 23 7 24 6 25 5 26 4 27 3 28 2 29 1 30
REMARK H PARENT
REMARK Flexibility Score: inf
ROOT
ATOM      1  C   UNL     1     119.990 179.617 126.778  1.00  0.00     0.000 C 
ENDROOT
BRANCH   1   2
ATOM      2  C   UNL     1     121.239 178.963 127.390  1.00  0.00     0.000 C 
BRANCH   2   3
ATOM      3  C   UNL     1     122.546 179.565 126.852  1.00  0.00     0.000 C 
BRANCH   3   4
ATOM      4  C   UNL     1     123.716 179.284 127.806  1.00  0.00     0.000 C 
BRANCH   4   5
ATOM      5  C   UNL     1     123.520 177.949 128.538  1.00  0.00     0.000 C 
BRANCH   5   6
ATOM      6  C   UNL     1     123.564 178.096 130.068  1.00  0.00     0.000 C 
BRANCH   6   7
ATOM      7  C   UNL     1     122.694 177.051 130.788  1.00  0.00     0.000 C 
BRANCH   7   8
ATOM      8  C   UNL     1     121.294 176.919 130.165  1.00  0.00     0.000 C 
BRANCH   8   9
ATOM      9  C   UNL     1     120.884 175.453 129.939  1.00  0.00     0.000 C 
BRANCH   9  10
ATOM     10  C   UNL     1     121.682 174.785 128.808  1.00  0.00     0.000 C 
BRANCH  10  11
ATOM     11  C   UNL     1     121.258 175.268 127.413  1.00  0.00     0.000 C 
BRANCH  11  12
ATOM     12  C   UNL     1     121.726 174.286 126.330  1.00  0.00     0.006 C 
BRANCH  12  13
ATOM     13  C   UNL     1     120.568 173.458 125.756  1.00  0.00     0.053 C 
BRANCH  13  14
ATOM     14  C   UNL     1     120.468 172.112 126.406  1.00  0.00     0.041 C 
ATOM     15  O   UNL     1     121.384 171.709 127.172  1.00  0.00    -0.550 OA
ATOM     16  O   UNL     1     119.354 171.313 126.187  1.00  0.00    -0.550 OA
ENDBRANCH  13  14
ENDBRANCH  12  13
ENDBRANCH  11  12
ENDBRANCH  10  11
ENDBRANCH   9  10
ENDBRANCH   8   9
ENDBRANCH   7   8
ENDBRANCH   6   7
ENDBRANCH   5   6
ENDBRANCH   4   5
ENDBRANCH   3   4
ENDBRANCH   2   3
ENDBRANCH   1   2
BRANCH   1  17
ATOM     17  C   UNL     1     119.164 178.632 125.932  1.00  0.00     0.000 C 
BRANCH  17  18
ATOM     18  C   UNL     1     119.004 179.093 124.474  1.00  0.00     0.000 C 
BRANCH  18  19
ATOM     19  C   UNL     1     120.284 179.723 123.905  1.00  0.00     0.000 C 
BRANCH  19  20
ATOM     20  C   UNL     1     120.678 179.056 122.577  1.00  0.00     0.000 C 
BRANCH  20  21
ATOM     21  C   UNL     1     122.033 178.327 122.650  1.00  0.00     0.000 C 
BRANCH  21  22
ATOM     22  C   UNL     1     122.307 177.598 123.980  1.00  0.00    -0.000 C 
BRANCH  22  23
ATOM     23  C   UNL     1     123.585 176.739 124.000  1.00  0.00    -0.000 C 
BRANCH  23  24
ATOM     24  C   UNL     1     124.821 177.476 124.561  1.00  0.00    -0.000 C 
BRANCH  24  25
ATOM     25  C   UNL     1     125.914 177.677 123.503  1.00  0.00    -0.000 C 
BRANCH  25  26
ATOM     26  C   UNL     1     125.509 177.046 122.165  1.00  0.00    -0.000 C 
BRANCH  26  27
ATOM     27  C   UNL     1     126.700 176.330 121.509  1.00  0.00    -0.000 C 
BRANCH  27  28
ATOM     28  C   UNL     1     126.686 174.809 121.773  1.00  0.00    -0.000 C 
BRANCH  28  29
ATOM     29  C   UNL     1     127.486 174.392 123.018  1.00  0.00    -0.003 C 
ATOM     30  C   UNL     1     126.600 174.041 124.212  1.00  0.00     0.004 C 
ENDBRANCH  28  29
ENDBRANCH  27  28
ENDBRANCH  26  27
ENDBRANCH  25  26
ENDBRANCH  24  25
ENDBRANCH  23  24
ENDBRANCH  22  23
ENDBRANCH  21  22
ENDBRANCH  20  21
ENDBRANCH  19  20
ENDBRANCH  18  19
ENDBRANCH  17  18
ENDBRANCH   1  17
TORSDOF 26
ENDMDL
MODEL 5
REMARK VINA RESULT:    -5.541      3.339      7.358
REMARK INTER + INTRA:         -18.142
REMARK INTER:                 -13.356
REMARK INTRA:                  -4.786
REMARK UNBOUND:                -4.180
REMARK SMILES CCCCCCCCCCCCCCCCCCCCCCCCCCCC(=O)[O-]
REMARK SMILES IDX 15 1 16 2 17 3 18 4 19 5 20 6 21 7 22 8 23 9 24 10 25 11
REMARK SMILES IDX 26 12 27 13 28 14 29 15 30 16 14 17 13 18 12 19 11 20 10 21
REMARK SMILES IDX 9 22 8 23 7 24 6 25 5 26 4 27 3 28 2 29 1 30
REMARK H PARENT
REMARK Flexibility Score: inf
ROOT
ATOM      1  C   UNL     1     118.905 172.646 129.320  1.00  0.00     0.000 C 
ENDROOT
BRANCH   1   2
ATOM      2  C   UNL     1     118.845 174.134 129.702  1.00  0.00     0.000 C 
BRANCH   2   3
ATOM      3  C   UNL     1     120.180 174.660 130.248  1.00  0.00     0.000 C 
BRANCH   3   4
ATOM      4  C   UNL     1     120.003 176.031 130.916  1.00  0.00     0.000 C 
BRANCH   4   5
ATOM      5  C   UNL     1     121.125 176.993 130.500  1.00  0.00     0.000 C 
BRANCH   5   6
ATOM      6  C   UNL     1     122.397 176.262 130.042  1.00  0.00     0.000 C 
BRANCH   6   7
ATOM      7  C   UNL     1     123.196 177.061 128.996  1.00  0.00     0.000 C 
BRANCH   7   8
ATOM      8  C   UNL     1     122.838 178.557 129.000  1.00  0.00     0.000 C 
BRANCH   8   9
ATOM      9  C   UNL     1     122.435 179.072 127.607  1.00  0.00     0.000 C 
BRANCH   9  10
ATOM     10  C   UNL     1     123.398 178.604 126.505  1.00  0.00     0.000 C 
BRANCH  10  11
ATOM     11  C   UNL     1     122.680 178.272 125.188  1.00  0.00     0.000 C 
BRANCH  11  12
ATOM     12  C   UNL     1     123.288 177.022 124.534  1.00  0.00     0.006 C 
BRANCH  12  13
ATOM     13  C   UNL     1     124.671 177.298 123.928  1.00  0.00     0.053 C 
BRANCH  13  14
ATOM     14  C   UNL     1     124.636 177.289 122.431  1.00  0.00     0.041 C 
ATOM     15  O   UNL     1     123.534 177.227 121.824  1.00  0.00    -0.550 OA
ATOM     16  O   UNL     1     125.817 177.372 121.705  1.00  0.00    -0.550 OA
ENDBRANCH  13  14
ENDBRANCH  12  13
ENDBRANCH  11  12
ENDBRANCH  10  11
ENDBRANCH   9  10
ENDBRANCH   8   9
ENDBRANCH   7   8
ENDBRANCH   6   7
ENDBRANCH   5   6
ENDBRANCH   4   5
ENDBRANCH   3   4
ENDBRANCH   2   3
ENDBRANCH   1   2
BRANCH   1  17
ATOM     17  C   UNL     1     119.362 171.756 130.490  1.00  0.00     0.000 C 
BRANCH  17  18
ATOM     18  C   UNL     1     119.283 170.257 130.158  1.00  0.00     0.000 C 
BRANCH  18  19
ATOM     19  C   UNL     1     120.657 169.641 129.856  1.00  0.00     0.000 C 
BRANCH  19  20
ATOM     20  C   UNL     1     121.768 170.694 129.983  1.00  0.00     0.000 C 
BRANCH  20  21
ATOM     21  C   UNL     1     122.530 170.927 128.664  1.00  0.00     0.000 C 
BRANCH  21  22
ATOM     22  C   UNL     1     121.874 171.942 127.707  1.00  0.00    -0.000 C 
BRANCH  22  23
ATOM     23  C   UNL     1     122.688 173.227 127.464  1.00  0.00    -0.000 C 
BRANCH  23  24
ATOM     24  C   UNL     1     122.140 174.102 126.316  1.00  0.00    -0.000 C 
BRANCH  24  25
ATOM     25  C   UNL     1     120.679 174.519 126.542  1.00  0.00    -0.000 C 
BRANCH  25  26
ATOM     26  C   UNL     1     120.578 176.012 126.875  1.00  0.00    -0.000 C 
BRANCH  26  27
ATOM     27  C   UNL     1     119.151 176.533 126.649  1.00  0.00    -0.000 C 
BRANCH  27  28
ATOM     28  C   UNL     1     119.024 178.042 126.949  1.00  0.00    -0.000 C 
BRANCH  28  29
ATOM     29  C   UNL     1     118.266 178.825 125.863  1.00  0.00    -0.003 C 
ATOM     30  C   UNL     1     119.146 179.209 124.675  1.00  0.00     0.004 C 
ENDBRANCH  28  29
ENDBRANCH  27  28
ENDBRANCH  26  27
ENDBRANCH  25  26
ENDBRANCH  24  25
ENDBRANCH  23  24
ENDBRANCH  22  23
ENDBRANCH  21  22
ENDBRANCH  20  21
ENDBRANCH  19  20
ENDBRANCH  18  19
ENDBRANCH  17  18
ENDBRANCH   1  17
TORSDOF 26
ENDMDL
MODEL 6
REMARK VINA RESULT:    -5.535      1.333      3.495
REMARK INTER + INTRA:         -18.127
REMARK INTER:                 -13.489
REMARK INTRA:                  -4.638
REMARK UNBOUND:                -4.180
REMARK SMILES CCCCCCCCCCCCCCCCCCCCCCCCCCCC(=O)[O-]
REMARK SMILES IDX 15 1 16 2 17 3 18 4 19 5 20 6 21 7 22 8 23 9 24 10 25 11
REMARK SMILES IDX 26 12 27 13 28 14 29 15 30 16 14 17 13 18 12 19 11 20 10 21
REMARK SMILES IDX 9 22 8 23 7 24 6 25 5 26 4 27 3 28 2 29 1 30
REMARK H PARENT
REMARK Flexibility Score: inf
ROOT
ATOM      1  C   UNL     1     123.322 178.642 127.454  1.00  0.00     0.000 C 
ENDROOT
BRANCH   1   2
ATOM      2  C   UNL     1     123.975 179.306 128.676  1.00  0.00     0.000 C 
BRANCH   2   3
ATOM      3  C   UNL     1     123.336 178.865 130.002  1.00  0.00     0.000 C 
BRANCH   3   4
ATOM      4  C   UNL     1     123.765 177.439 130.375  1.00  0.00     0.000 C 
BRANCH   4   5
ATOM      5  C   UNL     1     122.600 176.453 130.202  1.00  0.00     0.000 C 
BRANCH   5   6
ATOM      6  C   UNL     1     121.332 176.892 130.952  1.00  0.00     0.000 C 
BRANCH   6   7
ATOM      7  C   UNL     1     120.319 175.746 131.125  1.00  0.00     0.000 C 
BRANCH   7   8
ATOM      8  C   UNL     1     118.918 176.118 130.612  1.00  0.00     0.000 C 
BRANCH   8   9
ATOM      9  C   UNL     1     118.384 175.115 129.572  1.00  0.00     0.000 C 
BRANCH   9  10
ATOM     10  C   UNL     1     119.306 173.898 129.401  1.00  0.00     0.000 C 
BRANCH  10  11
ATOM     11  C   UNL     1     119.983 173.852 128.023  1.00  0.00     0.000 C 
BRANCH  11  12
ATOM     12  C   UNL     1     120.593 172.467 127.761  1.00  0.00     0.006 C 
BRANCH  12  13
ATOM     13  C   UNL     1     121.509 172.009 128.904  1.00  0.00     0.053 C 
BRANCH  13  14
ATOM     14  C   UNL     1     121.148 170.640 129.394  1.00  0.00     0.041 C 
ATOM     15  O   UNL     1     119.942 170.339 129.601  1.00  0.00    -0.550 OA
ATOM     16  O   UNL     1     122.139 169.689 129.599  1.00  0.00    -0.550 OA
ENDBRANCH  13  14
ENDBRANCH  12  13
ENDBRANCH  11  12
ENDBRANCH  10  11
ENDBRANCH   9  10
ENDBRANCH   8   9
ENDBRANCH   7   8
ENDBRANCH   6   7
ENDBRANCH   5   6
ENDBRANCH   4   5
ENDBRANCH   3   4
ENDBRANCH   2   3
ENDBRANCH   1   2
BRANCH   1  17
ATOM     17  C   UNL     1     122.484 179.630 126.624  1.00  0.00     0.000 C 
BRANCH  17  18
ATOM     18  C   UNL     1     120.972 179.390 126.768  1.00  0.00     0.000 C 
BRANCH  18  19
ATOM     19  C   UNL     1     120.643 178.130 127.582  1.00  0.00     0.000 C 
BRANCH  19  20
ATOM     20  C   UNL     1     119.275 177.559 127.176  1.00  0.00     0.000 C 
BRANCH  20  21
ATOM     21  C   UNL     1     118.429 178.552 126.357  1.00  0.00     0.000 C 
BRANCH  21  22
ATOM     22  C   UNL     1     118.064 178.075 124.938  1.00  0.00    -0.000 C 
BRANCH  22  23
ATOM     23  C   UNL     1     118.030 179.183 123.867  1.00  0.00    -0.000 C 
BRANCH  23  24
ATOM     24  C   UNL     1     119.055 178.980 122.730  1.00  0.00    -0.000 C 
BRANCH  24  25
ATOM     25  C   UNL     1     120.493 179.280 123.177  1.00  0.00    -0.000 C 
BRANCH  25  26
ATOM     26  C   UNL     1     121.510 178.641 122.223  1.00  0.00    -0.000 C 
BRANCH  26  27
ATOM     27  C   UNL     1     122.610 177.903 123.002  1.00  0.00    -0.000 C 
BRANCH  27  28
ATOM     28  C   UNL     1     122.031 176.947 124.067  1.00  0.00    -0.000 C 
BRANCH  28  29
ATOM     29  C   UNL     1     123.104 176.144 124.822  1.00  0.00    -0.003 C 
ATOM     30  C   UNL     1     122.529 175.280 125.943  1.00  0.00     0.004 C 
ENDBRANCH  28  29
ENDBRANCH  27  28
ENDBRANCH  26  27
ENDBRANCH  25  26
ENDBRANCH  24  25
ENDBRANCH  23  24
ENDBRANCH  22  23
ENDBRANCH  21  22
ENDBRANCH  20  21
ENDBRANCH  19  20
ENDBRANCH  18  19
ENDBRANCH  17  18
ENDBRANCH   1  17
TORSDOF 26
ENDMDL
MODEL 7
REMARK VINA RESULT:    -5.519      3.307      7.252
REMARK INTER + INTRA:         -18.088
REMARK INTER:                 -12.793
REMARK INTRA:                  -5.295
REMARK UNBOUND:                -4.180
REMARK SMILES CCCCCCCCCCCCCCCCCCCCCCCCCCCC(=O)[O-]
REMARK SMILES IDX 15 1 16 2 17 3 18 4 19 5 20 6 21 7 22 8 23 9 24 10 25 11
REMARK SMILES IDX 26 12 27 13 28 14 29 15 30 16 14 17 13 18 12 19 11 20 10 21
REMARK SMILES IDX 9 22 8 23 7 24 6 25 5 26 4 27 3 28 2 29 1 30
REMARK H PARENT
REMARK Flexibility Score: inf
ROOT
ATOM      1  C   UNL     1     120.427 176.207 126.810  1.00  0.00     0.000 C 
ENDROOT
BRANCH   1   2
ATOM      2  C   UNL     1     119.245 175.830 127.717  1.00  0.00     0.000 C 
BRANCH   2   3
ATOM      3  C   UNL     1     119.088 176.781 128.913  1.00  0.00     0.000 C 
BRANCH   3   4
ATOM      4  C   UNL     1     118.910 176.000 130.222  1.00  0.00     0.000 C 
BRANCH   4   5
ATOM      5  C   UNL     1     120.267 175.543 130.777  1.00  0.00     0.000 C 
BRANCH   5   6
ATOM      6  C   UNL     1     121.195 176.718 131.125  1.00  0.00     0.000 C 
BRANCH   6   7
ATOM      7  C   UNL     1     122.519 176.679 130.342  1.00  0.00     0.000 C 
BRANCH   7   8
ATOM      8  C   UNL     1     123.408 177.902 130.627  1.00  0.00     0.000 C 
BRANCH   8   9
ATOM      9  C   UNL     1     123.661 178.754 129.370  1.00  0.00     0.000 C 
BRANCH   9  10
ATOM     10  C   UNL     1     122.992 178.169 128.117  1.00  0.00     0.000 C 
BRANCH  10  11
ATOM     11  C   UNL     1     122.747 179.222 127.026  1.00  0.00     0.000 C 
BRANCH  11  12
ATOM     12  C   UNL     1     122.852 178.594 125.628  1.00  0.00     0.006 C 
BRANCH  12  13
ATOM     13  C   UNL     1     124.186 177.864 125.418  1.00  0.00     0.053 C 
BRANCH  13  14
ATOM     14  C   UNL     1     124.095 176.839 124.329  1.00  0.00     0.041 C 
ATOM     15  O   UNL     1     124.524 175.671 124.521  1.00  0.00    -0.550 OA
ATOM     16  O   UNL     1     123.515 177.167 123.110  1.00  0.00    -0.550 OA
ENDBRANCH  13  14
ENDBRANCH  12  13
ENDBRANCH  11  12
ENDBRANCH  10  11
ENDBRANCH   9  10
ENDBRANCH   8   9
ENDBRANCH   7   8
ENDBRANCH   6   7
ENDBRANCH   5   6
ENDBRANCH   4   5
ENDBRANCH   3   4
ENDBRANCH   2   3
ENDBRANCH   1   2
BRANCH   1  17
ATOM     17  C   UNL     1     121.208 174.976 126.318  1.00  0.00     0.000 C 
BRANCH  17  18
ATOM     18  C   UNL     1     122.393 174.623 127.230  1.00  0.00     0.000 C 
BRANCH  18  19
ATOM     19  C   UNL     1     122.061 173.512 128.237  1.00  0.00     0.000 C 
BRANCH  19  20
ATOM     20  C   UNL     1     122.969 172.290 128.023  1.00  0.00     0.000 C 
BRANCH  20  21
ATOM     21  C   UNL     1     122.260 170.955 128.318  1.00  0.00     0.000 C 
BRANCH  21  22
ATOM     22  C   UNL     1     122.499 170.394 129.733  1.00  0.00    -0.000 C 
BRANCH  22  23
ATOM     23  C   UNL     1     121.375 170.680 130.747  1.00  0.00    -0.000 C 
BRANCH  23  24
ATOM     24  C   UNL     1     120.150 169.753 130.594  1.00  0.00    -0.000 C 
BRANCH  24  25
ATOM     25  C   UNL     1     118.854 170.532 130.328  1.00  0.00    -0.000 C 
BRANCH  25  26
ATOM     26  C   UNL     1     119.143 172.021 130.102  1.00  0.00    -0.000 C 
BRANCH  26  27
ATOM     27  C   UNL     1     118.666 172.471 128.713  1.00  0.00    -0.000 C 
BRANCH  27  28
ATOM     28  C   UNL     1     118.952 171.415 127.625  1.00  0.00    -0.000 C 
BRANCH  28  29
ATOM     29  C   UNL     1     119.104 172.008 126.214  1.00  0.00    -0.003 C 
ATOM     30  C   UNL     1     120.340 171.495 125.478  1.00  0.00     0.004 C 
ENDBRANCH  28  29
ENDBRANCH  27  28
ENDBRANCH  26  27
ENDBRANCH  25  26
ENDBRANCH  24  25
ENDBRANCH  23  24
ENDBRANCH  22  23
ENDBRANCH  21  22
ENDBRANCH  20  21
ENDBRANCH  19  20
ENDBRANCH  18  19
ENDBRANCH  17  18
ENDBRANCH   1  17
TORSDOF 26
ENDMDL
MODEL 8
REMARK VINA RESULT:    -5.494      4.017      7.993
REMARK INTER + INTRA:         -18.025
REMARK INTER:                 -13.389
REMARK INTRA:                  -4.636
REMARK UNBOUND:                -4.180
REMARK SMILES CCCCCCCCCCCCCCCCCCCCCCCCCCCC(=O)[O-]
REMARK SMILES IDX 15 1 16 2 17 3 18 4 19 5 20 6 21 7 22 8 23 9 24 10 25 11
REMARK SMILES IDX 26 12 27 13 28 14 29 15 30 16 14 17 13 18 12 19 11 20 10 21
REMARK SMILES IDX 9 22 8 23 7 24 6 25 5 26 4 27 3 28 2 29 1 30
REMARK H PARENT
REMARK Flexibility Score: inf
ROOT
ATOM      1  C   UNL     1     119.201 171.560 127.733  1.00  0.00     0.000 C 
ENDROOT
BRANCH   1   2
ATOM      2  C   UNL     1     119.669 171.883 126.305  1.00  0.00     0.000 C 
BRANCH   2   3
ATOM      3  C   UNL     1     121.101 172.436 126.261  1.00  0.00     0.000 C 
BRANCH   3   4
ATOM      4  C   UNL     1     121.119 173.882 125.745  1.00  0.00     0.000 C 
BRANCH   4   5
ATOM      5  C   UNL     1     122.274 174.675 126.375  1.00  0.00     0.000 C 
BRANCH   5   6
ATOM      6  C   UNL     1     123.206 175.303 125.326  1.00  0.00     0.000 C 
BRANCH   6   7
ATOM      7  C   UNL     1     122.501 176.368 124.469  1.00  0.00     0.000 C 
BRANCH   7   8
ATOM      8  C   UNL     1     123.493 177.311 123.768  1.00  0.00     0.000 C 
BRANCH   8   9
ATOM      9  C   UNL     1     124.875 177.323 124.445  1.00  0.00     0.000 C 
BRANCH   9  10
ATOM     10  C   UNL     1     126.003 176.898 123.491  1.00  0.00     0.000 C 
BRANCH  10  11
ATOM     11  C   UNL     1     126.776 175.669 123.993  1.00  0.00     0.000 C 
BRANCH  11  12
ATOM     12  C   UNL     1     126.859 174.593 122.900  1.00  0.00     0.006 C 
BRANCH  12  13
ATOM     13  C   UNL     1     128.074 174.790 121.983  1.00  0.00     0.053 C 
BRANCH  13  14
ATOM     14  C   UNL     1     127.677 175.302 120.632  1.00  0.00     0.041 C 
ATOM     15  O   UNL     1     128.555 175.704 119.824  1.00  0.00    -0.550 OA
ATOM     16  O   UNL     1     126.340 175.313 120.256  1.00  0.00    -0.550 OA
ENDBRANCH  13  14
ENDBRANCH  12  13
ENDBRANCH  11  12
ENDBRANCH  10  11
ENDBRANCH   9  10
ENDBRANCH   8   9
ENDBRANCH   7   8
ENDBRANCH   6   7
ENDBRANCH   5   6
ENDBRANCH   4   5
ENDBRANCH   3   4
ENDBRANCH   2   3
ENDBRANCH   1   2
BRANCH   1  17
ATOM     17  C   UNL     1     120.128 172.158 128.806  1.00  0.00     0.000 C 
BRANCH  17  18
ATOM     18  C   UNL     1     119.586 173.472 129.390  1.00  0.00     0.000 C 
BRANCH  18  19
ATOM     19  C   UNL     1     120.680 174.530 129.596  1.00  0.00     0.000 C 
BRANCH  19  20
ATOM     20  C   UNL     1     120.182 175.662 130.509  1.00  0.00     0.000 C 
BRANCH  20  21
ATOM     21  C   UNL     1     121.225 176.777 130.708  1.00  0.00     0.000 C 
BRANCH  21  22
ATOM     22  C   UNL     1     122.555 176.563 129.959  1.00  0.00    -0.000 C 
BRANCH  22  23
ATOM     23  C   UNL     1     123.642 177.616 130.246  1.00  0.00    -0.000 C 
BRANCH  23  24
ATOM     24  C   UNL     1     123.951 178.534 129.043  1.00  0.00    -0.000 C 
BRANCH  24  25
ATOM     25  C   UNL     1     123.257 178.067 127.756  1.00  0.00    -0.000 C 
BRANCH  25  26
ATOM     26  C   UNL     1     122.916 179.258 126.851  1.00  0.00    -0.000 C 
BRANCH  26  27
ATOM     27  C   UNL     1     121.396 179.406 126.683  1.00  0.00    -0.000 C 
BRANCH  27  28
ATOM     28  C   UNL     1     120.619 178.244 127.338  1.00  0.00    -0.000 C 
BRANCH  28  29
ATOM     29  C   UNL     1     119.655 177.528 126.377  1.00  0.00    -0.003 C 
ATOM     30  C   UNL     1     118.813 176.453 127.062  1.00  0.00     0.004 C 
ENDBRANCH  28  29
ENDBRANCH  27  28
ENDBRANCH  26  27
ENDBRANCH  25  26
ENDBRANCH  24  25
ENDBRANCH  23  24
ENDBRANCH  22  23
ENDBRANCH  21  22
ENDBRANCH  20  21
ENDBRANCH  19  20
ENDBRANCH  18  19
ENDBRANCH  17  18
ENDBRANCH   1  17
TORSDOF 26
ENDMDL
MODEL 9
REMARK VINA RESULT:    -5.440      2.896      6.442
REMARK INTER + INTRA:         -17.890
REMARK INTER:                 -12.868
REMARK INTRA:                  -5.021
REMARK UNBOUND:                -4.180
REMARK SMILES CCCCCCCCCCCCCCCCCCCCCCCCCCCC(=O)[O-]
REMARK SMILES IDX 15 1 16 2 17 3 18 4 19 5 20 6 21 7 22 8 23 9 24 10 25 11
REMARK SMILES IDX 26 12 27 13 28 14 29 15 30 16 14 17 13 18 12 19 11 20 10 21
REMARK SMILES IDX 9 22 8 23 7 24 6 25 5 26 4 27 3 28 2 29 1 30
REMARK H PARENT
REMARK Flexibility Score: inf
ROOT
ATOM      1  C   UNL     1     123.114 179.074 126.756  1.00  0.00     0.000 C 
ENDROOT
BRANCH   1   2
ATOM      2  C   UNL     1     123.968 178.639 127.957  1.00  0.00     0.000 C 
BRANCH   2   3
ATOM      3  C   UNL     1     123.336 179.024 129.304  1.00  0.00     0.000 C 
BRANCH   3   4
ATOM      4  C   UNL     1     122.072 178.198 129.578  1.00  0.00     0.000 C 
BRANCH   4   5
ATOM      5  C   UNL     1     122.430 176.745 129.921  1.00  0.00     0.000 C 
BRANCH   5   6
ATOM      6  C   UNL     1     121.310 175.755 129.564  1.00  0.00     0.000 C 
BRANCH   6   7
ATOM      7  C   UNL     1     119.944 176.175 130.136  1.00  0.00     0.000 C 
BRANCH   7   8
ATOM      8  C   UNL     1     118.852 176.253 129.055  1.00  0.00     0.000 C 
BRANCH   8   9
ATOM      9  C   UNL     1     119.425 176.164 127.630  1.00  0.00     0.000 C 
BRANCH   9  10
ATOM     10  C   UNL     1     118.840 177.233 126.692  1.00  0.00     0.000 C 
BRANCH  10  11
ATOM     11  C   UNL     1     119.431 178.629 126.938  1.00  0.00     0.000 C 
BRANCH  11  12
ATOM     12  C   UNL     1     119.241 179.527 125.706  1.00  0.00     0.006 C 
BRANCH  12  13
ATOM     13  C   UNL     1     119.916 178.948 124.455  1.00  0.00     0.053 C 
BRANCH  13  14
ATOM     14  C   UNL     1     118.990 178.933 123.278  1.00  0.00     0.041 C 
ATOM     15  O   UNL     1     119.444 179.090 122.113  1.00  0.00    -0.550 OA
ATOM     16  O   UNL     1     117.629 178.724 123.463  1.00  0.00    -0.550 OA
ENDBRANCH  13  14
ENDBRANCH  12  13
ENDBRANCH  11  12
ENDBRANCH  10  11
ENDBRANCH   9  10
ENDBRANCH   8   9
ENDBRANCH   7   8
ENDBRANCH   6   7
ENDBRANCH   5   6
ENDBRANCH   4   5
ENDBRANCH   3   4
ENDBRANCH   2   3
ENDBRANCH   1   2
BRANCH   1  17
ATOM     17  C   UNL     1     123.169 178.063 125.597  1.00  0.00     0.000 C 
BRANCH  17  18
ATOM     18  C   UNL     1     122.602 176.688 125.983  1.00  0.00     0.000 C 
BRANCH  18  19
ATOM     19  C   UNL     1     122.912 175.601 124.942  1.00  0.00     0.000 C 
BRANCH  19  20
ATOM     20  C   UNL     1     123.444 174.330 125.621  1.00  0.00     0.000 C 
BRANCH  20  21
ATOM     21  C   UNL     1     122.781 174.053 126.984  1.00  0.00     0.000 C 
BRANCH  21  22
ATOM     22  C   UNL     1     121.790 172.874 126.995  1.00  0.00    -0.000 C 
BRANCH  22  23
ATOM     23  C   UNL     1     120.622 172.995 125.997  1.00  0.00    -0.000 C 
BRANCH  23  24
ATOM     24  C   UNL     1     119.559 171.885 126.146  1.00  0.00    -0.000 C 
BRANCH  24  25
ATOM     25  C   UNL     1     119.339 171.476 127.609  1.00  0.00    -0.000 C 
BRANCH  25  26
ATOM     26  C   UNL     1     118.734 172.631 128.418  1.00  0.00    -0.000 C 
BRANCH  26  27
ATOM     27  C   UNL     1     118.926 172.408 129.926  1.00  0.00    -0.000 C 
BRANCH  27  28
ATOM     28  C   UNL     1     120.359 171.951 130.273  1.00  0.00    -0.000 C 
BRANCH  28  29
ATOM     29  C   UNL     1     120.420 170.570 130.945  1.00  0.00    -0.003 C 
ATOM     30  C   UNL     1     119.048 169.916 131.100  1.00  0.00     0.004 C 
ENDBRANCH  28  29
ENDBRANCH  27  28
ENDBRANCH  26  27
ENDBRANCH  25  26
ENDBRANCH  24  25
ENDBRANCH  23  24
ENDBRANCH  22  23
ENDBRANCH  21  22
ENDBRANCH  20  21
ENDBRANCH  19  20
ENDBRANCH  18  19
ENDBRANCH  17  18
ENDBRANCH   1  17
TORSDOF 26
ENDMDL
