MODEL 1
REMARK VINA RESULT:    -3.140      0.000      0.000
REMARK INTER + INTRA:          -4.054
REMARK INTER:                  -3.874
REMARK INTRA:                  -0.180
REMARK UNBOUND:                -0.180
REMARK SMILES CCCCCC(=O)[O-]
REMARK SMILES IDX 4 1 5 2 6 3 7 4 8 5 3 6 2 7 1 8
REMARK H PARENT
REMARK Flexibility Score: inf
ROOT
ATOM      1  C   UNL     1     -23.270   8.191  19.068  1.00  0.00     0.006 C 
ENDROOT
BRANCH   1   2
ATOM      2  C   UNL     1     -23.362   8.105  20.599  1.00  0.00     0.053 C 
BRANCH   2   3
ATOM      3  C   UNL     1     -24.029   6.843  21.052  1.00  0.00     0.041 C 
ATOM      4  O   UNL     1     -25.157   6.888  21.612  1.00  0.00    -0.550 OA
ATOM      5  O   UNL     1     -23.422   5.614  20.826  1.00  0.00    -0.550 OA
ENDBRANCH   2   3
ENDBRANCH   1   2
BRANCH   1   6
ATOM      6  C   UNL     1     -21.840   8.390  18.529  1.00  0.00     0.000 C 
BRANCH   6   7
ATOM      7  C   UNL     1     -21.498   7.428  17.382  1.00  0.00    -0.003 C 
ATOM      8  C   UNL     1     -22.292   6.129  17.499  1.00  0.00     0.004 C 
ENDBRANCH   6   7
ENDBRANCH   1   6
TORSDOF 4
ENDMDL
MODEL 2
REMARK VINA RESULT:    -3.139      2.135      3.578
REMARK INTER + INTRA:          -4.053
REMARK INTER:                  -3.800
REMARK INTRA:                  -0.252
REMARK UNBOUND:                -0.180
REMARK SMILES CCCCCC(=O)[O-]
REMARK SMILES IDX 4 1 5 2 6 3 7 4 8 5 3 6 2 7 1 8
REMARK H PARENT
REMARK Flexibility Score: inf
ROOT
ATOM      1  C   UNL     1     -21.838   8.537  18.656  1.00  0.00     0.006 C 
ENDROOT
BRANCH   1   2
ATOM      2  C   UNL     1     -21.585   7.664  17.417  1.00  0.00     0.053 C 
BRANCH   2   3
ATOM      3  C   UNL     1     -21.945   6.230  17.656  1.00  0.00     0.041 C 
ATOM      4  O   UNL     1     -22.859   5.685  16.983  1.00  0.00    -0.550 OA
ATOM      5  O   UNL     1     -21.247   5.486  18.599  1.00  0.00    -0.550 OA
ENDBRANCH   2   3
ENDBRANCH   1   2
BRANCH   1   6
ATOM      6  C   UNL     1     -23.245   8.381  19.264  1.00  0.00     0.000 C 
BRANCH   6   7
ATOM      7  C   UNL     1     -23.213   8.039  20.760  1.00  0.00    -0.003 C 
ATOM      8  C   UNL     1     -23.868   6.687  21.029  1.00  0.00     0.004 C 
ENDBRANCH   6   7
ENDBRANCH   1   6
TORSDOF 4
ENDMDL
MODEL 3
REMARK VINA RESULT:    -3.094      1.960      2.604
REMARK INTER + INTRA:          -3.997
REMARK INTER:                  -3.897
REMARK INTRA:                  -0.100
REMARK UNBOUND:                -0.180
REMARK SMILES CCCCCC(=O)[O-]
REMARK SMILES IDX 4 1 5 2 6 3 7 4 8 5 3 6 2 7 1 8
REMARK H PARENT
REMARK Flexibility Score: inf
ROOT
ATOM      1  C   UNL     1     -22.417   7.219  17.605  1.00  0.00     0.006 C 
ENDROOT
BRANCH   1   2
ATOM      2  C   UNL     1     -21.996   8.352  18.554  1.00  0.00     0.053 C 
BRANCH   2   3
ATOM      3  C   UNL     1     -22.683   8.258  19.882  1.00  0.00     0.041 C 
ATOM      4  O   UNL     1     -23.876   7.860  19.952  1.00  0.00    -0.550 OA
ATOM      5  O   UNL     1     -21.995   8.577  21.046  1.00  0.00    -0.550 OA
ENDBRANCH   2   3
ENDBRANCH   1   2
BRANCH   1   6
ATOM      6  C   UNL     1     -21.259   6.311  17.150  1.00  0.00     0.000 C 
BRANCH   6   7
ATOM      7  C   UNL     1     -20.387   6.958  16.065  1.00  0.00    -0.003 C 
ATOM      8  C   UNL     1     -18.903   6.791  16.380  1.00  0.00     0.004 C 
ENDBRANCH   6   7
ENDBRANCH   1   6
TORSDOF 4
ENDMDL
MODEL 4
REMARK VINA RESULT:    -3.068      2.674      4.229
REMARK INTER + INTRA:          -3.965
REMARK INTER:                  -3.727
REMARK INTRA:                  -0.238
REMARK UNBOUND:                -0.180
REMARK SMILES CCCCCC(=O)[O-]
REMARK SMILES IDX 4 1 5 2 6 3 7 4 8 5 3 6 2 7 1 8
REMARK H PARENT
REMARK Flexibility Score: inf
ROOT
ATOM      1  C   UNL     1     -21.884   5.436  18.948  1.00  0.00     0.006 C 
ENDROOT
BRANCH   1   2
ATOM      2  C   UNL     1     -22.399   6.083  17.652  1.00  0.00     0.053 C 
BRANCH   2   3
ATOM      3  C   UNL     1     -21.706   7.378  17.358  1.00  0.00     0.041 C 
ATOM      4  O   UNL     1     -21.939   8.396  18.061  1.00  0.00    -0.550 OA
ATOM      5  O   UNL     1     -20.777   7.451  16.327  1.00  0.00    -0.550 OA
ENDBRANCH   2   3
ENDBRANCH   1   2
BRANCH   1   6
ATOM      6  C   UNL     1     -22.934   5.346  20.071  1.00  0.00     0.000 C 
BRANCH   6   7
ATOM      7  C   UNL     1     -22.910   6.564  21.006  1.00  0.00    -0.003 C 
ATOM      8  C   UNL     1     -24.137   7.446  20.791  1.00  0.00     0.004 C 
ENDBRANCH   6   7
ENDBRANCH   1   6
TORSDOF 4
ENDMDL
MODEL 5
REMARK VINA RESULT:    -2.964      1.692      2.259
REMARK INTER + INTRA:          -3.836
REMARK INTER:                  -3.764
REMARK INTRA:                  -0.072
REMARK UNBOUND:                -0.180
REMARK SMILES CCCCCC(=O)[O-]
REMARK SMILES IDX 4 1 5 2 6 3 7 4 8 5 3 6 2 7 1 8
REMARK H PARENT
REMARK Flexibility Score: inf
ROOT
ATOM      1  C   UNL     1     -22.453   7.301  17.950  1.00  0.00     0.006 C 
ENDROOT
BRANCH   1   2
ATOM      2  C   UNL     1     -22.944   8.456  18.836  1.00  0.00     0.053 C 
BRANCH   2   3
ATOM      3  C   UNL     1     -23.171   8.021  20.251  1.00  0.00     0.041 C 
ATOM      4  O   UNL     1     -22.315   8.279  21.139  1.00  0.00    -0.550 OA
ATOM      5  O   UNL     1     -24.343   7.360  20.597  1.00  0.00    -0.550 OA
ENDBRANCH   2   3
ENDBRANCH   1   2
BRANCH   1   6
ATOM      6  C   UNL     1     -20.923   7.226  17.797  1.00  0.00     0.000 C 
BRANCH   6   7
ATOM      7  C   UNL     1     -20.480   7.027  16.340  1.00  0.00    -0.003 C 
ATOM      8  C   UNL     1     -18.991   6.699  16.258  1.00  0.00     0.004 C 
ENDBRANCH   6   7
ENDBRANCH   1   6
TORSDOF 4
ENDMDL
MODEL 6
REMARK VINA RESULT:    -2.936      3.806      5.213
REMARK INTER + INTRA:          -3.803
REMARK INTER:                  -3.532
REMARK INTRA:                  -0.270
REMARK UNBOUND:                -0.180
REMARK SMILES CCCCCC(=O)[O-]
REMARK SMILES IDX 4 1 5 2 6 3 7 4 8 5 3 6 2 7 1 8
REMARK H PARENT
REMARK Flexibility Score: inf
ROOT
ATOM      1  C   UNL     1     -20.437   7.070  16.117  1.00  0.00     0.006 C 
ENDROOT
BRANCH   1   2
ATOM      2  C   UNL     1     -18.975   6.597  16.156  1.00  0.00     0.053 C 
BRANCH   2   3
ATOM      3  C   UNL     1     -18.482   6.409  17.558  1.00  0.00     0.041 C 
ATOM      4  O   UNL     1     -18.068   5.282  17.939  1.00  0.00    -0.550 OA
ATOM      5  O   UNL     1     -18.449   7.487  18.435  1.00  0.00    -0.550 OA
ENDBRANCH   2   3
ENDBRANCH   1   2
BRANCH   1   6
ATOM      6  C   UNL     1     -21.443   6.068  16.714  1.00  0.00     0.000 C 
BRANCH   6   7
ATOM      7  C   UNL     1     -22.309   6.684  17.822  1.00  0.00    -0.003 C 
ATOM      8  C   UNL     1     -21.913   8.135  18.086  1.00  0.00     0.004 C 
ENDBRANCH   6   7
ENDBRANCH   1   6
TORSDOF 4
ENDMDL
MODEL 7
REMARK VINA RESULT:    -2.916      2.476      3.731
REMARK INTER + INTRA:          -3.777
REMARK INTER:                  -3.591
REMARK INTRA:                  -0.186
REMARK UNBOUND:                -0.180
REMARK SMILES CCCCCC(=O)[O-]
REMARK SMILES IDX 4 1 5 2 6 3 7 4 8 5 3 6 2 7 1 8
REMARK H PARENT
REMARK Flexibility Score: inf
ROOT
ATOM      1  C   UNL     1     -23.154   8.106  20.660  1.00  0.00     0.006 C 
ENDROOT
BRANCH   1   2
ATOM      2  C   UNL     1     -23.082   8.472  19.169  1.00  0.00     0.053 C 
BRANCH   2   3
ATOM      3  C   UNL     1     -21.802   8.015  18.540  1.00  0.00     0.041 C 
ATOM      4  O   UNL     1     -21.760   7.750  17.309  1.00  0.00    -0.550 OA
ATOM      5  O   UNL     1     -20.647   7.915  19.305  1.00  0.00    -0.550 OA
ENDBRANCH   2   3
ENDBRANCH   1   2
BRANCH   1   6
ATOM      6  C   UNL     1     -24.196   7.023  20.997  1.00  0.00     0.000 C 
BRANCH   6   7
ATOM      7  C   UNL     1     -23.560   5.727  21.517  1.00  0.00    -0.003 C 
ATOM      8  C   UNL     1     -22.887   4.953  20.385  1.00  0.00     0.004 C 
ENDBRANCH   6   7
ENDBRANCH   1   6
TORSDOF 4
ENDMDL
MODEL 8
REMARK VINA RESULT:    -2.877      2.598      3.661
REMARK INTER + INTRA:          -3.729
REMARK INTER:                  -3.494
REMARK INTRA:                  -0.235
REMARK UNBOUND:                -0.180
REMARK SMILES CCCCCC(=O)[O-]
REMARK SMILES IDX 4 1 5 2 6 3 7 4 8 5 3 6 2 7 1 8
REMARK H PARENT
REMARK Flexibility Score: inf
ROOT
ATOM      1  C   UNL     1     -21.304   6.357  17.246  1.00  0.00     0.006 C 
ENDROOT
BRANCH   1   2
ATOM      2  C   UNL     1     -22.139   7.577  17.664  1.00  0.00     0.053 C 
BRANCH   2   3
ATOM      3  C   UNL     1     -21.662   8.169  18.955  1.00  0.00     0.041 C 
ATOM      4  O   UNL     1     -20.440   8.426  19.120  1.00  0.00    -0.550 OA
ATOM      5  O   UNL     1     -22.570   8.467  19.963  1.00  0.00    -0.550 OA
ENDBRANCH   2   3
ENDBRANCH   1   2
BRANCH   1   6
ATOM      6  C   UNL     1     -20.486   6.561  15.957  1.00  0.00     0.000 C 
BRANCH   6   7
ATOM      7  C   UNL     1     -18.999   6.824  16.233  1.00  0.00    -0.003 C 
ATOM      8  C   UNL     1     -18.500   5.983  17.406  1.00  0.00     0.004 C 
ENDBRANCH   6   7
ENDBRANCH   1   6
TORSDOF 4
ENDMDL
MODEL 9
REMARK VINA RESULT:    -2.841      2.599      3.290
REMARK INTER + INTRA:          -3.685
REMARK INTER:                  -3.464
REMARK INTRA:                  -0.222
REMARK UNBOUND:                -0.180
REMARK SMILES CCCCCC(=O)[O-]
REMARK SMILES IDX 4 1 5 2 6 3 7 4 8 5 3 6 2 7 1 8
REMARK H PARENT
REMARK Flexibility Score: inf
ROOT
ATOM      1  C   UNL     1     -22.380   6.146  17.347  1.00  0.00     0.006 C 
ENDROOT
BRANCH   1   2
ATOM      2  C   UNL     1     -22.579   5.800  18.831  1.00  0.00     0.053 C 
BRANCH   2   3
ATOM      3  C   UNL     1     -21.275   5.651  19.553  1.00  0.00     0.041 C 
ATOM      4  O   UNL     1     -20.513   4.683  19.293  1.00  0.00    -0.550 OA
ATOM      5  O   UNL     1     -20.886   6.600  20.490  1.00  0.00    -0.550 OA
ENDBRANCH   2   3
ENDBRANCH   1   2
BRANCH   1   6
ATOM      6  C   UNL     1     -21.408   7.314  17.094  1.00  0.00     0.000 C 
BRANCH   6   7
ATOM      7  C   UNL     1     -20.412   7.023  15.963  1.00  0.00    -0.003 C 
ATOM      8  C   UNL     1     -19.003   6.813  16.511  1.00  0.00     0.004 C 
ENDBRANCH   6   7
ENDBRANCH   1   6
TORSDOF 4
ENDMDL
