MODEL 1
REMARK VINA RESULT:    -2.268      0.000      0.000
REMARK INTER + INTRA:          -2.268
REMARK INTER:                  -2.268
REMARK INTRA:                   0.000
REMARK UNBOUND:                 0.000
REMARK SMILES CC(=O)[O-]
REMARK SMILES IDX 1 1 2 2 3 3 4 4
REMARK H PARENT
REMARK Flexibility Score: inf
ROOT
ATOM      1  C   UNL     1      21.808 -25.639 -28.614  1.00  0.00     0.063 C 
ATOM      2  C   UNL     1      20.706 -26.555 -29.028  1.00  0.00     0.038 C 
ATOM      3  O   UNL     1      20.161 -26.419 -30.154  1.00  0.00    -0.550 OA
ATOM      4  O   UNL     1      20.315 -27.595 -28.194  1.00  0.00    -0.550 OA
ENDROOT
TORSDOF 0
ENDMDL
MODEL 2
REMARK VINA RESULT:    -2.264      0.108      1.619
REMARK INTER + INTRA:          -2.264
REMARK INTER:                  -2.264
REMARK INTRA:                   0.000
REMARK UNBOUND:                 0.000
REMARK SMILES CC(=O)[O-]
REMARK SMILES IDX 1 1 2 2 3 3 4 4
REMARK H PARENT
REMARK Flexibility Score: inf
ROOT
ATOM      1  C   UNL     1      21.818 -25.672 -28.607  1.00  0.00     0.063 C 
ATOM      2  C   UNL     1      20.708 -26.589 -28.995  1.00  0.00     0.038 C 
ATOM      3  O   UNL     1      20.387 -27.546 -28.243  1.00  0.00    -0.550 OA
ATOM      4  O   UNL     1      19.989 -26.359 -30.161  1.00  0.00    -0.550 OA
ENDROOT
TORSDOF 0
ENDMDL
MODEL 3
REMARK VINA RESULT:    -2.230      1.523      2.258
REMARK INTER + INTRA:          -2.230
REMARK INTER:                  -2.230
REMARK INTRA:                   0.000
REMARK UNBOUND:                 0.000
REMARK SMILES CC(=O)[O-]
REMARK SMILES IDX 1 1 2 2 3 3 4 4
REMARK H PARENT
REMARK Flexibility Score: inf
ROOT
ATOM      1  C   UNL     1      20.107 -26.378 -29.765  1.00  0.00     0.063 C 
ATOM      2  C   UNL     1      21.102 -26.393 -28.654  1.00  0.00     0.038 C 
ATOM      3  O   UNL     1      20.973 -27.205 -27.701  1.00  0.00    -0.550 OA
ATOM      4  O   UNL     1      22.204 -25.548 -28.695  1.00  0.00    -0.550 OA
ENDROOT
TORSDOF 0
ENDMDL
MODEL 4
REMARK VINA RESULT:    -2.181      1.535      1.801
REMARK INTER + INTRA:          -2.181
REMARK INTER:                  -2.181
REMARK INTRA:                   0.000
REMARK UNBOUND:                 0.000
REMARK SMILES CC(=O)[O-]
REMARK SMILES IDX 1 1 2 2 3 3 4 4
REMARK H PARENT
REMARK Flexibility Score: inf
ROOT
ATOM      1  C   UNL     1      20.577 -27.102 -27.649  1.00  0.00     0.063 C 
ATOM      2  C   UNL     1      21.107 -26.421 -28.865  1.00  0.00     0.038 C 
ATOM      3  O   UNL     1      20.540 -26.581 -29.977  1.00  0.00    -0.550 OA
ATOM      4  O   UNL     1      22.197 -25.565 -28.765  1.00  0.00    -0.550 OA
ENDROOT
TORSDOF 0
ENDMDL
MODEL 5
REMARK VINA RESULT:    -2.093     11.195     11.521
REMARK INTER + INTRA:          -2.093
REMARK INTER:                  -2.093
REMARK INTRA:                   0.000
REMARK UNBOUND:                 0.000
REMARK SMILES CC(=O)[O-]
REMARK SMILES IDX 1 1 2 2 3 3 4 4
REMARK H PARENT
REMARK Flexibility Score: inf
ROOT
ATOM      1  C   UNL     1      26.559 -16.526 -26.640  1.00  0.00     0.063 C 
ATOM      2  C   UNL     1      25.207 -16.164 -27.153  1.00  0.00     0.038 C 
ATOM      3  O   UNL     1      24.848 -16.531 -28.303  1.00  0.00    -0.550 OA
ATOM      4  O   UNL     1      24.318 -15.467 -26.344  1.00  0.00    -0.550 OA
ENDROOT
TORSDOF 0
ENDMDL
MODEL 6
REMARK VINA RESULT:    -2.045     11.213     11.552
REMARK INTER + INTRA:          -2.045
REMARK INTER:                  -2.045
REMARK INTRA:                   0.000
REMARK UNBOUND:                 0.000
REMARK SMILES CC(=O)[O-]
REMARK SMILES IDX 1 1 2 2 3 3 4 4
REMARK H PARENT
REMARK Flexibility Score: inf
ROOT
ATOM      1  C   UNL     1      24.299 -15.741 -26.109  1.00  0.00     0.063 C 
ATOM      2  C   UNL     1      25.295 -16.248 -27.096  1.00  0.00     0.038 C 
ATOM      3  O   UNL     1      24.943 -16.502 -28.277  1.00  0.00    -0.550 OA
ATOM      4  O   UNL     1      26.628 -16.389 -26.730  1.00  0.00    -0.550 OA
ENDROOT
TORSDOF 0
ENDMDL
MODEL 7
REMARK VINA RESULT:    -2.043     12.058     12.411
REMARK INTER + INTRA:          -2.043
REMARK INTER:                  -2.043
REMARK INTRA:                   0.000
REMARK UNBOUND:                 0.000
REMARK SMILES CC(=O)[O-]
REMARK SMILES IDX 1 1 2 2 3 3 4 4
REMARK H PARENT
REMARK Flexibility Score: inf
ROOT
ATOM      1  C   UNL     1       8.362 -29.148 -29.512  1.00  0.00     0.063 C 
ATOM      2  C   UNL     1       8.559 -27.797 -28.913  1.00  0.00     0.038 C 
ATOM      3  O   UNL     1       9.243 -26.930 -29.519  1.00  0.00    -0.550 OA
ATOM      4  O   UNL     1       7.944 -27.471 -27.710  1.00  0.00    -0.550 OA
ENDROOT
TORSDOF 0
ENDMDL
MODEL 8
REMARK VINA RESULT:    -2.004     11.996     12.362
REMARK INTER + INTRA:          -2.004
REMARK INTER:                  -2.004
REMARK INTRA:                   0.000
REMARK UNBOUND:                 0.000
REMARK SMILES CC(=O)[O-]
REMARK SMILES IDX 1 1 2 2 3 3 4 4
REMARK H PARENT
REMARK Flexibility Score: inf
ROOT
ATOM      1  C   UNL     1       8.197 -27.401 -27.612  1.00  0.00     0.063 C 
ATOM      2  C   UNL     1       8.582 -27.846 -28.982  1.00  0.00     0.038 C 
ATOM      3  O   UNL     1       8.098 -28.904 -29.462  1.00  0.00    -0.550 OA
ATOM      4  O   UNL     1       9.434 -27.066 -29.754  1.00  0.00    -0.550 OA
ENDROOT
TORSDOF 0
ENDMDL
MODEL 9
REMARK VINA RESULT:    -1.934      1.987      2.168
REMARK INTER + INTRA:          -1.934
REMARK INTER:                  -1.934
REMARK INTRA:                   0.000
REMARK UNBOUND:                 0.000
REMARK SMILES CC(=O)[O-]
REMARK SMILES IDX 1 1 2 2 3 3 4 4
REMARK H PARENT
REMARK Flexibility Score: inf
ROOT
ATOM      1  C   UNL     1      20.394 -26.525 -29.669  1.00  0.00     0.063 C 
ATOM      2  C   UNL     1      19.035 -25.916 -29.595  1.00  0.00     0.038 C 
ATOM      3  O   UNL     1      18.355 -25.759 -30.642  1.00  0.00    -0.550 OA
ATOM      4  O   UNL     1      18.493 -25.570 -28.363  1.00  0.00    -0.550 OA
ENDROOT
TORSDOF 0
ENDMDL
