MODEL 1
REMARK VINA RESULT:    -2.776      0.000      0.000
REMARK INTER + INTRA:          -4.750
REMARK INTER:                  -3.993
REMARK INTRA:                  -0.757
REMARK UNBOUND:                -0.757
REMARK SMILES CCCCCCCCCO
REMARK SMILES IDX 6 1 5 2 4 3 3 4 2 5 1 6 7 7 8 8 9 9 10 10
REMARK H PARENT 10 11
REMARK Flexibility Score: inf
ROOT
ATOM      1  C   UNL     1     138.744 140.883 141.716  1.00  0.00     0.000 C 
ENDROOT
BRANCH   1   2
ATOM      2  C   UNL     1     139.457 142.228 141.497  1.00  0.00     0.000 C 
BRANCH   2   3
ATOM      3  C   UNL     1     140.355 142.620 142.684  1.00  0.00    -0.000 C 
BRANCH   3   4
ATOM      4  C   UNL     1     141.823 142.812 142.274  1.00  0.00    -0.000 C 
BRANCH   4   5
ATOM      5  C   UNL     1     142.398 141.595 141.534  1.00  0.00    -0.003 C 
ATOM      6  C   UNL     1     142.929 140.555 142.517  1.00  0.00     0.004 C 
ENDBRANCH   4   5
ENDBRANCH   3   4
ENDBRANCH   2   3
ENDBRANCH   1   2
BRANCH   1   7
ATOM      7  C   UNL     1     139.080 140.255 143.081  1.00  0.00     0.002 C 
BRANCH   7   8
ATOM      8  C   UNL     1     139.600 138.812 142.963  1.00  0.00     0.028 C 
BRANCH   8   9
ATOM      9  C   UNL     1     139.768 138.336 141.515  1.00  0.00     0.156 C 
BRANCH   9  10
ATOM     10  O   UNL     1     139.336 137.010 141.386  1.00  0.00    -0.396 OA
ATOM     11  H   UNL     1     139.698 136.524 142.172  1.00  0.00     0.210 HD
ENDBRANCH   9  10
ENDBRANCH   8   9
ENDBRANCH   7   8
ENDBRANCH   1   7
TORSDOF 8
ENDMDL
MODEL 2
REMARK VINA RESULT:    -2.754      2.698      4.821
REMARK INTER + INTRA:          -4.719
REMARK INTER:                  -4.032
REMARK INTRA:                  -0.686
REMARK UNBOUND:                -0.757
REMARK SMILES CCCCCCCCCO
REMARK SMILES IDX 6 1 5 2 4 3 3 4 2 5 1 6 7 7 8 8 9 9 10 10
REMARK H PARENT 10 11
REMARK Flexibility Score: inf
ROOT
ATOM      1  C   UNL     1     142.686 139.621 142.412  1.00  0.00     0.000 C 
ENDROOT
BRANCH   1   2
ATOM      2  C   UNL     1     141.421 139.005 143.032  1.00  0.00     0.000 C 
BRANCH   2   3
ATOM      3  C   UNL     1     140.461 138.438 141.972  1.00  0.00    -0.000 C 
BRANCH   3   4
ATOM      4  C   UNL     1     139.398 139.458 141.533  1.00  0.00    -0.000 C 
BRANCH   4   5
ATOM      5  C   UNL     1     139.003 140.426 142.658  1.00  0.00    -0.003 C 
ATOM      6  C   UNL     1     138.287 141.653 142.101  1.00  0.00     0.004 C 
ENDBRANCH   4   5
ENDBRANCH   3   4
ENDBRANCH   2   3
ENDBRANCH   1   2
BRANCH   1   7
ATOM      7  C   UNL     1     142.788 141.136 142.667  1.00  0.00     0.002 C 
BRANCH   7   8
ATOM      8  C   UNL     1     142.213 141.977 141.515  1.00  0.00     0.028 C 
BRANCH   8   9
ATOM      9  C   UNL     1     141.599 143.306 141.973  1.00  0.00     0.156 C 
BRANCH   9  10
ATOM     10  O   UNL     1     142.370 144.381 141.515  1.00  0.00    -0.396 OA
ATOM     11  H   UNL     1     142.103 145.165 142.061  1.00  0.00     0.210 HD
ENDBRANCH   9  10
ENDBRANCH   8   9
ENDBRANCH   7   8
ENDBRANCH   1   7
TORSDOF 8
ENDMDL
MODEL 3
REMARK VINA RESULT:    -2.751      1.942      3.627
REMARK INTER + INTRA:          -4.714
REMARK INTER:                  -4.033
REMARK INTRA:                  -0.681
REMARK UNBOUND:                -0.757
REMARK SMILES CCCCCCCCCO
REMARK SMILES IDX 6 1 5 2 4 3 3 4 2 5 1 6 7 7 8 8 9 9 10 10
REMARK H PARENT 10 11
REMARK Flexibility Score: inf
ROOT
ATOM      1  C   UNL     1     141.454 143.060 142.023  1.00  0.00     0.000 C 
ENDROOT
BRANCH   1   2
ATOM      2  C   UNL     1     140.128 142.439 141.552  1.00  0.00     0.000 C 
BRANCH   2   3
ATOM      3  C   UNL     1     139.216 142.037 142.724  1.00  0.00    -0.000 C 
BRANCH   3   4
ATOM      4  C   UNL     1     138.973 140.521 142.790  1.00  0.00    -0.000 C 
BRANCH   4   5
ATOM      5  C   UNL     1     139.252 139.816 141.454  1.00  0.00    -0.003 C 
ATOM      6  C   UNL     1     139.720 138.380 141.678  1.00  0.00     0.004 C 
ENDBRANCH   4   5
ENDBRANCH   3   4
ENDBRANCH   2   3
ENDBRANCH   1   2
BRANCH   1   7
ATOM      7  C   UNL     1     142.394 142.025 142.665  1.00  0.00     0.002 C 
BRANCH   7   8
ATOM      8  C   UNL     1     142.775 140.885 141.705  1.00  0.00     0.028 C 
BRANCH   8   9
ATOM      9  C   UNL     1     143.154 139.582 142.420  1.00  0.00     0.156 C 
BRANCH   9  10
ATOM     10  O   UNL     1     144.416 139.145 141.997  1.00  0.00    -0.396 OA
ATOM     11  H   UNL     1     144.401 139.178 141.005  1.00  0.00     0.210 HD
ENDBRANCH   9  10
ENDBRANCH   8   9
ENDBRANCH   7   8
ENDBRANCH   1   7
TORSDOF 8
ENDMDL
MODEL 4
REMARK VINA RESULT:    -2.736      2.057      3.017
REMARK INTER + INTRA:          -4.693
REMARK INTER:                  -3.922
REMARK INTRA:                  -0.770
REMARK UNBOUND:                -0.757
REMARK SMILES CCCCCCCCCO
REMARK SMILES IDX 6 1 5 2 4 3 3 4 2 5 1 6 7 7 8 8 9 9 10 10
REMARK H PARENT 10 11
REMARK Flexibility Score: inf
ROOT
ATOM      1  C   UNL     1     139.564 139.508 141.654  1.00  0.00     0.000 C 
ENDROOT
BRANCH   1   2
ATOM      2  C   UNL     1     139.132 140.390 142.837  1.00  0.00     0.000 C 
BRANCH   2   3
ATOM      3  C   UNL     1     139.262 141.892 142.531  1.00  0.00    -0.000 C 
BRANCH   3   4
ATOM      4  C   UNL     1     140.551 142.502 143.105  1.00  0.00    -0.000 C 
BRANCH   4   5
ATOM      5  C   UNL     1     141.422 143.170 142.032  1.00  0.00    -0.003 C 
ATOM      6  C   UNL     1     140.804 143.011 140.645  1.00  0.00     0.004 C 
ENDBRANCH   4   5
ENDBRANCH   3   4
ENDBRANCH   2   3
ENDBRANCH   1   2
BRANCH   1   7
ATOM      7  C   UNL     1     140.895 138.781 141.916  1.00  0.00     0.002 C 
BRANCH   7   8
ATOM      8  C   UNL     1     142.100 139.489 141.275  1.00  0.00     0.028 C 
BRANCH   8   9
ATOM      9  C   UNL     1     143.200 139.858 142.279  1.00  0.00     0.156 C 
BRANCH   9  10
ATOM     10  O   UNL     1     144.369 139.135 142.007  1.00  0.00    -0.396 OA
ATOM     11  H   UNL     1     144.813 139.602 141.253  1.00  0.00     0.210 HD
ENDBRANCH   9  10
ENDBRANCH   8   9
ENDBRANCH   7   8
ENDBRANCH   1   7
TORSDOF 8
ENDMDL
MODEL 5
REMARK VINA RESULT:    -2.728      2.667      4.049
REMARK INTER + INTRA:          -4.682
REMARK INTER:                  -3.972
REMARK INTRA:                  -0.710
REMARK UNBOUND:                -0.757
REMARK SMILES CCCCCCCCCO
REMARK SMILES IDX 6 1 5 2 4 3 3 4 2 5 1 6 7 7 8 8 9 9 10 10
REMARK H PARENT 10 11
REMARK Flexibility Score: inf
ROOT
ATOM      1  C   UNL     1     139.059 141.114 141.342  1.00  0.00     0.000 C 
ENDROOT
BRANCH   1   2
ATOM      2  C   UNL     1     139.197 140.573 142.775  1.00  0.00     0.000 C 
BRANCH   2   3
ATOM      3  C   UNL     1     139.494 139.064 142.809  1.00  0.00    -0.000 C 
BRANCH   3   4
ATOM      4  C   UNL     1     140.888 138.724 142.257  1.00  0.00    -0.000 C 
BRANCH   4   5
ATOM      5  C   UNL     1     142.019 139.420 143.028  1.00  0.00    -0.003 C 
ATOM      6  C   UNL     1     143.261 139.581 142.156  1.00  0.00     0.004 C 
ENDBRANCH   4   5
ENDBRANCH   3   4
ENDBRANCH   2   3
ENDBRANCH   1   2
BRANCH   1   7
ATOM      7  C   UNL     1     139.977 142.321 141.077  1.00  0.00     0.002 C 
BRANCH   7   8
ATOM      8  C   UNL     1     140.656 142.848 142.353  1.00  0.00     0.028 C 
BRANCH   8   9
ATOM      9  C   UNL     1     142.137 143.197 142.160  1.00  0.00     0.156 C 
BRANCH   9  10
ATOM     10  O   UNL     1     142.264 144.413 141.475  1.00  0.00    -0.396 OA
ATOM     11  H   UNL     1     142.722 144.202 140.620  1.00  0.00     0.210 HD
ENDBRANCH   9  10
ENDBRANCH   8   9
ENDBRANCH   7   8
ENDBRANCH   1   7
TORSDOF 8
ENDMDL
MODEL 6
REMARK VINA RESULT:    -2.720      0.878      2.724
REMARK INTER + INTRA:          -4.670
REMARK INTER:                  -3.969
REMARK INTRA:                  -0.701
REMARK UNBOUND:                -0.757
REMARK SMILES CCCCCCCCCO
REMARK SMILES IDX 6 1 5 2 4 3 3 4 2 5 1 6 7 7 8 8 9 9 10 10
REMARK H PARENT 10 11
REMARK Flexibility Score: inf
ROOT
ATOM      1  C   UNL     1     142.765 140.242 142.639  1.00  0.00     0.000 C 
ENDROOT
BRANCH   1   2
ATOM      2  C   UNL     1     142.385 141.271 141.561  1.00  0.00     0.000 C 
BRANCH   2   3
ATOM      3  C   UNL     1     142.130 142.671 142.146  1.00  0.00    -0.000 C 
BRANCH   3   4
ATOM      4  C   UNL     1     140.658 142.892 142.526  1.00  0.00    -0.000 C 
BRANCH   4   5
ATOM      5  C   UNL     1     139.683 142.239 141.535  1.00  0.00    -0.003 C 
ATOM      6  C   UNL     1     138.381 141.843 142.225  1.00  0.00     0.004 C 
ENDBRANCH   4   5
ENDBRANCH   3   4
ENDBRANCH   2   3
ENDBRANCH   1   2
BRANCH   1   7
ATOM      7  C   UNL     1     141.682 139.165 142.832  1.00  0.00     0.002 C 
BRANCH   7   8
ATOM      8  C   UNL     1     141.002 138.758 141.514  1.00  0.00     0.028 C 
BRANCH   8   9
ATOM      9  C   UNL     1     139.564 138.256 141.695  1.00  0.00     0.156 C 
BRANCH   9  10
ATOM     10  O   UNL     1     139.466 136.913 141.312  1.00  0.00    -0.396 OA
ATOM     11  H   UNL     1     140.113 136.416 141.878  1.00  0.00     0.210 HD
ENDBRANCH   9  10
ENDBRANCH   8   9
ENDBRANCH   7   8
ENDBRANCH   1   7
TORSDOF 8
ENDMDL
MODEL 7
REMARK VINA RESULT:    -2.694      2.301      3.164
REMARK INTER + INTRA:          -4.633
REMARK INTER:                  -3.903
REMARK INTRA:                  -0.730
REMARK UNBOUND:                -0.757
REMARK SMILES CCCCCCCCCO
REMARK SMILES IDX 6 1 5 2 4 3 3 4 2 5 1 6 7 7 8 8 9 9 10 10
REMARK H PARENT 10 11
REMARK Flexibility Score: inf
ROOT
ATOM      1  C   UNL     1     140.556 142.849 141.724  1.00  0.00     0.000 C 
ENDROOT
BRANCH   1   2
ATOM      2  C   UNL     1     142.002 142.988 142.227  1.00  0.00     0.000 C 
BRANCH   2   3
ATOM      3  C   UNL     1     142.432 141.809 143.118  1.00  0.00    -0.000 C 
BRANCH   3   4
ATOM      4  C   UNL     1     142.952 140.613 142.305  1.00  0.00    -0.000 C 
BRANCH   4   5
ATOM      5  C   UNL     1     141.977 139.426 142.305  1.00  0.00    -0.003 C 
ATOM      6  C   UNL     1     141.496 139.109 140.892  1.00  0.00     0.004 C 
ENDBRANCH   4   5
ENDBRANCH   3   4
ENDBRANCH   2   3
ENDBRANCH   1   2
BRANCH   1   7
ATOM      7  C   UNL     1     139.591 142.378 142.826  1.00  0.00     0.002 C 
BRANCH   7   8
ATOM      8  C   UNL     1     138.695 141.211 142.380  1.00  0.00     0.028 C 
BRANCH   8   9
ATOM      9  C   UNL     1     137.855 141.524 141.135  1.00  0.00     0.156 C 
BRANCH   9  10
ATOM     10  O   UNL     1     136.899 142.505 141.428  1.00  0.00    -0.396 OA
ATOM     11  H   UNL     1     136.622 142.348 142.368  1.00  0.00     0.210 HD
ENDBRANCH   9  10
ENDBRANCH   8   9
ENDBRANCH   7   8
ENDBRANCH   1   7
TORSDOF 8
ENDMDL
MODEL 8
REMARK VINA RESULT:    -2.652      2.203      3.178
REMARK INTER + INTRA:          -4.572
REMARK INTER:                  -3.943
REMARK INTRA:                  -0.629
REMARK UNBOUND:                -0.757
REMARK SMILES CCCCCCCCCO
REMARK SMILES IDX 6 1 5 2 4 3 3 4 2 5 1 6 7 7 8 8 9 9 10 10
REMARK H PARENT 10 11
REMARK Flexibility Score: inf
ROOT
ATOM      1  C   UNL     1     139.526 139.792 142.154  1.00  0.00     0.000 C 
ENDROOT
BRANCH   1   2
ATOM      2  C   UNL     1     140.811 139.120 142.665  1.00  0.00     0.000 C 
BRANCH   2   3
ATOM      3  C   UNL     1     141.867 140.140 143.125  1.00  0.00    -0.000 C 
BRANCH   3   4
ATOM      4  C   UNL     1     142.938 140.403 142.055  1.00  0.00    -0.000 C 
BRANCH   4   5
ATOM      5  C   UNL     1     142.507 141.462 141.030  1.00  0.00    -0.003 C 
ATOM      6  C   UNL     1     142.082 142.755 141.721  1.00  0.00     0.004 C 
ENDBRANCH   4   5
ENDBRANCH   3   4
ENDBRANCH   2   3
ENDBRANCH   1   2
BRANCH   1   7
ATOM      7  C   UNL     1     139.075 140.960 143.050  1.00  0.00     0.002 C 
BRANCH   7   8
ATOM      8  C   UNL     1     138.423 142.105 142.258  1.00  0.00     0.028 C 
BRANCH   8   9
ATOM      9  C   UNL     1     137.772 141.651 140.945  1.00  0.00     0.156 C 
BRANCH   9  10
ATOM     10  O   UNL     1     136.495 142.211 140.817  1.00  0.00    -0.396 OA
ATOM     11  H   UNL     1     135.912 141.490 140.463  1.00  0.00     0.210 HD
ENDBRANCH   9  10
ENDBRANCH   8   9
ENDBRANCH   7   8
ENDBRANCH   1   7
TORSDOF 8
ENDMDL
MODEL 9
REMARK VINA RESULT:    -2.608      2.465      3.953
REMARK INTER + INTRA:          -4.508
REMARK INTER:                  -3.867
REMARK INTRA:                  -0.641
REMARK UNBOUND:                -0.757
REMARK SMILES CCCCCCCCCO
REMARK SMILES IDX 6 1 5 2 4 3 3 4 2 5 1 6 7 7 8 8 9 9 10 10
REMARK H PARENT 10 11
REMARK Flexibility Score: inf
ROOT
ATOM      1  C   UNL     1     138.708 140.842 142.764  1.00  0.00     0.000 C 
ENDROOT
BRANCH   1   2
ATOM      2  C   UNL     1     140.232 140.756 142.956  1.00  0.00     0.000 C 
BRANCH   2   3
ATOM      3  C   UNL     1     140.803 139.390 142.536  1.00  0.00    -0.000 C 
BRANCH   3   4
ATOM      4  C   UNL     1     139.705 138.347 142.275  1.00  0.00    -0.000 C 
BRANCH   4   5
ATOM      5  C   UNL     1     139.826 137.692 140.891  1.00  0.00    -0.003 C 
ATOM      6  C   UNL     1     140.677 138.543 139.952  1.00  0.00     0.004 C 
ENDBRANCH   4   5
ENDBRANCH   3   4
ENDBRANCH   2   3
ENDBRANCH   1   2
BRANCH   1   7
ATOM      7  C   UNL     1     138.294 142.006 141.847  1.00  0.00     0.002 C 
BRANCH   7   8
ATOM      8  C   UNL     1     138.362 141.645 140.354  1.00  0.00     0.028 C 
BRANCH   8   9
ATOM      9  C   UNL     1     137.036 141.854 139.612  1.00  0.00     0.156 C 
BRANCH   9  10
ATOM     10  O   UNL     1     135.960 141.467 140.420  1.00  0.00    -0.396 OA
ATOM     11  H   UNL     1     136.284 141.525 141.357  1.00  0.00     0.210 HD
ENDBRANCH   9  10
ENDBRANCH   8   9
ENDBRANCH   7   8
ENDBRANCH   1   7
TORSDOF 8
ENDMDL
