MODEL 1
REMARK VINA RESULT:    62.021      0.000      0.000
REMARK INTER + INTRA:          68.132
REMARK INTER:                  67.459
REMARK INTRA:                   0.673
REMARK UNBOUND:                 0.673
REMARK SMILES CC(=O)[C@H]1CC[C@H]2[C@H]3CC=C4C[C@@H](O)CC[C@]4(C)[C@H]3CC[C@]12C
REMARK SMILES IDX 4 1 5 2 6 3 7 4 22 5 21 6 20 7 19 8 8 9 9 10 10 11 11 12
REMARK SMILES IDX 17 13 16 14 15 15 13 16 12 17 18 18 23 19 2 20 1 21 3 22
REMARK SMILES IDX 14 23
REMARK H PARENT 14 24
REMARK Flexibility Score: inf
ROOT
ATOM      1  C   UNL     1     -20.012  24.760  -5.159  1.00  0.00     0.062 C 
ATOM      2  C   UNL     1     -18.875  25.798  -4.985  1.00  0.00     0.012 C 
ATOM      3  C   UNL     1     -19.429  27.143  -5.492  1.00  0.00     0.005 C 
ATOM      4  C   UNL     1     -20.910  26.865  -5.725  1.00  0.00    -0.001 C 
ATOM      5  C   UNL     1     -20.984  25.407  -6.178  1.00  0.00    -0.020 C 
ATOM      6  C   UNL     1     -22.450  24.950  -6.025  1.00  0.00     0.008 C 
ATOM      7  C   UNL     1     -23.386  25.798  -6.911  1.00  0.00     0.005 C 
ATOM      8  C   UNL     1     -23.255  27.353  -6.720  1.00  0.00     0.003 C 
ATOM      9  C   UNL     1     -21.788  27.878  -6.497  1.00  0.00     0.000 C 
ATOM     10  C   UNL     1     -21.197  28.537  -7.757  1.00  0.00     0.031 C 
ATOM     11  C   UNL     1     -22.086  29.697  -8.112  1.00  0.00    -0.027 C 
ATOM     12  C   UNL     1     -23.427  29.575  -8.037  1.00  0.00    -0.065 C 
ATOM     13  C   UNL     1     -24.069  28.199  -7.807  1.00  0.00    -0.008 C 
ATOM     14  C   UNL     1     -25.522  28.412  -7.292  1.00  0.00     0.014 C 
ATOM     15  C   UNL     1     -26.376  29.316  -8.203  1.00  0.00     0.033 C 
ATOM     16  C   UNL     1     -25.646  30.589  -8.712  1.00  0.00     0.118 C 
ATOM     17  C   UNL     1     -24.285  30.824  -8.039  1.00  0.00     0.063 C 
ATOM     18  C   UNL     1     -24.125  27.494  -9.191  1.00  0.00     0.016 C 
ATOM     19  C   UNL     1     -20.477  25.177  -7.635  1.00  0.00     0.012 C 
ENDROOT
BRANCH   1  20
ATOM     20  C   UNL     1     -19.526  23.365  -5.518  1.00  0.00     0.133 C 
ATOM     21  C   UNL     1     -18.882  23.096  -6.845  1.00  0.00     0.088 C 
ATOM     22  O   UNL     1     -19.641  22.444  -4.721  1.00  0.00    -0.300 OA
ENDBRANCH   1  20
BRANCH  16  23
ATOM     23  O   UNL     1     -25.462  30.524 -10.103  1.00  0.00    -0.393 OA
ATOM     24  H   UNL     1     -24.527  30.226 -10.255  1.00  0.00     0.210 HD
ENDBRANCH  16  23
TORSDOF 2
ENDMDL
MODEL 2
REMARK VINA RESULT:    63.348      1.409      6.895
REMARK INTER + INTRA:          69.576
REMARK INTER:                  69.502
REMARK INTRA:                   0.074
REMARK UNBOUND:                 0.673
REMARK SMILES CC(=O)[C@H]1CC[C@H]2[C@H]3CC=C4C[C@@H](O)CC[C@]4(C)[C@H]3CC[C@]12C
REMARK SMILES IDX 4 1 5 2 6 3 7 4 22 5 21 6 20 7 19 8 8 9 9 10 10 11 11 12
REMARK SMILES IDX 17 13 16 14 15 15 13 16 12 17 18 18 23 19 2 20 1 21 3 22
REMARK SMILES IDX 14 23
REMARK H PARENT 14 24
REMARK Flexibility Score: inf
ROOT
ATOM      1  C   UNL     1     -25.185  30.206  -8.650  1.00  0.00     0.062 C 
ATOM      2  C   UNL     1     -24.129  31.223  -9.154  1.00  0.00     0.012 C 
ATOM      3  C   UNL     1     -22.751  30.581  -8.911  1.00  0.00     0.005 C 
ATOM      4  C   UNL     1     -23.081  29.154  -8.487  1.00  0.00    -0.001 C 
ATOM      5  C   UNL     1     -24.397  29.253  -7.716  1.00  0.00    -0.020 C 
ATOM      6  C   UNL     1     -24.988  27.829  -7.629  1.00  0.00     0.008 C 
ATOM      7  C   UNL     1     -24.034  26.883  -6.871  1.00  0.00     0.005 C 
ATOM      8  C   UNL     1     -22.559  26.851  -7.414  1.00  0.00     0.003 C 
ATOM      9  C   UNL     1     -21.988  28.240  -7.882  1.00  0.00     0.000 C 
ATOM     10  C   UNL     1     -21.014  28.855  -6.861  1.00  0.00     0.031 C 
ATOM     11  C   UNL     1     -19.875  27.887  -6.693  1.00  0.00    -0.027 C 
ATOM     12  C   UNL     1     -20.114  26.561  -6.615  1.00  0.00    -0.065 C 
ATOM     13  C   UNL     1     -21.551  26.039  -6.473  1.00  0.00    -0.008 C 
ATOM     14  C   UNL     1     -21.575  24.540  -6.887  1.00  0.00     0.014 C 
ATOM     15  C   UNL     1     -20.554  23.670  -6.126  1.00  0.00     0.033 C 
ATOM     16  C   UNL     1     -19.145  24.310  -5.983  1.00  0.00     0.118 C 
ATOM     17  C   UNL     1     -18.968  25.591  -6.814  1.00  0.00     0.063 C 
ATOM     18  C   UNL     1     -21.922  26.151  -4.968  1.00  0.00     0.016 C 
ATOM     19  C   UNL     1     -24.247  29.882  -6.297  1.00  0.00     0.012 C 
ENDROOT
BRANCH   1  20
ATOM     20  C   UNL     1     -26.418  30.848  -8.036  1.00  0.00     0.133 C 
ATOM     21  C   UNL     1     -27.462  30.009  -7.362  1.00  0.00     0.088 C 
ATOM     22  O   UNL     1     -26.567  32.061  -8.069  1.00  0.00    -0.300 OA
ENDBRANCH   1  20
BRANCH  16  23
ATOM     23  O   UNL     1     -18.875  24.599  -4.635  1.00  0.00    -0.393 OA
ATOM     24  H   UNL     1     -18.675  23.733  -4.190  1.00  0.00     0.210 HD
ENDBRANCH  16  23
TORSDOF 2
ENDMDL
