MODEL 1
REMARK VINA RESULT:    -3.580      0.000      0.000
REMARK INTER + INTRA:          -8.623
REMARK INTER:                  -6.301
REMARK INTRA:                  -2.322
REMARK UNBOUND:                -2.322
REMARK SMILES CCCCCCCCCCCCCCC(=O)[O-]
REMARK SMILES IDX 9 1 10 2 11 3 12 4 13 5 14 6 15 7 16 8 17 9 8 10 7 11 6 12
REMARK SMILES IDX 5 13 4 14 3 15 2 16 1 17
REMARK H PARENT
REMARK Flexibility Score: inf
ROOT
ATOM      1  C   UNL     1     -46.834 -53.829  38.398  1.00  0.00     0.000 C 
ENDROOT
BRANCH   1   2
ATOM      2  C   UNL     1     -47.425 -52.683  37.553  1.00  0.00     0.000 C 
BRANCH   2   3
ATOM      3  C   UNL     1     -46.502 -51.463  37.365  1.00  0.00     0.000 C 
BRANCH   3   4
ATOM      4  C   UNL     1     -47.228 -50.143  37.048  1.00  0.00     0.000 C 
BRANCH   4   5
ATOM      5  C   UNL     1     -46.436 -48.905  37.491  1.00  0.00     0.006 C 
BRANCH   5   6
ATOM      6  C   UNL     1     -44.941 -49.081  37.211  1.00  0.00     0.053 C 
BRANCH   6   7
ATOM      7  C   UNL     1     -44.130 -48.572  38.359  1.00  0.00     0.041 C 
ATOM      8  O   UNL     1     -44.615 -47.724  39.153  1.00  0.00    -0.550 OA
ATOM      9  O   UNL     1     -42.853 -49.071  38.584  1.00  0.00    -0.550 OA
ENDBRANCH   6   7
ENDBRANCH   5   6
ENDBRANCH   4   5
ENDBRANCH   3   4
ENDBRANCH   2   3
ENDBRANCH   1   2
BRANCH   1  10
ATOM     10  C   UNL     1     -47.752 -54.352  39.517  1.00  0.00     0.000 C 
BRANCH  10  11
ATOM     11  C   UNL     1     -48.571 -53.239  40.185  1.00  0.00    -0.000 C 
BRANCH  11  12
ATOM     12  C   UNL     1     -48.437 -53.299  41.711  1.00  0.00    -0.000 C 
BRANCH  12  13
ATOM     13  C   UNL     1     -47.732 -52.048  42.251  1.00  0.00    -0.000 C 
BRANCH  13  14
ATOM     14  C   UNL     1     -47.619 -50.970  41.163  1.00  0.00    -0.000 C 
BRANCH  14  15
ATOM     15  C   UNL     1     -46.161 -50.576  40.857  1.00  0.00    -0.000 C 
BRANCH  15  16
ATOM     16  C   UNL     1     -45.107 -51.598  41.316  1.00  0.00    -0.003 C 
ATOM     17  C   UNL     1     -44.141 -52.003  40.203  1.00  0.00     0.004 C 
ENDBRANCH  15  16
ENDBRANCH  14  15
ENDBRANCH  13  14
ENDBRANCH  12  13
ENDBRANCH  11  12
ENDBRANCH  10  11
ENDBRANCH   1  10
TORSDOF 13
ENDMDL
MODEL 2
REMARK VINA RESULT:    -3.509      2.499      5.196
REMARK INTER + INTRA:          -8.498
REMARK INTER:                  -6.848
REMARK INTRA:                  -1.650
REMARK UNBOUND:                -2.322
REMARK SMILES CCCCCCCCCCCCCCC(=O)[O-]
REMARK SMILES IDX 9 1 10 2 11 3 12 4 13 5 14 6 15 7 16 8 17 9 8 10 7 11 6 12
REMARK SMILES IDX 5 13 4 14 3 15 2 16 1 17
REMARK H PARENT
REMARK Flexibility Score: inf
ROOT
ATOM      1  C   UNL     1     -46.359 -51.955  37.509  1.00  0.00     0.000 C 
ENDROOT
BRANCH   1   2
ATOM      2  C   UNL     1     -47.601 -52.779  37.116  1.00  0.00     0.000 C 
BRANCH   2   3
ATOM      3  C   UNL     1     -48.197 -53.647  38.242  1.00  0.00     0.000 C 
BRANCH   3   4
ATOM      4  C   UNL     1     -47.201 -54.051  39.345  1.00  0.00     0.000 C 
BRANCH   4   5
ATOM      5  C   UNL     1     -47.859 -54.174  40.726  1.00  0.00     0.006 C 
BRANCH   5   6
ATOM      6  C   UNL     1     -49.026 -53.193  40.867  1.00  0.00     0.053 C 
BRANCH   6   7
ATOM      7  C   UNL     1     -48.737 -52.183  41.932  1.00  0.00     0.041 C 
ATOM      8  O   UNL     1     -48.968 -50.962  41.728  1.00  0.00    -0.550 OA
ATOM      9  O   UNL     1     -48.258 -52.595  43.169  1.00  0.00    -0.550 OA
ENDBRANCH   6   7
ENDBRANCH   5   6
ENDBRANCH   4   5
ENDBRANCH   3   4
ENDBRANCH   2   3
ENDBRANCH   1   2
BRANCH   1  10
ATOM     10  C   UNL     1     -46.356 -50.502  37.004  1.00  0.00     0.000 C 
BRANCH  10  11
ATOM     11  C   UNL     1     -45.012 -50.086  36.391  1.00  0.00    -0.000 C 
BRANCH  11  12
ATOM     12  C   UNL     1     -44.612 -48.677  36.847  1.00  0.00    -0.000 C 
BRANCH  12  13
ATOM     13  C   UNL     1     -45.068 -48.416  38.288  1.00  0.00    -0.000 C 
BRANCH  13  14
ATOM     14  C   UNL     1     -43.866 -48.364  39.243  1.00  0.00    -0.000 C 
BRANCH  14  15
ATOM     15  C   UNL     1     -44.030 -49.289  40.464  1.00  0.00    -0.000 C 
BRANCH  15  16
ATOM     16  C   UNL     1     -45.356 -50.070  40.510  1.00  0.00    -0.003 C 
ATOM     17  C   UNL     1     -45.229 -51.426  41.201  1.00  0.00     0.004 C 
ENDBRANCH  15  16
ENDBRANCH  14  15
ENDBRANCH  13  14
ENDBRANCH  12  13
ENDBRANCH  11  12
ENDBRANCH  10  11
ENDBRANCH   1  10
TORSDOF 13
ENDMDL
MODEL 3
REMARK VINA RESULT:    -3.494      2.828      5.886
REMARK INTER + INTRA:          -8.472
REMARK INTER:                  -6.450
REMARK INTRA:                  -2.022
REMARK UNBOUND:                -2.322
REMARK SMILES CCCCCCCCCCCCCCC(=O)[O-]
REMARK SMILES IDX 9 1 10 2 11 3 12 4 13 5 14 6 15 7 16 8 17 9 8 10 7 11 6 12
REMARK SMILES IDX 5 13 4 14 3 15 2 16 1 17
REMARK H PARENT
REMARK Flexibility Score: inf
ROOT
ATOM      1  C   UNL     1     -43.392 -50.461  40.277  1.00  0.00     0.000 C 
ENDROOT
BRANCH   1   2
ATOM      2  C   UNL     1     -44.614 -51.400  40.277  1.00  0.00     0.000 C 
BRANCH   2   3
ATOM      3  C   UNL     1     -45.693 -51.073  41.329  1.00  0.00     0.000 C 
BRANCH   3   4
ATOM      4  C   UNL     1     -47.125 -50.957  40.774  1.00  0.00     0.000 C 
BRANCH   4   5
ATOM      5  C   UNL     1     -48.198 -51.292  41.820  1.00  0.00     0.006 C 
BRANCH   5   6
ATOM      6  C   UNL     1     -49.076 -52.456  41.351  1.00  0.00     0.053 C 
BRANCH   6   7
ATOM      7  C   UNL     1     -48.303 -53.736  41.370  1.00  0.00     0.041 C 
ATOM      8  O   UNL     1     -48.163 -54.407  40.314  1.00  0.00    -0.550 OA
ATOM      9  O   UNL     1     -47.693 -54.163  42.543  1.00  0.00    -0.550 OA
ENDBRANCH   6   7
ENDBRANCH   5   6
ENDBRANCH   4   5
ENDBRANCH   3   4
ENDBRANCH   2   3
ENDBRANCH   1   2
BRANCH   1  10
ATOM     10  C   UNL     1     -43.694 -49.002  40.666  1.00  0.00     0.000 C 
BRANCH  10  11
ATOM     11  C   UNL     1     -44.382 -48.215  39.542  1.00  0.00    -0.000 C 
BRANCH  11  12
ATOM     12  C   UNL     1     -43.719 -48.498  38.188  1.00  0.00    -0.000 C 
BRANCH  12  13
ATOM     13  C   UNL     1     -44.770 -48.806  37.115  1.00  0.00    -0.000 C 
BRANCH  13  14
ATOM     14  C   UNL     1     -46.179 -48.853  37.724  1.00  0.00    -0.000 C 
BRANCH  14  15
ATOM     15  C   UNL     1     -47.054 -49.971  37.125  1.00  0.00    -0.000 C 
BRANCH  15  16
ATOM     16  C   UNL     1     -46.422 -51.373  37.157  1.00  0.00    -0.003 C 
ATOM     17  C   UNL     1     -47.436 -52.481  37.440  1.00  0.00     0.004 C 
ENDBRANCH  15  16
ENDBRANCH  14  15
ENDBRANCH  13  14
ENDBRANCH  12  13
ENDBRANCH  11  12
ENDBRANCH  10  11
ENDBRANCH   1  10
TORSDOF 13
ENDMDL
MODEL 4
REMARK VINA RESULT:    -3.491      1.096      2.001
REMARK INTER + INTRA:          -8.466
REMARK INTER:                  -6.704
REMARK INTRA:                  -1.761
REMARK UNBOUND:                -2.322
REMARK SMILES CCCCCCCCCCCCCCC(=O)[O-]
REMARK SMILES IDX 9 1 10 2 11 3 12 4 13 5 14 6 15 7 16 8 17 9 8 10 7 11 6 12
REMARK SMILES IDX 5 13 4 14 3 15 2 16 1 17
REMARK H PARENT
REMARK Flexibility Score: inf
ROOT
ATOM      1  C   UNL     1     -46.689 -52.235  37.572  1.00  0.00     0.000 C 
ENDROOT
BRANCH   1   2
ATOM      2  C   UNL     1     -47.215 -50.866  37.098  1.00  0.00     0.000 C 
BRANCH   2   3
ATOM      3  C   UNL     1     -46.326 -49.660  37.462  1.00  0.00     0.000 C 
BRANCH   3   4
ATOM      4  C   UNL     1     -44.840 -49.813  37.089  1.00  0.00     0.000 C 
BRANCH   4   5
ATOM      5  C   UNL     1     -43.940 -48.793  37.799  1.00  0.00     0.006 C 
BRANCH   5   6
ATOM      6  C   UNL     1     -44.663 -48.158  38.990  1.00  0.00     0.053 C 
BRANCH   6   7
ATOM      7  C   UNL     1     -43.799 -47.123  39.637  1.00  0.00     0.041 C 
ATOM      8  O   UNL     1     -44.319 -46.179  40.289  1.00  0.00    -0.550 OA
ATOM      9  O   UNL     1     -42.415 -47.227  39.563  1.00  0.00    -0.550 OA
ENDBRANCH   6   7
ENDBRANCH   5   6
ENDBRANCH   4   5
ENDBRANCH   3   4
ENDBRANCH   2   3
ENDBRANCH   1   2
BRANCH   1  10
ATOM     10  C   UNL     1     -47.755 -53.168  38.173  1.00  0.00     0.000 C 
BRANCH  10  11
ATOM     11  C   UNL     1     -47.166 -54.195  39.151  1.00  0.00    -0.000 C 
BRANCH  11  12
ATOM     12  C   UNL     1     -48.029 -54.309  40.413  1.00  0.00    -0.000 C 
BRANCH  12  13
ATOM     13  C   UNL     1     -48.897 -53.058  40.601  1.00  0.00    -0.000 C 
BRANCH  13  14
ATOM     14  C   UNL     1     -48.507 -52.307  41.883  1.00  0.00    -0.000 C 
BRANCH  14  15
ATOM     15  C   UNL     1     -48.010 -50.875  41.611  1.00  0.00    -0.000 C 
BRANCH  15  16
ATOM     16  C   UNL     1     -46.616 -50.787  40.965  1.00  0.00    -0.003 C 
ATOM     17  C   UNL     1     -45.589 -51.703  41.628  1.00  0.00     0.004 C 
ENDBRANCH  15  16
ENDBRANCH  14  15
ENDBRANCH  13  14
ENDBRANCH  12  13
ENDBRANCH  11  12
ENDBRANCH  10  11
ENDBRANCH   1  10
TORSDOF 13
ENDMDL
MODEL 5
REMARK VINA RESULT:    -3.483      3.476      6.308
REMARK INTER + INTRA:          -8.452
REMARK INTER:                  -7.110
REMARK INTRA:                  -1.343
REMARK UNBOUND:                -2.322
REMARK SMILES CCCCCCCCCCCCCCC(=O)[O-]
REMARK SMILES IDX 9 1 10 2 11 3 12 4 13 5 14 6 15 7 16 8 17 9 8 10 7 11 6 12
REMARK SMILES IDX 5 13 4 14 3 15 2 16 1 17
REMARK H PARENT
REMARK Flexibility Score: inf
ROOT
ATOM      1  C   UNL     1     -40.952 -48.373  34.669  1.00  0.00     0.000 C 
ENDROOT
BRANCH   1   2
ATOM      2  C   UNL     1     -42.492 -48.344  34.622  1.00  0.00     0.000 C 
BRANCH   2   3
ATOM      3  C   UNL     1     -43.153 -49.596  34.011  1.00  0.00     0.000 C 
BRANCH   3   4
ATOM      4  C   UNL     1     -43.741 -50.584  35.035  1.00  0.00     0.000 C 
BRANCH   4   5
ATOM      5  C   UNL     1     -44.785 -49.939  35.957  1.00  0.00     0.006 C 
BRANCH   5   6
ATOM      6  C   UNL     1     -45.288 -50.939  37.001  1.00  0.00     0.053 C 
BRANCH   6   7
ATOM      7  C   UNL     1     -46.500 -50.406  37.696  1.00  0.00     0.041 C 
ATOM      8  O   UNL     1     -47.242 -49.565  37.123  1.00  0.00    -0.550 OA
ATOM      9  O   UNL     1     -46.840 -50.874  38.959  1.00  0.00    -0.550 OA
ENDBRANCH   6   7
ENDBRANCH   5   6
ENDBRANCH   4   5
ENDBRANCH   3   4
ENDBRANCH   2   3
ENDBRANCH   1   2
BRANCH   1  10
ATOM     10  C   UNL     1     -40.342 -48.261  36.078  1.00  0.00     0.000 C 
BRANCH  10  11
ATOM     11  C   UNL     1     -41.043 -49.163  37.105  1.00  0.00    -0.000 C 
BRANCH  11  12
ATOM     12  C   UNL     1     -41.463 -48.361  38.343  1.00  0.00    -0.000 C 
BRANCH  12  13
ATOM     13  C   UNL     1     -42.990 -48.241  38.428  1.00  0.00    -0.000 C 
BRANCH  13  14
ATOM     14  C   UNL     1     -43.439 -47.963  39.871  1.00  0.00    -0.000 C 
BRANCH  14  15
ATOM     15  C   UNL     1     -44.426 -46.785  39.975  1.00  0.00    -0.000 C 
BRANCH  15  16
ATOM     16  C   UNL     1     -43.832 -45.496  40.568  1.00  0.00    -0.003 C 
ATOM     17  C   UNL     1     -42.831 -45.759  41.692  1.00  0.00     0.004 C 
ENDBRANCH  15  16
ENDBRANCH  14  15
ENDBRANCH  13  14
ENDBRANCH  12  13
ENDBRANCH  11  12
ENDBRANCH  10  11
ENDBRANCH   1  10
TORSDOF 13
ENDMDL
MODEL 6
REMARK VINA RESULT:    -3.473      1.097      2.918
REMARK INTER + INTRA:          -8.434
REMARK INTER:                  -6.735
REMARK INTRA:                  -1.699
REMARK UNBOUND:                -2.322
REMARK SMILES CCCCCCCCCCCCCCC(=O)[O-]
REMARK SMILES IDX 9 1 10 2 11 3 12 4 13 5 14 6 15 7 16 8 17 9 8 10 7 11 6 12
REMARK SMILES IDX 5 13 4 14 3 15 2 16 1 17
REMARK H PARENT
REMARK Flexibility Score: inf
ROOT
ATOM      1  C   UNL     1     -45.618 -51.667  39.445  1.00  0.00     0.000 C 
ENDROOT
BRANCH   1   2
ATOM      2  C   UNL     1     -46.632 -51.716  38.285  1.00  0.00     0.000 C 
BRANCH   2   3
ATOM      3  C   UNL     1     -46.617 -50.491  37.348  1.00  0.00     0.000 C 
BRANCH   3   4
ATOM      4  C   UNL     1     -45.289 -50.260  36.604  1.00  0.00     0.000 C 
BRANCH   4   5
ATOM      5  C   UNL     1     -44.714 -48.855  36.831  1.00  0.00     0.006 C 
BRANCH   5   6
ATOM      6  C   UNL     1     -45.392 -48.172  38.022  1.00  0.00     0.053 C 
BRANCH   6   7
ATOM      7  C   UNL     1     -44.401 -47.917  39.113  1.00  0.00     0.041 C 
ATOM      8  O   UNL     1     -44.502 -46.891  39.835  1.00  0.00    -0.550 OA
ATOM      9  O   UNL     1     -43.394 -48.840  39.367  1.00  0.00    -0.550 OA
ENDBRANCH   6   7
ENDBRANCH   5   6
ENDBRANCH   4   5
ENDBRANCH   3   4
ENDBRANCH   2   3
ENDBRANCH   1   2
BRANCH   1  10
ATOM     10  C   UNL     1     -46.026 -50.769  40.627  1.00  0.00     0.000 C 
BRANCH  10  11
ATOM     11  C   UNL     1     -47.462 -51.027  41.104  1.00  0.00    -0.000 C 
BRANCH  11  12
ATOM     12  C   UNL     1     -47.497 -52.131  42.169  1.00  0.00    -0.000 C 
BRANCH  12  13
ATOM     13  C   UNL     1     -48.701 -53.058  41.961  1.00  0.00    -0.000 C 
BRANCH  13  14
ATOM     14  C   UNL     1     -48.714 -53.630  40.535  1.00  0.00    -0.000 C 
BRANCH  14  15
ATOM     15  C   UNL     1     -47.666 -54.739  40.326  1.00  0.00    -0.000 C 
BRANCH  15  16
ATOM     16  C   UNL     1     -47.570 -55.273  38.886  1.00  0.00    -0.003 C 
ATOM     17  C   UNL     1     -48.053 -56.716  38.748  1.00  0.00     0.004 C 
ENDBRANCH  15  16
ENDBRANCH  14  15
ENDBRANCH  13  14
ENDBRANCH  12  13
ENDBRANCH  11  12
ENDBRANCH  10  11
ENDBRANCH   1  10
TORSDOF 13
ENDMDL
MODEL 7
REMARK VINA RESULT:    -3.465      2.341      5.479
REMARK INTER + INTRA:          -8.421
REMARK INTER:                  -6.681
REMARK INTRA:                  -1.740
REMARK UNBOUND:                -2.322
REMARK SMILES CCCCCCCCCCCCCCC(=O)[O-]
REMARK SMILES IDX 9 1 10 2 11 3 12 4 13 5 14 6 15 7 16 8 17 9 8 10 7 11 6 12
REMARK SMILES IDX 5 13 4 14 3 15 2 16 1 17
REMARK H PARENT
REMARK Flexibility Score: inf
ROOT
ATOM      1  C   UNL     1     -43.682 -48.542  38.318  1.00  0.00     0.000 C 
ENDROOT
BRANCH   1   2
ATOM      2  C   UNL     1     -44.356 -48.620  39.702  1.00  0.00     0.000 C 
BRANCH   2   3
ATOM      3  C   UNL     1     -43.637 -49.514  40.733  1.00  0.00     0.000 C 
BRANCH   3   4
ATOM      4  C   UNL     1     -44.505 -50.631  41.340  1.00  0.00     0.000 C 
BRANCH   4   5
ATOM      5  C   UNL     1     -45.936 -50.643  40.785  1.00  0.00     0.006 C 
BRANCH   5   6
ATOM      6  C   UNL     1     -46.747 -51.793  41.387  1.00  0.00     0.053 C 
BRANCH   6   7
ATOM      7  C   UNL     1     -48.165 -51.373  41.612  1.00  0.00     0.041 C 
ATOM      8  O   UNL     1     -48.443 -50.162  41.814  1.00  0.00    -0.550 OA
ATOM      9  O   UNL     1     -49.187 -52.312  41.550  1.00  0.00    -0.550 OA
ENDBRANCH   6   7
ENDBRANCH   5   6
ENDBRANCH   4   5
ENDBRANCH   3   4
ENDBRANCH   2   3
ENDBRANCH   1   2
BRANCH   1  10
ATOM     10  C   UNL     1     -44.630 -48.733  37.121  1.00  0.00     0.000 C 
BRANCH  10  11
ATOM     11  C   UNL     1     -46.111 -48.700  37.523  1.00  0.00    -0.000 C 
BRANCH  11  12
ATOM     12  C   UNL     1     -46.809 -50.017  37.160  1.00  0.00    -0.000 C 
BRANCH  12  13
ATOM     13  C   UNL     1     -45.784 -51.121  36.873  1.00  0.00    -0.000 C 
BRANCH  13  14
ATOM     14  C   UNL     1     -46.090 -52.381  37.697  1.00  0.00    -0.000 C 
BRANCH  14  15
ATOM     15  C   UNL     1     -47.516 -52.916  37.467  1.00  0.00    -0.000 C 
BRANCH  15  16
ATOM     16  C   UNL     1     -48.076 -53.777  38.612  1.00  0.00    -0.003 C 
ATOM     17  C   UNL     1     -47.498 -55.191  38.637  1.00  0.00     0.004 C 
ENDBRANCH  15  16
ENDBRANCH  14  15
ENDBRANCH  13  14
ENDBRANCH  12  13
ENDBRANCH  11  12
ENDBRANCH  10  11
ENDBRANCH   1  10
TORSDOF 13
ENDMDL
MODEL 8
REMARK VINA RESULT:    -3.412      2.650      4.253
REMARK INTER + INTRA:          -8.327
REMARK INTER:                  -7.217
REMARK INTRA:                  -1.111
REMARK UNBOUND:                -2.322
REMARK SMILES CCCCCCCCCCCCCCC(=O)[O-]
REMARK SMILES IDX 9 1 10 2 11 3 12 4 13 5 14 6 15 7 16 8 17 9 8 10 7 11 6 12
REMARK SMILES IDX 5 13 4 14 3 15 2 16 1 17
REMARK H PARENT
REMARK Flexibility Score: inf
ROOT
ATOM      1  C   UNL     1     -45.983 -50.512  40.062  1.00  0.00     0.000 C 
ENDROOT
BRANCH   1   2
ATOM      2  C   UNL     1     -44.551 -49.949  40.150  1.00  0.00     0.000 C 
BRANCH   2   3
ATOM      3  C   UNL     1     -44.232 -48.810  39.161  1.00  0.00     0.000 C 
BRANCH   3   4
ATOM      4  C   UNL     1     -44.348 -47.391  39.747  1.00  0.00     0.000 C 
BRANCH   4   5
ATOM      5  C   UNL     1     -42.983 -46.745  40.020  1.00  0.00     0.006 C 
BRANCH   5   6
ATOM      6  C   UNL     1     -43.147 -45.372  40.678  1.00  0.00     0.053 C 
BRANCH   6   7
ATOM      7  C   UNL     1     -41.874 -44.952  41.341  1.00  0.00     0.041 C 
ATOM      8  O   UNL     1     -41.228 -43.964  40.905  1.00  0.00    -0.550 OA
ATOM      9  O   UNL     1     -41.425 -45.622  42.472  1.00  0.00    -0.550 OA
ENDBRANCH   6   7
ENDBRANCH   5   6
ENDBRANCH   4   5
ENDBRANCH   3   4
ENDBRANCH   2   3
ENDBRANCH   1   2
BRANCH   1  10
ATOM     10  C   UNL     1     -46.554 -51.047  41.387  1.00  0.00     0.000 C 
BRANCH  10  11
ATOM     11  C   UNL     1     -48.087 -50.998  41.440  1.00  0.00    -0.000 C 
BRANCH  11  12
ATOM     12  C   UNL     1     -48.659 -52.302  42.008  1.00  0.00    -0.000 C 
BRANCH  12  13
ATOM     13  C   UNL     1     -49.091 -53.250  40.883  1.00  0.00    -0.000 C 
BRANCH  13  14
ATOM     14  C   UNL     1     -48.026 -54.329  40.635  1.00  0.00    -0.000 C 
BRANCH  14  15
ATOM     15  C   UNL     1     -47.279 -54.138  39.302  1.00  0.00    -0.000 C 
BRANCH  15  16
ATOM     16  C   UNL     1     -48.003 -53.248  38.277  1.00  0.00    -0.003 C 
ATOM     17  C   UNL     1     -47.061 -52.647  37.234  1.00  0.00     0.004 C 
ENDBRANCH  15  16
ENDBRANCH  14  15
ENDBRANCH  13  14
ENDBRANCH  12  13
ENDBRANCH  11  12
ENDBRANCH  10  11
ENDBRANCH   1  10
TORSDOF 13
ENDMDL
MODEL 9
REMARK VINA RESULT:    -3.399      1.477      2.546
REMARK INTER + INTRA:          -8.304
REMARK INTER:                  -6.346
REMARK INTRA:                  -1.959
REMARK UNBOUND:                -2.322
REMARK SMILES CCCCCCCCCCCCCCC(=O)[O-]
REMARK SMILES IDX 9 1 10 2 11 3 12 4 13 5 14 6 15 7 16 8 17 9 8 10 7 11 6 12
REMARK SMILES IDX 5 13 4 14 3 15 2 16 1 17
REMARK H PARENT
REMARK Flexibility Score: inf
ROOT
ATOM      1  C   UNL     1     -47.622 -54.194  40.651  1.00  0.00     0.000 C 
ENDROOT
BRANCH   1   2
ATOM      2  C   UNL     1     -47.684 -54.687  39.192  1.00  0.00     0.000 C 
BRANCH   2   3
ATOM      3  C   UNL     1     -47.881 -53.583  38.134  1.00  0.00     0.000 C 
BRANCH   3   4
ATOM      4  C   UNL     1     -46.693 -52.616  37.977  1.00  0.00     0.000 C 
BRANCH   4   5
ATOM      5  C   UNL     1     -47.082 -51.298  37.293  1.00  0.00     0.006 C 
BRANCH   5   6
ATOM      6  C   UNL     1     -45.892 -50.336  37.238  1.00  0.00     0.053 C 
BRANCH   6   7
ATOM      7  C   UNL     1     -46.341 -48.932  37.490  1.00  0.00     0.041 C 
ATOM      8  O   UNL     1     -45.515 -48.061  37.870  1.00  0.00    -0.550 OA
ATOM      9  O   UNL     1     -47.662 -48.572  37.258  1.00  0.00    -0.550 OA
ENDBRANCH   6   7
ENDBRANCH   5   6
ENDBRANCH   4   5
ENDBRANCH   3   4
ENDBRANCH   2   3
ENDBRANCH   1   2
BRANCH   1  10
ATOM     10  C   UNL     1     -48.947 -53.645  41.209  1.00  0.00     0.000 C 
BRANCH  10  11
ATOM     11  C   UNL     1     -48.889 -52.142  41.515  1.00  0.00    -0.000 C 
BRANCH  11  12
ATOM     12  C   UNL     1     -47.474 -51.721  41.930  1.00  0.00    -0.000 C 
BRANCH  12  13
ATOM     13  C   UNL     1     -46.956 -50.584  41.040  1.00  0.00    -0.000 C 
BRANCH  13  14
ATOM     14  C   UNL     1     -45.421 -50.587  40.984  1.00  0.00    -0.000 C 
BRANCH  14  15
ATOM     15  C   UNL     1     -44.808 -51.932  41.420  1.00  0.00    -0.000 C 
BRANCH  15  16
ATOM     16  C   UNL     1     -43.933 -51.863  42.684  1.00  0.00    -0.003 C 
ATOM     17  C   UNL     1     -44.316 -52.904  43.735  1.00  0.00     0.004 C 
ENDBRANCH  15  16
ENDBRANCH  14  15
ENDBRANCH  13  14
ENDBRANCH  12  13
ENDBRANCH  11  12
ENDBRANCH  10  11
ENDBRANCH   1  10
TORSDOF 13
ENDMDL
