MODEL 1
REMARK VINA RESULT:    -3.191      0.000      0.000
REMARK INTER + INTRA:          -4.410
REMARK INTER:                  -4.497
REMARK INTRA:                   0.087
REMARK UNBOUND:                 0.087
REMARK SMILES CC1=CCC(=C(C)C)C(=O)CC(C)=CCC1
REMARK SMILES IDX 12 1 14 2 13 3 15 4 16 5 2 6 1 7 3 8 11 10 9 11 10 12 5 13
REMARK SMILES IDX 6 14 7 15 8 16 4 17
REMARK H PARENT
REMARK Flexibility Score: 60.00
ROOT
ATOM      1  C   UNL     1      -8.751  32.874  44.773  1.00  0.00    -0.070 C 
ATOM      2  C   UNL     1      -8.416  34.051  45.346  1.00  0.00    -0.027 C 
ATOM      3  C   UNL     1      -9.344  32.908  43.386  1.00  0.00     0.039 C 
ENDROOT
BRANCH   2   4
ATOM      4  C   UNL     1      -7.724  34.217  46.681  1.00  0.00     0.032 C 
BRANCH   4   5
ATOM      5  C   UNL     1      -6.184  34.122  46.628  1.00  0.00     0.034 C 
BRANCH   5   6
ATOM      6  C   UNL     1      -5.608  33.177  47.667  1.00  0.00    -0.077 C 
ATOM      7  C   UNL     1      -5.633  33.620  49.109  1.00  0.00     0.039 C 
ATOM      8  C   UNL     1      -5.138  31.936  47.393  1.00  0.00    -0.023 CG0
ATOM      9  G   UNL     1      -5.000  31.291  46.028  1.00  0.00     0.000 G0
ENDBRANCH   5   6
ENDBRANCH   4   5
ENDBRANCH   2   4
BRANCH   1  10
ATOM     10  C   UNL     1      -8.477  31.529  45.414  1.00  0.00     0.111 C 
BRANCH  10  11
ATOM     11  C   UNL     1      -7.249  30.876  44.834  1.00  0.00     0.163 C 
ATOM     12  O   UNL     1      -7.132  30.842  43.579  1.00  0.00    -0.294 OA
BRANCH  11  13
ATOM     13  C   UNL     1      -6.153  30.330  45.687  1.00  0.00    -0.002 C 
ATOM     14  C   UNL     1      -6.152  29.017  46.068  1.00  0.00    -0.069 C 
ATOM     15  C   UNL     1      -4.980  28.396  46.796  1.00  0.00     0.039 C 
ATOM     16  C   UNL     1      -7.332  28.115  45.777  1.00  0.00     0.039 C 
BRANCH  13  17
ATOM     17  C   UNL     1      -5.004  31.266  46.026  1.00  0.00     0.066 CG0
ATOM     18  G   UNL     1      -5.170  31.912  47.388  1.00  0.00     0.000 G0
ENDBRANCH  13  17
ENDBRANCH  11  13
ENDBRANCH  10  11
ENDBRANCH   1  10
TORSDOF 0
ENDMDL
MODEL 2
REMARK VINA RESULT:    -3.156      1.190      2.004
REMARK INTER + INTRA:          -4.360
REMARK INTER:                  -4.877
REMARK INTRA:                   0.517
REMARK UNBOUND:                 0.087
REMARK SMILES CC1=CCC(=C(C)C)C(=O)CC(C)=CCC1
REMARK SMILES IDX 12 1 14 2 13 3 15 4 16 5 2 6 1 7 3 8 11 10 9 11 10 12 5 13
REMARK SMILES IDX 6 14 7 15 8 16 4 17
REMARK H PARENT
REMARK Flexibility Score: 60.00
ROOT
ATOM      1  C   UNL     1      -7.997  32.305  46.104  1.00  0.00    -0.070 C 
ATOM      2  C   UNL     1      -7.145  33.035  46.857  1.00  0.00    -0.027 C 
ATOM      3  C   UNL     1      -8.704  32.996  44.966  1.00  0.00     0.039 C 
ENDROOT
BRANCH   2   4
ATOM      4  C   UNL     1      -6.275  32.503  47.974  1.00  0.00     0.032 C 
BRANCH   4   5
ATOM      5  C   UNL     1      -4.764  32.475  47.660  1.00  0.00     0.034 C 
BRANCH   5   6
ATOM      6  C   UNL     1      -4.459  32.072  46.228  1.00  0.00    -0.077 C 
ATOM      7  C   UNL     1      -3.982  33.145  45.283  1.00  0.00     0.039 C 
ATOM      8  C   UNL     1      -4.521  30.800  45.764  1.00  0.00    -0.023 CG0
ATOM      9  G   UNL     1      -4.987  29.572  46.521  1.00  0.00     0.000 G0
ENDBRANCH   5   6
ENDBRANCH   4   5
ENDBRANCH   2   4
BRANCH   1  10
ATOM     10  C   UNL     1      -8.203  30.815  46.291  1.00  0.00     0.111 C 
BRANCH  10  11
ATOM     11  C   UNL     1      -7.281  30.011  45.411  1.00  0.00     0.163 C 
ATOM     12  O   UNL     1      -7.301  30.235  44.170  1.00  0.00    -0.294 OA
BRANCH  11  13
ATOM     13  C   UNL     1      -6.316  29.015  45.961  1.00  0.00    -0.002 C 
ATOM     14  C   UNL     1      -6.571  27.675  45.876  1.00  0.00    -0.069 C 
ATOM     15  C   UNL     1      -5.545  26.638  46.279  1.00  0.00     0.039 C 
ATOM     16  C   UNL     1      -7.901  27.159  45.372  1.00  0.00     0.039 C 
BRANCH  13  17
ATOM     17  C   UNL     1      -5.009  29.551  46.522  1.00  0.00     0.066 CG0
ATOM     18  G   UNL     1      -4.525  30.781  45.780  1.00  0.00     0.000 G0
ENDBRANCH  13  17
ENDBRANCH  11  13
ENDBRANCH  10  11
ENDBRANCH   1  10
TORSDOF 0
ENDMDL
MODEL 3
REMARK VINA RESULT:    -3.064     14.015     16.394
REMARK INTER + INTRA:          -4.232
REMARK INTER:                  -4.463
REMARK INTRA:                   0.231
REMARK UNBOUND:                 0.087
REMARK SMILES CC1=CCC(=C(C)C)C(=O)CC(C)=CCC1
REMARK SMILES IDX 12 1 14 2 13 3 15 4 16 5 2 6 1 7 3 8 11 10 9 11 10 12 5 13
REMARK SMILES IDX 6 14 7 15 8 16 4 17
REMARK H PARENT
REMARK Flexibility Score: 60.00
ROOT
ATOM      1  C   UNL     1     -10.319  19.587  32.920  1.00  0.00    -0.070 C 
ATOM      2  C   UNL     1     -11.120  20.284  32.084  1.00  0.00    -0.027 C 
ATOM      3  C   UNL     1      -9.002  19.086  32.383  1.00  0.00     0.039 C 
ENDROOT
BRANCH   2   4
ATOM      4  C   UNL     1     -12.426  20.948  32.461  1.00  0.00     0.032 C 
BRANCH   4   5
ATOM      5  C   UNL     1     -12.328  22.466  32.722  1.00  0.00     0.034 C 
BRANCH   5   6
ATOM      6  C   UNL     1     -12.958  22.887  34.038  1.00  0.00    -0.077 C 
ATOM      7  C   UNL     1     -14.434  23.193  34.043  1.00  0.00     0.039 C 
ATOM      8  C   UNL     1     -12.295  22.938  35.219  1.00  0.00    -0.023 CG0
ATOM      9  G   UNL     1     -10.817  22.692  35.450  1.00  0.00     0.000 G0
ENDBRANCH   5   6
ENDBRANCH   4   5
ENDBRANCH   2   4
BRANCH   1  10
ATOM     10  C   UNL     1     -10.638  19.366  34.385  1.00  0.00     0.111 C 
BRANCH  10  11
ATOM     11  C   UNL     1      -9.865  20.308  35.271  1.00  0.00     0.163 C 
ATOM     12  O   UNL     1      -8.606  20.235  35.258  1.00  0.00    -0.294 OA
BRANCH  11  13
ATOM     13  C   UNL     1     -10.530  21.350  36.106  1.00  0.00    -0.002 C 
ATOM     14  C   UNL     1     -10.796  21.122  37.428  1.00  0.00    -0.069 C 
ATOM     15  C   UNL     1     -11.323  22.210  38.338  1.00  0.00     0.039 C 
ATOM     16  C   UNL     1     -10.576  19.759  38.048  1.00  0.00     0.039 C 
BRANCH  13  17
ATOM     17  C   UNL     1     -10.804  22.695  35.452  1.00  0.00     0.066 CG0
ATOM     18  G   UNL     1     -12.283  22.930  35.217  1.00  0.00     0.000 G0
ENDBRANCH  13  17
ENDBRANCH  11  13
ENDBRANCH  10  11
ENDBRANCH   1  10
TORSDOF 0
ENDMDL
MODEL 4
REMARK VINA RESULT:    -3.027      1.953      2.934
REMARK INTER + INTRA:          -4.179
REMARK INTER:                  -4.748
REMARK INTRA:                   0.570
REMARK UNBOUND:                 0.087
REMARK SMILES CC1=CCC(=C(C)C)C(=O)CC(C)=CCC1
REMARK SMILES IDX 12 1 14 2 13 3 15 4 16 5 2 6 1 7 3 8 11 10 9 11 10 12 5 13
REMARK SMILES IDX 6 14 7 15 8 16 4 17
REMARK H PARENT
REMARK Flexibility Score: 60.00
ROOT
ATOM      1  C   UNL     1      -8.160  29.465  44.399  1.00  0.00    -0.070 C 
ATOM      2  C   UNL     1      -8.672  30.258  45.367  1.00  0.00    -0.027 C 
ATOM      3  C   UNL     1      -8.974  28.274  43.959  1.00  0.00     0.039 C 
ENDROOT
BRANCH   2   4
ATOM      4  C   UNL     1      -8.057  31.544  45.871  1.00  0.00     0.032 C 
BRANCH   4   5
ATOM      5  C   UNL     1      -7.210  31.398  47.153  1.00  0.00     0.034 C 
BRANCH   5   6
ATOM      6  C   UNL     1      -5.729  31.221  46.873  1.00  0.00    -0.077 C 
ATOM      7  C   UNL     1      -4.880  32.464  46.776  1.00  0.00     0.039 C 
ATOM      8  C   UNL     1      -5.109  30.020  46.773  1.00  0.00    -0.023 CG0
ATOM      9  G   UNL     1      -5.757  28.650  46.817  1.00  0.00     0.000 G0
ENDBRANCH   5   6
ENDBRANCH   4   5
ENDBRANCH   2   4
BRANCH   1  10
ATOM     10  C   UNL     1      -6.862  29.765  43.678  1.00  0.00     0.111 C 
BRANCH  10  11
ATOM     11  C   UNL     1      -5.718  28.955  44.231  1.00  0.00     0.163 C 
ATOM     12  O   UNL     1      -4.579  29.105  43.712  1.00  0.00    -0.294 OA
BRANCH  11  13
ATOM     13  C   UNL     1      -5.876  28.038  45.399  1.00  0.00    -0.002 C 
ATOM     14  C   UNL     1      -6.032  26.693  45.215  1.00  0.00    -0.069 C 
ATOM     15  C   UNL     1      -6.035  25.722  46.375  1.00  0.00     0.039 C 
ATOM     16  C   UNL     1      -6.210  26.106  43.832  1.00  0.00     0.039 C 
BRANCH  13  17
ATOM     17  C   UNL     1      -5.758  28.652  46.785  1.00  0.00     0.066 CG0
ATOM     18  G   UNL     1      -5.108  30.021  46.755  1.00  0.00     0.000 G0
ENDBRANCH  13  17
ENDBRANCH  11  13
ENDBRANCH  10  11
ENDBRANCH   1  10
TORSDOF 0
ENDMDL
MODEL 5
REMARK VINA RESULT:    -2.994      1.784      4.217
REMARK INTER + INTRA:          -4.132
REMARK INTER:                  -4.251
REMARK INTRA:                   0.119
REMARK UNBOUND:                 0.087
REMARK SMILES CC1=CCC(=C(C)C)C(=O)CC(C)=CCC1
REMARK SMILES IDX 12 1 14 2 13 3 15 4 16 5 2 6 1 7 3 8 11 10 9 11 10 12 5 13
REMARK SMILES IDX 6 14 7 15 8 16 4 17
REMARK H PARENT
REMARK Flexibility Score: 60.00
ROOT
ATOM      1  C   UNL     1      -6.491  28.282  45.661  1.00  0.00    -0.070 C 
ATOM      2  C   UNL     1      -5.750  28.699  46.712  1.00  0.00    -0.027 C 
ATOM      3  C   UNL     1      -7.120  26.914  45.738  1.00  0.00     0.039 C 
ENDROOT
BRANCH   2   4
ATOM      4  C   UNL     1      -5.124  30.067  46.863  1.00  0.00     0.032 C 
BRANCH   4   5
ATOM      5  C   UNL     1      -6.072  31.156  47.408  1.00  0.00     0.034 C 
BRANCH   5   6
ATOM      6  C   UNL     1      -6.020  32.447  46.611  1.00  0.00    -0.077 C 
ATOM      7  C   UNL     1      -4.767  33.281  46.708  1.00  0.00     0.039 C 
ATOM      8  C   UNL     1      -6.995  32.863  45.766  1.00  0.00    -0.023 CG0
ATOM      9  G   UNL     1      -8.338  32.203  45.524  1.00  0.00     0.000 G0
ENDBRANCH   5   6
ENDBRANCH   4   5
ENDBRANCH   2   4
BRANCH   1  10
ATOM     10  C   UNL     1      -6.793  29.154  44.459  1.00  0.00     0.111 C 
BRANCH  10  11
ATOM     11  C   UNL     1      -8.136  29.825  44.582  1.00  0.00     0.163 C 
ATOM     12  O   UNL     1      -9.112  29.132  44.977  1.00  0.00    -0.294 OA
BRANCH  11  13
ATOM     13  C   UNL     1      -8.333  31.280  44.312  1.00  0.00    -0.002 C 
ATOM     14  C   UNL     1      -8.583  31.729  43.045  1.00  0.00    -0.069 C 
ATOM     15  C   UNL     1      -8.943  33.171  42.764  1.00  0.00     0.039 C 
ATOM     16  C   UNL     1      -8.513  30.797  41.855  1.00  0.00     0.039 C 
BRANCH  13  17
ATOM     17  C   UNL     1      -8.338  32.214  45.511  1.00  0.00     0.066 CG0
ATOM     18  G   UNL     1      -6.987  32.863  45.742  1.00  0.00     0.000 G0
ENDBRANCH  13  17
ENDBRANCH  11  13
ENDBRANCH  10  11
ENDBRANCH   1  10
TORSDOF 0
ENDMDL
MODEL 6
REMARK VINA RESULT:    -2.925      1.807      4.727
REMARK INTER + INTRA:          -4.035
REMARK INTER:                  -4.458
REMARK INTRA:                   0.423
REMARK UNBOUND:                 0.087
REMARK SMILES CC1=CCC(=C(C)C)C(=O)CC(C)=CCC1
REMARK SMILES IDX 12 1 14 2 13 3 15 4 16 5 2 6 1 7 3 8 11 10 9 11 10 12 5 13
REMARK SMILES IDX 6 14 7 15 8 16 4 17
REMARK H PARENT
REMARK Flexibility Score: 60.00
ROOT
ATOM      1  C   UNL     1      -8.343  28.428  44.890  1.00  0.00    -0.070 C 
ATOM      2  C   UNL     1      -7.626  27.301  45.095  1.00  0.00    -0.027 C 
ATOM      3  C   UNL     1      -9.430  28.392  43.845  1.00  0.00     0.039 C 
ENDROOT
BRANCH   2   4
ATOM      4  C   UNL     1      -6.567  27.109  46.158  1.00  0.00     0.032 C 
BRANCH   4   5
ATOM      5  C   UNL     1      -5.140  26.877  45.616  1.00  0.00     0.034 C 
BRANCH   5   6
ATOM      6  C   UNL     1      -4.771  27.818  44.483  1.00  0.00    -0.077 C 
ATOM      7  C   UNL     1      -4.638  27.231  43.100  1.00  0.00     0.039 C 
ATOM      8  C   UNL     1      -4.623  29.158  44.621  1.00  0.00    -0.023 CG0
ATOM      9  G   UNL     1      -4.692  29.958  45.907  1.00  0.00     0.000 G0
ENDBRANCH   5   6
ENDBRANCH   4   5
ENDBRANCH   2   4
BRANCH   1  10
ATOM     10  C   UNL     1      -8.169  29.686  45.715  1.00  0.00     0.111 C 
BRANCH  10  11
ATOM     11  C   UNL     1      -7.083  30.571  45.158  1.00  0.00     0.163 C 
ATOM     12  O   UNL     1      -7.245  31.053  44.004  1.00  0.00    -0.294 OA
BRANCH  11  13
ATOM     13  C   UNL     1      -5.868  30.939  45.942  1.00  0.00    -0.002 C 
ATOM     14  C   UNL     1      -5.853  32.061  46.723  1.00  0.00    -0.069 C 
ATOM     15  C   UNL     1      -4.699  32.376  47.650  1.00  0.00     0.039 C 
ATOM     16  C   UNL     1      -6.998  33.049  46.697  1.00  0.00     0.039 C 
BRANCH  13  17
ATOM     17  C   UNL     1      -4.699  29.967  45.909  1.00  0.00     0.066 CG0
ATOM     18  G   UNL     1      -4.641  29.180  44.615  1.00  0.00     0.000 G0
ENDBRANCH  13  17
ENDBRANCH  11  13
ENDBRANCH  10  11
ENDBRANCH   1  10
TORSDOF 0
ENDMDL
MODEL 7
REMARK VINA RESULT:    -2.832      2.435      5.316
REMARK INTER + INTRA:          -3.904
REMARK INTER:                  -4.576
REMARK INTRA:                   0.673
REMARK UNBOUND:                 0.087
REMARK SMILES CC1=CCC(=C(C)C)C(=O)CC(C)=CCC1
REMARK SMILES IDX 12 1 14 2 13 3 15 4 16 5 2 6 1 7 3 8 11 10 9 11 10 12 5 13
REMARK SMILES IDX 6 14 7 15 8 16 4 17
REMARK H PARENT
REMARK Flexibility Score: 60.00
ROOT
ATOM      1  C   UNL     1      -5.391  29.117  46.718  1.00  0.00    -0.070 C 
ATOM      2  C   UNL     1      -5.593  27.925  46.114  1.00  0.00    -0.027 C 
ATOM      3  C   UNL     1      -3.979  29.643  46.787  1.00  0.00     0.039 C 
ENDROOT
BRANCH   2   4
ATOM      4  C   UNL     1      -6.937  27.280  45.861  1.00  0.00     0.032 C 
BRANCH   4   5
ATOM      5  C   UNL     1      -7.909  28.123  45.007  1.00  0.00     0.034 C 
BRANCH   5   6
ATOM      6  C   UNL     1      -7.254  28.723  43.775  1.00  0.00    -0.077 C 
ATOM      7  C   UNL     1      -6.751  27.775  42.716  1.00  0.00     0.039 C 
ATOM      8  C   UNL     1      -7.156  30.053  43.535  1.00  0.00    -0.023 CG0
ATOM      9  G   UNL     1      -7.572  31.183  44.457  1.00  0.00     0.000 G0
ENDBRANCH   5   6
ENDBRANCH   4   5
ENDBRANCH   2   4
BRANCH   1  10
ATOM     10  C   UNL     1      -6.517  29.985  47.242  1.00  0.00     0.111 C 
BRANCH  10  11
ATOM     11  C   UNL     1      -6.405  31.402  46.742  1.00  0.00     0.163 C 
ATOM     12  O   UNL     1      -6.227  32.318  47.590  1.00  0.00    -0.294 OA
BRANCH  11  13
ATOM     13  C   UNL     1      -6.438  31.745  45.290  1.00  0.00    -0.002 C 
ATOM     14  C   UNL     1      -5.423  32.459  44.717  1.00  0.00    -0.069 C 
ATOM     15  C   UNL     1      -5.348  32.686  43.223  1.00  0.00     0.039 C 
ATOM     16  C   UNL     1      -4.318  33.062  45.556  1.00  0.00     0.039 C 
BRANCH  13  17
ATOM     17  C   UNL     1      -7.590  31.185  44.470  1.00  0.00     0.066 CG0
ATOM     18  G   UNL     1      -7.152  30.053  43.561  1.00  0.00     0.000 G0
ENDBRANCH  13  17
ENDBRANCH  11  13
ENDBRANCH  10  11
ENDBRANCH   1  10
TORSDOF 0
ENDMDL
MODEL 8
REMARK VINA RESULT:    -2.762     15.861     17.426
REMARK INTER + INTRA:          -3.805
REMARK INTER:                  -4.181
REMARK INTRA:                   0.376
REMARK UNBOUND:                 0.087
REMARK SMILES CC1=CCC(=C(C)C)C(=O)CC(C)=CCC1
REMARK SMILES IDX 12 1 14 2 13 3 15 4 16 5 2 6 1 7 3 8 11 10 9 11 10 12 5 13
REMARK SMILES IDX 6 14 7 15 8 16 4 17
REMARK H PARENT
REMARK Flexibility Score: 60.00
ROOT
ATOM      1  C   UNL     1     -21.045  22.196  40.804  1.00  0.00    -0.070 C 
ATOM      2  C   UNL     1     -22.121  22.540  41.545  1.00  0.00    -0.027 C 
ATOM      3  C   UNL     1     -20.230  21.008  41.252  1.00  0.00     0.039 C 
ENDROOT
BRANCH   2   4
ATOM      4  C   UNL     1     -23.113  23.631  41.209  1.00  0.00     0.032 C 
BRANCH   4   5
ATOM      5  C   UNL     1     -22.826  24.994  41.874  1.00  0.00     0.034 C 
BRANCH   5   6
ATOM      6  C   UNL     1     -22.791  26.146  40.886  1.00  0.00    -0.077 C 
ATOM      7  C   UNL     1     -24.103  26.788  40.510  1.00  0.00     0.039 C 
ATOM      8  C   UNL     1     -21.655  26.679  40.374  1.00  0.00    -0.023 CG0
ATOM      9  G   UNL     1     -20.236  26.191  40.594  1.00  0.00     0.000 G0
ENDBRANCH   5   6
ENDBRANCH   4   5
ENDBRANCH   2   4
BRANCH   1  10
ATOM     10  C   UNL     1     -20.675  22.884  39.506  1.00  0.00     0.111 C 
BRANCH  10  11
ATOM     11  C   UNL     1     -19.554  23.872  39.701  1.00  0.00     0.163 C 
ATOM     12  O   UNL     1     -18.424  23.428  40.042  1.00  0.00    -0.294 OA
BRANCH  11  13
ATOM     13  C   UNL     1     -19.720  25.333  39.447  1.00  0.00    -0.002 C 
ATOM     14  C   UNL     1     -19.504  25.855  38.202  1.00  0.00    -0.069 C 
ATOM     15  C   UNL     1     -19.817  27.299  37.874  1.00  0.00     0.039 C 
ATOM     16  C   UNL     1     -18.939  25.008  37.083  1.00  0.00     0.039 C 
BRANCH  13  17
ATOM     17  C   UNL     1     -20.230  26.185  40.598  1.00  0.00     0.066 CG0
ATOM     18  G   UNL     1     -21.643  26.683  40.365  1.00  0.00     0.000 G0
ENDBRANCH  13  17
ENDBRANCH  11  13
ENDBRANCH  10  11
ENDBRANCH   1  10
TORSDOF 0
ENDMDL
MODEL 9
REMARK VINA RESULT:    -2.761      3.240      4.596
REMARK INTER + INTRA:          -3.805
REMARK INTER:                  -4.221
REMARK INTRA:                   0.417
REMARK UNBOUND:                 0.087
REMARK SMILES CC1=CCC(=C(C)C)C(=O)CC(C)=CCC1
REMARK SMILES IDX 12 1 14 2 13 3 15 4 16 5 2 6 1 7 3 8 11 10 9 11 10 12 5 13
REMARK SMILES IDX 6 14 7 15 8 16 4 17
REMARK H PARENT
REMARK Flexibility Score: 60.00
ROOT
ATOM      1  C   UNL     1      -7.667  28.869  45.482  1.00  0.00    -0.070 C 
ATOM      2  C   UNL     1      -6.822  29.539  46.296  1.00  0.00    -0.027 C 
ATOM      3  C   UNL     1      -8.836  29.625  44.901  1.00  0.00     0.039 C 
ENDROOT
BRANCH   2   4
ATOM      4  C   UNL     1      -5.548  28.985  46.894  1.00  0.00     0.032 C 
BRANCH   4   5
ATOM      5  C   UNL     1      -4.251  29.640  46.374  1.00  0.00     0.034 C 
BRANCH   5   6
ATOM      6  C   UNL     1      -4.257  29.867  44.872  1.00  0.00    -0.077 C 
ATOM      7  C   UNL     1      -4.278  31.291  44.378  1.00  0.00     0.039 C 
ATOM      8  C   UNL     1      -4.175  28.877  43.950  1.00  0.00    -0.023 CG0
ATOM      9  G   UNL     1      -4.162  27.383  44.211  1.00  0.00     0.000 G0
ENDBRANCH   5   6
ENDBRANCH   4   5
ENDBRANCH   2   4
BRANCH   1  10
ATOM     10  C   UNL     1      -7.447  27.432  45.055  1.00  0.00     0.111 C 
BRANCH  10  11
ATOM     11  C   UNL     1      -6.699  27.347  43.750  1.00  0.00     0.163 C 
ATOM     12  O   UNL     1      -7.194  27.924  42.744  1.00  0.00    -0.294 OA
BRANCH  11  13
ATOM     13  C   UNL     1      -5.379  26.663  43.626  1.00  0.00    -0.002 C 
ATOM     14  C   UNL     1      -5.263  25.485  42.942  1.00  0.00    -0.069 C 
ATOM     15  C   UNL     1      -3.919  24.850  42.664  1.00  0.00     0.039 C 
ATOM     16  C   UNL     1      -6.484  24.754  42.427  1.00  0.00     0.039 C 
BRANCH  13  17
ATOM     17  C   UNL     1      -4.168  27.378  44.205  1.00  0.00     0.066 CG0
ATOM     18  G   UNL     1      -4.202  28.871  43.941  1.00  0.00     0.000 G0
ENDBRANCH  13  17
ENDBRANCH  11  13
ENDBRANCH  10  11
ENDBRANCH   1  10
TORSDOF 0
ENDMDL
