MODEL 1
REMARK VINA RESULT:    -3.819      0.000      0.000
REMARK INTER + INTRA:         -16.108
REMARK INTER:                 -10.070
REMARK INTRA:                  -6.038
REMARK UNBOUND:                -6.038
REMARK SMILES CCCCCCCCCCCCCCCCCCCCCCCCCCCCCC(=O)[O-]
REMARK SMILES IDX 16 1 17 2 18 3 19 4 20 5 21 6 22 7 23 8 24 9 25 10 26 11
REMARK SMILES IDX 27 12 28 13 29 14 30 15 31 16 32 17 15 18 14 19 13 20 12 21
REMARK SMILES IDX 11 22 10 23 9 24 8 25 7 26 6 27 5 28 4 29 3 30 2 31 1 32
REMARK H PARENT
REMARK Flexibility Score: inf
ROOT
ATOM      1  C   UNL     1      32.234 -44.093  -1.004  1.00  0.00     0.000 C 
ENDROOT
BRANCH   1   2
ATOM      2  C   UNL     1      31.372 -44.412  -2.246  1.00  0.00     0.000 C 
BRANCH   2   3
ATOM      3  C   UNL     1      31.449 -45.870  -2.744  1.00  0.00     0.000 C 
BRANCH   3   4
ATOM      4  C   UNL     1      31.277 -46.069  -4.265  1.00  0.00     0.000 C 
BRANCH   4   5
ATOM      5  C   UNL     1      32.032 -45.064  -5.150  1.00  0.00     0.000 C 
BRANCH   5   6
ATOM      6  C   UNL     1      33.555 -45.253  -5.105  1.00  0.00     0.000 C 
BRANCH   6   7
ATOM      7  C   UNL     1      34.277 -43.902  -5.206  1.00  0.00     0.000 C 
BRANCH   7   8
ATOM      8  C   UNL     1      33.352 -42.712  -4.901  1.00  0.00     0.000 C 
BRANCH   8   9
ATOM      9  C   UNL     1      33.401 -41.635  -5.996  1.00  0.00     0.000 C 
BRANCH   9  10
ATOM     10  C   UNL     1      33.565 -42.266  -7.385  1.00  0.00     0.000 C 
BRANCH  10  11
ATOM     11  C   UNL     1      32.201 -42.681  -7.960  1.00  0.00     0.000 C 
BRANCH  11  12
ATOM     12  C   UNL     1      31.099 -41.648  -7.679  1.00  0.00     0.000 C 
BRANCH  12  13
ATOM     13  C   UNL     1      29.804 -42.293  -7.152  1.00  0.00     0.006 C 
BRANCH  13  14
ATOM     14  C   UNL     1      29.730 -42.278  -5.620  1.00  0.00     0.053 C 
BRANCH  14  15
ATOM     15  C   UNL     1      28.732 -43.266  -5.099  1.00  0.00     0.041 C 
ATOM     16  O   UNL     1      28.188 -44.091  -5.878  1.00  0.00    -0.550 OA
ATOM     17  O   UNL     1      28.390 -43.264  -3.752  1.00  0.00    -0.550 OA
ENDBRANCH  14  15
ENDBRANCH  13  14
ENDBRANCH  12  13
ENDBRANCH  11  12
ENDBRANCH  10  11
ENDBRANCH   9  10
ENDBRANCH   8   9
ENDBRANCH   7   8
ENDBRANCH   6   7
ENDBRANCH   5   6
ENDBRANCH   4   5
ENDBRANCH   3   4
ENDBRANCH   2   3
ENDBRANCH   1   2
BRANCH   1  18
ATOM     18  C   UNL     1      33.641 -43.562  -1.336  1.00  0.00     0.000 C 
BRANCH  18  19
ATOM     19  C   UNL     1      34.692 -44.671  -1.560  1.00  0.00     0.000 C 
BRANCH  19  20
ATOM     20  C   UNL     1      35.974 -44.475  -0.727  1.00  0.00     0.000 C 
BRANCH  20  21
ATOM     21  C   UNL     1      35.877 -43.372   0.343  1.00  0.00     0.000 C 
BRANCH  21  22
ATOM     22  C   UNL     1      35.854 -43.921   1.777  1.00  0.00     0.000 C 
BRANCH  22  23
ATOM     23  C   UNL     1      34.441 -43.856   2.367  1.00  0.00     0.000 C 
BRANCH  23  24
ATOM     24  C   UNL     1      33.734 -45.214   2.265  1.00  0.00    -0.000 C 
BRANCH  24  25
ATOM     25  C   UNL     1      34.740 -46.368   2.389  1.00  0.00    -0.000 C 
BRANCH  25  26
ATOM     26  C   UNL     1      34.287 -47.631   1.627  1.00  0.00    -0.000 C 
BRANCH  26  27
ATOM     27  C   UNL     1      33.179 -47.371   0.588  1.00  0.00    -0.000 C 
BRANCH  27  28
ATOM     28  C   UNL     1      33.330 -48.142  -0.734  1.00  0.00    -0.000 C 
BRANCH  28  29
ATOM     29  C   UNL     1      34.793 -48.241  -1.203  1.00  0.00    -0.000 C 
BRANCH  29  30
ATOM     30  C   UNL     1      34.953 -49.078  -2.481  1.00  0.00    -0.000 C 
BRANCH  30  31
ATOM     31  C   UNL     1      33.973 -48.666  -3.591  1.00  0.00    -0.003 C 
ATOM     32  C   UNL     1      32.965 -49.774  -3.877  1.00  0.00     0.004 C 
ENDBRANCH  30  31
ENDBRANCH  29  30
ENDBRANCH  28  29
ENDBRANCH  27  28
ENDBRANCH  26  27
ENDBRANCH  25  26
ENDBRANCH  24  25
ENDBRANCH  23  24
ENDBRANCH  22  23
ENDBRANCH  21  22
ENDBRANCH  20  21
ENDBRANCH  19  20
ENDBRANCH  18  19
ENDBRANCH   1  18
TORSDOF 28
ENDMDL
MODEL 2
REMARK VINA RESULT:    -3.715      3.456      6.905
REMARK INTER + INTRA:         -15.834
REMARK INTER:                 -10.292
REMARK INTRA:                  -5.541
REMARK UNBOUND:                -6.038
REMARK SMILES CCCCCCCCCCCCCCCCCCCCCCCCCCCCCC(=O)[O-]
REMARK SMILES IDX 16 1 17 2 18 3 19 4 20 5 21 6 22 7 23 8 24 9 25 10 26 11
REMARK SMILES IDX 27 12 28 13 29 14 30 15 31 16 32 17 15 18 14 19 13 20 12 21
REMARK SMILES IDX 11 22 10 23 9 24 8 25 7 26 6 27 5 28 4 29 3 30 2 31 1 32
REMARK H PARENT
REMARK Flexibility Score: inf
ROOT
ATOM      1  C   UNL     1      32.654 -47.418  -3.125  1.00  0.00     0.000 C 
ENDROOT
BRANCH   1   2
ATOM      2  C   UNL     1      31.522 -46.571  -3.749  1.00  0.00     0.000 C 
BRANCH   2   3
ATOM      3  C   UNL     1      31.973 -45.563  -4.828  1.00  0.00     0.000 C 
BRANCH   3   4
ATOM      4  C   UNL     1      33.433 -45.703  -5.308  1.00  0.00     0.000 C 
BRANCH   4   5
ATOM      5  C   UNL     1      34.246 -44.398  -5.331  1.00  0.00     0.000 C 
BRANCH   5   6
ATOM      6  C   UNL     1      34.307 -43.705  -3.962  1.00  0.00     0.000 C 
BRANCH   6   7
ATOM      7  C   UNL     1      35.060 -44.574  -2.944  1.00  0.00     0.000 C 
BRANCH   7   8
ATOM      8  C   UNL     1      34.473 -44.469  -1.527  1.00  0.00     0.000 C 
BRANCH   8   9
ATOM      9  C   UNL     1      33.022 -43.962  -1.529  1.00  0.00     0.000 C 
BRANCH   9  10
ATOM     10  C   UNL     1      32.394 -44.079  -0.134  1.00  0.00     0.000 C 
BRANCH  10  11
ATOM     11  C   UNL     1      33.473 -44.007   0.957  1.00  0.00     0.000 C 
BRANCH  11  12
ATOM     12  C   UNL     1      33.407 -45.190   1.936  1.00  0.00     0.000 C 
BRANCH  12  13
ATOM     13  C   UNL     1      34.742 -45.431   2.664  1.00  0.00     0.006 C 
BRANCH  13  14
ATOM     14  C   UNL     1      35.894 -45.703   1.688  1.00  0.00     0.053 C 
BRANCH  14  15
ATOM     15  C   UNL     1      37.017 -44.727   1.862  1.00  0.00     0.041 C 
ATOM     16  O   UNL     1      38.211 -45.127   1.870  1.00  0.00    -0.550 OA
ATOM     17  O   UNL     1      36.745 -43.376   2.032  1.00  0.00    -0.550 OA
ENDBRANCH  14  15
ENDBRANCH  13  14
ENDBRANCH  12  13
ENDBRANCH  11  12
ENDBRANCH  10  11
ENDBRANCH   9  10
ENDBRANCH   8   9
ENDBRANCH   7   8
ENDBRANCH   6   7
ENDBRANCH   5   6
ENDBRANCH   4   5
ENDBRANCH   3   4
ENDBRANCH   2   3
ENDBRANCH   1   2
BRANCH   1  18
ATOM     18  C   UNL     1      32.299 -48.907  -2.948  1.00  0.00     0.000 C 
BRANCH  18  19
ATOM     19  C   UNL     1      32.958 -49.835  -3.992  1.00  0.00     0.000 C 
BRANCH  19  20
ATOM     20  C   UNL     1      34.408 -49.440  -4.332  1.00  0.00     0.000 C 
BRANCH  20  21
ATOM     21  C   UNL     1      35.402 -49.597  -3.165  1.00  0.00     0.000 C 
BRANCH  21  22
ATOM     22  C   UNL     1      36.187 -48.312  -2.863  1.00  0.00     0.000 C 
BRANCH  22  23
ATOM     23  C   UNL     1      35.933 -47.838  -1.427  1.00  0.00     0.000 C 
BRANCH  23  24
ATOM     24  C   UNL     1      35.276 -48.941  -0.587  1.00  0.00    -0.000 C 
BRANCH  24  25
ATOM     25  C   UNL     1      34.039 -48.408   0.151  1.00  0.00    -0.000 C 
BRANCH  25  26
ATOM     26  C   UNL     1      33.341 -49.495   0.994  1.00  0.00    -0.000 C 
BRANCH  26  27
ATOM     27  C   UNL     1      34.246 -50.135   2.063  1.00  0.00    -0.000 C 
BRANCH  27  28
ATOM     28  C   UNL     1      34.963 -49.142   2.993  1.00  0.00    -0.000 C 
BRANCH  28  29
ATOM     29  C   UNL     1      36.477 -49.403   3.091  1.00  0.00    -0.000 C 
BRANCH  29  30
ATOM     30  C   UNL     1      37.031 -49.164   4.504  1.00  0.00    -0.000 C 
BRANCH  30  31
ATOM     31  C   UNL     1      36.591 -50.241   5.508  1.00  0.00    -0.003 C 
ATOM     32  C   UNL     1      36.961 -51.637   5.018  1.00  0.00     0.004 C 
ENDBRANCH  30  31
ENDBRANCH  29  30
ENDBRANCH  28  29
ENDBRANCH  27  28
ENDBRANCH  26  27
ENDBRANCH  25  26
ENDBRANCH  24  25
ENDBRANCH  23  24
ENDBRANCH  22  23
ENDBRANCH  21  22
ENDBRANCH  20  21
ENDBRANCH  19  20
ENDBRANCH  18  19
ENDBRANCH   1  18
TORSDOF 28
ENDMDL
MODEL 3
REMARK VINA RESULT:    -3.697      3.967      8.403
REMARK INTER + INTRA:         -15.785
REMARK INTER:                  -9.833
REMARK INTRA:                  -5.953
REMARK UNBOUND:                -6.038
REMARK SMILES CCCCCCCCCCCCCCCCCCCCCCCCCCCCCC(=O)[O-]
REMARK SMILES IDX 16 1 17 2 18 3 19 4 20 5 21 6 22 7 23 8 24 9 25 10 26 11
REMARK SMILES IDX 27 12 28 13 29 14 30 15 31 16 32 17 15 18 14 19 13 20 12 21
REMARK SMILES IDX 11 22 10 23 9 24 8 25 7 26 6 27 5 28 4 29 3 30 2 31 1 32
REMARK H PARENT
REMARK Flexibility Score: inf
ROOT
ATOM      1  C   UNL     1      35.660 -47.833  -1.045  1.00  0.00     0.000 C 
ENDROOT
BRANCH   1   2
ATOM      2  C   UNL     1      35.850 -46.312  -1.237  1.00  0.00     0.000 C 
BRANCH   2   3
ATOM      3  C   UNL     1      37.039 -45.696  -0.471  1.00  0.00     0.000 C 
BRANCH   3   4
ATOM      4  C   UNL     1      36.816 -44.272   0.081  1.00  0.00     0.000 C 
BRANCH   4   5
ATOM      5  C   UNL     1      35.827 -43.404  -0.716  1.00  0.00     0.000 C 
BRANCH   5   6
ATOM      6  C   UNL     1      34.630 -42.936   0.124  1.00  0.00     0.000 C 
BRANCH   6   7
ATOM      7  C   UNL     1      33.363 -43.721  -0.246  1.00  0.00     0.000 C 
BRANCH   7   8
ATOM      8  C   UNL     1      32.711 -44.401   0.970  1.00  0.00     0.000 C 
BRANCH   8   9
ATOM      9  C   UNL     1      33.731 -44.746   2.066  1.00  0.00     0.000 C 
BRANCH   9  10
ATOM     10  C   UNL     1      34.133 -46.225   2.000  1.00  0.00     0.000 C 
BRANCH  10  11
ATOM     11  C   UNL     1      35.006 -46.609   3.205  1.00  0.00     0.000 C 
BRANCH  11  12
ATOM     12  C   UNL     1      36.410 -47.078   2.795  1.00  0.00     0.000 C 
BRANCH  12  13
ATOM     13  C   UNL     1      36.439 -48.557   2.371  1.00  0.00     0.006 C 
BRANCH  13  14
ATOM     14  C   UNL     1      35.482 -49.418   3.204  1.00  0.00     0.053 C 
BRANCH  14  15
ATOM     15  C   UNL     1      36.199 -50.168   4.285  1.00  0.00     0.041 C 
ATOM     16  O   UNL     1      36.378 -51.410   4.185  1.00  0.00    -0.550 OA
ATOM     17  O   UNL     1      36.655 -49.496   5.412  1.00  0.00    -0.550 OA
ENDBRANCH  14  15
ENDBRANCH  13  14
ENDBRANCH  12  13
ENDBRANCH  11  12
ENDBRANCH  10  11
ENDBRANCH   9  10
ENDBRANCH   8   9
ENDBRANCH   7   8
ENDBRANCH   6   7
ENDBRANCH   5   6
ENDBRANCH   4   5
ENDBRANCH   3   4
ENDBRANCH   2   3
ENDBRANCH   1   2
BRANCH   1  18
ATOM     18  C   UNL     1      34.238 -48.334  -1.366  1.00  0.00     0.000 C 
BRANCH  18  19
ATOM     19  C   UNL     1      33.190 -47.207  -1.482  1.00  0.00     0.000 C 
BRANCH  19  20
ATOM     20  C   UNL     1      32.389 -47.251  -2.798  1.00  0.00     0.000 C 
BRANCH  20  21
ATOM     21  C   UNL     1      31.382 -46.098  -2.971  1.00  0.00     0.000 C 
BRANCH  21  22
ATOM     22  C   UNL     1      30.975 -45.866  -4.434  1.00  0.00     0.000 C 
BRANCH  22  23
ATOM     23  C   UNL     1      30.102 -44.612  -4.568  1.00  0.00     0.000 C 
BRANCH  23  24
ATOM     24  C   UNL     1      30.946 -43.336  -4.469  1.00  0.00    -0.000 C 
BRANCH  24  25
ATOM     25  C   UNL     1      32.167 -43.409  -5.399  1.00  0.00    -0.000 C 
BRANCH  25  26
ATOM     26  C   UNL     1      33.468 -42.958  -4.703  1.00  0.00    -0.000 C 
BRANCH  26  27
ATOM     27  C   UNL     1      34.152 -44.064  -3.878  1.00  0.00    -0.000 C 
BRANCH  27  28
ATOM     28  C   UNL     1      35.586 -44.411  -4.313  1.00  0.00    -0.000 C 
BRANCH  28  29
ATOM     29  C   UNL     1      35.635 -45.175  -5.649  1.00  0.00    -0.000 C 
BRANCH  29  30
ATOM     30  C   UNL     1      34.617 -46.324  -5.715  1.00  0.00    -0.000 C 
BRANCH  30  31
ATOM     31  C   UNL     1      35.263 -47.676  -6.054  1.00  0.00    -0.003 C 
ATOM     32  C   UNL     1      35.102 -48.668  -4.907  1.00  0.00     0.004 C 
ENDBRANCH  30  31
ENDBRANCH  29  30
ENDBRANCH  28  29
ENDBRANCH  27  28
ENDBRANCH  26  27
ENDBRANCH  25  26
ENDBRANCH  24  25
ENDBRANCH  23  24
ENDBRANCH  22  23
ENDBRANCH  21  22
ENDBRANCH  20  21
ENDBRANCH  19  20
ENDBRANCH  18  19
ENDBRANCH   1  18
TORSDOF 28
ENDMDL
MODEL 4
REMARK VINA RESULT:    -3.664      3.884      6.747
REMARK INTER + INTRA:         -15.699
REMARK INTER:                 -10.445
REMARK INTRA:                  -5.254
REMARK UNBOUND:                -6.038
REMARK SMILES CCCCCCCCCCCCCCCCCCCCCCCCCCCCCC(=O)[O-]
REMARK SMILES IDX 16 1 17 2 18 3 19 4 20 5 21 6 22 7 23 8 24 9 25 10 26 11
REMARK SMILES IDX 27 12 28 13 29 14 30 15 31 16 32 17 15 18 14 19 13 20 12 21
REMARK SMILES IDX 11 22 10 23 9 24 8 25 7 26 6 27 5 28 4 29 3 30 2 31 1 32
REMARK H PARENT
REMARK Flexibility Score: inf
ROOT
ATOM      1  C   UNL     1      33.404 -45.545   1.720  1.00  0.00     0.000 C 
ENDROOT
BRANCH   1   2
ATOM      2  C   UNL     1      34.457 -44.721   2.495  1.00  0.00     0.000 C 
BRANCH   2   3
ATOM      3  C   UNL     1      35.106 -43.568   1.700  1.00  0.00     0.000 C 
BRANCH   3   4
ATOM      4  C   UNL     1      34.467 -43.255   0.331  1.00  0.00     0.000 C 
BRANCH   4   5
ATOM      5  C   UNL     1      35.353 -43.550  -0.892  1.00  0.00     0.000 C 
BRANCH   5   6
ATOM      6  C   UNL     1      34.541 -43.879  -2.154  1.00  0.00     0.000 C 
BRANCH   6   7
ATOM      7  C   UNL     1      33.873 -45.256  -2.030  1.00  0.00     0.000 C 
BRANCH   7   8
ATOM      8  C   UNL     1      32.340 -45.166  -1.965  1.00  0.00     0.000 C 
BRANCH   8   9
ATOM      9  C   UNL     1      31.652 -46.147  -2.928  1.00  0.00     0.000 C 
BRANCH   9  10
ATOM     10  C   UNL     1      32.646 -47.191  -3.453  1.00  0.00     0.000 C 
BRANCH  10  11
ATOM     11  C   UNL     1      32.195 -48.611  -3.078  1.00  0.00     0.000 C 
BRANCH  11  12
ATOM     12  C   UNL     1      33.023 -49.701  -3.777  1.00  0.00     0.000 C 
BRANCH  12  13
ATOM     13  C   UNL     1      34.538 -49.505  -3.590  1.00  0.00     0.006 C 
BRANCH  13  14
ATOM     14  C   UNL     1      35.356 -50.589  -4.304  1.00  0.00     0.053 C 
BRANCH  14  15
ATOM     15  C   UNL     1      36.694 -50.081  -4.746  1.00  0.00     0.041 C 
ATOM     16  O   UNL     1      37.000 -48.871  -4.583  1.00  0.00    -0.550 OA
ATOM     17  O   UNL     1      37.598 -50.942  -5.354  1.00  0.00    -0.550 OA
ENDBRANCH  14  15
ENDBRANCH  13  14
ENDBRANCH  12  13
ENDBRANCH  11  12
ENDBRANCH  10  11
ENDBRANCH   9  10
ENDBRANCH   8   9
ENDBRANCH   7   8
ENDBRANCH   6   7
ENDBRANCH   5   6
ENDBRANCH   4   5
ENDBRANCH   3   4
ENDBRANCH   2   3
ENDBRANCH   1   2
BRANCH   1  18
ATOM     18  C   UNL     1      33.692 -47.058   1.683  1.00  0.00     0.000 C 
BRANCH  18  19
ATOM     19  C   UNL     1      33.179 -47.761   0.408  1.00  0.00     0.000 C 
BRANCH  19  20
ATOM     20  C   UNL     1      33.563 -49.252   0.336  1.00  0.00     0.000 C 
BRANCH  20  21
ATOM     21  C   UNL     1      32.477 -50.216   0.850  1.00  0.00     0.000 C 
BRANCH  21  22
ATOM     22  C   UNL     1      32.917 -51.018   2.084  1.00  0.00     0.000 C 
BRANCH  22  23
ATOM     23  C   UNL     1      34.286 -50.544   2.587  1.00  0.00     0.000 C 
BRANCH  23  24
ATOM     24  C   UNL     1      35.112 -51.715   3.132  1.00  0.00    -0.000 C 
BRANCH  24  25
ATOM     25  C   UNL     1      36.529 -51.258   3.513  1.00  0.00    -0.000 C 
BRANCH  25  26
ATOM     26  C   UNL     1      36.585 -50.614   4.914  1.00  0.00    -0.000 C 
BRANCH  26  27
ATOM     27  C   UNL     1      37.116 -49.168   4.917  1.00  0.00    -0.000 C 
BRANCH  27  28
ATOM     28  C   UNL     1      36.348 -48.188   4.014  1.00  0.00    -0.000 C 
BRANCH  28  29
ATOM     29  C   UNL     1      37.256 -47.486   2.988  1.00  0.00    -0.000 C 
BRANCH  29  30
ATOM     30  C   UNL     1      37.058 -48.015   1.559  1.00  0.00    -0.000 C 
BRANCH  30  31
ATOM     31  C   UNL     1      37.167 -46.912   0.494  1.00  0.00    -0.003 C 
ATOM     32  C   UNL     1      36.616 -47.384  -0.848  1.00  0.00     0.004 C 
ENDBRANCH  30  31
ENDBRANCH  29  30
ENDBRANCH  28  29
ENDBRANCH  27  28
ENDBRANCH  26  27
ENDBRANCH  25  26
ENDBRANCH  24  25
ENDBRANCH  23  24
ENDBRANCH  22  23
ENDBRANCH  21  22
ENDBRANCH  20  21
ENDBRANCH  19  20
ENDBRANCH  18  19
ENDBRANCH   1  18
TORSDOF 28
ENDMDL
MODEL 5
REMARK VINA RESULT:    -3.642      2.798      6.866
REMARK INTER + INTRA:         -15.642
REMARK INTER:                 -10.724
REMARK INTRA:                  -4.919
REMARK UNBOUND:                -6.038
REMARK SMILES CCCCCCCCCCCCCCCCCCCCCCCCCCCCCC(=O)[O-]
REMARK SMILES IDX 16 1 17 2 18 3 19 4 20 5 21 6 22 7 23 8 24 9 25 10 26 11
REMARK SMILES IDX 27 12 28 13 29 14 30 15 31 16 32 17 15 18 14 19 13 20 12 21
REMARK SMILES IDX 11 22 10 23 9 24 8 25 7 26 6 27 5 28 4 29 3 30 2 31 1 32
REMARK H PARENT
REMARK Flexibility Score: inf
ROOT
ATOM      1  C   UNL     1      31.653 -42.166  -8.345  1.00  0.00     0.000 C 
ENDROOT
BRANCH   1   2
ATOM      2  C   UNL     1      30.133 -42.019  -8.115  1.00  0.00     0.000 C 
BRANCH   2   3
ATOM      3  C   UNL     1      29.611 -42.591  -6.780  1.00  0.00     0.000 C 
BRANCH   3   4
ATOM      4  C   UNL     1      29.538 -41.592  -5.605  1.00  0.00     0.000 C 
BRANCH   4   5
ATOM      5  C   UNL     1      29.788 -42.195  -4.212  1.00  0.00     0.000 C 
BRANCH   5   6
ATOM      6  C   UNL     1      28.552 -42.901  -3.635  1.00  0.00     0.000 C 
BRANCH   6   7
ATOM      7  C   UNL     1      28.932 -44.263  -3.036  1.00  0.00     0.000 C 
BRANCH   7   8
ATOM      8  C   UNL     1      30.156 -44.891  -3.722  1.00  0.00     0.000 C 
BRANCH   8   9
ATOM      9  C   UNL     1      31.164 -45.466  -2.715  1.00  0.00     0.000 C 
BRANCH   9  10
ATOM     10  C   UNL     1      32.048 -44.360  -2.126  1.00  0.00     0.000 C 
BRANCH  10  11
ATOM     11  C   UNL     1      32.796 -44.863  -0.881  1.00  0.00     0.000 C 
BRANCH  11  12
ATOM     12  C   UNL     1      32.675 -43.902   0.312  1.00  0.00     0.000 C 
BRANCH  12  13
ATOM     13  C   UNL     1      32.676 -44.636   1.665  1.00  0.00     0.006 C 
BRANCH  13  14
ATOM     14  C   UNL     1      34.056 -44.616   2.335  1.00  0.00     0.053 C 
BRANCH  14  15
ATOM     15  C   UNL     1      34.697 -45.970   2.338  1.00  0.00     0.041 C 
ATOM     16  O   UNL     1      34.005 -47.001   2.130  1.00  0.00    -0.550 OA
ATOM     17  O   UNL     1      36.057 -46.094   2.588  1.00  0.00    -0.550 OA
ENDBRANCH  14  15
ENDBRANCH  13  14
ENDBRANCH  12  13
ENDBRANCH  11  12
ENDBRANCH  10  11
ENDBRANCH   9  10
ENDBRANCH   8   9
ENDBRANCH   7   8
ENDBRANCH   6   7
ENDBRANCH   5   6
ENDBRANCH   4   5
ENDBRANCH   3   4
ENDBRANCH   2   3
ENDBRANCH   1   2
BRANCH   1  18
ATOM     18  C   UNL     1      32.463 -40.893  -8.029  1.00  0.00     0.000 C 
BRANCH  18  19
ATOM     19  C   UNL     1      33.611 -41.117  -7.022  1.00  0.00     0.000 C 
BRANCH  19  20
ATOM     20  C   UNL     1      33.145 -41.744  -5.693  1.00  0.00     0.000 C 
BRANCH  20  21
ATOM     21  C   UNL     1      33.793 -43.103  -5.368  1.00  0.00     0.000 C 
BRANCH  21  22
ATOM     22  C   UNL     1      32.947 -44.300  -5.824  1.00  0.00     0.000 C 
BRANCH  22  23
ATOM     23  C   UNL     1      33.576 -45.622  -5.370  1.00  0.00     0.000 C 
BRANCH  23  24
ATOM     24  C   UNL     1      34.915 -45.384  -4.661  1.00  0.00    -0.000 C 
BRANCH  24  25
ATOM     25  C   UNL     1      36.004 -46.317  -5.213  1.00  0.00    -0.000 C 
BRANCH  25  26
ATOM     26  C   UNL     1      35.433 -47.403  -6.148  1.00  0.00    -0.000 C 
BRANCH  26  27
ATOM     27  C   UNL     1      35.980 -48.817  -5.872  1.00  0.00    -0.000 C 
BRANCH  27  28
ATOM     28  C   UNL     1      35.747 -49.339  -4.444  1.00  0.00    -0.000 C 
BRANCH  28  29
ATOM     29  C   UNL     1      34.290 -49.770  -4.197  1.00  0.00    -0.000 C 
BRANCH  29  30
ATOM     30  C   UNL     1      33.467 -48.695  -3.471  1.00  0.00    -0.000 C 
BRANCH  30  31
ATOM     31  C   UNL     1      34.162 -48.164  -2.207  1.00  0.00    -0.003 C 
ATOM     32  C   UNL     1      33.394 -48.558  -0.949  1.00  0.00     0.004 C 
ENDBRANCH  30  31
ENDBRANCH  29  30
ENDBRANCH  28  29
ENDBRANCH  27  28
ENDBRANCH  26  27
ENDBRANCH  25  26
ENDBRANCH  24  25
ENDBRANCH  23  24
ENDBRANCH  22  23
ENDBRANCH  21  22
ENDBRANCH  20  21
ENDBRANCH  19  20
ENDBRANCH  18  19
ENDBRANCH   1  18
TORSDOF 28
ENDMDL
MODEL 6
REMARK VINA RESULT:    -3.636      2.004      5.155
REMARK INTER + INTRA:         -15.625
REMARK INTER:                  -9.792
REMARK INTRA:                  -5.834
REMARK UNBOUND:                -6.038
REMARK SMILES CCCCCCCCCCCCCCCCCCCCCCCCCCCCCC(=O)[O-]
REMARK SMILES IDX 16 1 17 2 18 3 19 4 20 5 21 6 22 7 23 8 24 9 25 10 26 11
REMARK SMILES IDX 27 12 28 13 29 14 30 15 31 16 32 17 15 18 14 19 13 20 12 21
REMARK SMILES IDX 11 22 10 23 9 24 8 25 7 26 6 27 5 28 4 29 3 30 2 31 1 32
REMARK H PARENT
REMARK Flexibility Score: inf
ROOT
ATOM      1  C   UNL     1      35.098 -47.629   0.295  1.00  0.00     0.000 C 
ENDROOT
BRANCH   1   2
ATOM      2  C   UNL     1      35.201 -48.935  -0.522  1.00  0.00     0.000 C 
BRANCH   2   3
ATOM      3  C   UNL     1      36.468 -49.068  -1.393  1.00  0.00     0.000 C 
BRANCH   3   4
ATOM      4  C   UNL     1      36.225 -49.266  -2.904  1.00  0.00     0.000 C 
BRANCH   4   5
ATOM      5  C   UNL     1      36.445 -50.697  -3.425  1.00  0.00     0.000 C 
BRANCH   5   6
ATOM      6  C   UNL     1      35.277 -51.210  -4.278  1.00  0.00     0.000 C 
BRANCH   6   7
ATOM      7  C   UNL     1      34.233 -50.104  -4.497  1.00  0.00     0.000 C 
BRANCH   7   8
ATOM      8  C   UNL     1      32.793 -50.598  -4.282  1.00  0.00     0.000 C 
BRANCH   8   9
ATOM      9  C   UNL     1      32.023 -49.740  -3.266  1.00  0.00     0.000 C 
BRANCH   9  10
ATOM     10  C   UNL     1      32.666 -48.356  -3.113  1.00  0.00     0.000 C 
BRANCH  10  11
ATOM     11  C   UNL     1      31.719 -47.255  -3.616  1.00  0.00     0.000 C 
BRANCH  11  12
ATOM     12  C   UNL     1      31.934 -45.914  -2.898  1.00  0.00     0.000 C 
BRANCH  12  13
ATOM     13  C   UNL     1      30.661 -45.050  -2.865  1.00  0.00     0.006 C 
BRANCH  13  14
ATOM     14  C   UNL     1      30.923 -43.612  -3.330  1.00  0.00     0.053 C 
BRANCH  14  15
ATOM     15  C   UNL     1      30.785 -43.470  -4.815  1.00  0.00     0.041 C 
ATOM     16  O   UNL     1      29.679 -43.145  -5.322  1.00  0.00    -0.550 OA
ATOM     17  O   UNL     1      31.875 -43.711  -5.641  1.00  0.00    -0.550 OA
ENDBRANCH  14  15
ENDBRANCH  13  14
ENDBRANCH  12  13
ENDBRANCH  11  12
ENDBRANCH  10  11
ENDBRANCH   9  10
ENDBRANCH   8   9
ENDBRANCH   7   8
ENDBRANCH   6   7
ENDBRANCH   5   6
ENDBRANCH   4   5
ENDBRANCH   3   4
ENDBRANCH   2   3
ENDBRANCH   1   2
BRANCH   1  18
ATOM     18  C   UNL     1      33.773 -46.866   0.097  1.00  0.00     0.000 C 
BRANCH  18  19
ATOM     19  C   UNL     1      33.262 -46.159   1.371  1.00  0.00     0.000 C 
BRANCH  19  20
ATOM     20  C   UNL     1      33.430 -44.628   1.328  1.00  0.00     0.000 C 
BRANCH  20  21
ATOM     21  C   UNL     1      32.843 -43.957   0.071  1.00  0.00     0.000 C 
BRANCH  21  22
ATOM     22  C   UNL     1      33.868 -43.103  -0.691  1.00  0.00     0.000 C 
BRANCH  22  23
ATOM     23  C   UNL     1      35.037 -42.707   0.218  1.00  0.00     0.000 C 
BRANCH  23  24
ATOM     24  C   UNL     1      36.385 -42.992  -0.456  1.00  0.00    -0.000 C 
BRANCH  24  25
ATOM     25  C   UNL     1      36.678 -44.500  -0.485  1.00  0.00    -0.000 C 
BRANCH  25  26
ATOM     26  C   UNL     1      37.103 -44.993  -1.884  1.00  0.00    -0.000 C 
BRANCH  26  27
ATOM     27  C   UNL     1      36.434 -44.232  -3.044  1.00  0.00    -0.000 C 
BRANCH  27  28
ATOM     28  C   UNL     1      35.246 -44.956  -3.700  1.00  0.00    -0.000 C 
BRANCH  28  29
ATOM     29  C   UNL     1      35.654 -46.273  -4.384  1.00  0.00    -0.000 C 
BRANCH  29  30
ATOM     30  C   UNL     1      34.806 -46.586  -5.627  1.00  0.00    -0.000 C 
BRANCH  30  31
ATOM     31  C   UNL     1      35.435 -47.663  -6.524  1.00  0.00    -0.003 C 
ATOM     32  C   UNL     1      36.918 -47.843  -6.214  1.00  0.00     0.004 C 
ENDBRANCH  30  31
ENDBRANCH  29  30
ENDBRANCH  28  29
ENDBRANCH  27  28
ENDBRANCH  26  27
ENDBRANCH  25  26
ENDBRANCH  24  25
ENDBRANCH  23  24
ENDBRANCH  22  23
ENDBRANCH  21  22
ENDBRANCH  20  21
ENDBRANCH  19  20
ENDBRANCH  18  19
ENDBRANCH   1  18
TORSDOF 28
ENDMDL
MODEL 7
REMARK VINA RESULT:    -3.631      4.370      8.343
REMARK INTER + INTRA:         -15.614
REMARK INTER:                  -9.128
REMARK INTRA:                  -6.486
REMARK UNBOUND:                -6.038
REMARK SMILES CCCCCCCCCCCCCCCCCCCCCCCCCCCCCC(=O)[O-]
REMARK SMILES IDX 16 1 17 2 18 3 19 4 20 5 21 6 22 7 23 8 24 9 25 10 26 11
REMARK SMILES IDX 27 12 28 13 29 14 30 15 31 16 32 17 15 18 14 19 13 20 12 21
REMARK SMILES IDX 11 22 10 23 9 24 8 25 7 26 6 27 5 28 4 29 3 30 2 31 1 32
REMARK H PARENT
REMARK Flexibility Score: inf
ROOT
ATOM      1  C   UNL     1      32.834 -44.256   0.792  1.00  0.00     0.000 C 
ENDROOT
BRANCH   1   2
ATOM      2  C   UNL     1      33.152 -45.768   0.784  1.00  0.00     0.000 C 
BRANCH   2   3
ATOM      3  C   UNL     1      33.977 -46.273   1.987  1.00  0.00     0.000 C 
BRANCH   3   4
ATOM      4  C   UNL     1      34.921 -45.237   2.634  1.00  0.00     0.000 C 
BRANCH   4   5
ATOM      5  C   UNL     1      36.377 -45.273   2.138  1.00  0.00     0.000 C 
BRANCH   5   6
ATOM      6  C   UNL     1      36.633 -44.317   0.965  1.00  0.00     0.000 C 
BRANCH   6   7
ATOM      7  C   UNL     1      37.241 -45.067  -0.229  1.00  0.00     0.000 C 
BRANCH   7   8
ATOM      8  C   UNL     1      37.297 -46.587  -0.007  1.00  0.00     0.000 C 
BRANCH   8   9
ATOM      9  C   UNL     1      36.233 -47.339  -0.820  1.00  0.00     0.000 C 
BRANCH   9  10
ATOM     10  C   UNL     1      35.848 -48.658  -0.139  1.00  0.00     0.000 C 
BRANCH  10  11
ATOM     11  C   UNL     1      36.677 -48.877   1.137  1.00  0.00     0.000 C 
BRANCH  11  12
ATOM     12  C   UNL     1      36.048 -49.911   2.084  1.00  0.00     0.000 C 
BRANCH  12  13
ATOM     13  C   UNL     1      35.303 -49.258   3.262  1.00  0.00     0.006 C 
BRANCH  13  14
ATOM     14  C   UNL     1      36.252 -48.504   4.202  1.00  0.00     0.053 C 
BRANCH  14  15
ATOM     15  C   UNL     1      37.099 -49.438   5.010  1.00  0.00     0.041 C 
ATOM     16  O   UNL     1      38.328 -49.213   5.160  1.00  0.00    -0.550 OA
ATOM     17  O   UNL     1      36.533 -50.568   5.587  1.00  0.00    -0.550 OA
ENDBRANCH  14  15
ENDBRANCH  13  14
ENDBRANCH  12  13
ENDBRANCH  11  12
ENDBRANCH  10  11
ENDBRANCH   9  10
ENDBRANCH   8   9
ENDBRANCH   7   8
ENDBRANCH   6   7
ENDBRANCH   5   6
ENDBRANCH   4   5
ENDBRANCH   3   4
ENDBRANCH   2   3
ENDBRANCH   1   2
BRANCH   1  18
ATOM     18  C   UNL     1      32.984 -43.576  -0.582  1.00  0.00     0.000 C 
BRANCH  18  19
ATOM     19  C   UNL     1      33.920 -44.327  -1.553  1.00  0.00     0.000 C 
BRANCH  19  20
ATOM     20  C   UNL     1      34.073 -43.628  -2.918  1.00  0.00     0.000 C 
BRANCH  20  21
ATOM     21  C   UNL     1      35.174 -44.220  -3.818  1.00  0.00     0.000 C 
BRANCH  21  22
ATOM     22  C   UNL     1      34.652 -44.682  -5.187  1.00  0.00     0.000 C 
BRANCH  22  23
ATOM     23  C   UNL     1      35.082 -46.124  -5.481  1.00  0.00     0.000 C 
BRANCH  23  24
ATOM     24  C   UNL     1      35.747 -46.765  -4.256  1.00  0.00    -0.000 C 
BRANCH  24  25
ATOM     25  C   UNL     1      36.086 -48.239  -4.522  1.00  0.00    -0.000 C 
BRANCH  25  26
ATOM     26  C   UNL     1      34.891 -49.024  -5.104  1.00  0.00    -0.000 C 
BRANCH  26  27
ATOM     27  C   UNL     1      34.153 -49.897  -4.071  1.00  0.00    -0.000 C 
BRANCH  27  28
ATOM     28  C   UNL     1      32.837 -49.306  -3.539  1.00  0.00    -0.000 C 
BRANCH  28  29
ATOM     29  C   UNL     1      33.049 -48.355  -2.347  1.00  0.00    -0.000 C 
BRANCH  29  30
ATOM     30  C   UNL     1      32.192 -47.083  -2.441  1.00  0.00    -0.000 C 
BRANCH  30  31
ATOM     31  C   UNL     1      31.871 -46.686  -3.890  1.00  0.00    -0.003 C 
ATOM     32  C   UNL     1      30.953 -45.468  -3.938  1.00  0.00     0.004 C 
ENDBRANCH  30  31
ENDBRANCH  29  30
ENDBRANCH  28  29
ENDBRANCH  27  28
ENDBRANCH  26  27
ENDBRANCH  25  26
ENDBRANCH  24  25
ENDBRANCH  23  24
ENDBRANCH  22  23
ENDBRANCH  21  22
ENDBRANCH  20  21
ENDBRANCH  19  20
ENDBRANCH  18  19
ENDBRANCH   1  18
TORSDOF 28
ENDMDL
MODEL 8
REMARK VINA RESULT:    -3.627      5.045      9.050
REMARK INTER + INTRA:         -15.601
REMARK INTER:                  -9.460
REMARK INTRA:                  -6.141
REMARK UNBOUND:                -6.038
REMARK SMILES CCCCCCCCCCCCCCCCCCCCCCCCCCCCCC(=O)[O-]
REMARK SMILES IDX 16 1 17 2 18 3 19 4 20 5 21 6 22 7 23 8 24 9 25 10 26 11
REMARK SMILES IDX 27 12 28 13 29 14 30 15 31 16 32 17 15 18 14 19 13 20 12 21
REMARK SMILES IDX 11 22 10 23 9 24 8 25 7 26 6 27 5 28 4 29 3 30 2 31 1 32
REMARK H PARENT
REMARK Flexibility Score: inf
ROOT
ATOM      1  C   UNL     1      34.233 -44.675   2.452  1.00  0.00     0.000 C 
ENDROOT
BRANCH   1   2
ATOM      2  C   UNL     1      34.920 -45.987   2.891  1.00  0.00     0.000 C 
BRANCH   2   3
ATOM      3  C   UNL     1      36.377 -46.159   2.413  1.00  0.00     0.000 C 
BRANCH   3   4
ATOM      4  C   UNL     1      36.773 -45.343   1.163  1.00  0.00     0.000 C 
BRANCH   4   5
ATOM      5  C   UNL     1      37.076 -46.173  -0.096  1.00  0.00     0.000 C 
BRANCH   5   6
ATOM      6  C   UNL     1      36.792 -47.670   0.091  1.00  0.00     0.000 C 
BRANCH   6   7
ATOM      7  C   UNL     1      35.603 -48.113  -0.774  1.00  0.00     0.000 C 
BRANCH   7   8
ATOM      8  C   UNL     1      34.268 -48.071  -0.013  1.00  0.00     0.000 C 
BRANCH   8   9
ATOM      9  C   UNL     1      33.870 -49.444   0.550  1.00  0.00     0.000 C 
BRANCH   9  10
ATOM     10  C   UNL     1      34.008 -49.475   2.077  1.00  0.00     0.000 C 
BRANCH  10  11
ATOM     11  C   UNL     1      35.350 -50.097   2.492  1.00  0.00     0.000 C 
BRANCH  11  12
ATOM     12  C   UNL     1      35.897 -49.509   3.802  1.00  0.00     0.000 C 
BRANCH  12  13
ATOM     13  C   UNL     1      36.698 -50.537   4.622  1.00  0.00     0.006 C 
BRANCH  13  14
ATOM     14  C   UNL     1      37.968 -50.997   3.896  1.00  0.00     0.053 C 
BRANCH  14  15
ATOM     15  C   UNL     1      38.924 -51.686   4.820  1.00  0.00     0.041 C 
ATOM     16  O   UNL     1      39.098 -52.930   4.741  1.00  0.00    -0.550 OA
ATOM     17  O   UNL     1      39.612 -50.956   5.781  1.00  0.00    -0.550 OA
ENDBRANCH  14  15
ENDBRANCH  13  14
ENDBRANCH  12  13
ENDBRANCH  11  12
ENDBRANCH  10  11
ENDBRANCH   9  10
ENDBRANCH   8   9
ENDBRANCH   7   8
ENDBRANCH   6   7
ENDBRANCH   5   6
ENDBRANCH   4   5
ENDBRANCH   3   4
ENDBRANCH   2   3
ENDBRANCH   1   2
BRANCH   1  18
ATOM     18  C   UNL     1      32.875 -44.880   1.753  1.00  0.00     0.000 C 
BRANCH  18  19
ATOM     19  C   UNL     1      32.906 -44.606   0.234  1.00  0.00     0.000 C 
BRANCH  19  20
ATOM     20  C   UNL     1      33.806 -43.416  -0.154  1.00  0.00     0.000 C 
BRANCH  20  21
ATOM     21  C   UNL     1      34.588 -43.610  -1.467  1.00  0.00     0.000 C 
BRANCH  21  22
ATOM     22  C   UNL     1      34.313 -44.963  -2.139  1.00  0.00     0.000 C 
BRANCH  22  23
ATOM     23  C   UNL     1      33.901 -44.774  -3.604  1.00  0.00     0.000 C 
BRANCH  23  24
ATOM     24  C   UNL     1      32.775 -45.741  -3.992  1.00  0.00    -0.000 C 
BRANCH  24  25
ATOM     25  C   UNL     1      32.564 -46.805  -2.905  1.00  0.00    -0.000 C 
BRANCH  25  26
ATOM     26  C   UNL     1      32.083 -48.152  -3.483  1.00  0.00    -0.000 C 
BRANCH  26  27
ATOM     27  C   UNL     1      32.992 -49.345  -3.130  1.00  0.00    -0.000 C 
BRANCH  27  28
ATOM     28  C   UNL     1      33.887 -49.845  -4.276  1.00  0.00    -0.000 C 
BRANCH  28  29
ATOM     29  C   UNL     1      35.198 -49.046  -4.401  1.00  0.00    -0.000 C 
BRANCH  29  30
ATOM     30  C   UNL     1      35.207 -48.106  -5.616  1.00  0.00    -0.000 C 
BRANCH  30  31
ATOM     31  C   UNL     1      36.250 -46.984  -5.496  1.00  0.00    -0.003 C 
ATOM     32  C   UNL     1      36.866 -46.951  -4.101  1.00  0.00     0.004 C 
ENDBRANCH  30  31
ENDBRANCH  29  30
ENDBRANCH  28  29
ENDBRANCH  27  28
ENDBRANCH  26  27
ENDBRANCH  25  26
ENDBRANCH  24  25
ENDBRANCH  23  24
ENDBRANCH  22  23
ENDBRANCH  21  22
ENDBRANCH  20  21
ENDBRANCH  19  20
ENDBRANCH  18  19
ENDBRANCH   1  18
TORSDOF 28
ENDMDL
MODEL 9
REMARK VINA RESULT:    -3.602      3.122      5.236
REMARK INTER + INTRA:         -15.535
REMARK INTER:                  -9.397
REMARK INTRA:                  -6.138
REMARK UNBOUND:                -6.038
REMARK SMILES CCCCCCCCCCCCCCCCCCCCCCCCCCCCCC(=O)[O-]
REMARK SMILES IDX 16 1 17 2 18 3 19 4 20 5 21 6 22 7 23 8 24 9 25 10 26 11
REMARK SMILES IDX 27 12 28 13 29 14 30 15 31 16 32 17 15 18 14 19 13 20 12 21
REMARK SMILES IDX 11 22 10 23 9 24 8 25 7 26 6 27 5 28 4 29 3 30 2 31 1 32
REMARK H PARENT
REMARK Flexibility Score: inf
ROOT
ATOM      1  C   UNL     1      35.251 -46.235  -2.069  1.00  0.00     0.000 C 
ENDROOT
BRANCH   1   2
ATOM      2  C   UNL     1      34.440 -47.443  -1.548  1.00  0.00     0.000 C 
BRANCH   2   3
ATOM      3  C   UNL     1      32.909 -47.315  -1.685  1.00  0.00     0.000 C 
BRANCH   3   4
ATOM      4  C   UNL     1      32.406 -46.632  -2.975  1.00  0.00     0.000 C 
BRANCH   4   5
ATOM      5  C   UNL     1      31.608 -45.334  -2.764  1.00  0.00     0.000 C 
BRANCH   5   6
ATOM      6  C   UNL     1      32.072 -44.191  -3.678  1.00  0.00     0.000 C 
BRANCH   6   7
ATOM      7  C   UNL     1      33.125 -44.686  -4.681  1.00  0.00     0.000 C 
BRANCH   7   8
ATOM      8  C   UNL     1      34.359 -43.772  -4.744  1.00  0.00     0.000 C 
BRANCH   8   9
ATOM      9  C   UNL     1      35.400 -44.261  -5.763  1.00  0.00     0.000 C 
BRANCH   9  10
ATOM     10  C   UNL     1      36.711 -44.650  -5.069  1.00  0.00     0.000 C 
BRANCH  10  11
ATOM     11  C   UNL     1      36.959 -46.163  -5.176  1.00  0.00     0.000 C 
BRANCH  11  12
ATOM     12  C   UNL     1      35.982 -46.857  -6.137  1.00  0.00     0.000 C 
BRANCH  12  13
ATOM     13  C   UNL     1      35.001 -47.793  -5.408  1.00  0.00     0.006 C 
BRANCH  13  14
ATOM     14  C   UNL     1      35.721 -48.938  -4.685  1.00  0.00     0.053 C 
BRANCH  14  15
ATOM     15  C   UNL     1      34.819 -50.113  -4.459  1.00  0.00     0.041 C 
ATOM     16  O   UNL     1      33.595 -49.938  -4.223  1.00  0.00    -0.550 OA
ATOM     17  O   UNL     1      35.334 -51.402  -4.493  1.00  0.00    -0.550 OA
ENDBRANCH  14  15
ENDBRANCH  13  14
ENDBRANCH  12  13
ENDBRANCH  11  12
ENDBRANCH  10  11
ENDBRANCH   9  10
ENDBRANCH   8   9
ENDBRANCH   7   8
ENDBRANCH   6   7
ENDBRANCH   5   6
ENDBRANCH   4   5
ENDBRANCH   3   4
ENDBRANCH   2   3
ENDBRANCH   1   2
BRANCH   1  18
ATOM     18  C   UNL     1      36.171 -45.593  -1.013  1.00  0.00     0.000 C 
BRANCH  18  19
ATOM     19  C   UNL     1      36.147 -44.049  -1.019  1.00  0.00     0.000 C 
BRANCH  19  20
ATOM     20  C   UNL     1      34.724 -43.460  -1.074  1.00  0.00     0.000 C 
BRANCH  20  21
ATOM     21  C   UNL     1      34.070 -43.241   0.303  1.00  0.00     0.000 C 
BRANCH  21  22
ATOM     22  C   UNL     1      32.802 -44.082   0.510  1.00  0.00     0.000 C 
BRANCH  22  23
ATOM     23  C   UNL     1      33.080 -45.279   1.427  1.00  0.00     0.000 C 
BRANCH  23  24
ATOM     24  C   UNL     1      34.189 -44.959   2.436  1.00  0.00    -0.000 C 
BRANCH  24  25
ATOM     25  C   UNL     1      34.797 -46.246   3.013  1.00  0.00    -0.000 C 
BRANCH  25  26
ATOM     26  C   UNL     1      35.046 -47.318   1.931  1.00  0.00    -0.000 C 
BRANCH  26  27
ATOM     27  C   UNL     1      34.258 -48.624   2.152  1.00  0.00    -0.000 C 
BRANCH  27  28
ATOM     28  C   UNL     1      35.120 -49.888   2.304  1.00  0.00    -0.000 C 
BRANCH  28  29
ATOM     29  C   UNL     1      36.611 -49.632   2.019  1.00  0.00    -0.000 C 
BRANCH  29  30
ATOM     30  C   UNL     1      37.507 -49.925   3.232  1.00  0.00    -0.000 C 
BRANCH  30  31
ATOM     31  C   UNL     1      37.666 -48.713   4.163  1.00  0.00    -0.003 C 
ATOM     32  C   UNL     1      38.903 -47.897   3.802  1.00  0.00     0.004 C 
ENDBRANCH  30  31
ENDBRANCH  29  30
ENDBRANCH  28  29
ENDBRANCH  27  28
ENDBRANCH  26  27
ENDBRANCH  25  26
ENDBRANCH  24  25
ENDBRANCH  23  24
ENDBRANCH  22  23
ENDBRANCH  21  22
ENDBRANCH  20  21
ENDBRANCH  19  20
ENDBRANCH  18  19
ENDBRANCH   1  18
TORSDOF 28
ENDMDL
