MODEL 1
REMARK VINA RESULT:    -5.388      0.000      0.000
REMARK INTER + INTRA:         -11.069
REMARK INTER:                  -9.484
REMARK INTRA:                  -1.585
REMARK UNBOUND:                -1.585
REMARK SMILES CCCCCCCCCCCCCCC(=O)[O-]
REMARK SMILES IDX 9 1 10 2 11 3 12 4 13 5 14 6 15 7 16 8 17 9 8 10 7 11 6 12
REMARK SMILES IDX 5 13 4 14 3 15 2 16 1 17
REMARK H PARENT
REMARK Flexibility Score: inf
ROOT
ATOM      1  C   UNL     1      42.410  41.446  14.714  1.00  0.00     0.000 C 
ENDROOT
BRANCH   1   2
ATOM      2  C   UNL     1      40.957  41.574  15.206  1.00  0.00     0.000 C 
BRANCH   2   3
ATOM      3  C   UNL     1      40.715  40.854  16.542  1.00  0.00     0.000 C 
BRANCH   3   4
ATOM      4  C   UNL     1      40.446  41.829  17.701  1.00  0.00     0.000 C 
BRANCH   4   5
ATOM      5  C   UNL     1      41.679  42.676  18.055  1.00  0.00     0.006 C 
BRANCH   5   6
ATOM      6  C   UNL     1      42.666  41.933  18.965  1.00  0.00     0.053 C 
BRANCH   6   7
ATOM      7  C   UNL     1      41.970  41.436  20.192  1.00  0.00     0.041 C 
ATOM      8  O   UNL     1      41.441  42.250  20.995  1.00  0.00    -0.550 OA
ATOM      9  O   UNL     1      41.951  40.077  20.478  1.00  0.00    -0.550 OA
ENDBRANCH   6   7
ENDBRANCH   5   6
ENDBRANCH   4   5
ENDBRANCH   3   4
ENDBRANCH   2   3
ENDBRANCH   1   2
BRANCH   1  10
ATOM     10  C   UNL     1      43.170  40.310  15.430  1.00  0.00     0.000 C 
BRANCH  10  11
ATOM     11  C   UNL     1      44.412  39.815  14.662  1.00  0.00    -0.000 C 
BRANCH  11  12
ATOM     12  C   UNL     1      44.419  38.308  14.354  1.00  0.00    -0.000 C 
BRANCH  12  13
ATOM     13  C   UNL     1      43.372  37.911  13.302  1.00  0.00    -0.000 C 
BRANCH  13  14
ATOM     14  C   UNL     1      42.442  36.816  13.843  1.00  0.00    -0.000 C 
BRANCH  14  15
ATOM     15  C   UNL     1      40.976  37.009  13.415  1.00  0.00    -0.000 C 
BRANCH  15  16
ATOM     16  C   UNL     1      40.481  38.466  13.441  1.00  0.00    -0.003 C 
ATOM     17  C   UNL     1      39.443  38.765  12.360  1.00  0.00     0.004 C 
ENDBRANCH  15  16
ENDBRANCH  14  15
ENDBRANCH  13  14
ENDBRANCH  12  13
ENDBRANCH  11  12
ENDBRANCH  10  11
ENDBRANCH   1  10
TORSDOF 13
ENDMDL
MODEL 2
REMARK VINA RESULT:    -5.173      2.483      3.425
REMARK INTER + INTRA:         -10.690
REMARK INTER:                  -8.958
REMARK INTRA:                  -1.732
REMARK UNBOUND:                -1.585
REMARK SMILES CCCCCCCCCCCCCCC(=O)[O-]
REMARK SMILES IDX 9 1 10 2 11 3 12 4 13 5 14 6 15 7 16 8 17 9 8 10 7 11 6 12
REMARK SMILES IDX 5 13 4 14 3 15 2 16 1 17
REMARK H PARENT
REMARK Flexibility Score: inf
ROOT
ATOM      1  C   UNL     1      40.475  40.968  17.321  1.00  0.00     0.000 C 
ENDROOT
BRANCH   1   2
ATOM      2  C   UNL     1      41.499  40.623  18.418  1.00  0.00     0.000 C 
BRANCH   2   3
ATOM      3  C   UNL     1      42.064  41.869  19.119  1.00  0.00     0.000 C 
BRANCH   3   4
ATOM      4  C   UNL     1      43.300  42.442  18.405  1.00  0.00     0.000 C 
BRANCH   4   5
ATOM      5  C   UNL     1      43.009  43.784  17.713  1.00  0.00     0.006 C 
BRANCH   5   6
ATOM      6  C   UNL     1      42.939  43.659  16.185  1.00  0.00     0.053 C 
BRANCH   6   7
ATOM      7  C   UNL     1      41.845  44.524  15.641  1.00  0.00     0.041 C 
ATOM      8  O   UNL     1      42.125  45.556  14.975  1.00  0.00    -0.550 OA
ATOM      9  O   UNL     1      40.518  44.218  15.912  1.00  0.00    -0.550 OA
ENDBRANCH   6   7
ENDBRANCH   5   6
ENDBRANCH   4   5
ENDBRANCH   3   4
ENDBRANCH   2   3
ENDBRANCH   1   2
BRANCH   1  10
ATOM     10  C   UNL     1      40.997  40.629  15.909  1.00  0.00     0.000 C 
BRANCH  10  11
ATOM     11  C   UNL     1      42.370  39.929  15.907  1.00  0.00    -0.000 C 
BRANCH  11  12
ATOM     12  C   UNL     1      43.230  40.202  14.661  1.00  0.00    -0.000 C 
BRANCH  12  13
ATOM     13  C   UNL     1      44.023  38.967  14.204  1.00  0.00    -0.000 C 
BRANCH  13  14
ATOM     14  C   UNL     1      43.217  38.145  13.189  1.00  0.00    -0.000 C 
BRANCH  14  15
ATOM     15  C   UNL     1      42.349  37.060  13.851  1.00  0.00    -0.000 C 
BRANCH  15  16
ATOM     16  C   UNL     1      40.890  37.013  13.364  1.00  0.00    -0.003 C 
ATOM     17  C   UNL     1      40.288  38.400  13.144  1.00  0.00     0.004 C 
ENDBRANCH  15  16
ENDBRANCH  14  15
ENDBRANCH  13  14
ENDBRANCH  12  13
ENDBRANCH  11  12
ENDBRANCH  10  11
ENDBRANCH   1  10
TORSDOF 13
ENDMDL
MODEL 3
REMARK VINA RESULT:    -5.089      1.266      2.159
REMARK INTER + INTRA:         -10.542
REMARK INTER:                  -9.185
REMARK INTRA:                  -1.357
REMARK UNBOUND:                -1.585
REMARK SMILES CCCCCCCCCCCCCCC(=O)[O-]
REMARK SMILES IDX 9 1 10 2 11 3 12 4 13 5 14 6 15 7 16 8 17 9 8 10 7 11 6 12
REMARK SMILES IDX 5 13 4 14 3 15 2 16 1 17
REMARK H PARENT
REMARK Flexibility Score: inf
ROOT
ATOM      1  C   UNL     1      41.697  42.729  15.282  1.00  0.00     0.000 C 
ENDROOT
BRANCH   1   2
ATOM      2  C   UNL     1      41.677  43.399  16.668  1.00  0.00     0.000 C 
BRANCH   2   3
ATOM      3  C   UNL     1      43.047  43.366  17.365  1.00  0.00     0.000 C 
BRANCH   3   4
ATOM      4  C   UNL     1      43.193  42.174  18.326  1.00  0.00     0.000 C 
BRANCH   4   5
ATOM      5  C   UNL     1      41.838  41.672  18.851  1.00  0.00     0.006 C 
BRANCH   5   6
ATOM      6  C   UNL     1      41.879  41.310  20.342  1.00  0.00     0.053 C 
BRANCH   6   7
ATOM      7  C   UNL     1      41.951  42.549  21.178  1.00  0.00     0.041 C 
ATOM      8  O   UNL     1      40.924  42.976  21.769  1.00  0.00    -0.550 OA
ATOM      9  O   UNL     1      43.141  43.262  21.263  1.00  0.00    -0.550 OA
ENDBRANCH   6   7
ENDBRANCH   5   6
ENDBRANCH   4   5
ENDBRANCH   3   4
ENDBRANCH   2   3
ENDBRANCH   1   2
BRANCH   1  10
ATOM     10  C   UNL     1      40.898  41.409  15.262  1.00  0.00     0.000 C 
BRANCH  10  11
ATOM     11  C   UNL     1      41.738  40.170  15.631  1.00  0.00    -0.000 C 
BRANCH  11  12
ATOM     12  C   UNL     1      43.187  40.198  15.114  1.00  0.00    -0.000 C 
BRANCH  12  13
ATOM     13  C   UNL     1      43.670  38.824  14.624  1.00  0.00    -0.000 C 
BRANCH  13  14
ATOM     14  C   UNL     1      42.860  38.364  13.404  1.00  0.00    -0.000 C 
BRANCH  14  15
ATOM     15  C   UNL     1      42.134  37.027  13.637  1.00  0.00    -0.000 C 
BRANCH  15  16
ATOM     16  C   UNL     1      40.603  37.090  13.495  1.00  0.00    -0.003 C 
ATOM     17  C   UNL     1      40.108  38.423  12.936  1.00  0.00     0.004 C 
ENDBRANCH  15  16
ENDBRANCH  14  15
ENDBRANCH  13  14
ENDBRANCH  12  13
ENDBRANCH  11  12
ENDBRANCH  10  11
ENDBRANCH   1  10
TORSDOF 13
ENDMDL
MODEL 4
REMARK VINA RESULT:    -4.703      3.055      4.390
REMARK INTER + INTRA:          -9.863
REMARK INTER:                  -8.249
REMARK INTRA:                  -1.615
REMARK UNBOUND:                -1.585
REMARK SMILES CCCCCCCCCCCCCCC(=O)[O-]
REMARK SMILES IDX 9 1 10 2 11 3 12 4 13 5 14 6 15 7 16 8 17 9 8 10 7 11 6 12
REMARK SMILES IDX 5 13 4 14 3 15 2 16 1 17
REMARK H PARENT
REMARK Flexibility Score: inf
ROOT
ATOM      1  C   UNL     1      41.102  42.108  18.838  1.00  0.00     0.000 C 
ENDROOT
BRANCH   1   2
ATOM      2  C   UNL     1      42.465  41.400  18.739  1.00  0.00     0.000 C 
BRANCH   2   3
ATOM      3  C   UNL     1      43.507  42.219  17.960  1.00  0.00     0.000 C 
BRANCH   3   4
ATOM      4  C   UNL     1      43.035  43.654  17.668  1.00  0.00     0.000 C 
BRANCH   4   5
ATOM      5  C   UNL     1      43.141  44.016  16.178  1.00  0.00     0.006 C 
BRANCH   5   6
ATOM      6  C   UNL     1      41.795  44.439  15.574  1.00  0.00     0.053 C 
BRANCH   6   7
ATOM      7  C   UNL     1      41.813  45.894  15.228  1.00  0.00     0.041 C 
ATOM      8  O   UNL     1      40.880  46.649  15.613  1.00  0.00    -0.550 OA
ATOM      9  O   UNL     1      42.832  46.409  14.437  1.00  0.00    -0.550 OA
ENDBRANCH   6   7
ENDBRANCH   5   6
ENDBRANCH   4   5
ENDBRANCH   3   4
ENDBRANCH   2   3
ENDBRANCH   1   2
BRANCH   1  10
ATOM     10  C   UNL     1      40.226  41.864  17.591  1.00  0.00     0.000 C 
BRANCH  10  11
ATOM     11  C   UNL     1      40.608  40.594  16.805  1.00  0.00    -0.000 C 
BRANCH  11  12
ATOM     12  C   UNL     1      40.928  40.829  15.319  1.00  0.00    -0.000 C 
BRANCH  12  13
ATOM     13  C   UNL     1      42.380  40.478  14.960  1.00  0.00    -0.000 C 
BRANCH  13  14
ATOM     14  C   UNL     1      42.574  38.957  14.887  1.00  0.00    -0.000 C 
BRANCH  14  15
ATOM     15  C   UNL     1      42.202  38.371  13.514  1.00  0.00    -0.000 C 
BRANCH  15  16
ATOM     16  C   UNL     1      40.858  37.623  13.473  1.00  0.00    -0.003 C 
ATOM     17  C   UNL     1      39.763  38.400  12.744  1.00  0.00     0.004 C 
ENDBRANCH  15  16
ENDBRANCH  14  15
ENDBRANCH  13  14
ENDBRANCH  12  13
ENDBRANCH  11  12
ENDBRANCH  10  11
ENDBRANCH   1  10
TORSDOF 13
ENDMDL
MODEL 5
REMARK VINA RESULT:    -4.679      2.957      6.417
REMARK INTER + INTRA:          -9.820
REMARK INTER:                  -8.699
REMARK INTRA:                  -1.121
REMARK UNBOUND:                -1.585
REMARK SMILES CCCCCCCCCCCCCCC(=O)[O-]
REMARK SMILES IDX 9 1 10 2 11 3 12 4 13 5 14 6 15 7 16 8 17 9 8 10 7 11 6 12
REMARK SMILES IDX 5 13 4 14 3 15 2 16 1 17
REMARK H PARENT
REMARK Flexibility Score: inf
ROOT
ATOM      1  C   UNL     1      43.387  40.044  14.951  1.00  0.00     0.000 C 
ENDROOT
BRANCH   1   2
ATOM      2  C   UNL     1      44.578  39.368  14.247  1.00  0.00     0.000 C 
BRANCH   2   3
ATOM      3  C   UNL     1      44.274  37.924  13.818  1.00  0.00     0.000 C 
BRANCH   3   4
ATOM      4  C   UNL     1      42.901  37.435  14.310  1.00  0.00     0.000 C 
BRANCH   4   5
ATOM      5  C   UNL     1      41.964  37.052  13.153  1.00  0.00     0.006 C 
BRANCH   5   6
ATOM      6  C   UNL     1      40.481  37.216  13.514  1.00  0.00     0.053 C 
BRANCH   6   7
ATOM      7  C   UNL     1      39.998  38.578  13.126  1.00  0.00     0.041 C 
ATOM      8  O   UNL     1      40.221  39.567  13.874  1.00  0.00    -0.550 OA
ATOM      9  O   UNL     1      39.257  38.749  11.963  1.00  0.00    -0.550 OA
ENDBRANCH   6   7
ENDBRANCH   5   6
ENDBRANCH   4   5
ENDBRANCH   3   4
ENDBRANCH   2   3
ENDBRANCH   1   2
BRANCH   1  10
ATOM     10  C   UNL     1      43.595  41.564  15.117  1.00  0.00     0.000 C 
BRANCH  10  11
ATOM     11  C   UNL     1      42.316  42.393  14.882  1.00  0.00    -0.000 C 
BRANCH  11  12
ATOM     12  C   UNL     1      42.056  43.486  15.933  1.00  0.00    -0.000 C 
BRANCH  12  13
ATOM     13  C   UNL     1      40.639  43.417  16.523  1.00  0.00    -0.000 C 
BRANCH  13  14
ATOM     14  C   UNL     1      40.444  42.123  17.327  1.00  0.00    -0.000 C 
BRANCH  14  15
ATOM     15  C   UNL     1      41.502  41.938  18.430  1.00  0.00    -0.000 C 
BRANCH  15  16
ATOM     16  C   UNL     1      41.782  40.475  18.818  1.00  0.00    -0.003 C 
ATOM     17  C   UNL     1      42.149  40.307  20.292  1.00  0.00     0.004 C 
ENDBRANCH  15  16
ENDBRANCH  14  15
ENDBRANCH  13  14
ENDBRANCH  12  13
ENDBRANCH  11  12
ENDBRANCH  10  11
ENDBRANCH   1  10
TORSDOF 13
ENDMDL
MODEL 6
REMARK VINA RESULT:    -4.661      2.022      2.356
REMARK INTER + INTRA:          -9.789
REMARK INTER:                  -8.573
REMARK INTRA:                  -1.216
REMARK UNBOUND:                -1.585
REMARK SMILES CCCCCCCCCCCCCCC(=O)[O-]
REMARK SMILES IDX 9 1 10 2 11 3 12 4 13 5 14 6 15 7 16 8 17 9 8 10 7 11 6 12
REMARK SMILES IDX 5 13 4 14 3 15 2 16 1 17
REMARK H PARENT
REMARK Flexibility Score: inf
ROOT
ATOM      1  C   UNL     1      41.840  41.681  15.085  1.00  0.00     0.000 C 
ENDROOT
BRANCH   1   2
ATOM      2  C   UNL     1      40.914  40.592  15.656  1.00  0.00     0.000 C 
BRANCH   2   3
ATOM      3  C   UNL     1      40.493  40.869  17.108  1.00  0.00     0.000 C 
BRANCH   3   4
ATOM      4  C   UNL     1      41.695  40.985  18.061  1.00  0.00     0.000 C 
BRANCH   4   5
ATOM      5  C   UNL     1      41.847  42.399  18.646  1.00  0.00     0.006 C 
BRANCH   5   6
ATOM      6  C   UNL     1      43.153  43.081  18.214  1.00  0.00     0.053 C 
BRANCH   6   7
ATOM      7  C   UNL     1      42.874  44.141  17.196  1.00  0.00     0.041 C 
ATOM      8  O   UNL     1      43.825  44.766  16.655  1.00  0.00    -0.550 OA
ATOM      9  O   UNL     1      41.563  44.476  16.881  1.00  0.00    -0.550 OA
ENDBRANCH   6   7
ENDBRANCH   5   6
ENDBRANCH   4   5
ENDBRANCH   3   4
ENDBRANCH   2   3
ENDBRANCH   1   2
BRANCH   1  10
ATOM     10  C   UNL     1      43.247  41.136  14.757  1.00  0.00     0.000 C 
BRANCH  10  11
ATOM     11  C   UNL     1      43.455  39.667  15.176  1.00  0.00    -0.000 C 
BRANCH  11  12
ATOM     12  C   UNL     1      44.225  38.811  14.156  1.00  0.00    -0.000 C 
BRANCH  12  13
ATOM     13  C   UNL     1      43.327  37.795  13.434  1.00  0.00    -0.000 C 
BRANCH  13  14
ATOM     14  C   UNL     1      41.859  37.973  13.847  1.00  0.00    -0.000 C 
BRANCH  14  15
ATOM     15  C   UNL     1      40.944  36.861  13.304  1.00  0.00    -0.000 C 
BRANCH  15  16
ATOM     16  C   UNL     1      39.577  37.342  12.788  1.00  0.00    -0.003 C 
ATOM     17  C   UNL     1      39.544  38.840  12.489  1.00  0.00     0.004 C 
ENDBRANCH  15  16
ENDBRANCH  14  15
ENDBRANCH  13  14
ENDBRANCH  12  13
ENDBRANCH  11  12
ENDBRANCH  10  11
ENDBRANCH   1  10
TORSDOF 13
ENDMDL
MODEL 7
REMARK VINA RESULT:    -4.628     10.359     12.567
REMARK INTER + INTRA:          -9.730
REMARK INTER:                  -8.983
REMARK INTRA:                  -0.747
REMARK UNBOUND:                -1.585
REMARK SMILES CCCCCCCCCCCCCCC(=O)[O-]
REMARK SMILES IDX 9 1 10 2 11 3 12 4 13 5 14 6 15 7 16 8 17 9 8 10 7 11 6 12
REMARK SMILES IDX 5 13 4 14 3 15 2 16 1 17
REMARK H PARENT
REMARK Flexibility Score: inf
ROOT
ATOM      1  C   UNL     1      41.635  30.238  16.864  1.00  0.00     0.000 C 
ENDROOT
BRANCH   1   2
ATOM      2  C   UNL     1      40.488  30.555  15.887  1.00  0.00     0.000 C 
BRANCH   2   3
ATOM      3  C   UNL     1      40.431  29.580  14.700  1.00  0.00     0.000 C 
BRANCH   3   4
ATOM      4  C   UNL     1      39.098  29.655  13.936  1.00  0.00     0.000 C 
BRANCH   4   5
ATOM      5  C   UNL     1      38.073  30.566  14.630  1.00  0.00     0.006 C 
BRANCH   5   6
ATOM      6  C   UNL     1      36.698  29.902  14.782  1.00  0.00     0.053 C 
BRANCH   6   7
ATOM      7  C   UNL     1      35.629  30.777  14.206  1.00  0.00     0.041 C 
ATOM      8  O   UNL     1      34.629  30.265  13.637  1.00  0.00    -0.550 OA
ATOM      9  O   UNL     1      35.762  32.159  14.253  1.00  0.00    -0.550 OA
ENDBRANCH   6   7
ENDBRANCH   5   6
ENDBRANCH   4   5
ENDBRANCH   3   4
ENDBRANCH   2   3
ENDBRANCH   1   2
BRANCH   1  10
ATOM     10  C   UNL     1      42.489  29.042  16.393  1.00  0.00     0.000 C 
BRANCH  10  11
ATOM     11  C   UNL     1      43.202  28.299  17.541  1.00  0.00    -0.000 C 
BRANCH  11  12
ATOM     12  C   UNL     1      42.813  28.772  18.952  1.00  0.00    -0.000 C 
BRANCH  12  13
ATOM     13  C   UNL     1      43.938  29.554  19.647  1.00  0.00    -0.000 C 
BRANCH  13  14
ATOM     14  C   UNL     1      44.703  28.656  20.629  1.00  0.00    -0.000 C 
BRANCH  14  15
ATOM     15  C   UNL     1      43.806  28.086  21.743  1.00  0.00    -0.000 C 
BRANCH  15  16
ATOM     16  C   UNL     1      44.127  28.599  23.158  1.00  0.00    -0.003 C 
ATOM     17  C   UNL     1      43.379  29.884  23.512  1.00  0.00     0.004 C 
ENDBRANCH  15  16
ENDBRANCH  14  15
ENDBRANCH  13  14
ENDBRANCH  12  13
ENDBRANCH  11  12
ENDBRANCH  10  11
ENDBRANCH   1  10
TORSDOF 13
ENDMDL
MODEL 8
REMARK VINA RESULT:    -4.448      9.932     11.708
REMARK INTER + INTRA:          -9.414
REMARK INTER:                  -7.880
REMARK INTRA:                  -1.534
REMARK UNBOUND:                -1.585
REMARK SMILES CCCCCCCCCCCCCCC(=O)[O-]
REMARK SMILES IDX 9 1 10 2 11 3 12 4 13 5 14 6 15 7 16 8 17 9 8 10 7 11 6 12
REMARK SMILES IDX 5 13 4 14 3 15 2 16 1 17
REMARK H PARENT
REMARK Flexibility Score: inf
ROOT
ATOM      1  C   UNL     1      40.991  27.934  13.674  1.00  0.00     0.000 C 
ENDROOT
BRANCH   1   2
ATOM      2  C   UNL     1      39.499  28.253  13.882  1.00  0.00     0.000 C 
BRANCH   2   3
ATOM      3  C   UNL     1      39.166  29.733  13.633  1.00  0.00     0.000 C 
BRANCH   3   4
ATOM      4  C   UNL     1      38.950  30.519  14.938  1.00  0.00     0.000 C 
BRANCH   4   5
ATOM      5  C   UNL     1      37.599  31.252  14.966  1.00  0.00     0.006 C 
BRANCH   5   6
ATOM      6  C   UNL     1      36.404  30.294  14.871  1.00  0.00     0.053 C 
BRANCH   6   7
ATOM      7  C   UNL     1      35.353  30.860  13.968  1.00  0.00     0.041 C 
ATOM      8  O   UNL     1      35.253  32.106  13.816  1.00  0.00    -0.550 OA
ATOM      9  O   UNL     1      34.451  30.014  13.335  1.00  0.00    -0.550 OA
ENDBRANCH   6   7
ENDBRANCH   5   6
ENDBRANCH   4   5
ENDBRANCH   3   4
ENDBRANCH   2   3
ENDBRANCH   1   2
BRANCH   1  10
ATOM     10  C   UNL     1      41.602  28.741  12.509  1.00  0.00     0.000 C 
BRANCH  10  11
ATOM     11  C   UNL     1      42.923  29.449  12.871  1.00  0.00    -0.000 C 
BRANCH  11  12
ATOM     12  C   UNL     1      43.224  29.515  14.378  1.00  0.00    -0.000 C 
BRANCH  12  13
ATOM     13  C   UNL     1      43.208  30.951  14.926  1.00  0.00    -0.000 C 
BRANCH  13  14
ATOM     14  C   UNL     1      42.761  30.971  16.394  1.00  0.00    -0.000 C 
BRANCH  14  15
ATOM     15  C   UNL     1      42.098  29.654  16.837  1.00  0.00    -0.000 C 
BRANCH  15  16
ATOM     16  C   UNL     1      42.525  29.152  18.228  1.00  0.00    -0.003 C 
ATOM     17  C   UNL     1      43.716  29.917  18.801  1.00  0.00     0.004 C 
ENDBRANCH  15  16
ENDBRANCH  14  15
ENDBRANCH  13  14
ENDBRANCH  12  13
ENDBRANCH  11  12
ENDBRANCH  10  11
ENDBRANCH   1  10
TORSDOF 13
ENDMDL
MODEL 9
REMARK VINA RESULT:    -4.383      3.616      6.425
REMARK INTER + INTRA:          -9.299
REMARK INTER:                  -7.617
REMARK INTRA:                  -1.682
REMARK UNBOUND:                -1.585
REMARK SMILES CCCCCCCCCCCCCCC(=O)[O-]
REMARK SMILES IDX 9 1 10 2 11 3 12 4 13 5 14 6 15 7 16 8 17 9 8 10 7 11 6 12
REMARK SMILES IDX 5 13 4 14 3 15 2 16 1 17
REMARK H PARENT
REMARK Flexibility Score: inf
ROOT
ATOM      1  C   UNL     1      41.516  40.628  17.866  1.00  0.00     0.000 C 
ENDROOT
BRANCH   1   2
ATOM      2  C   UNL     1      40.612  40.798  16.632  1.00  0.00     0.000 C 
BRANCH   2   3
ATOM      3  C   UNL     1      41.251  40.251  15.345  1.00  0.00     0.000 C 
BRANCH   3   4
ATOM      4  C   UNL     1      42.590  40.932  15.013  1.00  0.00     0.000 C 
BRANCH   4   5
ATOM      5  C   UNL     1      43.681  39.924  14.617  1.00  0.00     0.006 C 
BRANCH   5   6
ATOM      6  C   UNL     1      43.304  38.477  14.965  1.00  0.00     0.053 C 
BRANCH   6   7
ATOM      7  C   UNL     1      43.440  37.599  13.761  1.00  0.00     0.041 C 
ATOM      8  O   UNL     1      42.494  36.842  13.418  1.00  0.00    -0.550 OA
ATOM      9  O   UNL     1      44.631  37.579  13.046  1.00  0.00    -0.550 OA
ENDBRANCH   6   7
ENDBRANCH   5   6
ENDBRANCH   4   5
ENDBRANCH   3   4
ENDBRANCH   2   3
ENDBRANCH   1   2
BRANCH   1  10
ATOM     10  C   UNL     1      41.793  41.971  18.574  1.00  0.00     0.000 C 
BRANCH  10  11
ATOM     11  C   UNL     1      43.191  42.550  18.278  1.00  0.00    -0.000 C 
BRANCH  11  12
ATOM     12  C   UNL     1      43.199  43.754  17.320  1.00  0.00    -0.000 C 
BRANCH  12  13
ATOM     13  C   UNL     1      41.785  44.225  16.946  1.00  0.00    -0.000 C 
BRANCH  13  14
ATOM     14  C   UNL     1      41.636  44.349  15.422  1.00  0.00    -0.000 C 
BRANCH  14  15
ATOM     15  C   UNL     1      42.876  44.961  14.747  1.00  0.00    -0.000 C 
BRANCH  15  16
ATOM     16  C   UNL     1      42.617  46.277  13.993  1.00  0.00    -0.003 C 
ATOM     17  C   UNL     1      41.552  47.147  14.657  1.00  0.00     0.004 C 
ENDBRANCH  15  16
ENDBRANCH  14  15
ENDBRANCH  13  14
ENDBRANCH  12  13
ENDBRANCH  11  12
ENDBRANCH  10  11
ENDBRANCH   1  10
TORSDOF 13
ENDMDL
