MODEL 1
REMARK VINA RESULT:    -6.122      0.000      0.000
REMARK INTER + INTRA:         -12.060
REMARK INTER:                 -11.133
REMARK INTRA:                  -0.927
REMARK UNBOUND:                -0.927
REMARK SMILES CCCCCCCCCCCCCC[C@H](C)C(=O)[O-]
REMARK SMILES IDX 9 1 10 2 11 3 12 4 13 5 14 6 15 7 16 8 17 9 18 10 19 11 8 12
REMARK SMILES IDX 7 13 6 14 5 15 4 16 3 17 2 18 1 19
REMARK H PARENT
REMARK Flexibility Score: inf
ROOT
ATOM      1  C   UNL     1     101.911 306.853 197.114  1.00  0.00     0.000 C 
ENDROOT
BRANCH   1   2
ATOM      2  C   UNL     1     102.531 306.434 195.776  1.00  0.00     0.000 C 
BRANCH   2   3
ATOM      3  C   UNL     1     101.443 306.013 194.775  1.00  0.00     0.000 C 
BRANCH   3   4
ATOM      4  C   UNL     1     101.990 305.829 193.350  1.00  0.00     0.000 C 
BRANCH   4   5
ATOM      5  C   UNL     1     103.463 306.253 193.221  1.00  0.00     0.001 C 
BRANCH   5   6
ATOM      6  C   UNL     1     103.624 307.558 192.410  1.00  0.00     0.009 C 
BRANCH   6   7
ATOM      7  C   UNL     1     102.278 308.205 192.003  1.00  0.00     0.032 C 
ATOM      8  C   UNL     1     102.206 308.515 190.504  1.00  0.00     0.014 C 
BRANCH   7   9
ATOM      9  C   UNL     1     102.060 309.470 192.787  1.00  0.00     0.044 C 
ATOM     10  O   UNL     1     102.119 310.589 192.210  1.00  0.00    -0.550 OA
ATOM     11  O   UNL     1     101.820 309.418 194.156  1.00  0.00    -0.550 OA
ENDBRANCH   7   9
ENDBRANCH   6   7
ENDBRANCH   5   6
ENDBRANCH   4   5
ENDBRANCH   3   4
ENDBRANCH   2   3
ENDBRANCH   1   2
BRANCH   1  12
ATOM     12  C   UNL     1     101.750 305.646 198.050  1.00  0.00     0.000 C 
BRANCH  12  13
ATOM     13  C   UNL     1     101.898 306.019 199.536  1.00  0.00    -0.000 C 
BRANCH  13  14
ATOM     14  C   UNL     1     100.595 305.945 200.357  1.00  0.00    -0.000 C 
BRANCH  14  15
ATOM     15  C   UNL     1     100.770 306.105 201.880  1.00  0.00    -0.000 C 
BRANCH  15  16
ATOM     16  C   UNL     1     102.201 305.878 202.401  1.00  0.00    -0.000 C 
BRANCH  16  17
ATOM     17  C   UNL     1     102.265 304.841 203.536  1.00  0.00    -0.000 C 
BRANCH  17  18
ATOM     18  C   UNL     1     102.485 305.490 204.912  1.00  0.00    -0.003 C 
ATOM     19  C   UNL     1     101.269 305.361 205.830  1.00  0.00     0.004 C 
ENDBRANCH  17  18
ENDBRANCH  16  17
ENDBRANCH  15  16
ENDBRANCH  14  15
ENDBRANCH  13  14
ENDBRANCH  12  13
ENDBRANCH   1  12
TORSDOF 14
ENDMDL
MODEL 2
REMARK VINA RESULT:    -6.098     19.709     22.153
REMARK INTER + INTRA:         -12.016
REMARK INTER:                 -10.957
REMARK INTRA:                  -1.059
REMARK UNBOUND:                -0.927
REMARK SMILES CCCCCCCCCCCCCC[C@H](C)C(=O)[O-]
REMARK SMILES IDX 9 1 10 2 11 3 12 4 13 5 14 6 15 7 16 8 17 9 18 10 19 11 8 12
REMARK SMILES IDX 7 13 6 14 5 15 4 16 3 17 2 18 1 19
REMARK H PARENT
REMARK Flexibility Score: inf
ROOT
ATOM      1  C   UNL     1      87.095 319.336 197.824  1.00  0.00     0.000 C 
ENDROOT
BRANCH   1   2
ATOM      2  C   UNL     1      86.922 320.754 198.380  1.00  0.00     0.000 C 
BRANCH   2   3
ATOM      3  C   UNL     1      87.625 320.901 199.739  1.00  0.00     0.000 C 
BRANCH   3   4
ATOM      4  C   UNL     1      87.601 319.602 200.559  1.00  0.00     0.000 C 
BRANCH   4   5
ATOM      5  C   UNL     1      86.811 319.744 201.872  1.00  0.00     0.001 C 
BRANCH   5   6
ATOM      6  C   UNL     1      87.727 319.660 203.114  1.00  0.00     0.009 C 
BRANCH   6   7
ATOM      7  C   UNL     1      88.252 321.034 203.592  1.00  0.00     0.032 C 
ATOM      8  C   UNL     1      89.730 321.250 203.245  1.00  0.00     0.014 C 
BRANCH   7   9
ATOM      9  C   UNL     1      88.063 321.166 205.079  1.00  0.00     0.044 C 
ATOM     10  O   UNL     1      88.993 321.625 205.795  1.00  0.00    -0.550 OA
ATOM     11  O   UNL     1      86.876 320.758 205.676  1.00  0.00    -0.550 OA
ENDBRANCH   7   9
ENDBRANCH   6   7
ENDBRANCH   5   6
ENDBRANCH   4   5
ENDBRANCH   3   4
ENDBRANCH   2   3
ENDBRANCH   1   2
BRANCH   1  12
ATOM     12  C   UNL     1      87.323 319.362 196.305  1.00  0.00     0.000 C 
BRANCH  12  13
ATOM     13  C   UNL     1      87.249 320.781 195.714  1.00  0.00    -0.000 C 
BRANCH  13  14
ATOM     14  C   UNL     1      86.519 320.884 194.360  1.00  0.00    -0.000 C 
BRANCH  14  15
ATOM     15  C   UNL     1      85.101 320.278 194.332  1.00  0.00    -0.000 C 
BRANCH  15  16
ATOM     16  C   UNL     1      84.926 319.070 193.394  1.00  0.00    -0.000 C 
BRANCH  16  17
ATOM     17  C   UNL     1      86.098 318.902 192.412  1.00  0.00    -0.000 C 
BRANCH  17  18
ATOM     18  C   UNL     1      86.125 317.510 191.762  1.00  0.00    -0.003 C 
ATOM     19  C   UNL     1      86.522 317.552 190.286  1.00  0.00     0.004 C 
ENDBRANCH  17  18
ENDBRANCH  16  17
ENDBRANCH  15  16
ENDBRANCH  14  15
ENDBRANCH  13  14
ENDBRANCH  12  13
ENDBRANCH   1  12
TORSDOF 14
ENDMDL
MODEL 3
REMARK VINA RESULT:    -6.097      3.547      9.871
REMARK INTER + INTRA:         -12.015
REMARK INTER:                 -11.000
REMARK INTRA:                  -1.015
REMARK UNBOUND:                -0.927
REMARK SMILES CCCCCCCCCCCCCC[C@H](C)C(=O)[O-]
REMARK SMILES IDX 9 1 10 2 11 3 12 4 13 5 14 6 15 7 16 8 17 9 18 10 19 11 8 12
REMARK SMILES IDX 7 13 6 14 5 15 4 16 3 17 2 18 1 19
REMARK H PARENT
REMARK Flexibility Score: inf
ROOT
ATOM      1  C   UNL     1     101.840 307.180 196.990  1.00  0.00     0.000 C 
ENDROOT
BRANCH   1   2
ATOM      2  C   UNL     1     101.910 305.732 197.490  1.00  0.00     0.000 C 
BRANCH   2   3
ATOM      3  C   UNL     1     101.514 305.643 198.972  1.00  0.00     0.000 C 
BRANCH   3   4
ATOM      4  C   UNL     1     101.648 306.990 199.701  1.00  0.00     0.000 C 
BRANCH   4   5
ATOM      5  C   UNL     1     102.540 306.900 200.952  1.00  0.00     0.001 C 
BRANCH   5   6
ATOM      6  C   UNL     1     102.255 305.626 201.779  1.00  0.00     0.009 C 
BRANCH   6   7
ATOM      7  C   UNL     1     101.646 305.914 203.171  1.00  0.00     0.032 C 
ATOM      8  C   UNL     1     102.349 305.137 204.291  1.00  0.00     0.014 C 
BRANCH   7   9
ATOM      9  C   UNL     1     100.181 305.573 203.171  1.00  0.00     0.044 C 
ATOM     10  O   UNL     1      99.641 305.106 202.132  1.00  0.00    -0.550 OA
ATOM     11  O   UNL     1      99.406 305.795 204.304  1.00  0.00    -0.550 OA
ENDBRANCH   7   9
ENDBRANCH   6   7
ENDBRANCH   5   6
ENDBRANCH   4   5
ENDBRANCH   3   4
ENDBRANCH   2   3
ENDBRANCH   1   2
BRANCH   1  12
ATOM     12  C   UNL     1     102.168 307.263 195.491  1.00  0.00     0.000 C 
BRANCH  12  13
ATOM     13  C   UNL     1     101.462 306.176 194.663  1.00  0.00    -0.000 C 
BRANCH  13  14
ATOM     14  C   UNL     1     102.197 305.762 193.372  1.00  0.00    -0.000 C 
BRANCH  14  15
ATOM     15  C   UNL     1     103.675 306.193 193.292  1.00  0.00    -0.000 C 
BRANCH  15  16
ATOM     16  C   UNL     1     103.974 307.318 192.284  1.00  0.00    -0.000 C 
BRANCH  16  17
ATOM     17  C   UNL     1     102.698 307.964 191.717  1.00  0.00    -0.000 C 
BRANCH  17  18
ATOM     18  C   UNL     1     102.995 308.931 190.559  1.00  0.00    -0.003 C 
ATOM     19  C   UNL     1     101.776 309.182 189.670  1.00  0.00     0.004 C 
ENDBRANCH  17  18
ENDBRANCH  16  17
ENDBRANCH  15  16
ENDBRANCH  14  15
ENDBRANCH  13  14
ENDBRANCH  12  13
ENDBRANCH   1  12
TORSDOF 14
ENDMDL
MODEL 4
REMARK VINA RESULT:    -6.079      3.628     10.050
REMARK INTER + INTRA:         -11.982
REMARK INTER:                 -11.106
REMARK INTRA:                  -0.876
REMARK UNBOUND:                -0.927
REMARK SMILES CCCCCCCCCCCCCC[C@H](C)C(=O)[O-]
REMARK SMILES IDX 9 1 10 2 11 3 12 4 13 5 14 6 15 7 16 8 17 9 18 10 19 11 8 12
REMARK SMILES IDX 7 13 6 14 5 15 4 16 3 17 2 18 1 19
REMARK H PARENT
REMARK Flexibility Score: inf
ROOT
ATOM      1  C   UNL     1     101.732 307.364 195.230  1.00  0.00     0.000 C 
ENDROOT
BRANCH   1   2
ATOM      2  C   UNL     1     101.630 307.304 196.759  1.00  0.00     0.000 C 
BRANCH   2   3
ATOM      3  C   UNL     1     102.254 306.009 197.301  1.00  0.00     0.000 C 
BRANCH   3   4
ATOM      4  C   UNL     1     101.546 305.494 198.564  1.00  0.00     0.000 C 
BRANCH   4   5
ATOM      5  C   UNL     1     101.434 306.568 199.660  1.00  0.00     0.001 C 
BRANCH   5   6
ATOM      6  C   UNL     1     102.430 306.324 200.816  1.00  0.00     0.009 C 
BRANCH   6   7
ATOM      7  C   UNL     1     101.830 305.517 201.991  1.00  0.00     0.032 C 
ATOM      8  C   UNL     1     100.300 305.600 202.039  1.00  0.00     0.014 C 
BRANCH   7   9
ATOM      9  C   UNL     1     102.398 306.009 203.295  1.00  0.00     0.044 C 
ATOM     10  O   UNL     1     103.030 307.098 203.337  1.00  0.00    -0.550 OA
ATOM     11  O   UNL     1     102.254 305.254 204.454  1.00  0.00    -0.550 OA
ENDBRANCH   7   9
ENDBRANCH   6   7
ENDBRANCH   5   6
ENDBRANCH   4   5
ENDBRANCH   3   4
ENDBRANCH   2   3
ENDBRANCH   1   2
BRANCH   1  12
ATOM     12  C   UNL     1     101.483 305.983 194.605  1.00  0.00     0.000 C 
BRANCH  12  13
ATOM     13  C   UNL     1     102.014 305.873 193.166  1.00  0.00    -0.000 C 
BRANCH  13  14
ATOM     14  C   UNL     1     103.490 306.281 192.985  1.00  0.00    -0.000 C 
BRANCH  14  15
ATOM     15  C   UNL     1     103.720 307.562 192.161  1.00  0.00    -0.000 C 
BRANCH  15  16
ATOM     16  C   UNL     1     102.444 308.221 191.605  1.00  0.00    -0.000 C 
BRANCH  16  17
ATOM     17  C   UNL     1     102.710 309.072 190.352  1.00  0.00    -0.000 C 
BRANCH  17  18
ATOM     18  C   UNL     1     101.495 309.126 189.411  1.00  0.00    -0.003 C 
ATOM     19  C   UNL     1     101.769 309.923 188.135  1.00  0.00     0.004 C 
ENDBRANCH  17  18
ENDBRANCH  16  17
ENDBRANCH  15  16
ENDBRANCH  14  15
ENDBRANCH  13  14
ENDBRANCH  12  13
ENDBRANCH   1  12
TORSDOF 14
ENDMDL
MODEL 5
REMARK VINA RESULT:    -5.992     19.087     21.531
REMARK INTER + INTRA:         -11.824
REMARK INTER:                 -10.414
REMARK INTRA:                  -1.410
REMARK UNBOUND:                -0.927
REMARK SMILES CCCCCCCCCCCCCC[C@H](C)C(=O)[O-]
REMARK SMILES IDX 9 1 10 2 11 3 12 4 13 5 14 6 15 7 16 8 17 9 18 10 19 11 8 12
REMARK SMILES IDX 7 13 6 14 5 15 4 16 3 17 2 18 1 19
REMARK H PARENT
REMARK Flexibility Score: inf
ROOT
ATOM      1  C   UNL     1      87.357 320.652 195.606  1.00  0.00     0.000 C 
ENDROOT
BRANCH   1   2
ATOM      2  C   UNL     1      86.483 320.264 196.805  1.00  0.00     0.000 C 
BRANCH   2   3
ATOM      3  C   UNL     1      86.987 320.937 198.091  1.00  0.00     0.000 C 
BRANCH   3   4
ATOM      4  C   UNL     1      87.421 319.920 199.159  1.00  0.00     0.000 C 
BRANCH   4   5
ATOM      5  C   UNL     1      88.087 320.586 200.376  1.00  0.00     0.001 C 
BRANCH   5   6
ATOM      6  C   UNL     1      87.234 320.443 201.656  1.00  0.00     0.009 C 
BRANCH   6   7
ATOM      7  C   UNL     1      87.936 320.966 202.931  1.00  0.00     0.032 C 
ATOM      8  C   UNL     1      89.451 321.112 202.748  1.00  0.00     0.014 C 
BRANCH   7   9
ATOM      9  C   UNL     1      87.659 320.041 204.085  1.00  0.00     0.044 C 
ATOM     10  O   UNL     1      87.198 318.888 203.874  1.00  0.00    -0.550 OA
ATOM     11  O   UNL     1      87.883 320.461 205.392  1.00  0.00    -0.550 OA
ENDBRANCH   7   9
ENDBRANCH   6   7
ENDBRANCH   5   6
ENDBRANCH   4   5
ENDBRANCH   3   4
ENDBRANCH   2   3
ENDBRANCH   1   2
BRANCH   1  12
ATOM     12  C   UNL     1      86.495 321.020 194.389  1.00  0.00     0.000 C 
BRANCH  12  13
ATOM     13  C   UNL     1      85.074 320.433 194.465  1.00  0.00    -0.000 C 
BRANCH  13  14
ATOM     14  C   UNL     1      84.775 319.319 193.441  1.00  0.00    -0.000 C 
BRANCH  14  15
ATOM     15  C   UNL     1      85.998 318.806 192.655  1.00  0.00    -0.000 C 
BRANCH  15  16
ATOM     16  C   UNL     1      86.403 317.351 192.953  1.00  0.00    -0.000 C 
BRANCH  16  17
ATOM     17  C   UNL     1      86.009 316.901 194.370  1.00  0.00    -0.000 C 
BRANCH  17  18
ATOM     18  C   UNL     1      87.157 317.066 195.379  1.00  0.00    -0.003 C 
ATOM     19  C   UNL     1      86.859 316.410 196.728  1.00  0.00     0.004 C 
ENDBRANCH  17  18
ENDBRANCH  16  17
ENDBRANCH  15  16
ENDBRANCH  14  15
ENDBRANCH  13  14
ENDBRANCH  12  13
ENDBRANCH   1  12
TORSDOF 14
ENDMDL
MODEL 6
REMARK VINA RESULT:    -5.954     19.886     22.332
REMARK INTER + INTRA:         -11.755
REMARK INTER:                 -10.895
REMARK INTRA:                  -0.860
REMARK UNBOUND:                -0.927
REMARK SMILES CCCCCCCCCCCCCC[C@H](C)C(=O)[O-]
REMARK SMILES IDX 9 1 10 2 11 3 12 4 13 5 14 6 15 7 16 8 17 9 18 10 19 11 8 12
REMARK SMILES IDX 7 13 6 14 5 15 4 16 3 17 2 18 1 19
REMARK H PARENT
REMARK Flexibility Score: inf
ROOT
ATOM      1  C   UNL     1      87.249 319.090 199.081  1.00  0.00     0.000 C 
ENDROOT
BRANCH   1   2
ATOM      2  C   UNL     1      87.631 320.490 199.578  1.00  0.00     0.000 C 
BRANCH   2   3
ATOM      3  C   UNL     1      87.704 320.527 201.113  1.00  0.00     0.000 C 
BRANCH   3   4
ATOM      4  C   UNL     1      89.101 320.907 201.629  1.00  0.00     0.000 C 
BRANCH   4   5
ATOM      5  C   UNL     1      89.151 321.041 203.161  1.00  0.00     0.001 C 
BRANCH   5   6
ATOM      6  C   UNL     1      87.768 321.382 203.760  1.00  0.00     0.009 C 
BRANCH   6   7
ATOM      7  C   UNL     1      87.705 321.235 205.299  1.00  0.00     0.032 C 
ATOM      8  C   UNL     1      89.073 321.430 205.963  1.00  0.00     0.014 C 
BRANCH   7   9
ATOM      9  C   UNL     1      87.162 319.881 205.663  1.00  0.00     0.044 C 
ATOM     10  O   UNL     1      86.553 319.191 204.801  1.00  0.00    -0.550 OA
ATOM     11  O   UNL     1      87.300 319.392 206.957  1.00  0.00    -0.550 OA
ENDBRANCH   7   9
ENDBRANCH   6   7
ENDBRANCH   5   6
ENDBRANCH   4   5
ENDBRANCH   3   4
ENDBRANCH   2   3
ENDBRANCH   1   2
BRANCH   1  12
ATOM     12  C   UNL     1      87.267 319.025 197.547  1.00  0.00     0.000 C 
BRANCH  12  13
ATOM     13  C   UNL     1      86.625 320.259 196.889  1.00  0.00    -0.000 C 
BRANCH  13  14
ATOM     14  C   UNL     1      87.346 320.771 195.626  1.00  0.00    -0.000 C 
BRANCH  14  15
ATOM     15  C   UNL     1      86.456 320.917 194.376  1.00  0.00    -0.000 C 
BRANCH  15  16
ATOM     16  C   UNL     1      85.098 320.195 194.453  1.00  0.00    -0.000 C 
BRANCH  16  17
ATOM     17  C   UNL     1      85.000 319.005 193.482  1.00  0.00    -0.000 C 
BRANCH  17  18
ATOM     18  C   UNL     1      86.173 318.958 192.491  1.00  0.00    -0.003 C 
ATOM     19  C   UNL     1      85.948 317.962 191.353  1.00  0.00     0.004 C 
ENDBRANCH  17  18
ENDBRANCH  16  17
ENDBRANCH  15  16
ENDBRANCH  14  15
ENDBRANCH  13  14
ENDBRANCH  12  13
ENDBRANCH   1  12
TORSDOF 14
ENDMDL
MODEL 7
REMARK VINA RESULT:    -5.908      3.869     10.094
REMARK INTER + INTRA:         -11.671
REMARK INTER:                 -10.764
REMARK INTRA:                  -0.907
REMARK UNBOUND:                -0.927
REMARK SMILES CCCCCCCCCCCCCC[C@H](C)C(=O)[O-]
REMARK SMILES IDX 9 1 10 2 11 3 12 4 13 5 14 6 15 7 16 8 17 9 18 10 19 11 8 12
REMARK SMILES IDX 7 13 6 14 5 15 4 16 3 17 2 18 1 19
REMARK H PARENT
REMARK Flexibility Score: inf
ROOT
ATOM      1  C   UNL     1     101.602 306.060 198.467  1.00  0.00     0.000 C 
ENDROOT
BRANCH   1   2
ATOM      2  C   UNL     1     102.261 305.923 199.845  1.00  0.00     0.000 C 
BRANCH   2   3
ATOM      3  C   UNL     1     101.356 306.501 200.945  1.00  0.00     0.000 C 
BRANCH   3   4
ATOM      4  C   UNL     1     100.330 305.481 201.462  1.00  0.00     0.000 C 
BRANCH   4   5
ATOM      5  C   UNL     1     100.593 305.062 202.919  1.00  0.00     0.001 C 
BRANCH   5   6
ATOM      6  C   UNL     1     102.098 305.084 203.268  1.00  0.00     0.009 C 
BRANCH   6   7
ATOM      7  C   UNL     1     102.384 305.053 204.788  1.00  0.00     0.032 C 
ATOM      8  C   UNL     1     101.107 305.181 205.627  1.00  0.00     0.014 C 
BRANCH   7   9
ATOM      9  C   UNL     1     103.335 306.159 205.154  1.00  0.00     0.044 C 
ATOM     10  O   UNL     1     103.794 306.236 206.325  1.00  0.00    -0.550 OA
ATOM     11  O   UNL     1     103.694 307.118 204.213  1.00  0.00    -0.550 OA
ENDBRANCH   7   9
ENDBRANCH   6   7
ENDBRANCH   5   6
ENDBRANCH   4   5
ENDBRANCH   3   4
ENDBRANCH   2   3
ENDBRANCH   1   2
BRANCH   1  12
ATOM     12  C   UNL     1     101.689 307.505 197.954  1.00  0.00     0.000 C 
BRANCH  12  13
ATOM     13  C   UNL     1     101.829 307.589 196.424  1.00  0.00    -0.000 C 
BRANCH  13  14
ATOM     14  C   UNL     1     102.153 306.253 195.727  1.00  0.00    -0.000 C 
BRANCH  14  15
ATOM     15  C   UNL     1     103.559 306.162 195.102  1.00  0.00    -0.000 C 
BRANCH  15  16
ATOM     16  C   UNL     1     103.587 306.045 193.567  1.00  0.00    -0.000 C 
BRANCH  16  17
ATOM     17  C   UNL     1     102.224 306.350 192.922  1.00  0.00    -0.000 C 
BRANCH  17  18
ATOM     18  C   UNL     1     102.183 307.739 192.265  1.00  0.00    -0.003 C 
ATOM     19  C   UNL     1     103.508 308.121 191.605  1.00  0.00     0.004 C 
ENDBRANCH  17  18
ENDBRANCH  16  17
ENDBRANCH  15  16
ENDBRANCH  14  15
ENDBRANCH  13  14
ENDBRANCH  12  13
ENDBRANCH   1  12
TORSDOF 14
ENDMDL
MODEL 8
REMARK VINA RESULT:    -5.893      4.283      6.374
REMARK INTER + INTRA:         -11.644
REMARK INTER:                  -9.474
REMARK INTRA:                  -2.169
REMARK UNBOUND:                -0.927
REMARK SMILES CCCCCCCCCCCCCC[C@H](C)C(=O)[O-]
REMARK SMILES IDX 9 1 10 2 11 3 12 4 13 5 14 6 15 7 16 8 17 9 18 10 19 11 8 12
REMARK SMILES IDX 7 13 6 14 5 15 4 16 3 17 2 18 1 19
REMARK H PARENT
REMARK Flexibility Score: inf
ROOT
ATOM      1  C   UNL     1     101.856 305.927 194.019  1.00  0.00     0.000 C 
ENDROOT
BRANCH   1   2
ATOM      2  C   UNL     1     102.220 306.341 192.587  1.00  0.00     0.000 C 
BRANCH   2   3
ATOM      3  C   UNL     1     103.538 307.131 192.562  1.00  0.00     0.000 C 
BRANCH   3   4
ATOM      4  C   UNL     1     103.607 308.129 191.396  1.00  0.00     0.000 C 
BRANCH   4   5
ATOM      5  C   UNL     1     102.222 308.450 190.808  1.00  0.00     0.001 C 
BRANCH   5   6
ATOM      6  C   UNL     1     102.209 309.798 190.053  1.00  0.00     0.009 C 
BRANCH   6   7
ATOM      7  C   UNL     1     101.737 309.683 188.584  1.00  0.00     0.032 C 
ATOM      8  C   UNL     1     102.644 310.448 187.614  1.00  0.00     0.014 C 
BRANCH   7   9
ATOM      9  C   UNL     1     100.327 310.192 188.457  1.00  0.00     0.044 C 
ATOM     10  O   UNL     1      99.413 309.427 188.052  1.00  0.00    -0.550 OA
ATOM     11  O   UNL     1     100.028 311.517 188.758  1.00  0.00    -0.550 OA
ENDBRANCH   7   9
ENDBRANCH   6   7
ENDBRANCH   5   6
ENDBRANCH   4   5
ENDBRANCH   3   4
ENDBRANCH   2   3
ENDBRANCH   1   2
BRANCH   1  12
ATOM     12  C   UNL     1     102.971 306.309 195.004  1.00  0.00     0.000 C 
BRANCH  12  13
ATOM     13  C   UNL     1     102.520 306.239 196.473  1.00  0.00    -0.000 C 
BRANCH  13  14
ATOM     14  C   UNL     1     101.736 307.470 196.971  1.00  0.00    -0.000 C 
BRANCH  14  15
ATOM     15  C   UNL     1     102.212 308.823 196.408  1.00  0.00    -0.000 C 
BRANCH  15  16
ATOM     16  C   UNL     1     101.201 309.545 195.498  1.00  0.00    -0.000 C 
BRANCH  16  17
ATOM     17  C   UNL     1     101.803 309.949 194.141  1.00  0.00    -0.000 C 
BRANCH  17  18
ATOM     18  C   UNL     1     103.264 310.410 194.261  1.00  0.00    -0.003 C 
ATOM     19  C   UNL     1     103.659 311.416 193.179  1.00  0.00     0.004 C 
ENDBRANCH  17  18
ENDBRANCH  16  17
ENDBRANCH  15  16
ENDBRANCH  14  15
ENDBRANCH  13  14
ENDBRANCH  12  13
ENDBRANCH   1  12
TORSDOF 14
ENDMDL
MODEL 9
REMARK VINA RESULT:    -5.891     19.223     20.224
REMARK INTER + INTRA:         -11.639
REMARK INTER:                 -10.720
REMARK INTRA:                  -0.920
REMARK UNBOUND:                -0.927
REMARK SMILES CCCCCCCCCCCCCC[C@H](C)C(=O)[O-]
REMARK SMILES IDX 9 1 10 2 11 3 12 4 13 5 14 6 15 7 16 8 17 9 18 10 19 11 8 12
REMARK SMILES IDX 7 13 6 14 5 15 4 16 3 17 2 18 1 19
REMARK H PARENT
REMARK Flexibility Score: inf
ROOT
ATOM      1  C   UNL     1      86.659 320.244 197.560  1.00  0.00     0.000 C 
ENDROOT
BRANCH   1   2
ATOM      2  C   UNL     1      87.593 320.322 196.346  1.00  0.00     0.000 C 
BRANCH   2   3
ATOM      3  C   UNL     1      86.845 320.848 195.111  1.00  0.00     0.000 C 
BRANCH   3   4
ATOM      4  C   UNL     1      85.360 320.453 195.107  1.00  0.00     0.000 C 
BRANCH   4   5
ATOM      5  C   UNL     1      84.899 319.893 193.750  1.00  0.00     0.001 C 
BRANCH   5   6
ATOM      6  C   UNL     1      86.088 319.440 192.874  1.00  0.00     0.009 C 
BRANCH   6   7
ATOM      7  C   UNL     1      86.041 317.942 192.490  1.00  0.00     0.032 C 
ATOM      8  C   UNL     1      84.792 317.584 191.676  1.00  0.00     0.014 C 
BRANCH   7   9
ATOM      9  C   UNL     1      86.088 317.093 193.731  1.00  0.00     0.044 C 
ATOM     10  O   UNL     1      87.013 317.253 194.572  1.00  0.00    -0.550 OA
ATOM     11  O   UNL     1      85.130 316.107 193.947  1.00  0.00    -0.550 OA
ENDBRANCH   7   9
ENDBRANCH   6   7
ENDBRANCH   5   6
ENDBRANCH   4   5
ENDBRANCH   3   4
ENDBRANCH   2   3
ENDBRANCH   1   2
BRANCH   1  12
ATOM     12  C   UNL     1      87.243 321.010 198.756  1.00  0.00     0.000 C 
BRANCH  12  13
ATOM     13  C   UNL     1      87.652 320.086 199.916  1.00  0.00    -0.000 C 
BRANCH  13  14
ATOM     14  C   UNL     1      87.731 320.770 201.296  1.00  0.00    -0.000 C 
BRANCH  14  15
ATOM     15  C   UNL     1      89.146 320.864 201.900  1.00  0.00    -0.000 C 
BRANCH  15  16
ATOM     16  C   UNL     1      89.197 321.253 203.389  1.00  0.00    -0.000 C 
BRANCH  16  17
ATOM     17  C   UNL     1      87.803 321.517 203.983  1.00  0.00    -0.000 C 
BRANCH  17  18
ATOM     18  C   UNL     1      87.759 321.285 205.502  1.00  0.00    -0.003 C 
ATOM     19  C   UNL     1      86.816 320.149 205.901  1.00  0.00     0.004 C 
ENDBRANCH  17  18
ENDBRANCH  16  17
ENDBRANCH  15  16
ENDBRANCH  14  15
ENDBRANCH  13  14
ENDBRANCH  12  13
ENDBRANCH   1  12
TORSDOF 14
ENDMDL
