MODEL 1
REMARK VINA RESULT:    -4.189      0.000      0.000
REMARK INTER + INTRA:         -10.912
REMARK INTER:                  -8.106
REMARK INTRA:                  -2.806
REMARK UNBOUND:                -2.806
REMARK SMILES CCCCCCCCCCCCCCCCCC(=O)[O-]
REMARK SMILES IDX 10 1 11 2 12 3 13 4 14 5 15 6 16 7 17 8 18 9 19 10 20 11
REMARK SMILES IDX 9 12 8 13 7 14 6 15 5 16 4 17 3 18 2 19 1 20
REMARK H PARENT
REMARK Flexibility Score: inf
ROOT
ATOM      1  C   UNL     1     -50.491  11.894 -29.610  1.00  0.00     0.000 C 
ENDROOT
BRANCH   1   2
ATOM      2  C   UNL     1     -51.112  12.724 -28.474  1.00  0.00     0.000 C 
BRANCH   2   3
ATOM      3  C   UNL     1     -51.982  13.882 -28.996  1.00  0.00     0.000 C 
BRANCH   3   4
ATOM      4  C   UNL     1     -51.634  14.271 -30.443  1.00  0.00     0.000 C 
BRANCH   4   5
ATOM      5  C   UNL     1     -52.743  15.094 -31.116  1.00  0.00     0.000 C 
BRANCH   5   6
ATOM      6  C   UNL     1     -53.985  15.179 -30.215  1.00  0.00     0.000 C 
BRANCH   6   7
ATOM      7  C   UNL     1     -54.491  16.619 -30.036  1.00  0.00     0.006 C 
BRANCH   7   8
ATOM      8  C   UNL     1     -53.633  17.646 -30.785  1.00  0.00     0.053 C 
BRANCH   8   9
ATOM      9  C   UNL     1     -53.804  19.006 -30.183  1.00  0.00     0.041 C 
ATOM     10  O   UNL     1     -53.903  19.138 -28.935  1.00  0.00    -0.550 OA
ATOM     11  O   UNL     1     -53.917  20.121 -31.004  1.00  0.00    -0.550 OA
ENDBRANCH   8   9
ENDBRANCH   7   8
ENDBRANCH   6   7
ENDBRANCH   5   6
ENDBRANCH   4   5
ENDBRANCH   3   4
ENDBRANCH   2   3
ENDBRANCH   1   2
BRANCH   1  12
ATOM     12  C   UNL     1     -50.270  10.423 -29.217  1.00  0.00     0.000 C 
BRANCH  12  13
ATOM     13  C   UNL     1     -50.473   9.461 -30.400  1.00  0.00    -0.000 C 
BRANCH  13  14
ATOM     14  C   UNL     1     -49.846   9.985 -31.703  1.00  0.00    -0.000 C 
BRANCH  14  15
ATOM     15  C   UNL     1     -50.849  10.038 -32.865  1.00  0.00    -0.000 C 
BRANCH  15  16
ATOM     16  C   UNL     1     -52.310  10.034 -32.387  1.00  0.00    -0.000 C 
BRANCH  16  17
ATOM     17  C   UNL     1     -52.931  11.434 -32.506  1.00  0.00    -0.000 C 
BRANCH  17  18
ATOM     18  C   UNL     1     -54.133  11.628 -31.566  1.00  0.00    -0.000 C 
BRANCH  18  19
ATOM     19  C   UNL     1     -53.942  10.931 -30.211  1.00  0.00    -0.003 C 
ATOM     20  C   UNL     1     -54.913  11.481 -29.169  1.00  0.00     0.004 C 
ENDBRANCH  18  19
ENDBRANCH  17  18
ENDBRANCH  16  17
ENDBRANCH  15  16
ENDBRANCH  14  15
ENDBRANCH  13  14
ENDBRANCH  12  13
ENDBRANCH   1  12
TORSDOF 16
ENDMDL
MODEL 2
REMARK VINA RESULT:    -4.085     15.668     17.652
REMARK INTER + INTRA:         -10.711
REMARK INTER:                  -7.922
REMARK INTRA:                  -2.789
REMARK UNBOUND:                -2.806
REMARK SMILES CCCCCCCCCCCCCCCCCC(=O)[O-]
REMARK SMILES IDX 10 1 11 2 12 3 13 4 14 5 15 6 16 7 17 8 18 9 19 10 20 11
REMARK SMILES IDX 9 12 8 13 7 14 6 15 5 16 4 17 3 18 2 19 1 20
REMARK H PARENT
REMARK Flexibility Score: inf
ROOT
ATOM      1  C   UNL     1     -41.441  20.981 -28.693  1.00  0.00     0.000 C 
ENDROOT
BRANCH   1   2
ATOM      2  C   UNL     1     -41.139  19.887 -29.730  1.00  0.00     0.000 C 
BRANCH   2   3
ATOM      3  C   UNL     1     -39.697  19.959 -30.262  1.00  0.00     0.000 C 
BRANCH   3   4
ATOM      4  C   UNL     1     -38.916  18.657 -30.017  1.00  0.00     0.000 C 
BRANCH   4   5
ATOM      5  C   UNL     1     -37.402  18.891 -29.897  1.00  0.00     0.000 C 
BRANCH   5   6
ATOM      6  C   UNL     1     -37.095  20.374 -29.640  1.00  0.00     0.000 C 
BRANCH   6   7
ATOM      7  C   UNL     1     -36.443  20.616 -28.270  1.00  0.00     0.006 C 
BRANCH   7   8
ATOM      8  C   UNL     1     -37.447  20.546 -27.113  1.00  0.00     0.053 C 
BRANCH   8   9
ATOM      9  C   UNL     1     -36.860  21.147 -25.875  1.00  0.00     0.041 C 
ATOM     10  O   UNL     1     -37.021  20.585 -24.760  1.00  0.00    -0.550 OA
ATOM     11  O   UNL     1     -36.186  22.361 -25.943  1.00  0.00    -0.550 OA
ENDBRANCH   8   9
ENDBRANCH   7   8
ENDBRANCH   6   7
ENDBRANCH   5   6
ENDBRANCH   4   5
ENDBRANCH   3   4
ENDBRANCH   2   3
ENDBRANCH   1   2
BRANCH   1  12
ATOM     12  C   UNL     1     -40.293  21.995 -28.549  1.00  0.00     0.000 C 
BRANCH  12  13
ATOM     13  C   UNL     1     -40.734  23.434 -28.866  1.00  0.00    -0.000 C 
BRANCH  13  14
ATOM     14  C   UNL     1     -39.637  24.469 -28.563  1.00  0.00    -0.000 C 
BRANCH  14  15
ATOM     15  C   UNL     1     -38.236  23.843 -28.482  1.00  0.00    -0.000 C 
BRANCH  15  16
ATOM     16  C   UNL     1     -37.119  24.846 -28.810  1.00  0.00    -0.000 C 
BRANCH  16  17
ATOM     17  C   UNL     1     -36.990  25.048 -30.327  1.00  0.00    -0.000 C 
BRANCH  17  18
ATOM     18  C   UNL     1     -36.846  23.720 -31.090  1.00  0.00    -0.000 C 
BRANCH  18  19
ATOM     19  C   UNL     1     -37.743  23.653 -32.335  1.00  0.00    -0.003 C 
ATOM     20  C   UNL     1     -39.041  22.905 -32.038  1.00  0.00     0.004 C 
ENDBRANCH  18  19
ENDBRANCH  17  18
ENDBRANCH  16  17
ENDBRANCH  15  16
ENDBRANCH  14  15
ENDBRANCH  13  14
ENDBRANCH  12  13
ENDBRANCH   1  12
TORSDOF 16
ENDMDL
MODEL 3
REMARK VINA RESULT:    -4.062      3.561      6.951
REMARK INTER + INTRA:         -10.668
REMARK INTER:                  -8.045
REMARK INTRA:                  -2.623
REMARK UNBOUND:                -2.806
REMARK SMILES CCCCCCCCCCCCCCCCCC(=O)[O-]
REMARK SMILES IDX 10 1 11 2 12 3 13 4 14 5 15 6 16 7 17 8 18 9 19 10 20 11
REMARK SMILES IDX 9 12 8 13 7 14 6 15 5 16 4 17 3 18 2 19 1 20
REMARK H PARENT
REMARK Flexibility Score: inf
ROOT
ATOM      1  C   UNL     1     -55.272  14.173 -28.178  1.00  0.00     0.000 C 
ENDROOT
BRANCH   1   2
ATOM      2  C   UNL     1     -56.076  13.431 -29.259  1.00  0.00     0.000 C 
BRANCH   2   3
ATOM      3  C   UNL     1     -55.407  13.500 -30.643  1.00  0.00     0.000 C 
BRANCH   3   4
ATOM      4  C   UNL     1     -54.787  12.157 -31.063  1.00  0.00     0.000 C 
BRANCH   4   5
ATOM      5  C   UNL     1     -53.745  12.311 -32.181  1.00  0.00     0.000 C 
BRANCH   5   6
ATOM      6  C   UNL     1     -53.040  10.975 -32.461  1.00  0.00     0.000 C 
BRANCH   6   7
ATOM      7  C   UNL     1     -51.566  10.979 -32.025  1.00  0.00     0.006 C 
BRANCH   7   8
ATOM      8  C   UNL     1     -51.332  10.210 -30.719  1.00  0.00     0.053 C 
BRANCH   8   9
ATOM      9  C   UNL     1     -49.868  10.122 -30.421  1.00  0.00     0.041 C 
ATOM     10  O   UNL     1     -49.460  10.166 -29.231  1.00  0.00    -0.550 OA
ATOM     11  O   UNL     1     -48.949  10.056 -31.461  1.00  0.00    -0.550 OA
ENDBRANCH   8   9
ENDBRANCH   7   8
ENDBRANCH   6   7
ENDBRANCH   5   6
ENDBRANCH   4   5
ENDBRANCH   3   4
ENDBRANCH   2   3
ENDBRANCH   1   2
BRANCH   1  12
ATOM     12  C   UNL     1     -55.792  15.599 -27.926  1.00  0.00     0.000 C 
BRANCH  12  13
ATOM     13  C   UNL     1     -54.747  16.675 -28.263  1.00  0.00    -0.000 C 
BRANCH  13  14
ATOM     14  C   UNL     1     -55.209  17.615 -29.391  1.00  0.00    -0.000 C 
BRANCH  14  15
ATOM     15  C   UNL     1     -54.693  17.183 -30.771  1.00  0.00    -0.000 C 
BRANCH  15  16
ATOM     16  C   UNL     1     -53.165  17.025 -30.811  1.00  0.00    -0.000 C 
BRANCH  16  17
ATOM     17  C   UNL     1     -52.764  15.743 -31.557  1.00  0.00    -0.000 C 
BRANCH  17  18
ATOM     18  C   UNL     1     -51.609  14.996 -30.868  1.00  0.00    -0.000 C 
BRANCH  18  19
ATOM     19  C   UNL     1     -52.033  14.346 -29.542  1.00  0.00    -0.003 C 
ATOM     20  C   UNL     1     -50.922  13.459 -28.986  1.00  0.00     0.004 C 
ENDBRANCH  18  19
ENDBRANCH  17  18
ENDBRANCH  16  17
ENDBRANCH  15  16
ENDBRANCH  14  15
ENDBRANCH  13  14
ENDBRANCH  12  13
ENDBRANCH   1  12
TORSDOF 16
ENDMDL
MODEL 4
REMARK VINA RESULT:    -4.058     15.523     17.240
REMARK INTER + INTRA:         -10.659
REMARK INTER:                  -7.931
REMARK INTRA:                  -2.728
REMARK UNBOUND:                -2.806
REMARK SMILES CCCCCCCCCCCCCCCCCC(=O)[O-]
REMARK SMILES IDX 10 1 11 2 12 3 13 4 14 5 15 6 16 7 17 8 18 9 19 10 20 11
REMARK SMILES IDX 9 12 8 13 7 14 6 15 5 16 4 17 3 18 2 19 1 20
REMARK H PARENT
REMARK Flexibility Score: inf
ROOT
ATOM      1  C   UNL     1     -37.003  24.890 -28.911  1.00  0.00     0.000 C 
ENDROOT
BRANCH   1   2
ATOM      2  C   UNL     1     -37.267  24.330 -27.503  1.00  0.00     0.000 C 
BRANCH   2   3
ATOM      3  C   UNL     1     -36.198  23.316 -27.061  1.00  0.00     0.000 C 
BRANCH   3   4
ATOM      4  C   UNL     1     -36.803  21.958 -26.669  1.00  0.00     0.000 C 
BRANCH   4   5
ATOM      5  C   UNL     1     -37.380  21.199 -27.874  1.00  0.00     0.000 C 
BRANCH   5   6
ATOM      6  C   UNL     1     -36.319  20.286 -28.506  1.00  0.00     0.000 C 
BRANCH   6   7
ATOM      7  C   UNL     1     -36.883  19.415 -29.639  1.00  0.00     0.006 C 
BRANCH   7   8
ATOM      8  C   UNL     1     -38.298  19.832 -30.059  1.00  0.00     0.053 C 
BRANCH   8   9
ATOM      9  C   UNL     1     -39.224  18.656 -30.012  1.00  0.00     0.041 C 
ATOM     10  O   UNL     1     -38.838  17.567 -29.513  1.00  0.00    -0.550 OA
ATOM     11  O   UNL     1     -40.491  18.745 -30.576  1.00  0.00    -0.550 OA
ENDBRANCH   8   9
ENDBRANCH   7   8
ENDBRANCH   6   7
ENDBRANCH   5   6
ENDBRANCH   4   5
ENDBRANCH   3   4
ENDBRANCH   2   3
ENDBRANCH   1   2
BRANCH   1  12
ATOM     12  C   UNL     1     -36.076  23.989 -29.744  1.00  0.00     0.000 C 
BRANCH  12  13
ATOM     13  C   UNL     1     -36.801  23.339 -30.935  1.00  0.00    -0.000 C 
BRANCH  13  14
ATOM     14  C   UNL     1     -38.249  23.835 -31.088  1.00  0.00    -0.000 C 
BRANCH  14  15
ATOM     15  C   UNL     1     -39.120  22.877 -31.913  1.00  0.00    -0.000 C 
BRANCH  15  16
ATOM     16  C   UNL     1     -40.389  22.437 -31.166  1.00  0.00    -0.000 C 
BRANCH  16  17
ATOM     17  C   UNL     1     -40.332  22.860 -29.690  1.00  0.00    -0.000 C 
BRANCH  17  18
ATOM     18  C   UNL     1     -41.729  22.984 -29.057  1.00  0.00    -0.000 C 
BRANCH  18  19
ATOM     19  C   UNL     1     -42.178  21.691 -28.358  1.00  0.00    -0.003 C 
ATOM     20  C   UNL     1     -40.982  20.930 -27.792  1.00  0.00     0.004 C 
ENDBRANCH  18  19
ENDBRANCH  17  18
ENDBRANCH  16  17
ENDBRANCH  15  16
ENDBRANCH  14  15
ENDBRANCH  13  14
ENDBRANCH  12  13
ENDBRANCH   1  12
TORSDOF 16
ENDMDL
MODEL 5
REMARK VINA RESULT:    -4.040      2.147      4.064
REMARK INTER + INTRA:         -10.624
REMARK INTER:                  -7.856
REMARK INTRA:                  -2.769
REMARK UNBOUND:                -2.806
REMARK SMILES CCCCCCCCCCCCCCCCCC(=O)[O-]
REMARK SMILES IDX 10 1 11 2 12 3 13 4 14 5 15 6 16 7 17 8 18 9 19 10 20 11
REMARK SMILES IDX 9 12 8 13 7 14 6 15 5 16 4 17 3 18 2 19 1 20
REMARK H PARENT
REMARK Flexibility Score: inf
ROOT
ATOM      1  C   UNL     1     -52.901   8.836 -32.159  1.00  0.00     0.000 C 
ENDROOT
BRANCH   1   2
ATOM      2  C   UNL     1     -53.787   8.948 -30.907  1.00  0.00     0.000 C 
BRANCH   2   3
ATOM      3  C   UNL     1     -54.535  10.291 -30.832  1.00  0.00     0.000 C 
BRANCH   3   4
ATOM      4  C   UNL     1     -54.718  10.781 -29.386  1.00  0.00     0.000 C 
BRANCH   4   5
ATOM      5  C   UNL     1     -55.404  12.154 -29.311  1.00  0.00     0.000 C 
BRANCH   5   6
ATOM      6  C   UNL     1     -55.811  12.641 -30.710  1.00  0.00     0.000 C 
BRANCH   6   7
ATOM      7  C   UNL     1     -55.164  13.984 -31.082  1.00  0.00     0.006 C 
BRANCH   7   8
ATOM      8  C   UNL     1     -53.659  13.863 -31.353  1.00  0.00     0.053 C 
BRANCH   8   9
ATOM      9  C   UNL     1     -52.897  14.828 -30.501  1.00  0.00     0.041 C 
ATOM     10  O   UNL     1     -53.426  15.315 -29.467  1.00  0.00    -0.550 OA
ATOM     11  O   UNL     1     -51.625  15.239 -30.882  1.00  0.00    -0.550 OA
ENDBRANCH   8   9
ENDBRANCH   7   8
ENDBRANCH   6   7
ENDBRANCH   5   6
ENDBRANCH   4   5
ENDBRANCH   3   4
ENDBRANCH   2   3
ENDBRANCH   1   2
BRANCH   1  12
ATOM     12  C   UNL     1     -52.348  10.196 -32.619  1.00  0.00     0.000 C 
BRANCH  12  13
ATOM     13  C   UNL     1     -50.841  10.148 -32.920  1.00  0.00    -0.000 C 
BRANCH  13  14
ATOM     14  C   UNL     1     -50.248   8.739 -32.747  1.00  0.00    -0.000 C 
BRANCH  14  15
ATOM     15  C   UNL     1     -49.284   8.643 -31.555  1.00  0.00    -0.000 C 
BRANCH  15  16
ATOM     16  C   UNL     1     -48.804  10.020 -31.069  1.00  0.00    -0.000 C 
BRANCH  16  17
ATOM     17  C   UNL     1     -49.093  10.206 -29.572  1.00  0.00    -0.000 C 
BRANCH  17  18
ATOM     18  C   UNL     1     -50.598  10.300 -29.269  1.00  0.00    -0.000 C 
BRANCH  18  19
ATOM     19  C   UNL     1     -51.150  11.722 -29.450  1.00  0.00    -0.003 C 
ATOM     20  C   UNL     1     -50.463  12.702 -28.502  1.00  0.00     0.004 C 
ENDBRANCH  18  19
ENDBRANCH  17  18
ENDBRANCH  16  17
ENDBRANCH  15  16
ENDBRANCH  14  15
ENDBRANCH  13  14
ENDBRANCH  12  13
ENDBRANCH   1  12
TORSDOF 16
ENDMDL
MODEL 6
REMARK VINA RESULT:    -4.028     15.577     17.153
REMARK INTER + INTRA:         -10.602
REMARK INTER:                  -7.977
REMARK INTRA:                  -2.624
REMARK UNBOUND:                -2.806
REMARK SMILES CCCCCCCCCCCCCCCCCC(=O)[O-]
REMARK SMILES IDX 10 1 11 2 12 3 13 4 14 5 15 6 16 7 17 8 18 9 19 10 20 11
REMARK SMILES IDX 9 12 8 13 7 14 6 15 5 16 4 17 3 18 2 19 1 20
REMARK H PARENT
REMARK Flexibility Score: inf
ROOT
ATOM      1  C   UNL     1     -37.600  24.937 -28.539  1.00  0.00     0.000 C 
ENDROOT
BRANCH   1   2
ATOM      2  C   UNL     1     -36.505  25.104 -29.605  1.00  0.00     0.000 C 
BRANCH   2   3
ATOM      3  C   UNL     1     -36.832  24.356 -30.909  1.00  0.00     0.000 C 
BRANCH   3   4
ATOM      4  C   UNL     1     -37.705  23.113 -30.670  1.00  0.00     0.000 C 
BRANCH   4   5
ATOM      5  C   UNL     1     -38.875  23.014 -31.660  1.00  0.00     0.000 C 
BRANCH   5   6
ATOM      6  C   UNL     1     -40.071  22.288 -31.025  1.00  0.00     0.000 C 
BRANCH   6   7
ATOM      7  C   UNL     1     -40.119  22.447 -29.498  1.00  0.00     0.006 C 
BRANCH   7   8
ATOM      8  C   UNL     1     -41.550  22.537 -28.954  1.00  0.00     0.053 C 
BRANCH   8   9
ATOM      9  C   UNL     1     -41.852  21.357 -28.083  1.00  0.00     0.041 C 
ATOM     10  O   UNL     1     -43.045  21.025 -27.860  1.00  0.00    -0.550 OA
ATOM     11  O   UNL     1     -40.817  20.664 -27.468  1.00  0.00    -0.550 OA
ENDBRANCH   8   9
ENDBRANCH   7   8
ENDBRANCH   6   7
ENDBRANCH   5   6
ENDBRANCH   4   5
ENDBRANCH   3   4
ENDBRANCH   2   3
ENDBRANCH   1   2
BRANCH   1  12
ATOM     12  C   UNL     1     -37.029  24.632 -27.143  1.00  0.00     0.000 C 
BRANCH  12  13
ATOM     13  C   UNL     1     -36.036  23.458 -27.157  1.00  0.00    -0.000 C 
BRANCH  13  14
ATOM     14  C   UNL     1     -36.299  22.447 -26.026  1.00  0.00    -0.000 C 
BRANCH  14  15
ATOM     15  C   UNL     1     -36.403  21.002 -26.536  1.00  0.00    -0.000 C 
BRANCH  15  16
ATOM     16  C   UNL     1     -37.243  20.884 -27.817  1.00  0.00    -0.000 C 
BRANCH  16  17
ATOM     17  C   UNL     1     -36.447  20.193 -28.935  1.00  0.00    -0.000 C 
BRANCH  17  18
ATOM     18  C   UNL     1     -37.349  19.409 -29.904  1.00  0.00    -0.000 C 
BRANCH  18  19
ATOM     19  C   UNL     1     -38.623  18.880 -29.228  1.00  0.00    -0.003 C 
ATOM     20  C   UNL     1     -39.762  18.742 -30.236  1.00  0.00     0.004 C 
ENDBRANCH  18  19
ENDBRANCH  17  18
ENDBRANCH  16  17
ENDBRANCH  15  16
ENDBRANCH  14  15
ENDBRANCH  13  14
ENDBRANCH  12  13
ENDBRANCH   1  12
TORSDOF 16
ENDMDL
MODEL 7
REMARK VINA RESULT:    -4.025      3.316      6.622
REMARK INTER + INTRA:         -10.595
REMARK INTER:                  -7.770
REMARK INTRA:                  -2.825
REMARK UNBOUND:                -2.806
REMARK SMILES CCCCCCCCCCCCCCCCCC(=O)[O-]
REMARK SMILES IDX 10 1 11 2 12 3 13 4 14 5 15 6 16 7 17 8 18 9 19 10 20 11
REMARK SMILES IDX 9 12 8 13 7 14 6 15 5 16 4 17 3 18 2 19 1 20
REMARK H PARENT
REMARK Flexibility Score: inf
ROOT
ATOM      1  C   UNL     1     -54.626  16.801 -27.971  1.00  0.00     0.000 C 
ENDROOT
BRANCH   1   2
ATOM      2  C   UNL     1     -55.826  15.841 -28.002  1.00  0.00     0.000 C 
BRANCH   2   3
ATOM      3  C   UNL     1     -55.400  14.365 -28.085  1.00  0.00     0.000 C 
BRANCH   3   4
ATOM      4  C   UNL     1     -55.759  13.725 -29.436  1.00  0.00     0.000 C 
BRANCH   4   5
ATOM      5  C   UNL     1     -55.244  12.283 -29.562  1.00  0.00     0.000 C 
BRANCH   5   6
ATOM      6  C   UNL     1     -55.128  11.869 -31.037  1.00  0.00     0.000 C 
BRANCH   6   7
ATOM      7  C   UNL     1     -54.337  10.566 -31.227  1.00  0.00     0.006 C 
BRANCH   7   8
ATOM      8  C   UNL     1     -53.071  10.758 -32.072  1.00  0.00     0.053 C 
BRANCH   8   9
ATOM      9  C   UNL     1     -51.855  10.398 -31.277  1.00  0.00     0.041 C 
ATOM     10  O   UNL     1     -51.969   9.749 -30.205  1.00  0.00    -0.550 OA
ATOM     11  O   UNL     1     -50.600  10.833 -31.689  1.00  0.00    -0.550 OA
ENDBRANCH   8   9
ENDBRANCH   7   8
ENDBRANCH   6   7
ENDBRANCH   5   6
ENDBRANCH   4   5
ENDBRANCH   3   4
ENDBRANCH   2   3
ENDBRANCH   1   2
BRANCH   1  12
ATOM     12  C   UNL     1     -54.908  18.129 -28.696  1.00  0.00     0.000 C 
BRANCH  12  13
ATOM     13  C   UNL     1     -53.898  18.412 -29.820  1.00  0.00    -0.000 C 
BRANCH  13  14
ATOM     14  C   UNL     1     -54.007  17.408 -30.981  1.00  0.00    -0.000 C 
BRANCH  14  15
ATOM     15  C   UNL     1     -52.746  16.545 -31.139  1.00  0.00    -0.000 C 
BRANCH  15  16
ATOM     16  C   UNL     1     -53.065  15.098 -31.546  1.00  0.00    -0.000 C 
BRANCH  16  17
ATOM     17  C   UNL     1     -52.074  14.115 -30.903  1.00  0.00    -0.000 C 
BRANCH  17  18
ATOM     18  C   UNL     1     -51.895  14.360 -29.395  1.00  0.00    -0.000 C 
BRANCH  18  19
ATOM     19  C   UNL     1     -51.883  13.056 -28.582  1.00  0.00    -0.003 C 
ATOM     20  C   UNL     1     -50.463  12.514 -28.436  1.00  0.00     0.004 C 
ENDBRANCH  18  19
ENDBRANCH  17  18
ENDBRANCH  16  17
ENDBRANCH  15  16
ENDBRANCH  14  15
ENDBRANCH  13  14
ENDBRANCH  12  13
ENDBRANCH   1  12
TORSDOF 16
ENDMDL
MODEL 8
REMARK VINA RESULT:    -4.007     16.082     17.659
REMARK INTER + INTRA:         -10.560
REMARK INTER:                  -7.480
REMARK INTRA:                  -3.080
REMARK UNBOUND:                -2.806
REMARK SMILES CCCCCCCCCCCCCCCCCC(=O)[O-]
REMARK SMILES IDX 10 1 11 2 12 3 13 4 14 5 15 6 16 7 17 8 18 9 19 10 20 11
REMARK SMILES IDX 9 12 8 13 7 14 6 15 5 16 4 17 3 18 2 19 1 20
REMARK H PARENT
REMARK Flexibility Score: inf
ROOT
ATOM      1  C   UNL     1     -41.044  21.008 -28.836  1.00  0.00     0.000 C 
ENDROOT
BRANCH   1   2
ATOM      2  C   UNL     1     -41.261  22.530 -28.872  1.00  0.00     0.000 C 
BRANCH   2   3
ATOM      3  C   UNL     1     -40.329  23.236 -29.873  1.00  0.00     0.000 C 
BRANCH   3   4
ATOM      4  C   UNL     1     -40.150  22.435 -31.173  1.00  0.00     0.000 C 
BRANCH   4   5
ATOM      5  C   UNL     1     -38.879  22.831 -31.939  1.00  0.00     0.000 C 
BRANCH   5   6
ATOM      6  C   UNL     1     -38.121  23.947 -31.204  1.00  0.00     0.000 C 
BRANCH   6   7
ATOM      7  C   UNL     1     -36.605  23.898 -31.452  1.00  0.00     0.006 C 
BRANCH   7   8
ATOM      8  C   UNL     1     -36.252  23.547 -32.903  1.00  0.00     0.053 C 
BRANCH   8   9
ATOM      9  C   UNL     1     -36.464  24.733 -33.792  1.00  0.00     0.041 C 
ATOM     10  O   UNL     1     -36.808  24.571 -34.992  1.00  0.00    -0.550 OA
ATOM     11  O   UNL     1     -36.220  26.014 -33.312  1.00  0.00    -0.550 OA
ENDBRANCH   8   9
ENDBRANCH   7   8
ENDBRANCH   6   7
ENDBRANCH   5   6
ENDBRANCH   4   5
ENDBRANCH   3   4
ENDBRANCH   2   3
ENDBRANCH   1   2
BRANCH   1  12
ATOM     12  C   UNL     1     -40.231  20.554 -27.610  1.00  0.00     0.000 C 
BRANCH  12  13
ATOM     13  C   UNL     1     -39.151  19.520 -27.970  1.00  0.00    -0.000 C 
BRANCH  13  14
ATOM     14  C   UNL     1     -38.847  19.482 -29.478  1.00  0.00    -0.000 C 
BRANCH  14  15
ATOM     15  C   UNL     1     -37.502  20.137 -29.828  1.00  0.00    -0.000 C 
BRANCH  15  16
ATOM     16  C   UNL     1     -36.646  20.433 -28.586  1.00  0.00    -0.000 C 
BRANCH  16  17
ATOM     17  C   UNL     1     -36.271  21.921 -28.519  1.00  0.00    -0.000 C 
BRANCH  17  18
ATOM     18  C   UNL     1     -37.317  22.760 -27.766  1.00  0.00    -0.000 C 
BRANCH  18  19
ATOM     19  C   UNL     1     -36.853  24.205 -27.523  1.00  0.00    -0.003 C 
ATOM     20  C   UNL     1     -38.014  25.186 -27.666  1.00  0.00     0.004 C 
ENDBRANCH  18  19
ENDBRANCH  17  18
ENDBRANCH  16  17
ENDBRANCH  15  16
ENDBRANCH  14  15
ENDBRANCH  13  14
ENDBRANCH  12  13
ENDBRANCH   1  12
TORSDOF 16
ENDMDL
MODEL 9
REMARK VINA RESULT:    -3.982      3.685      6.840
REMARK INTER + INTRA:         -10.513
REMARK INTER:                  -7.875
REMARK INTRA:                  -2.638
REMARK UNBOUND:                -2.806
REMARK SMILES CCCCCCCCCCCCCCCCCC(=O)[O-]
REMARK SMILES IDX 10 1 11 2 12 3 13 4 14 5 15 6 16 7 17 8 18 9 19 10 20 11
REMARK SMILES IDX 9 12 8 13 7 14 6 15 5 16 4 17 3 18 2 19 1 20
REMARK H PARENT
REMARK Flexibility Score: inf
ROOT
ATOM      1  C   UNL     1     -52.010  14.007 -30.834  1.00  0.00     0.000 C 
ENDROOT
BRANCH   1   2
ATOM      2  C   UNL     1     -53.122  14.387 -31.825  1.00  0.00     0.000 C 
BRANCH   2   3
ATOM      3  C   UNL     1     -54.031  13.195 -32.178  1.00  0.00     0.000 C 
BRANCH   3   4
ATOM      4  C   UNL     1     -53.272  11.858 -32.174  1.00  0.00     0.000 C 
BRANCH   4   5
ATOM      5  C   UNL     1     -53.909  10.821 -31.236  1.00  0.00     0.000 C 
BRANCH   5   6
ATOM      6  C   UNL     1     -52.965   9.629 -31.015  1.00  0.00     0.000 C 
BRANCH   6   7
ATOM      7  C   UNL     1     -51.509   9.949 -31.384  1.00  0.00     0.006 C 
BRANCH   7   8
ATOM      8  C   UNL     1     -50.619  10.167 -30.153  1.00  0.00     0.053 C 
BRANCH   8   9
ATOM      9  C   UNL     1     -49.175  10.172 -30.548  1.00  0.00     0.041 C 
ATOM     10  O   UNL     1     -48.835   9.821 -31.708  1.00  0.00    -0.550 OA
ATOM     11  O   UNL     1     -48.200  10.505 -29.615  1.00  0.00    -0.550 OA
ENDBRANCH   8   9
ENDBRANCH   7   8
ENDBRANCH   6   7
ENDBRANCH   5   6
ENDBRANCH   4   5
ENDBRANCH   3   4
ENDBRANCH   2   3
ENDBRANCH   1   2
BRANCH   1  12
ATOM     12  C   UNL     1     -52.385  14.315 -29.374  1.00  0.00     0.000 C 
BRANCH  12  13
ATOM     13  C   UNL     1     -52.712  13.046 -28.570  1.00  0.00    -0.000 C 
BRANCH  13  14
ATOM     14  C   UNL     1     -54.189  12.979 -28.144  1.00  0.00    -0.000 C 
BRANCH  14  15
ATOM     15  C   UNL     1     -55.038  14.094 -28.774  1.00  0.00    -0.000 C 
BRANCH  15  16
ATOM     16  C   UNL     1     -55.828  14.899 -27.731  1.00  0.00    -0.000 C 
BRANCH  16  17
ATOM     17  C   UNL     1     -56.011  16.356 -28.184  1.00  0.00    -0.000 C 
BRANCH  17  18
ATOM     18  C   UNL     1     -54.674  17.106 -28.310  1.00  0.00    -0.000 C 
BRANCH  18  19
ATOM     19  C   UNL     1     -54.336  17.471 -29.764  1.00  0.00    -0.003 C 
ATOM     20  C   UNL     1     -55.569  17.368 -30.657  1.00  0.00     0.004 C 
ENDBRANCH  18  19
ENDBRANCH  17  18
ENDBRANCH  16  17
ENDBRANCH  15  16
ENDBRANCH  14  15
ENDBRANCH  13  14
ENDBRANCH  12  13
ENDBRANCH   1  12
TORSDOF 16
ENDMDL
