MODEL 1
REMARK VINA RESULT:    -5.764      0.000      0.000
REMARK INTER + INTRA:          -6.588
REMARK INTER:                  -6.438
REMARK INTRA:                  -0.150
REMARK UNBOUND:                -0.150
REMARK SMILES COc1cc2ccc(=O)oc2cc1OC
REMARK SMILES IDX 3 1 13 2 12 3 11 4 5 5 4 6 6 7 7 8 8 9 9 10 10 11 2 12 1 13
REMARK SMILES IDX 14 14 15 15
REMARK H PARENT
REMARK Flexibility Score: inf
ROOT
ATOM      1  C   UNL     1       0.198  39.351  34.083  1.00  0.00     0.161 A 
ATOM      2  C   UNL     1      -0.042  38.332  33.146  1.00  0.00     0.164 A 
ATOM      3  C   UNL     1      -1.011  38.522  32.140  1.00  0.00     0.098 A 
ATOM      4  C   UNL     1      -1.732  39.716  32.069  1.00  0.00     0.142 A 
ATOM      5  C   UNL     1      -1.491  40.738  33.009  1.00  0.00     0.022 A 
ATOM      6  C   UNL     1      -0.530  40.555  34.012  1.00  0.00     0.062 A 
ATOM      7  C   UNL     1      -2.230  41.921  32.912  1.00  0.00     0.019 A 
ATOM      8  C   UNL     1      -3.176  42.057  31.895  1.00  0.00     0.094 A 
ATOM      9  C   UNL     1      -3.361  40.999  30.998  1.00  0.00     0.336 A 
ATOM     10  O   UNL     1      -4.209  41.102  30.073  1.00  0.00    -0.246 OA
ATOM     11  O   UNL     1      -2.643  39.885  31.114  1.00  0.00    -0.423 OA
ENDROOT
BRANCH   1  12
ATOM     12  O   UNL     1       1.169  39.127  35.073  1.00  0.00    -0.493 OA
ATOM     13  C   UNL     1       2.526  39.553  34.985  1.00  0.00     0.278 C 
ENDBRANCH   1  12
BRANCH   2  14
ATOM     14  O   UNL     1       0.701  37.146  33.247  1.00  0.00    -0.493 OA
ATOM     15  C   UNL     1       1.856  36.848  32.470  1.00  0.00     0.278 C 
ENDBRANCH   2  14
TORSDOF 2
ENDMDL
MODEL 2
REMARK VINA RESULT:    -5.635      0.946      2.521
REMARK INTER + INTRA:          -6.443
REMARK INTER:                  -6.323
REMARK INTRA:                  -0.120
REMARK UNBOUND:                -0.150
REMARK SMILES COc1cc2ccc(=O)oc2cc1OC
REMARK SMILES IDX 3 1 13 2 12 3 11 4 5 5 4 6 6 7 7 8 8 9 9 10 10 11 2 12 1 13
REMARK SMILES IDX 14 14 15 15
REMARK H PARENT
REMARK Flexibility Score: inf
ROOT
ATOM      1  C   UNL     1       0.050  37.968  32.879  1.00  0.00     0.161 A 
ATOM      2  C   UNL     1      -0.079  38.996  33.828  1.00  0.00     0.164 A 
ATOM      3  C   UNL     1      -0.987  40.050  33.599  1.00  0.00     0.098 A 
ATOM      4  C   UNL     1      -1.759  40.078  32.435  1.00  0.00     0.142 A 
ATOM      5  C   UNL     1      -1.629  39.046  31.483  1.00  0.00     0.022 A 
ATOM      6  C   UNL     1      -0.728  37.997  31.704  1.00  0.00     0.062 A 
ATOM      7  C   UNL     1      -2.415  39.103  30.327  1.00  0.00     0.019 A 
ATOM      8  C   UNL     1      -3.299  40.169  30.151  1.00  0.00     0.094 A 
ATOM      9  C   UNL     1      -3.373  41.156  31.140  1.00  0.00     0.336 A 
ATOM     10  O   UNL     1      -4.165  42.125  31.001  1.00  0.00    -0.246 OA
ATOM     11  O   UNL     1      -2.614  41.076  32.229  1.00  0.00    -0.423 OA
ENDROOT
BRANCH   1  12
ATOM     12  O   UNL     1       0.965  36.935  33.139  1.00  0.00    -0.493 OA
ATOM     13  C   UNL     1       2.179  36.732  32.422  1.00  0.00     0.278 C 
ENDBRANCH   1  12
BRANCH   2  14
ATOM     14  O   UNL     1       0.712  38.936  34.986  1.00  0.00    -0.493 OA
ATOM     15  C   UNL     1       2.026  39.475  35.095  1.00  0.00     0.278 C 
ENDBRANCH   2  14
TORSDOF 2
ENDMDL
MODEL 3
REMARK VINA RESULT:    -4.987      2.002      5.200
REMARK INTER + INTRA:          -5.720
REMARK INTER:                  -5.604
REMARK INTRA:                  -0.115
REMARK UNBOUND:                -0.150
REMARK SMILES COc1cc2ccc(=O)oc2cc1OC
REMARK SMILES IDX 3 1 13 2 12 3 11 4 5 5 4 6 6 7 7 8 8 9 9 10 10 11 2 12 1 13
REMARK SMILES IDX 14 14 15 15
REMARK H PARENT
REMARK Flexibility Score: inf
ROOT
ATOM      1  C   UNL     1      -0.770  38.502  33.617  1.00  0.00     0.161 A 
ATOM      2  C   UNL     1      -0.764  39.525  32.653  1.00  0.00     0.164 A 
ATOM      3  C   UNL     1       0.286  40.465  32.637  1.00  0.00     0.098 A 
ATOM      4  C   UNL     1       1.319  40.386  33.574  1.00  0.00     0.142 A 
ATOM      5  C   UNL     1       1.313  39.360  34.540  1.00  0.00     0.022 A 
ATOM      6  C   UNL     1       0.272  38.424  34.561  1.00  0.00     0.062 A 
ATOM      7  C   UNL     1       2.362  39.309  35.465  1.00  0.00     0.019 A 
ATOM      8  C   UNL     1       3.376  40.265  35.404  1.00  0.00     0.094 A 
ATOM      9  C   UNL     1       3.315  41.254  34.416  1.00  0.00     0.336 A 
ATOM     10  O   UNL     1       4.222  42.125  34.343  1.00  0.00    -0.246 OA
ATOM     11  O   UNL     1       2.306  41.278  33.549  1.00  0.00    -0.423 OA
ENDROOT
BRANCH   1  12
ATOM     12  O   UNL     1      -1.832  37.584  33.604  1.00  0.00    -0.493 OA
ATOM     13  C   UNL     1      -1.875  36.387  34.375  1.00  0.00     0.278 C 
ENDBRANCH   1  12
BRANCH   2  14
ATOM     14  O   UNL     1      -1.819  39.573  31.728  1.00  0.00    -0.493 OA
ATOM     15  C   UNL     1      -2.936  40.452  31.822  1.00  0.00     0.278 C 
ENDBRANCH   2  14
TORSDOF 2
ENDMDL
MODEL 4
REMARK VINA RESULT:    -4.851      1.696      2.851
REMARK INTER + INTRA:          -5.568
REMARK INTER:                  -5.528
REMARK INTRA:                  -0.041
REMARK UNBOUND:                -0.150
REMARK SMILES COc1cc2ccc(=O)oc2cc1OC
REMARK SMILES IDX 3 1 13 2 12 3 11 4 5 5 4 6 6 7 7 8 8 9 9 10 10 11 2 12 1 13
REMARK SMILES IDX 14 14 15 15
REMARK H PARENT
REMARK Flexibility Score: inf
ROOT
ATOM      1  C   UNL     1       1.107  39.981  34.382  1.00  0.00     0.161 A 
ATOM      2  C   UNL     1       1.197  41.365  34.148  1.00  0.00     0.164 A 
ATOM      3  C   UNL     1       0.199  42.013  33.394  1.00  0.00     0.098 A 
ATOM      4  C   UNL     1      -0.879  41.290  32.877  1.00  0.00     0.142 A 
ATOM      5  C   UNL     1      -0.969  39.903  33.112  1.00  0.00     0.022 A 
ATOM      6  C   UNL     1       0.020  39.253  33.860  1.00  0.00     0.062 A 
ATOM      7  C   UNL     1      -2.060  39.207  32.580  1.00  0.00     0.019 A 
ATOM      8  C   UNL     1      -3.020  39.898  31.841  1.00  0.00     0.094 A 
ATOM      9  C   UNL     1      -2.864  41.276  31.650  1.00  0.00     0.336 A 
ATOM     10  O   UNL     1      -3.719  41.918  30.987  1.00  0.00    -0.246 OA
ATOM     11  O   UNL     1      -1.816  41.912  32.167  1.00  0.00    -0.423 OA
ENDROOT
BRANCH   1  12
ATOM     12  O   UNL     1       2.120  39.368  35.137  1.00  0.00    -0.493 OA
ATOM     13  C   UNL     1       1.890  38.478  36.224  1.00  0.00     0.278 C 
ENDBRANCH   1  12
BRANCH   2  14
ATOM     14  O   UNL     1       2.294  42.059  34.683  1.00  0.00    -0.493 OA
ATOM     15  C   UNL     1       3.581  42.125  34.077  1.00  0.00     0.278 C 
ENDBRANCH   2  14
TORSDOF 2
ENDMDL
MODEL 5
REMARK VINA RESULT:    -4.830      2.128      3.428
REMARK INTER + INTRA:          -5.545
REMARK INTER:                  -5.414
REMARK INTRA:                  -0.131
REMARK UNBOUND:                -0.150
REMARK SMILES COc1cc2ccc(=O)oc2cc1OC
REMARK SMILES IDX 3 1 13 2 12 3 11 4 5 5 4 6 6 7 7 8 8 9 9 10 10 11 2 12 1 13
REMARK SMILES IDX 14 14 15 15
REMARK H PARENT
REMARK Flexibility Score: inf
ROOT
ATOM      1  C   UNL     1       2.257  39.247  35.231  1.00  0.00     0.161 A 
ATOM      2  C   UNL     1       2.576  40.100  34.159  1.00  0.00     0.164 A 
ATOM      3  C   UNL     1       1.652  40.280  33.110  1.00  0.00     0.098 A 
ATOM      4  C   UNL     1       0.422  39.617  33.129  1.00  0.00     0.142 A 
ATOM      5  C   UNL     1       0.103  38.762  34.204  1.00  0.00     0.022 A 
ATOM      6  C   UNL     1       1.017  38.578  35.249  1.00  0.00     0.062 A 
ATOM      7  C   UNL     1      -1.136  38.112  34.193  1.00  0.00     0.019 A 
ATOM      8  C   UNL     1      -2.013  38.326  33.130  1.00  0.00     0.094 A 
ATOM      9  C   UNL     1      -1.627  39.190  32.098  1.00  0.00     0.336 A 
ATOM     10  O   UNL     1      -2.405  39.397  31.130  1.00  0.00    -0.246 OA
ATOM     11  O   UNL     1      -0.443  39.795  32.134  1.00  0.00    -0.423 OA
ENDROOT
BRANCH   1  12
ATOM     12  O   UNL     1       3.201  39.090  36.258  1.00  0.00    -0.493 OA
ATOM     13  C   UNL     1       3.266  39.901  37.427  1.00  0.00     0.278 C 
ENDBRANCH   1  12
BRANCH   2  14
ATOM     14  O   UNL     1       3.820  40.749  34.174  1.00  0.00    -0.493 OA
ATOM     15  C   UNL     1       4.010  42.122  34.503  1.00  0.00     0.278 C 
ENDBRANCH   2  14
TORSDOF 2
ENDMDL
MODEL 6
REMARK VINA RESULT:    -4.513      1.476      5.074
REMARK INTER + INTRA:          -5.191
REMARK INTER:                  -5.273
REMARK INTRA:                   0.081
REMARK UNBOUND:                -0.150
REMARK SMILES COc1cc2ccc(=O)oc2cc1OC
REMARK SMILES IDX 3 1 13 2 12 3 11 4 5 5 4 6 6 7 7 8 8 9 9 10 10 11 2 12 1 13
REMARK SMILES IDX 14 14 15 15
REMARK H PARENT
REMARK Flexibility Score: inf
ROOT
ATOM      1  C   UNL     1      -1.967  40.999  32.262  1.00  0.00     0.161 A 
ATOM      2  C   UNL     1      -2.302  39.994  31.339  1.00  0.00     0.164 A 
ATOM      3  C   UNL     1      -1.486  38.850  31.224  1.00  0.00     0.098 A 
ATOM      4  C   UNL     1      -0.347  38.711  32.020  1.00  0.00     0.142 A 
ATOM      5  C   UNL     1      -0.011  39.720  32.946  1.00  0.00     0.022 A 
ATOM      6  C   UNL     1      -0.818  40.859  33.065  1.00  0.00     0.062 A 
ATOM      7  C   UNL     1       1.136  39.551  33.728  1.00  0.00     0.019 A 
ATOM      8  C   UNL     1       1.908  38.400  33.573  1.00  0.00     0.094 A 
ATOM      9  C   UNL     1       1.512  37.441  32.634  1.00  0.00     0.336 A 
ATOM     10  O   UNL     1       2.194  36.394  32.480  1.00  0.00    -0.246 OA
ATOM     11  O   UNL     1       0.416  37.627  31.904  1.00  0.00    -0.423 OA
ENDROOT
BRANCH   1  12
ATOM     12  O   UNL     1      -2.802  42.125  32.350  1.00  0.00    -0.493 OA
ATOM     13  C   UNL     1      -4.130  42.108  32.863  1.00  0.00     0.278 C 
ENDBRANCH   1  12
BRANCH   2  14
ATOM     14  O   UNL     1      -3.454  40.167  30.556  1.00  0.00    -0.493 OA
ATOM     15  C   UNL     1      -3.446  40.449  29.160  1.00  0.00     0.278 C 
ENDBRANCH   2  14
TORSDOF 2
ENDMDL
MODEL 7
REMARK VINA RESULT:    -4.349     12.871     14.061
REMARK INTER + INTRA:          -5.008
REMARK INTER:                  -4.902
REMARK INTRA:                  -0.106
REMARK UNBOUND:                -0.150
REMARK SMILES COc1cc2ccc(=O)oc2cc1OC
REMARK SMILES IDX 3 1 13 2 12 3 11 4 5 5 4 6 6 7 7 8 8 9 9 10 10 11 2 12 1 13
REMARK SMILES IDX 14 14 15 15
REMARK H PARENT
REMARK Flexibility Score: inf
ROOT
ATOM      1  C   UNL     1      -9.084  26.713  33.725  1.00  0.00     0.161 A 
ATOM      2  C   UNL     1      -7.832  26.556  33.106  1.00  0.00     0.164 A 
ATOM      3  C   UNL     1      -6.914  27.625  33.105  1.00  0.00     0.098 A 
ATOM      4  C   UNL     1      -7.240  28.839  33.715  1.00  0.00     0.142 A 
ATOM      5  C   UNL     1      -8.496  28.996  34.337  1.00  0.00     0.022 A 
ATOM      6  C   UNL     1      -9.413  27.937  34.340  1.00  0.00     0.062 A 
ATOM      7  C   UNL     1      -8.793  30.223  34.938  1.00  0.00     0.019 A 
ATOM      8  C   UNL     1      -7.847  31.248  34.908  1.00  0.00     0.094 A 
ATOM      9  C   UNL     1      -6.621  31.018  34.273  1.00  0.00     0.336 A 
ATOM     10  O   UNL     1      -5.753  31.930  34.236  1.00  0.00    -0.246 OA
ATOM     11  O   UNL     1      -6.365  29.841  33.709  1.00  0.00    -0.423 OA
ENDROOT
BRANCH   1  12
ATOM     12  O   UNL     1      -9.975  25.628  33.706  1.00  0.00    -0.493 OA
ATOM     13  C   UNL     1     -10.086  24.656  34.742  1.00  0.00     0.278 C 
ENDBRANCH   1  12
BRANCH   2  14
ATOM     14  O   UNL     1      -7.538  25.323  32.502  1.00  0.00    -0.493 OA
ATOM     15  C   UNL     1      -6.236  24.753  32.424  1.00  0.00     0.278 C 
ENDBRANCH   2  14
TORSDOF 2
ENDMDL
MODEL 8
REMARK VINA RESULT:    -4.302      1.889      2.861
REMARK INTER + INTRA:          -4.955
REMARK INTER:                  -4.994
REMARK INTRA:                   0.039
REMARK UNBOUND:                -0.150
REMARK SMILES COc1cc2ccc(=O)oc2cc1OC
REMARK SMILES IDX 3 1 13 2 12 3 11 4 5 5 4 6 6 7 7 8 8 9 9 10 10 11 2 12 1 13
REMARK SMILES IDX 14 14 15 15
REMARK H PARENT
REMARK Flexibility Score: inf
ROOT
ATOM      1  C   UNL     1       2.060  41.450  34.418  1.00  0.00     0.161 A 
ATOM      2  C   UNL     1       1.983  40.062  34.624  1.00  0.00     0.164 A 
ATOM      3  C   UNL     1       0.846  39.353  34.186  1.00  0.00     0.098 A 
ATOM      4  C   UNL     1      -0.202  40.021  33.549  1.00  0.00     0.142 A 
ATOM      5  C   UNL     1      -0.124  41.413  33.342  1.00  0.00     0.022 A 
ATOM      6  C   UNL     1       1.002  42.123  33.776  1.00  0.00     0.062 A 
ATOM      7  C   UNL     1      -1.190  42.053  32.702  1.00  0.00     0.019 A 
ATOM      8  C   UNL     1      -2.291  41.302  32.288  1.00  0.00     0.094 A 
ATOM      9  C   UNL     1      -2.298  39.924  32.527  1.00  0.00     0.336 A 
ATOM     10  O   UNL     1      -3.282  39.229  32.161  1.00  0.00    -0.246 OA
ATOM     11  O   UNL     1      -1.270  39.341  33.138  1.00  0.00    -0.423 OA
ENDROOT
BRANCH   1  12
ATOM     12  O   UNL     1       3.206  42.125  34.868  1.00  0.00    -0.493 OA
ATOM     13  C   UNL     1       4.489  42.038  34.254  1.00  0.00     0.278 C 
ENDBRANCH   1  12
BRANCH   2  14
ATOM     14  O   UNL     1       3.054  39.424  35.268  1.00  0.00    -0.493 OA
ATOM     15  C   UNL     1       3.110  39.150  36.664  1.00  0.00     0.278 C 
ENDBRANCH   2  14
TORSDOF 2
ENDMDL
MODEL 9
REMARK VINA RESULT:    -4.030     12.431     15.579
REMARK INTER + INTRA:          -4.651
REMARK INTER:                  -4.547
REMARK INTRA:                  -0.104
REMARK UNBOUND:                -0.150
REMARK SMILES COc1cc2ccc(=O)oc2cc1OC
REMARK SMILES IDX 3 1 13 2 12 3 11 4 5 5 4 6 6 7 7 8 8 9 9 10 10 11 2 12 1 13
REMARK SMILES IDX 14 14 15 15
REMARK H PARENT
REMARK Flexibility Score: inf
ROOT
ATOM      1  C   UNL     1       4.488  24.830  27.388  1.00  0.00     0.161 A 
ATOM      2  C   UNL     1       5.053  24.590  28.653  1.00  0.00     0.164 A 
ATOM      3  C   UNL     1       4.604  25.322  29.770  1.00  0.00     0.098 A 
ATOM      4  C   UNL     1       3.600  26.284  29.628  1.00  0.00     0.142 A 
ATOM      5  C   UNL     1       3.033  26.524  28.360  1.00  0.00     0.022 A 
ATOM      6  C   UNL     1       3.477  25.800  27.246  1.00  0.00     0.062 A 
ATOM      7  C   UNL     1       2.031  27.494  28.250  1.00  0.00     0.019 A 
ATOM      8  C   UNL     1       1.623  28.189  29.389  1.00  0.00     0.094 A 
ATOM      9  C   UNL     1       2.232  27.897  30.614  1.00  0.00     0.336 A 
ATOM     10  O   UNL     1       1.877  28.513  31.653  1.00  0.00    -0.246 OA
ATOM     11  O   UNL     1       3.182  26.969  30.689  1.00  0.00    -0.423 OA
ENDROOT
BRANCH   1  12
ATOM     12  O   UNL     1       4.961  24.083  26.297  1.00  0.00    -0.493 OA
ATOM     13  C   UNL     1       4.181  23.736  25.157  1.00  0.00     0.278 C 
ENDBRANCH   1  12
BRANCH   2  14
ATOM     14  O   UNL     1       6.059  23.617  28.758  1.00  0.00    -0.493 OA
ATOM     15  C   UNL     1       6.981  23.523  29.839  1.00  0.00     0.278 C 
ENDBRANCH   2  14
TORSDOF 2
ENDMDL
