MODEL 1
REMARK VINA RESULT:    -0.613      0.000      0.000
REMARK INTER + INTRA:          -0.125
REMARK INTER:                  -0.756
REMARK INTRA:                   0.632
REMARK UNBOUND:                 0.632
REMARK SMILES C=C1[C@H]2CC[C@@H]3[C@H]2C(C)(C)CCC[C@]13C
REMARK SMILES IDX 14 1 6 2 7 3 3 4 2 5 1 6 4 7 5 8 15 9 8 10 9 11 10 12 11 13
REMARK SMILES IDX 13 15 12 16
REMARK H PARENT
REMARK Flexibility Score: 80.00
ROOT
ATOM      1  C   UNL     1       6.883   5.743  12.539  1.00  0.00    -0.008 C 
ATOM      2  C   UNL     1       6.988   7.164  11.858  1.00  0.00     0.003 C 
ATOM      3  C   UNL     1       6.111   8.082  12.735  1.00  0.00     0.006 C 
ATOM      4  C   UNL     1       6.806   7.672  14.034  1.00  0.00     0.019 C 
ATOM      5  C   UNL     1       6.723   6.173  13.976  1.00  0.00    -0.068 C 
ATOM      6  C   UNL     1       6.617   5.366  15.039  1.00  0.00     0.009 C 
ATOM      7  C   UNL     1       8.273   8.046  13.711  1.00  0.00     0.008 C 
ATOM      8  C   UNL     1       8.370   7.793  12.186  1.00  0.00     0.005 C 
ATOM      9  C   UNL     1       8.160   4.875  12.365  1.00  0.00     0.016 C 
ENDROOT
BRANCH   3  10
ATOM     10  C   UNL     1       4.527   8.003  12.627  1.00  0.00    -0.032 C 
ATOM     11  C   UNL     1       4.041   9.252  11.839  1.00  0.00     0.011 C 
ATOM     12  C   UNL     1       3.857   8.086  14.023  1.00  0.00     0.011 C 
BRANCH  10  13
ATOM     13  C   UNL     1       3.984   6.781  11.832  1.00  0.00     0.007 CG0
ATOM     14  G   UNL     1       4.294   5.410  12.426  1.00  0.00     0.000 G0
ENDBRANCH  10  13
ENDBRANCH   3  10
BRANCH   1  15
ATOM     15  C   UNL     1       5.683   4.911  12.011  1.00  0.00     0.011 C 
BRANCH  15  16
ATOM     16  C   UNL     1       4.297   5.407  12.415  1.00  0.00     0.001 CG0
ATOM     17  G   UNL     1       3.982   6.785  11.842  1.00  0.00     0.000 G0
ENDBRANCH  15  16
ENDBRANCH   1  15
TORSDOF 0
ENDMDL
MODEL 2
REMARK VINA RESULT:    -0.243      5.199      7.751
REMARK INTER + INTRA:           0.332
REMARK INTER:                  -0.295
REMARK INTRA:                   0.626
REMARK UNBOUND:                 0.632
REMARK SMILES C=C1[C@H]2CC[C@@H]3[C@H]2C(C)(C)CCC[C@]13C
REMARK SMILES IDX 14 1 6 2 7 3 3 4 2 5 1 6 4 7 5 8 15 9 8 10 9 11 10 12 11 13
REMARK SMILES IDX 13 15 12 16
REMARK H PARENT
REMARK Flexibility Score: 80.00
ROOT
ATOM      1  C   UNL     1       1.766  11.920  13.519  1.00  0.00    -0.008 C 
ATOM      2  C   UNL     1       0.984  12.921  12.580  1.00  0.00     0.003 C 
ATOM      3  C   UNL     1       1.941  13.173  11.396  1.00  0.00     0.006 C 
ATOM      4  C   UNL     1       2.150  11.683  11.120  1.00  0.00     0.019 C 
ATOM      5  C   UNL     1       2.546  11.164  12.473  1.00  0.00    -0.068 C 
ATOM      6  C   UNL     1       3.381  10.141  12.691  1.00  0.00     0.009 C 
ATOM      7  C   UNL     1       0.693  11.222  10.879  1.00  0.00     0.008 C 
ATOM      8  C   UNL     1      -0.125  12.149  11.812  1.00  0.00     0.005 C 
ATOM      9  C   UNL     1       0.837  10.960  14.313  1.00  0.00     0.016 C 
ENDROOT
BRANCH   3  10
ATOM     10  C   UNL     1       3.199  14.126  11.584  1.00  0.00    -0.032 C 
ATOM     11  C   UNL     1       2.885  15.473  10.875  1.00  0.00     0.011 C 
ATOM     12  C   UNL     1       4.457  13.553  10.880  1.00  0.00     0.011 C 
BRANCH  10  13
ATOM     13  C   UNL     1       3.522  14.504  13.058  1.00  0.00     0.007 CG0
ATOM     14  G   UNL     1       3.880  13.342  13.979  1.00  0.00     0.000 G0
ENDBRANCH  10  13
ENDBRANCH   3  10
BRANCH   1  15
ATOM     15  C   UNL     1       2.670  12.648  14.551  1.00  0.00     0.011 C 
BRANCH  15  16
ATOM     16  C   UNL     1       3.896  13.356  13.983  1.00  0.00     0.001 CG0
ATOM     17  G   UNL     1       3.524  14.481  13.021  1.00  0.00     0.000 G0
ENDBRANCH  15  16
ENDBRANCH   1  15
TORSDOF 0
ENDMDL
MODEL 3
REMARK VINA RESULT:     0.137      4.908      7.060
REMARK INTER + INTRA:           0.801
REMARK INTER:                  -0.393
REMARK INTRA:                   1.194
REMARK UNBOUND:                 0.632
REMARK SMILES C=C1[C@H]2CC[C@@H]3[C@H]2C(C)(C)CCC[C@]13C
REMARK SMILES IDX 14 1 6 2 7 3 3 4 2 5 1 6 4 7 5 8 15 9 8 10 9 11 10 12 11 13
REMARK SMILES IDX 13 15 12 16
REMARK H PARENT
REMARK Flexibility Score: 80.00
ROOT
ATOM      1  C   UNL     1       2.441  10.618  12.687  1.00  0.00    -0.008 C 
ATOM      2  C   UNL     1       2.509  11.844  13.682  1.00  0.00     0.003 C 
ATOM      3  C   UNL     1       1.982  13.040  12.862  1.00  0.00     0.006 C 
ATOM      4  C   UNL     1       0.703  12.315  12.442  1.00  0.00     0.019 C 
ATOM      5  C   UNL     1       1.240  11.032  11.874  1.00  0.00    -0.068 C 
ATOM      6  C   UNL     1       0.681  10.338  10.875  1.00  0.00     0.009 C 
ATOM      7  C   UNL     1       0.096  11.968  13.822  1.00  0.00     0.008 C 
ATOM      8  C   UNL     1       1.347  11.743  14.707  1.00  0.00     0.005 C 
ATOM      9  C   UNL     1       2.183   9.259  13.395  1.00  0.00     0.016 C 
ENDROOT
BRANCH   3  10
ATOM     10  C   UNL     1       2.908  13.715  11.760  1.00  0.00    -0.032 C 
ATOM     11  C   UNL     1       3.983  14.562  12.496  1.00  0.00     0.011 C 
ATOM     12  C   UNL     1       2.108  14.707  10.877  1.00  0.00     0.011 C 
BRANCH  10  13
ATOM     13  C   UNL     1       3.708  12.717  10.875  1.00  0.00     0.007 CG0
ATOM     14  G   UNL     1       4.562  11.700  11.626  1.00  0.00     0.000 G0
ENDBRANCH  10  13
ENDBRANCH   3  10
BRANCH   1  15
ATOM     15  C   UNL     1       3.732  10.461  11.838  1.00  0.00     0.011 C 
BRANCH  15  16
ATOM     16  C   UNL     1       4.530  11.738  11.594  1.00  0.00     0.001 CG0
ATOM     17  G   UNL     1       3.721  12.798  10.853  1.00  0.00     0.000 G0
ENDBRANCH  15  16
ENDBRANCH   1  15
TORSDOF 0
ENDMDL
MODEL 4
REMARK VINA RESULT:     1.447      2.572      5.493
REMARK INTER + INTRA:           2.417
REMARK INTER:                   1.779
REMARK INTRA:                   0.638
REMARK UNBOUND:                 0.632
REMARK SMILES C=C1[C@H]2CC[C@@H]3[C@H]2C(C)(C)CCC[C@]13C
REMARK SMILES IDX 14 1 6 2 7 3 3 4 2 5 1 6 4 7 5 8 15 9 8 10 9 11 10 12 11 13
REMARK SMILES IDX 13 15 12 16
REMARK H PARENT
REMARK Flexibility Score: 80.00
ROOT
ATOM      1  C   UNL     1       2.460  11.004  13.055  1.00  0.00    -0.008 C 
ATOM      2  C   UNL     1       4.008  11.319  13.092  1.00  0.00     0.003 C 
ATOM      3  C   UNL     1       4.607  10.464  11.956  1.00  0.00     0.006 C 
ATOM      4  C   UNL     1       3.624  10.991  10.909  1.00  0.00     0.019 C 
ATOM      5  C   UNL     1       2.298  10.758  11.576  1.00  0.00    -0.068 C 
ATOM      6  C   UNL     1       1.156  10.473  10.939  1.00  0.00     0.009 C 
ATOM      7  C   UNL     1       3.898  12.512  10.989  1.00  0.00     0.008 C 
ATOM      8  C   UNL     1       4.265  12.722  12.479  1.00  0.00     0.005 C 
ATOM      9  C   UNL     1       1.574  12.195  13.514  1.00  0.00     0.016 C 
ENDROOT
BRANCH   3  10
ATOM     10  C   UNL     1       4.787   8.897  12.153  1.00  0.00    -0.032 C 
ATOM     11  C   UNL     1       6.299   8.617  12.378  1.00  0.00     0.011 C 
ATOM     12  C   UNL     1       4.389   8.114  10.875  1.00  0.00     0.011 C 
BRANCH  10  13
ATOM     13  C   UNL     1       4.071   8.307  13.402  1.00  0.00     0.007 CG0
ATOM     14  G   UNL     1       2.551   8.439  13.421  1.00  0.00     0.000 G0
ENDBRANCH  10  13
ENDBRANCH   3  10
BRANCH   1  15
ATOM     15  C   UNL     1       2.075   9.778  13.926  1.00  0.00     0.011 C 
BRANCH  15  16
ATOM     16  C   UNL     1       2.547   8.420  13.414  1.00  0.00     0.001 CG0
ATOM     17  G   UNL     1       4.068   8.306  13.385  1.00  0.00     0.000 G0
ENDBRANCH  15  16
ENDBRANCH   1  15
TORSDOF 0
ENDMDL
MODEL 5
REMARK VINA RESULT:     1.751      1.411      3.038
REMARK INTER + INTRA:           2.793
REMARK INTER:                   2.155
REMARK INTRA:                   0.638
REMARK UNBOUND:                 0.632
REMARK SMILES C=C1[C@H]2CC[C@@H]3[C@H]2C(C)(C)CCC[C@]13C
REMARK SMILES IDX 14 1 6 2 7 3 3 4 2 5 1 6 4 7 5 8 15 9 8 10 9 11 10 12 11 13
REMARK SMILES IDX 13 15 12 16
REMARK H PARENT
REMARK Flexibility Score: 80.00
ROOT
ATOM      1  C   UNL     1       7.464   7.690  13.056  1.00  0.00    -0.008 C 
ATOM      2  C   UNL     1       6.431   7.254  14.169  1.00  0.00     0.003 C 
ATOM      3  C   UNL     1       5.364   6.437  13.411  1.00  0.00     0.006 C 
ATOM      4  C   UNL     1       6.394   5.516  12.753  1.00  0.00     0.019 C 
ATOM      5  C   UNL     1       7.347   6.500  12.136  1.00  0.00    -0.068 C 
ATOM      6  C   UNL     1       8.037   6.298  11.007  1.00  0.00     0.009 C 
ATOM      7  C   UNL     1       7.104   4.935  13.999  1.00  0.00     0.008 C 
ATOM      8  C   UNL     1       7.039   6.101  15.015  1.00  0.00     0.005 C 
ATOM      9  C   UNL     1       8.919   7.835  13.583  1.00  0.00     0.016 C 
ENDROOT
BRANCH   3  10
ATOM     10  C   UNL     1       4.284   7.182  12.514  1.00  0.00    -0.032 C 
ATOM     11  C   UNL     1       2.929   7.149  13.276  1.00  0.00     0.011 C 
ATOM     12  C   UNL     1       4.044   6.437  11.176  1.00  0.00     0.011 C 
BRANCH  10  13
ATOM     13  C   UNL     1       4.572   8.689  12.258  1.00  0.00     0.007 CG0
ATOM     14  G   UNL     1       5.843   8.999  11.471  1.00  0.00     0.000 G0
ENDBRANCH  10  13
ENDBRANCH   3  10
BRANCH   1  15
ATOM     15  C   UNL     1       7.083   9.031  12.374  1.00  0.00     0.011 C 
BRANCH  15  16
ATOM     16  C   UNL     1       5.844   9.000  11.485  1.00  0.00     0.001 CG0
ATOM     17  G   UNL     1       4.573   8.681  12.267  1.00  0.00     0.000 G0
ENDBRANCH  15  16
ENDBRANCH   1  15
TORSDOF 0
ENDMDL
MODEL 6
REMARK VINA RESULT:     1.828      1.637      3.894
REMARK INTER + INTRA:           2.887
REMARK INTER:                   2.247
REMARK INTRA:                   0.640
REMARK UNBOUND:                 0.632
REMARK SMILES C=C1[C@H]2CC[C@@H]3[C@H]2C(C)(C)CCC[C@]13C
REMARK SMILES IDX 14 1 6 2 7 3 3 4 2 5 1 6 4 7 5 8 15 9 8 10 9 11 10 12 11 13
REMARK SMILES IDX 13 15 12 16
REMARK H PARENT
REMARK Flexibility Score: 80.00
ROOT
ATOM      1  C   UNL     1       4.659   7.514  13.579  1.00  0.00    -0.008 C 
ATOM      2  C   UNL     1       5.498   8.773  13.124  1.00  0.00     0.003 C 
ATOM      3  C   UNL     1       6.554   8.207  12.153  1.00  0.00     0.006 C 
ATOM      4  C   UNL     1       5.518   7.480  11.294  1.00  0.00     0.019 C 
ATOM      5  C   UNL     1       4.757   6.690  12.320  1.00  0.00    -0.068 C 
ATOM      6  C   UNL     1       4.190   5.496  12.106  1.00  0.00     0.009 C 
ATOM      7  C   UNL     1       4.605   8.658  10.877  1.00  0.00     0.008 C 
ATOM      8  C   UNL     1       4.673   9.603  12.102  1.00  0.00     0.005 C 
ATOM      9  C   UNL     1       3.175   7.843  13.905  1.00  0.00     0.016 C 
ENDROOT
BRANCH   3  10
ATOM     10  C   UNL     1       7.808   7.412  12.721  1.00  0.00    -0.032 C 
ATOM     11  C   UNL     1       9.050   8.340  12.610  1.00  0.00     0.011 C 
ATOM     12  C   UNL     1       8.127   6.162  11.860  1.00  0.00     0.011 C 
BRANCH  10  13
ATOM     13  C   UNL     1       7.715   7.030  14.226  1.00  0.00     0.007 CG0
ATOM     14  G   UNL     1       6.584   6.078  14.602  1.00  0.00     0.000 G0
ENDBRANCH  10  13
ENDBRANCH   3  10
BRANCH   1  15
ATOM     15  C   UNL     1       5.261   6.808  14.823  1.00  0.00     0.011 C 
BRANCH  15  16
ATOM     16  C   UNL     1       6.584   6.081  14.604  1.00  0.00     0.001 CG0
ATOM     17  G   UNL     1       7.715   7.033  14.222  1.00  0.00     0.000 G0
ENDBRANCH  15  16
ENDBRANCH   1  15
TORSDOF 0
ENDMDL
MODEL 7
REMARK VINA RESULT:     1.986      5.607      7.269
REMARK INTER + INTRA:           3.082
REMARK INTER:                   2.436
REMARK INTRA:                   0.647
REMARK UNBOUND:                 0.632
REMARK SMILES C=C1[C@H]2CC[C@@H]3[C@H]2C(C)(C)CCC[C@]13C
REMARK SMILES IDX 14 1 6 2 7 3 3 4 2 5 1 6 4 7 5 8 15 9 8 10 9 11 10 12 11 13
REMARK SMILES IDX 13 15 12 16
REMARK H PARENT
REMARK Flexibility Score: 80.00
ROOT
ATOM      1  C   UNL     1       3.177  12.596  13.571  1.00  0.00    -0.008 C 
ATOM      2  C   UNL     1       3.221  11.394  12.546  1.00  0.00     0.003 C 
ATOM      3  C   UNL     1       2.229  11.794  11.434  1.00  0.00     0.006 C 
ATOM      4  C   UNL     1       2.873  13.164  11.215  1.00  0.00     0.019 C 
ATOM      5  C   UNL     1       2.902  13.724  12.609  1.00  0.00    -0.068 C 
ATOM      6  C   UNL     1       2.791  15.023  12.919  1.00  0.00     0.009 C 
ATOM      7  C   UNL     1       4.326  12.753  10.875  1.00  0.00     0.008 C 
ATOM      8  C   UNL     1       4.532  11.470  11.716  1.00  0.00     0.005 C 
ATOM      9  C   UNL     1       4.522  12.825  14.315  1.00  0.00     0.016 C 
ENDROOT
BRANCH   3  10
ATOM     10  C   UNL     1       0.664  11.689  11.693  1.00  0.00    -0.032 C 
ATOM     11  C   UNL     1       0.133  10.459  10.904  1.00  0.00     0.011 C 
ATOM     12  C   UNL     1      -0.090  12.920  11.127  1.00  0.00     0.011 C 
BRANCH  10  13
ATOM     13  C   UNL     1       0.260  11.432  13.173  1.00  0.00     0.007 CG0
ATOM     14  G   UNL     1       0.620  12.537  14.162  1.00  0.00     0.000 G0
ENDBRANCH  10  13
ENDBRANCH   3  10
BRANCH   1  15
ATOM     15  C   UNL     1       2.074  12.426  14.649  1.00  0.00     0.011 C 
BRANCH  15  16
ATOM     16  C   UNL     1       0.634  12.526  14.154  1.00  0.00     0.001 CG0
ATOM     17  G   UNL     1       0.286  11.428  13.153  1.00  0.00     0.000 G0
ENDBRANCH  15  16
ENDBRANCH   1  15
TORSDOF 0
ENDMDL
