MODEL 1
REMARK VINA RESULT:    -4.904      0.000      0.000
REMARK INTER + INTRA:          -7.887
REMARK INTER:                  -6.910
REMARK INTRA:                  -0.977
REMARK UNBOUND:                -0.977
REMARK SMILES COc1c(O[C@@H]2O[C@@H](C(=O)[O-])[C@H](O)[C@@H](O)[C@@H]2O)cc(O)c2c(=O)cc(-c3ccccc3)oc12
REMARK SMILES IDX 5 1 6 2 8 3 12 4 7 5 14 6 16 7 9 8 10 9 11 10 13 11 15 13
REMARK SMILES IDX 17 15 4 17 3 18 18 19 33 20 19 21 21 22 32 23 22 24 25 25
REMARK SMILES IDX 24 26 23 27 2 28 1 29 20 30 26 32 27 33 31 34 28 35 30 36
REMARK SMILES IDX 29 37
REMARK H PARENT 13 12 15 14 17 16 20 31
REMARK Flexibility Score: inf
ROOT
ATOM      1  O   UNL     1      25.784  32.112  40.997  1.00  0.00    -0.458 OA
ENDROOT
BRANCH   1   2
ATOM      2  C   UNL     1      26.196  33.336  40.376  1.00  0.00     0.339 C 
ATOM      3  C   UNL     1      24.921  35.305  40.974  1.00  0.00     0.199 C 
ATOM      4  C   UNL     1      23.668  34.607  40.392  1.00  0.00     0.180 C 
ATOM      5  O   UNL     1      25.969  34.400  41.300  1.00  0.00    -0.328 OA
ATOM      6  C   UNL     1      23.997  33.755  39.138  1.00  0.00     0.181 C 
ATOM      7  C   UNL     1      25.513  33.513  38.993  1.00  0.00     0.214 C 
BRANCH   3   8
ATOM      8  C   UNL     1      25.430  36.436  40.115  1.00  0.00     0.073 C 
ATOM      9  O   UNL     1      24.706  36.921  39.205  1.00  0.00    -0.547 OA
ATOM     10  O   UNL     1      26.675  37.000  40.366  1.00  0.00    -0.547 OA
ENDBRANCH   3   8
BRANCH   4  11
ATOM     11  O   UNL     1      23.113  33.793  41.393  1.00  0.00    -0.387 OA
ATOM     12  H   UNL     1      23.441  32.870  41.230  1.00  0.00     0.211 HD
ENDBRANCH   4  11
BRANCH   6  13
ATOM     13  O   UNL     1      23.530  34.398  37.980  1.00  0.00    -0.387 OA
ATOM     14  H   UNL     1      23.832  35.342  38.032  1.00  0.00     0.211 HD
ENDBRANCH   6  13
BRANCH   7  15
ATOM     15  O   UNL     1      25.778  32.428  38.137  1.00  0.00    -0.384 OA
ATOM     16  H   UNL     1      25.603  32.718  37.205  1.00  0.00     0.211 HD
ENDBRANCH   7  15
ENDBRANCH   1   2
BRANCH   1  17
ATOM     17  C   UNL     1      26.002  30.803  40.523  1.00  0.00     0.172 A 
ATOM     18  C   UNL     1      24.896  29.955  40.273  1.00  0.00     0.205 A 
ATOM     19  C   UNL     1      27.299  30.308  40.292  1.00  0.00     0.097 A 
ATOM     20  C   UNL     1      25.112  28.628  39.870  1.00  0.00     0.188 A 
ATOM     21  C   UNL     1      27.522  29.006  39.842  1.00  0.00     0.134 A 
ATOM     22  C   UNL     1      26.423  28.122  39.675  1.00  0.00     0.111 A 
ATOM     23  O   UNL     1      24.053  27.847  39.676  1.00  0.00    -0.452 OA
ATOM     24  C   UNL     1      26.541  26.748  39.356  1.00  0.00     0.197 A 
ATOM     25  C   UNL     1      24.133  26.570  39.319  1.00  0.00     0.138 A 
ATOM     26  C   UNL     1      25.392  25.980  39.162  1.00  0.00     0.100 A 
ATOM     27  O   UNL     1      27.658  26.176  39.275  1.00  0.00    -0.289 OA
BRANCH  18  28
ATOM     28  O   UNL     1      23.554  30.356  40.419  1.00  0.00    -0.490 OA
ATOM     29  C   UNL     1      22.787  30.329  41.616  1.00  0.00     0.278 C 
ENDBRANCH  18  28
BRANCH  21  30
ATOM     30  O   UNL     1      28.846  28.661  39.552  1.00  0.00    -0.507 OA
ATOM     31  H   UNL     1      29.600  28.662  40.222  1.00  0.00     0.293 HD
ENDBRANCH  21  30
BRANCH  25  32
ATOM     32  C   UNL     1      22.876  25.804  39.123  1.00  0.00     0.017 A 
ATOM     33  C   UNL     1      21.698  26.420  38.654  1.00  0.00     0.012 A 
ATOM     34  C   UNL     1      22.843  24.432  39.439  1.00  0.00     0.012 A 
ATOM     35  C   UNL     1      20.526  25.673  38.489  1.00  0.00     0.001 A 
ATOM     36  C   UNL     1      21.670  23.691  39.271  1.00  0.00     0.001 A 
ATOM     37  C   UNL     1      20.513  24.311  38.794  1.00  0.00     0.000 A 
ENDBRANCH  25  32
ENDBRANCH   1  17
TORSDOF 9
ENDMDL
MODEL 2
REMARK VINA RESULT:    -4.807      2.023      8.185
REMARK INTER + INTRA:          -7.751
REMARK INTER:                  -6.504
REMARK INTRA:                  -1.247
REMARK UNBOUND:                -0.977
REMARK SMILES COc1c(O[C@@H]2O[C@@H](C(=O)[O-])[C@H](O)[C@@H](O)[C@@H]2O)cc(O)c2c(=O)cc(-c3ccccc3)oc12
REMARK SMILES IDX 5 1 6 2 8 3 12 4 7 5 14 6 16 7 9 8 10 9 11 10 13 11 15 13
REMARK SMILES IDX 17 15 4 17 3 18 18 19 33 20 19 21 21 22 32 23 22 24 25 25
REMARK SMILES IDX 24 26 23 27 2 28 1 29 20 30 26 32 27 33 31 34 28 35 30 36
REMARK SMILES IDX 29 37
REMARK H PARENT 13 12 15 14 17 16 20 31
REMARK Flexibility Score: inf
ROOT
ATOM      1  O   UNL     1      24.146  27.412  40.420  1.00  0.00    -0.458 OA
ENDROOT
BRANCH   1   2
ATOM      2  C   UNL     1      23.061  27.129  39.528  1.00  0.00     0.339 C 
ATOM      3  C   UNL     1      21.226  25.858  40.465  1.00  0.00     0.199 C 
ATOM      4  C   UNL     1      22.228  24.712  40.740  1.00  0.00     0.180 C 
ATOM      5  O   UNL     1      21.852  27.124  40.287  1.00  0.00    -0.328 OA
ATOM      6  C   UNL     1      23.299  24.584  39.624  1.00  0.00     0.181 C 
ATOM      7  C   UNL     1      23.333  25.832  38.719  1.00  0.00     0.214 C 
BRANCH   3   8
ATOM      8  C   UNL     1      20.273  25.562  39.333  1.00  0.00     0.073 C 
ATOM      9  O   UNL     1      19.691  26.501  38.727  1.00  0.00    -0.547 OA
ATOM     10  O   UNL     1      20.081  24.254  38.903  1.00  0.00    -0.547 OA
ENDBRANCH   3   8
BRANCH   4  11
ATOM     11  O   UNL     1      22.850  24.958  41.975  1.00  0.00    -0.387 OA
ATOM     12  H   UNL     1      22.814  24.110  42.491  1.00  0.00     0.211 HD
ENDBRANCH   4  11
BRANCH   6  13
ATOM     13  O   UNL     1      23.037  23.456  38.829  1.00  0.00    -0.387 OA
ATOM     14  H   UNL     1      23.910  23.022  38.647  1.00  0.00     0.211 HD
ENDBRANCH   6  13
BRANCH   7  15
ATOM     15  O   UNL     1      24.539  25.908  37.999  1.00  0.00    -0.384 OA
ATOM     16  H   UNL     1      24.366  25.611  37.068  1.00  0.00     0.211 HD
ENDBRANCH   7  15
ENDBRANCH   1   2
BRANCH   1  17
ATOM     17  C   UNL     1      25.191  28.336  40.223  1.00  0.00     0.172 A 
ATOM     18  C   UNL     1      24.908  29.724  40.226  1.00  0.00     0.205 A 
ATOM     19  C   UNL     1      26.519  27.918  40.019  1.00  0.00     0.097 A 
ATOM     20  C   UNL     1      25.933  30.644  39.959  1.00  0.00     0.188 A 
ATOM     21  C   UNL     1      27.555  28.829  39.804  1.00  0.00     0.134 A 
ATOM     22  C   UNL     1      27.263  30.216  39.716  1.00  0.00     0.111 A 
ATOM     23  O   UNL     1      25.628  31.939  39.935  1.00  0.00    -0.452 OA
ATOM     24  C   UNL     1      28.206  31.212  39.368  1.00  0.00     0.197 A 
ATOM     25  C   UNL     1      26.506  32.900  39.670  1.00  0.00     0.138 A 
ATOM     26  C   UNL     1      27.827  32.555  39.364  1.00  0.00     0.100 A 
ATOM     27  O   UNL     1      29.382  30.926  39.023  1.00  0.00    -0.289 OA
BRANCH  18  28
ATOM     28  O   UNL     1      23.629  30.261  40.470  1.00  0.00    -0.490 OA
ATOM     29  C   UNL     1      22.981  30.363  41.731  1.00  0.00     0.278 C 
ENDBRANCH  18  28
BRANCH  21  30
ATOM     30  O   UNL     1      28.846  28.299  39.715  1.00  0.00    -0.507 OA
ATOM     31  H   UNL     1      29.286  27.733  40.425  1.00  0.00     0.293 HD
ENDBRANCH  21  30
BRANCH  25  32
ATOM     32  C   UNL     1      26.045  34.312  39.683  1.00  0.00     0.017 A 
ATOM     33  C   UNL     1      26.562  35.252  40.597  1.00  0.00     0.012 A 
ATOM     34  C   UNL     1      25.045  34.723  38.781  1.00  0.00     0.012 A 
ATOM     35  C   UNL     1      26.101  36.573  40.591  1.00  0.00     0.001 A 
ATOM     36  C   UNL     1      24.589  36.044  38.778  1.00  0.00     0.001 A 
ATOM     37  C   UNL     1      25.119  36.968  39.681  1.00  0.00     0.000 A 
ENDBRANCH  25  32
ENDBRANCH   1  17
TORSDOF 9
ENDMDL
MODEL 3
REMARK VINA RESULT:    -4.764     13.837     16.570
REMARK INTER + INTRA:          -7.690
REMARK INTER:                  -6.393
REMARK INTRA:                  -1.297
REMARK UNBOUND:                -0.977
REMARK SMILES COc1c(O[C@@H]2O[C@@H](C(=O)[O-])[C@H](O)[C@@H](O)[C@@H]2O)cc(O)c2c(=O)cc(-c3ccccc3)oc12
REMARK SMILES IDX 5 1 6 2 8 3 12 4 7 5 14 6 16 7 9 8 10 9 11 10 13 11 15 13
REMARK SMILES IDX 17 15 4 17 3 18 18 19 33 20 19 21 21 22 32 23 22 24 25 25
REMARK SMILES IDX 24 26 23 27 2 28 1 29 20 30 26 32 27 33 31 34 28 35 30 36
REMARK SMILES IDX 29 37
REMARK H PARENT 13 12 15 14 17 16 20 31
REMARK Flexibility Score: inf
ROOT
ATOM      1  O   UNL     1      22.788  27.218  53.155  1.00  0.00    -0.458 OA
ENDROOT
BRANCH   1   2
ATOM      2  C   UNL     1      23.721  27.132  54.239  1.00  0.00     0.339 C 
ATOM      3  C   UNL     1      26.013  27.699  53.708  1.00  0.00     0.199 C 
ATOM      4  C   UNL     1      26.010  26.537  52.687  1.00  0.00     0.180 C 
ATOM      5  O   UNL     1      24.708  28.147  54.057  1.00  0.00    -0.328 OA
ATOM      6  C   UNL     1      25.184  25.320  53.181  1.00  0.00     0.181 C 
ATOM      7  C   UNL     1      24.280  25.690  54.375  1.00  0.00     0.214 C 
BRANCH   3   8
ATOM      8  C   UNL     1      26.834  27.412  54.941  1.00  0.00     0.073 C 
ATOM      9  O   UNL     1      27.741  26.539  54.913  1.00  0.00    -0.547 OA
ATOM     10  O   UNL     1      26.643  28.157  56.099  1.00  0.00    -0.547 OA
ENDBRANCH   3   8
BRANCH   4  11
ATOM     11  O   UNL     1      25.482  27.015  51.477  1.00  0.00    -0.387 OA
ATOM     12  H   UNL     1      24.935  26.282  51.090  1.00  0.00     0.211 HD
ENDBRANCH   4  11
BRANCH   6  13
ATOM     13  O   UNL     1      26.042  24.279  53.571  1.00  0.00    -0.387 OA
ATOM     14  H   UNL     1      25.784  23.479  53.042  1.00  0.00     0.211 HD
ENDBRANCH   6  13
BRANCH   7  15
ATOM     15  O   UNL     1      23.252  24.745  54.550  1.00  0.00    -0.384 OA
ATOM     16  H   UNL     1      22.462  25.210  54.929  1.00  0.00     0.211 HD
ENDBRANCH   7  15
ENDBRANCH   1   2
BRANCH   1  17
ATOM     17  C   UNL     1      21.391  27.385  53.245  1.00  0.00     0.172 A 
ATOM     18  C   UNL     1      20.861  28.618  53.697  1.00  0.00     0.205 A 
ATOM     19  C   UNL     1      20.500  26.352  52.899  1.00  0.00     0.097 A 
ATOM     20  C   UNL     1      19.475  28.764  53.856  1.00  0.00     0.188 A 
ATOM     21  C   UNL     1      19.117  26.506  53.005  1.00  0.00     0.134 A 
ATOM     22  C   UNL     1      18.582  27.707  53.542  1.00  0.00     0.111 A 
ATOM     23  O   UNL     1      19.010  29.924  54.314  1.00  0.00    -0.452 OA
ATOM     24  C   UNL     1      17.211  27.919  53.821  1.00  0.00     0.197 A 
ATOM     25  C   UNL     1      17.723  30.170  54.528  1.00  0.00     0.138 A 
ATOM     26  C   UNL     1      16.784  29.159  54.298  1.00  0.00     0.100 A 
ATOM     27  O   UNL     1      16.354  27.007  53.687  1.00  0.00    -0.289 OA
BRANCH  18  28
ATOM     28  O   UNL     1      21.652  29.737  54.021  1.00  0.00    -0.490 OA
ATOM     29  C   UNL     1      22.207  30.675  53.107  1.00  0.00     0.278 C 
ENDBRANCH  18  28
BRANCH  21  30
ATOM     30  O   UNL     1      18.332  25.447  52.538  1.00  0.00    -0.507 OA
ATOM     31  H   UNL     1      17.540  25.547  51.921  1.00  0.00     0.293 HD
ENDBRANCH  21  30
BRANCH  25  32
ATOM     32  C   UNL     1      17.328  31.510  55.034  1.00  0.00     0.017 A 
ATOM     33  C   UNL     1      17.409  32.661  54.224  1.00  0.00     0.012 A 
ATOM     34  C   UNL     1      16.887  31.647  56.364  1.00  0.00     0.012 A 
ATOM     35  C   UNL     1      17.038  33.911  54.731  1.00  0.00     0.001 A 
ATOM     36  C   UNL     1      16.516  32.898  56.864  1.00  0.00     0.001 A 
ATOM     37  C   UNL     1      16.590  34.028  56.048  1.00  0.00     0.000 A 
ENDBRANCH  25  32
ENDBRANCH   1  17
TORSDOF 9
ENDMDL
MODEL 4
REMARK VINA RESULT:    -4.762     13.482     16.027
REMARK INTER + INTRA:          -7.688
REMARK INTER:                  -6.175
REMARK INTRA:                  -1.513
REMARK UNBOUND:                -0.977
REMARK SMILES COc1c(O[C@@H]2O[C@@H](C(=O)[O-])[C@H](O)[C@@H](O)[C@@H]2O)cc(O)c2c(=O)cc(-c3ccccc3)oc12
REMARK SMILES IDX 5 1 6 2 8 3 12 4 7 5 14 6 16 7 9 8 10 9 11 10 13 11 15 13
REMARK SMILES IDX 17 15 4 17 3 18 18 19 33 20 19 21 21 22 32 23 22 24 25 25
REMARK SMILES IDX 24 26 23 27 2 28 1 29 20 30 26 32 27 33 31 34 28 35 30 36
REMARK SMILES IDX 29 37
REMARK H PARENT 13 12 15 14 17 16 20 31
REMARK Flexibility Score: inf
ROOT
ATOM      1  O   UNL     1      23.632  28.083  52.560  1.00  0.00    -0.458 OA
ENDROOT
BRANCH   1   2
ATOM      2  C   UNL     1      24.648  27.232  53.106  1.00  0.00     0.339 C 
ATOM      3  C   UNL     1      25.664  27.989  55.168  1.00  0.00     0.199 C 
ATOM      4  C   UNL     1      26.135  29.254  54.412  1.00  0.00     0.180 C 
ATOM      5  O   UNL     1      24.583  27.320  54.529  1.00  0.00    -0.328 OA
ATOM      6  C   UNL     1      26.539  28.947  52.945  1.00  0.00     0.181 C 
ATOM      7  C   UNL     1      26.035  27.563  52.491  1.00  0.00     0.214 C 
BRANCH   3   8
ATOM      8  C   UNL     1      26.784  27.028  55.485  1.00  0.00     0.073 C 
ATOM      9  O   UNL     1      26.569  25.788  55.517  1.00  0.00    -0.547 OA
ATOM     10  O   UNL     1      28.077  27.499  55.678  1.00  0.00    -0.547 OA
ENDBRANCH   3   8
BRANCH   4  11
ATOM     11  O   UNL     1      25.094  30.195  54.436  1.00  0.00    -0.387 OA
ATOM     12  H   UNL     1      24.428  29.907  53.757  1.00  0.00     0.211 HD
ENDBRANCH   4  11
BRANCH   6  13
ATOM     13  O   UNL     1      27.936  28.986  52.809  1.00  0.00    -0.387 OA
ATOM     14  H   UNL     1      28.162  28.456  52.002  1.00  0.00     0.211 HD
ENDBRANCH   6  13
BRANCH   7  15
ATOM     15  O   UNL     1      26.024  27.457  51.088  1.00  0.00    -0.384 OA
ATOM     16  H   UNL     1      25.079  27.423  50.786  1.00  0.00     0.211 HD
ENDBRANCH   7  15
ENDBRANCH   1   2
BRANCH   1  17
ATOM     17  C   UNL     1      22.240  27.979  52.756  1.00  0.00     0.172 A 
ATOM     18  C   UNL     1      21.522  29.081  53.279  1.00  0.00     0.205 A 
ATOM     19  C   UNL     1      21.537  26.800  52.446  1.00  0.00     0.097 A 
ATOM     20  C   UNL     1      20.149  28.958  53.542  1.00  0.00     0.188 A 
ATOM     21  C   UNL     1      20.162  26.685  52.656  1.00  0.00     0.134 A 
ATOM     22  C   UNL     1      19.452  27.755  53.264  1.00  0.00     0.111 A 
ATOM     23  O   UNL     1      19.510  30.001  54.065  1.00  0.00    -0.452 OA
ATOM     24  C   UNL     1      18.090  27.697  53.646  1.00  0.00     0.197 A 
ATOM     25  C   UNL     1      18.220  29.994  54.379  1.00  0.00     0.138 A 
ATOM     26  C   UNL     1      17.474  28.825  54.188  1.00  0.00     0.100 A 
ATOM     27  O   UNL     1      17.414  26.640  53.549  1.00  0.00    -0.289 OA
BRANCH  18  28
ATOM     28  O   UNL     1      22.109  30.326  53.577  1.00  0.00    -0.490 OA
ATOM     29  C   UNL     1      22.307  31.407  52.674  1.00  0.00     0.278 C 
ENDBRANCH  18  28
BRANCH  21  30
ATOM     30  O   UNL     1      19.558  25.502  52.216  1.00  0.00    -0.507 OA
ATOM     31  H   UNL     1      18.811  25.455  51.540  1.00  0.00     0.293 HD
ENDBRANCH  21  30
BRANCH  25  32
ATOM     32  C   UNL     1      17.618  31.227  54.949  1.00  0.00     0.017 A 
ATOM     33  C   UNL     1      17.621  32.448  54.244  1.00  0.00     0.012 A 
ATOM     34  C   UNL     1      17.052  31.190  56.237  1.00  0.00     0.012 A 
ATOM     35  C   UNL     1      17.055  33.594  54.811  1.00  0.00     0.001 A 
ATOM     36  C   UNL     1      16.486  32.338  56.798  1.00  0.00     0.001 A 
ATOM     37  C   UNL     1      16.486  33.539  56.084  1.00  0.00     0.000 A 
ENDBRANCH  25  32
ENDBRANCH   1  17
TORSDOF 9
ENDMDL
MODEL 5
REMARK VINA RESULT:    -4.742     13.938     16.919
REMARK INTER + INTRA:          -7.660
REMARK INTER:                  -6.461
REMARK INTRA:                  -1.199
REMARK UNBOUND:                -0.977
REMARK SMILES COc1c(O[C@@H]2O[C@@H](C(=O)[O-])[C@H](O)[C@@H](O)[C@@H]2O)cc(O)c2c(=O)cc(-c3ccccc3)oc12
REMARK SMILES IDX 5 1 6 2 8 3 12 4 7 5 14 6 16 7 9 8 10 9 11 10 13 11 15 13
REMARK SMILES IDX 17 15 4 17 3 18 18 19 33 20 19 21 21 22 32 23 22 24 25 25
REMARK SMILES IDX 24 26 23 27 2 28 1 29 20 30 26 32 27 33 31 34 28 35 30 36
REMARK SMILES IDX 29 37
REMARK H PARENT 13 12 15 14 17 16 20 31
REMARK Flexibility Score: inf
ROOT
ATOM      1  O   UNL     1      21.532  28.334  52.496  1.00  0.00    -0.458 OA
ENDROOT
BRANCH   1   2
ATOM      2  C   UNL     1      22.306  27.130  52.418  1.00  0.00     0.339 C 
ATOM      3  C   UNL     1      23.662  26.620  54.358  1.00  0.00     0.199 C 
ATOM      4  C   UNL     1      24.409  27.955  54.124  1.00  0.00     0.180 C 
ATOM      5  O   UNL     1      22.387  26.570  53.728  1.00  0.00    -0.328 OA
ATOM      6  C   UNL     1      24.586  28.274  52.616  1.00  0.00     0.181 C 
ATOM      7  C   UNL     1      23.675  27.396  51.735  1.00  0.00     0.214 C 
BRANCH   3   8
ATOM      8  C   UNL     1      24.485  25.404  54.012  1.00  0.00     0.073 C 
ATOM      9  O   UNL     1      25.742  25.474  53.979  1.00  0.00    -0.547 OA
ATOM     10  O   UNL     1      23.867  24.179  53.793  1.00  0.00    -0.547 OA
ENDBRANCH   3   8
BRANCH   4  11
ATOM     11  O   UNL     1      23.682  28.982  54.749  1.00  0.00    -0.387 OA
ATOM     12  H   UNL     1      23.582  29.712  54.083  1.00  0.00     0.211 HD
ENDBRANCH   4  11
BRANCH   6  13
ATOM     13  O   UNL     1      25.921  28.067  52.231  1.00  0.00    -0.387 OA
ATOM     14  H   UNL     1      26.403  27.733  53.032  1.00  0.00     0.211 HD
ENDBRANCH   6  13
BRANCH   7  15
ATOM     15  O   UNL     1      23.519  27.950  50.450  1.00  0.00    -0.384 OA
ATOM     16  H   UNL     1      24.404  27.952  50.003  1.00  0.00     0.211 HD
ENDBRANCH   7  15
ENDBRANCH   1   2
BRANCH   1  17
ATOM     17  C   UNL     1      20.237  28.479  53.033  1.00  0.00     0.172 A 
ATOM     18  C   UNL     1      19.850  29.717  53.602  1.00  0.00     0.205 A 
ATOM     19  C   UNL     1      19.310  27.420  53.023  1.00  0.00     0.097 A 
ATOM     20  C   UNL     1      18.588  29.844  54.201  1.00  0.00     0.188 A 
ATOM     21  C   UNL     1      18.034  27.553  53.571  1.00  0.00     0.134 A 
ATOM     22  C   UNL     1      17.671  28.762  54.223  1.00  0.00     0.111 A 
ATOM     23  O   UNL     1      18.266  31.009  54.756  1.00  0.00    -0.452 OA
ATOM     24  C   UNL     1      16.460  28.958  54.929  1.00  0.00     0.197 A 
ATOM     25  C   UNL     1      17.113  31.240  55.373  1.00  0.00     0.138 A 
ATOM     26  C   UNL     1      16.178  30.205  55.487  1.00  0.00     0.100 A 
ATOM     27  O   UNL     1      15.632  28.028  55.105  1.00  0.00    -0.289 OA
BRANCH  18  28
ATOM     28  O   UNL     1      20.672  30.860  53.621  1.00  0.00    -0.490 OA
ATOM     29  C   UNL     1      20.871  31.778  52.554  1.00  0.00     0.278 C 
ENDBRANCH  18  28
BRANCH  21  30
ATOM     30  O   UNL     1      17.168  26.466  53.413  1.00  0.00    -0.507 OA
ATOM     31  H   UNL     1      16.271  26.507  52.952  1.00  0.00     0.293 HD
ENDBRANCH  21  30
BRANCH  25  32
ATOM     32  C   UNL     1      16.868  32.589  55.946  1.00  0.00     0.017 A 
ATOM     33  C   UNL     1      16.659  32.781  57.327  1.00  0.00     0.012 A 
ATOM     34  C   UNL     1      16.813  33.706  55.091  1.00  0.00     0.012 A 
ATOM     35  C   UNL     1      16.421  34.062  57.835  1.00  0.00     0.001 A 
ATOM     36  C   UNL     1      16.577  34.984  55.605  1.00  0.00     0.001 A 
ATOM     37  C   UNL     1      16.384  35.161  56.977  1.00  0.00     0.000 A 
ENDBRANCH  25  32
ENDBRANCH   1  17
TORSDOF 9
ENDMDL
MODEL 6
REMARK VINA RESULT:    -4.709     13.379     15.773
REMARK INTER + INTRA:          -7.613
REMARK INTER:                  -6.124
REMARK INTRA:                  -1.490
REMARK UNBOUND:                -0.977
REMARK SMILES COc1c(O[C@@H]2O[C@@H](C(=O)[O-])[C@H](O)[C@@H](O)[C@@H]2O)cc(O)c2c(=O)cc(-c3ccccc3)oc12
REMARK SMILES IDX 5 1 6 2 8 3 12 4 7 5 14 6 16 7 9 8 10 9 11 10 13 11 15 13
REMARK SMILES IDX 17 15 4 17 3 18 18 19 33 20 19 21 21 22 32 23 22 24 25 25
REMARK SMILES IDX 24 26 23 27 2 28 1 29 20 30 26 32 27 33 31 34 28 35 30 36
REMARK SMILES IDX 29 37
REMARK H PARENT 13 12 15 14 17 16 20 31
REMARK Flexibility Score: inf
ROOT
ATOM      1  O   UNL     1      24.911  29.198  53.100  1.00  0.00    -0.458 OA
ENDROOT
BRANCH   1   2
ATOM      2  C   UNL     1      26.066  29.382  53.928  1.00  0.00     0.339 C 
ATOM      3  C   UNL     1      28.025  28.102  53.309  1.00  0.00     0.199 C 
ATOM      4  C   UNL     1      27.193  26.816  53.535  1.00  0.00     0.180 C 
ATOM      5  O   UNL     1      27.226  29.262  53.106  1.00  0.00    -0.328 OA
ATOM      6  C   UNL     1      26.206  26.954  54.723  1.00  0.00     0.181 C 
ATOM      7  C   UNL     1      26.028  28.425  55.151  1.00  0.00     0.214 C 
BRANCH   3   8
ATOM      8  C   UNL     1      29.062  28.340  54.379  1.00  0.00     0.073 C 
ATOM      9  O   UNL     1      29.495  27.381  55.071  1.00  0.00    -0.547 OA
ATOM     10  O   UNL     1      29.600  29.608  54.564  1.00  0.00    -0.547 OA
ENDBRANCH   3   8
BRANCH   4  11
ATOM     11  O   UNL     1      26.486  26.537  52.354  1.00  0.00    -0.387 OA
ATOM     12  H   UNL     1      26.862  27.124  51.646  1.00  0.00     0.211 HD
ENDBRANCH   4  11
BRANCH   6  13
ATOM     13  O   UNL     1      26.669  26.217  55.825  1.00  0.00    -0.387 OA
ATOM     14  H   UNL     1      26.787  25.281  55.517  1.00  0.00     0.211 HD
ENDBRANCH   6  13
BRANCH   7  15
ATOM     15  O   UNL     1      24.858  28.598  55.913  1.00  0.00    -0.384 OA
ATOM     16  H   UNL     1      24.568  27.709  56.245  1.00  0.00     0.211 HD
ENDBRANCH   7  15
ENDBRANCH   1   2
BRANCH   1  17
ATOM     17  C   UNL     1      23.733  29.972  53.099  1.00  0.00     0.172 A 
ATOM     18  C   UNL     1      22.543  29.435  53.647  1.00  0.00     0.205 A 
ATOM     19  C   UNL     1      23.704  31.272  52.562  1.00  0.00     0.097 A 
ATOM     20  C   UNL     1      21.352  30.174  53.583  1.00  0.00     0.188 A 
ATOM     21  C   UNL     1      22.536  32.035  52.540  1.00  0.00     0.134 A 
ATOM     22  C   UNL     1      21.319  31.469  53.006  1.00  0.00     0.111 A 
ATOM     23  O   UNL     1      20.243  29.629  54.077  1.00  0.00    -0.452 OA
ATOM     24  C   UNL     1      20.055  32.098  52.907  1.00  0.00     0.197 A 
ATOM     25  C   UNL     1      19.055  30.221  54.051  1.00  0.00     0.138 A 
ATOM     26  C   UNL     1      18.928  31.477  53.447  1.00  0.00     0.100 A 
ATOM     27  O   UNL     1      19.899  33.195  52.311  1.00  0.00    -0.289 OA
BRANCH  18  28
ATOM     28  O   UNL     1      22.464  28.169  54.257  1.00  0.00    -0.490 OA
ATOM     29  C   UNL     1      22.513  26.908  53.601  1.00  0.00     0.278 C 
ENDBRANCH  18  28
BRANCH  21  30
ATOM     30  O   UNL     1      22.654  33.348  52.074  1.00  0.00    -0.507 OA
ATOM     31  H   UNL     1      22.694  34.166  52.663  1.00  0.00     0.293 HD
ENDBRANCH  21  30
BRANCH  25  32
ATOM     32  C   UNL     1      17.892  29.512  54.644  1.00  0.00     0.017 A 
ATOM     33  C   UNL     1      17.259  28.442  53.980  1.00  0.00     0.012 A 
ATOM     34  C   UNL     1      17.384  29.932  55.888  1.00  0.00     0.012 A 
ATOM     35  C   UNL     1      16.159  27.800  54.559  1.00  0.00     0.001 A 
ATOM     36  C   UNL     1      16.287  29.286  56.463  1.00  0.00     0.001 A 
ATOM     37  C   UNL     1      15.677  28.218  55.800  1.00  0.00     0.000 A 
ENDBRANCH  25  32
ENDBRANCH   1  17
TORSDOF 9
ENDMDL
MODEL 7
REMARK VINA RESULT:    -4.667     13.435     15.588
REMARK INTER + INTRA:          -7.554
REMARK INTER:                  -5.939
REMARK INTRA:                  -1.615
REMARK UNBOUND:                -0.977
REMARK SMILES COc1c(O[C@@H]2O[C@@H](C(=O)[O-])[C@H](O)[C@@H](O)[C@@H]2O)cc(O)c2c(=O)cc(-c3ccccc3)oc12
REMARK SMILES IDX 5 1 6 2 8 3 12 4 7 5 14 6 16 7 9 8 10 9 11 10 13 11 15 13
REMARK SMILES IDX 17 15 4 17 3 18 18 19 33 20 19 21 21 22 32 23 22 24 25 25
REMARK SMILES IDX 24 26 23 27 2 28 1 29 20 30 26 32 27 33 31 34 28 35 30 36
REMARK SMILES IDX 29 37
REMARK H PARENT 13 12 15 14 17 16 20 31
REMARK Flexibility Score: inf
ROOT
ATOM      1  O   UNL     1      25.705  28.770  52.907  1.00  0.00    -0.458 OA
ENDROOT
BRANCH   1   2
ATOM      2  C   UNL     1      26.817  28.247  53.644  1.00  0.00     0.339 C 
ATOM      3  C   UNL     1      27.058  29.061  55.911  1.00  0.00     0.199 C 
ATOM      4  C   UNL     1      27.206  30.487  55.329  1.00  0.00     0.180 C 
ATOM      5  O   UNL     1      26.433  28.149  55.016  1.00  0.00    -0.328 OA
ATOM      6  C   UNL     1      27.985  30.497  53.987  1.00  0.00     0.181 C 
ATOM      7  C   UNL     1      28.098  29.084  53.381  1.00  0.00     0.214 C 
BRANCH   3   8
ATOM      8  C   UNL     1      28.350  28.495  56.447  1.00  0.00     0.073 C 
ATOM      9  O   UNL     1      28.544  27.250  56.458  1.00  0.00    -0.547 OA
ATOM     10  O   UNL     1      29.365  29.345  56.870  1.00  0.00    -0.547 OA
ENDBRANCH   3   8
BRANCH   4  11
ATOM     11  O   UNL     1      25.922  31.022  55.143  1.00  0.00    -0.387 OA
ATOM     12  H   UNL     1      25.392  30.790  55.950  1.00  0.00     0.211 HD
ENDBRANCH   4  11
BRANCH   6  13
ATOM     13  O   UNL     1      29.278  31.011  54.181  1.00  0.00    -0.387 OA
ATOM     14  H   UNL     1      29.838  30.262  54.515  1.00  0.00     0.211 HD
ENDBRANCH   6  13
BRANCH   7  15
ATOM     15  O   UNL     1      28.414  29.139  52.011  1.00  0.00    -0.384 OA
ATOM     16  H   UNL     1      27.929  28.407  51.550  1.00  0.00     0.211 HD
ENDBRANCH   7  15
ENDBRANCH   1   2
BRANCH   1  17
ATOM     17  C   UNL     1      24.375  28.304  52.929  1.00  0.00     0.172 A 
ATOM     18  C   UNL     1      23.331  29.184  53.305  1.00  0.00     0.205 A 
ATOM     19  C   UNL     1      24.051  26.978  52.588  1.00  0.00     0.097 A 
ATOM     20  C   UNL     1      22.015  28.705  53.397  1.00  0.00     0.188 A 
ATOM     21  C   UNL     1      22.738  26.506  52.627  1.00  0.00     0.134 A 
ATOM     22  C   UNL     1      21.699  27.357  53.089  1.00  0.00     0.111 A 
ATOM     23  O   UNL     1      21.062  29.549  53.785  1.00  0.00    -0.452 OA
ATOM     24  C   UNL     1      20.361  26.946  53.299  1.00  0.00     0.197 A 
ATOM     25  C   UNL     1      19.788  29.205  53.933  1.00  0.00     0.138 A 
ATOM     26  C   UNL     1      19.405  27.878  53.704  1.00  0.00     0.100 A 
ATOM     27  O   UNL     1      20.003  25.748  53.166  1.00  0.00    -0.289 OA
BRANCH  18  28
ATOM     28  O   UNL     1      23.528  30.543  53.616  1.00  0.00    -0.490 OA
ATOM     29  C   UNL     1      23.560  31.627  52.696  1.00  0.00     0.278 C 
ENDBRANCH  18  28
BRANCH  21  30
ATOM     30  O   UNL     1      22.528  25.201  52.171  1.00  0.00    -0.507 OA
ATOM     31  H   UNL     1      21.907  24.949  51.417  1.00  0.00     0.293 HD
ENDBRANCH  21  30
BRANCH  25  32
ATOM     32  C   UNL     1      18.815  30.241  54.364  1.00  0.00     0.017 A 
ATOM     33  C   UNL     1      17.985  30.057  55.488  1.00  0.00     0.012 A 
ATOM     34  C   UNL     1      18.691  31.429  53.619  1.00  0.00     0.012 A 
ATOM     35  C   UNL     1      17.071  31.047  55.864  1.00  0.00     0.001 A 
ATOM     36  C   UNL     1      17.778  32.416  54.000  1.00  0.00     0.001 A 
ATOM     37  C   UNL     1      16.971  32.226  55.123  1.00  0.00     0.000 A 
ENDBRANCH  25  32
ENDBRANCH   1  17
TORSDOF 9
ENDMDL
MODEL 8
REMARK VINA RESULT:    -4.582      2.107      9.128
REMARK INTER + INTRA:          -7.434
REMARK INTER:                  -6.236
REMARK INTRA:                  -1.198
REMARK UNBOUND:                -0.977
REMARK SMILES COc1c(O[C@@H]2O[C@@H](C(=O)[O-])[C@H](O)[C@@H](O)[C@@H]2O)cc(O)c2c(=O)cc(-c3ccccc3)oc12
REMARK SMILES IDX 5 1 6 2 8 3 12 4 7 5 14 6 16 7 9 8 10 9 11 10 13 11 15 13
REMARK SMILES IDX 17 15 4 17 3 18 18 19 33 20 19 21 21 22 32 23 22 24 25 25
REMARK SMILES IDX 24 26 23 27 2 28 1 29 20 30 26 32 27 33 31 34 28 35 30 36
REMARK SMILES IDX 29 37
REMARK H PARENT 13 12 15 14 17 16 20 31
REMARK Flexibility Score: inf
ROOT
ATOM      1  O   UNL     1      24.996  29.246  40.565  1.00  0.00    -0.458 OA
ENDROOT
BRANCH   1   2
ATOM      2  C   UNL     1      24.430  28.187  39.783  1.00  0.00     0.339 C 
ATOM      3  C   UNL     1      24.670  25.957  40.694  1.00  0.00     0.199 C 
ATOM      4  C   UNL     1      26.204  26.146  40.619  1.00  0.00     0.180 C 
ATOM      5  O   UNL     1      23.949  27.184  40.676  1.00  0.00    -0.328 OA
ATOM      6  C   UNL     1      26.637  26.959  39.371  1.00  0.00     0.181 C 
ATOM      7  C   UNL     1      25.443  27.685  38.718  1.00  0.00     0.214 C 
BRANCH   3   8
ATOM      8  C   UNL     1      24.133  24.999  39.659  1.00  0.00     0.073 C 
ATOM      9  O   UNL     1      24.859  24.074  39.210  1.00  0.00    -0.547 OA
ATOM     10  O   UNL     1      22.810  25.088  39.242  1.00  0.00    -0.547 OA
ENDBRANCH   3   8
BRANCH   4  11
ATOM     11  O   UNL     1      26.623  26.802  41.788  1.00  0.00    -0.387 OA
ATOM     12  H   UNL     1      25.993  26.539  42.509  1.00  0.00     0.211 HD
ENDBRANCH   4  11
BRANCH   6  13
ATOM     13  O   UNL     1      27.224  26.109  38.420  1.00  0.00    -0.387 OA
ATOM     14  H   UNL     1      26.751  26.266  37.562  1.00  0.00     0.211 HD
ENDBRANCH   6  13
BRANCH   7  15
ATOM     15  O   UNL     1      25.875  28.725  37.876  1.00  0.00    -0.384 OA
ATOM     16  H   UNL     1      25.076  29.214  37.549  1.00  0.00     0.211 HD
ENDBRANCH   7  15
ENDBRANCH   1   2
BRANCH   1  17
ATOM     17  C   UNL     1      24.432  30.513  40.817  1.00  0.00     0.172 A 
ATOM     18  C   UNL     1      25.217  31.677  40.637  1.00  0.00     0.205 A 
ATOM     19  C   UNL     1      23.100  30.655  41.248  1.00  0.00     0.097 A 
ATOM     20  C   UNL     1      24.682  32.935  40.955  1.00  0.00     0.188 A 
ATOM     21  C   UNL     1      22.542  31.906  41.517  1.00  0.00     0.134 A 
ATOM     22  C   UNL     1      23.351  33.070  41.425  1.00  0.00     0.111 A 
ATOM     23  O   UNL     1      25.456  34.007  40.807  1.00  0.00    -0.452 OA
ATOM     24  C   UNL     1      22.931  34.368  41.804  1.00  0.00     0.197 A 
ATOM     25  C   UNL     1      25.068  35.243  41.098  1.00  0.00     0.138 A 
ATOM     26  C   UNL     1      23.788  35.454  41.622  1.00  0.00     0.100 A 
ATOM     27  O   UNL     1      21.813  34.578  42.340  1.00  0.00    -0.289 OA
BRANCH  18  28
ATOM     28  O   UNL     1      26.542  31.661  40.161  1.00  0.00    -0.490 OA
ATOM     29  C   UNL     1      26.963  31.871  38.819  1.00  0.00     0.278 C 
ENDBRANCH  18  28
BRANCH  21  30
ATOM     30  O   UNL     1      21.182  31.929  41.842  1.00  0.00    -0.507 OA
ATOM     31  H   UNL     1      20.623  32.765  41.919  1.00  0.00     0.293 HD
ENDBRANCH  21  30
BRANCH  25  32
ATOM     32  C   UNL     1      26.023  36.360  40.880  1.00  0.00     0.017 A 
ATOM     33  C   UNL     1      27.410  36.198  41.076  1.00  0.00     0.012 A 
ATOM     34  C   UNL     1      25.537  37.623  40.496  1.00  0.00     0.012 A 
ATOM     35  C   UNL     1      28.284  37.271  40.872  1.00  0.00     0.001 A 
ATOM     36  C   UNL     1      26.414  38.692  40.292  1.00  0.00     0.001 A 
ATOM     37  C   UNL     1      27.787  38.514  40.477  1.00  0.00     0.000 A 
ENDBRANCH  25  32
ENDBRANCH   1  17
TORSDOF 9
ENDMDL
MODEL 9
REMARK VINA RESULT:    -4.512      2.268      4.033
REMARK INTER + INTRA:          -7.335
REMARK INTER:                  -5.704
REMARK INTRA:                  -1.631
REMARK UNBOUND:                -0.977
REMARK SMILES COc1c(O[C@@H]2O[C@@H](C(=O)[O-])[C@H](O)[C@@H](O)[C@@H]2O)cc(O)c2c(=O)cc(-c3ccccc3)oc12
REMARK SMILES IDX 5 1 6 2 8 3 12 4 7 5 14 6 16 7 9 8 10 9 11 10 13 11 15 13
REMARK SMILES IDX 17 15 4 17 3 18 18 19 33 20 19 21 21 22 32 23 22 24 25 25
REMARK SMILES IDX 24 26 23 27 2 28 1 29 20 30 26 32 27 33 31 34 28 35 30 36
REMARK SMILES IDX 29 37
REMARK H PARENT 13 12 15 14 17 16 20 31
REMARK Flexibility Score: inf
ROOT
ATOM      1  O   UNL     1      26.104  35.597  40.398  1.00  0.00    -0.458 OA
ENDROOT
BRANCH   1   2
ATOM      2  C   UNL     1      26.429  36.536  41.431  1.00  0.00     0.339 C 
ATOM      3  C   UNL     1      25.478  36.077  43.610  1.00  0.00     0.199 C 
ATOM      4  C   UNL     1      24.076  36.195  42.966  1.00  0.00     0.180 C 
ATOM      5  O   UNL     1      26.513  35.824  42.666  1.00  0.00    -0.328 OA
ATOM      6  C   UNL     1      24.022  37.287  41.866  1.00  0.00     0.181 C 
ATOM      7  C   UNL     1      25.434  37.728  41.428  1.00  0.00     0.214 C 
BRANCH   3   8
ATOM      8  C   UNL     1      25.830  37.246  44.498  1.00  0.00     0.073 C 
ATOM      9  O   UNL     1      27.035  37.533  44.725  1.00  0.00    -0.547 OA
ATOM     10  O   UNL     1      24.828  38.057  45.018  1.00  0.00    -0.547 OA
ENDBRANCH   3   8
BRANCH   4  11
ATOM     11  O   UNL     1      23.737  34.947  42.420  1.00  0.00    -0.387 OA
ATOM     12  H   UNL     1      24.043  34.256  43.064  1.00  0.00     0.211 HD
ENDBRANCH   4  11
BRANCH   6  13
ATOM     13  O   UNL     1      23.323  38.412  42.334  1.00  0.00    -0.387 OA
ATOM     14  H   UNL     1      22.402  38.351  41.971  1.00  0.00     0.211 HD
ENDBRANCH   6  13
BRANCH   7  15
ATOM     15  O   UNL     1      25.402  38.379  40.181  1.00  0.00    -0.384 OA
ATOM     16  H   UNL     1      26.160  38.046  39.636  1.00  0.00     0.211 HD
ENDBRANCH   7  15
ENDBRANCH   1   2
BRANCH   1  17
ATOM     17  C   UNL     1      26.656  34.314  40.210  1.00  0.00     0.172 A 
ATOM     18  C   UNL     1      25.798  33.196  40.071  1.00  0.00     0.205 A 
ATOM     19  C   UNL     1      28.047  34.109  40.158  1.00  0.00     0.097 A 
ATOM     20  C   UNL     1      26.344  31.909  39.956  1.00  0.00     0.188 A 
ATOM     21  C   UNL     1      28.599  32.838  39.992  1.00  0.00     0.134 A 
ATOM     22  C   UNL     1      27.747  31.703  39.942  1.00  0.00     0.111 A 
ATOM     23  O   UNL     1      25.511  30.876  39.861  1.00  0.00    -0.452 OA
ATOM     24  C   UNL     1      28.200  30.362  39.913  1.00  0.00     0.197 A 
ATOM     25  C   UNL     1      25.909  29.612  39.772  1.00  0.00     0.138 A 
ATOM     26  C   UNL     1      27.278  29.321  39.810  1.00  0.00     0.100 A 
ATOM     27  O   UNL     1      29.419  30.067  40.013  1.00  0.00    -0.289 OA
BRANCH  18  28
ATOM     28  O   UNL     1      24.393  33.286  40.055  1.00  0.00    -0.490 OA
ATOM     29  C   UNL     1      23.584  33.718  38.969  1.00  0.00     0.278 C 
ENDBRANCH  18  28
BRANCH  21  30
ATOM     30  O   UNL     1      29.989  32.772  39.854  1.00  0.00    -0.507 OA
ATOM     31  H   UNL     1      30.477  32.672  38.976  1.00  0.00     0.293 HD
ENDBRANCH  21  30
BRANCH  25  32
ATOM     32  C   UNL     1      24.881  28.546  39.662  1.00  0.00     0.017 A 
ATOM     33  C   UNL     1      24.991  27.504  38.719  1.00  0.00     0.012 A 
ATOM     34  C   UNL     1      23.749  28.585  40.498  1.00  0.00     0.012 A 
ATOM     35  C   UNL     1      24.002  26.519  38.633  1.00  0.00     0.001 A 
ATOM     36  C   UNL     1      22.764  27.598  40.409  1.00  0.00     0.001 A 
ATOM     37  C   UNL     1      22.892  26.564  39.478  1.00  0.00     0.000 A 
ENDBRANCH  25  32
ENDBRANCH   1  17
TORSDOF 9
ENDMDL
