MODEL 1
REMARK VINA RESULT:    -6.535      0.000      0.000
REMARK INTER + INTRA:          -8.145
REMARK INTER:                  -7.681
REMARK INTRA:                  -0.464
REMARK UNBOUND:                -0.464
REMARK SMILES C=C(C)[C@@H]1CC[C@@]2(CO)CC[C@@]3(C)[C@@H](CC[C@@H]4[C@]5(C)CC[C@H](O)C(C)(C)[C@@H]5CC[C@@]43C)[C@H]12
REMARK SMILES IDX 4 1 5 2 6 3 7 4 32 5 14 6 15 7 16 8 17 9 18 10 20 11 21 12
REMARK SMILES IDX 22 13 24 14 27 15 28 16 29 17 30 18 12 19 11 20 10 21 13 22
REMARK SMILES IDX 31 23 25 24 26 25 19 26 2 27 3 28 1 29 8 30 9 31 23 33
REMARK H PARENT 9 32 23 34
REMARK Flexibility Score: inf
ROOT
ATOM      1  C   UNL     1      16.237  30.795  29.414  1.00  0.00     0.018 C 
ATOM      2  C   UNL     1      15.153  29.696  29.435  1.00  0.00     0.009 C 
ATOM      3  C   UNL     1      15.893  28.344  29.460  1.00  0.00     0.010 C 
ATOM      4  C   UNL     1      17.227  28.641  30.159  1.00  0.00    -0.003 C 
ATOM      5  C   UNL     1      17.570  30.019  29.564  1.00  0.00     0.008 C 
ATOM      6  C   UNL     1      18.878  30.645  30.122  1.00  0.00    -0.000 C 
ATOM      7  C   UNL     1      19.158  32.022  29.489  1.00  0.00     0.005 C 
ATOM      8  C   UNL     1      20.598  32.525  29.691  1.00  0.00     0.005 C 
ATOM      9  C   UNL     1      21.367  31.873  30.880  1.00  0.00     0.002 C 
ATOM     10  C   UNL     1      22.800  32.584  31.136  1.00  0.00    -0.026 C 
ATOM     11  C   UNL     1      23.477  33.061  29.806  1.00  0.00     0.010 C 
ATOM     12  C   UNL     1      24.884  33.668  29.971  1.00  0.00     0.033 C 
ATOM     13  C   UNL     1      25.872  32.749  30.709  1.00  0.00     0.120 C 
ATOM     14  C   UNL     1      25.304  32.221  32.067  1.00  0.00    -0.006 C 
ATOM     15  C   UNL     1      23.831  31.632  31.885  1.00  0.00     0.003 C 
ATOM     16  C   UNL     1      23.867  30.182  31.290  1.00  0.00     0.005 C 
ATOM     17  C   UNL     1      22.693  29.763  30.404  1.00  0.00     0.008 C 
ATOM     18  C   UNL     1      21.322  30.278  30.883  1.00  0.00    -0.024 C 
ATOM     19  C   UNL     1      20.122  29.674  29.961  1.00  0.00    -0.024 C 
ATOM     20  C   UNL     1      19.725  28.192  30.373  1.00  0.00     0.008 C 
ATOM     21  C   UNL     1      18.385  27.685  29.780  1.00  0.00     0.010 C 
ATOM     22  C   UNL     1      20.555  29.550  28.451  1.00  0.00     0.012 C 
ATOM     23  C   UNL     1      21.123  29.812  32.371  1.00  0.00     0.012 C 
ATOM     24  C   UNL     1      25.342  33.369  33.124  1.00  0.00     0.014 C 
ATOM     25  C   UNL     1      26.269  31.139  32.646  1.00  0.00     0.014 C 
ATOM     26  C   UNL     1      22.476  33.843  32.009  1.00  0.00     0.012 C 
ENDROOT
BRANCH   1  27
ATOM     27  C   UNL     1      15.917  31.971  30.343  1.00  0.00    -0.077 C 
ATOM     28  C   UNL     1      16.083  33.373  29.815  1.00  0.00     0.039 C 
ATOM     29  C   UNL     1      15.407  31.834  31.581  1.00  0.00     0.008 C 
ENDBRANCH   1  27
BRANCH   4  30
ATOM     30  C   UNL     1      16.985  28.613  31.704  1.00  0.00     0.163 C 
BRANCH  30  31
ATOM     31  O   UNL     1      16.066  27.603  32.038  1.00  0.00    -0.396 OA
ATOM     32  H   UNL     1      15.531  27.415  31.218  1.00  0.00     0.210 HD
ENDBRANCH  30  31
ENDBRANCH   4  30
BRANCH  13  33
ATOM     33  O   UNL     1      26.236  31.687  29.860  1.00  0.00    -0.393 OA
ATOM     34  H   UNL     1      27.197  31.803  29.642  1.00  0.00     0.210 HD
ENDBRANCH  13  33
TORSDOF 4
ENDMDL
MODEL 2
REMARK VINA RESULT:    -6.245      1.829      3.742
REMARK INTER + INTRA:          -7.805
REMARK INTER:                  -7.689
REMARK INTRA:                  -0.116
REMARK UNBOUND:                -0.464
REMARK SMILES C=C(C)[C@@H]1CC[C@@]2(CO)CC[C@@]3(C)[C@@H](CC[C@@H]4[C@]5(C)CC[C@H](O)C(C)(C)[C@@H]5CC[C@@]43C)[C@H]12
REMARK SMILES IDX 4 1 5 2 6 3 7 4 32 5 14 6 15 7 16 8 17 9 18 10 20 11 21 12
REMARK SMILES IDX 22 13 24 14 27 15 28 16 29 17 30 18 12 19 11 20 10 21 13 22
REMARK SMILES IDX 31 23 25 24 26 25 19 26 2 27 3 28 1 29 8 30 9 31 23 33
REMARK H PARENT 9 32 23 34
REMARK Flexibility Score: inf
ROOT
ATOM      1  C   UNL     1      16.368  29.312  30.854  1.00  0.00     0.018 C 
ATOM      2  C   UNL     1      14.960  29.915  30.658  1.00  0.00     0.009 C 
ATOM      3  C   UNL     1      15.068  31.415  30.997  1.00  0.00     0.010 C 
ATOM      4  C   UNL     1      16.522  31.786  30.670  1.00  0.00    -0.003 C 
ATOM      5  C   UNL     1      17.265  30.535  31.174  1.00  0.00     0.008 C 
ATOM      6  C   UNL     1      18.800  30.569  30.936  1.00  0.00    -0.000 C 
ATOM      7  C   UNL     1      19.479  29.287  31.458  1.00  0.00     0.005 C 
ATOM      8  C   UNL     1      21.005  29.403  31.611  1.00  0.00     0.005 C 
ATOM      9  C   UNL     1      21.671  30.533  30.768  1.00  0.00     0.002 C 
ATOM     10  C   UNL     1      23.289  30.470  30.844  1.00  0.00    -0.026 C 
ATOM     11  C   UNL     1      23.805  29.997  32.246  1.00  0.00     0.010 C 
ATOM     12  C   UNL     1      25.337  29.998  32.412  1.00  0.00     0.033 C 
ATOM     13  C   UNL     1      25.992  31.352  32.091  1.00  0.00     0.120 C 
ATOM     14  C   UNL     1      25.560  31.917  30.699  1.00  0.00    -0.006 C 
ATOM     15  C   UNL     1      23.972  31.871  30.528  1.00  0.00     0.003 C 
ATOM     16  C   UNL     1      23.284  33.067  31.273  1.00  0.00     0.005 C 
ATOM     17  C   UNL     1      21.884  32.825  31.837  1.00  0.00     0.008 C 
ATOM     18  C   UNL     1      20.979  31.960  30.937  1.00  0.00    -0.024 C 
ATOM     19  C   UNL     1      19.473  31.867  31.550  1.00  0.00    -0.024 C 
ATOM     20  C   UNL     1      18.600  33.153  31.217  1.00  0.00     0.008 C 
ATOM     21  C   UNL     1      17.077  32.992  31.466  1.00  0.00     0.010 C 
ATOM     22  C   UNL     1      19.487  31.810  33.124  1.00  0.00     0.012 C 
ATOM     23  C   UNL     1      20.926  32.633  29.518  1.00  0.00     0.012 C 
ATOM     24  C   UNL     1      26.286  31.121  29.570  1.00  0.00     0.014 C 
ATOM     25  C   UNL     1      26.094  33.375  30.542  1.00  0.00     0.014 C 
ATOM     26  C   UNL     1      23.702  29.401  29.775  1.00  0.00     0.012 C 
ENDROOT
BRANCH   1  27
ATOM     27  C   UNL     1      16.762  28.333  29.743  1.00  0.00    -0.077 C 
ATOM     28  C   UNL     1      16.149  26.957  29.745  1.00  0.00     0.039 C 
ATOM     29  C   UNL     1      17.557  28.654  28.706  1.00  0.00     0.008 C 
ENDBRANCH   1  27
BRANCH   4  30
ATOM     30  C   UNL     1      16.621  32.059  29.133  1.00  0.00     0.163 C 
BRANCH  30  31
ATOM     31  O   UNL     1      16.134  33.341  28.830  1.00  0.00    -0.396 OA
ATOM     32  H   UNL     1      15.842  33.751  29.690  1.00  0.00     0.210 HD
ENDBRANCH  30  31
ENDBRANCH   4  30
BRANCH  13  33
ATOM     33  O   UNL     1      25.702  32.262  33.125  1.00  0.00    -0.393 OA
ATOM     34  H   UNL     1      25.648  31.740  33.968  1.00  0.00     0.210 HD
ENDBRANCH  13  33
TORSDOF 4
ENDMDL
MODEL 3
REMARK VINA RESULT:    -5.655      1.916      7.942
REMARK INTER + INTRA:          -7.111
REMARK INTER:                  -6.962
REMARK INTRA:                  -0.149
REMARK UNBOUND:                -0.464
REMARK SMILES C=C(C)[C@@H]1CC[C@@]2(CO)CC[C@@]3(C)[C@@H](CC[C@@H]4[C@]5(C)CC[C@H](O)C(C)(C)[C@@H]5CC[C@@]43C)[C@H]12
REMARK SMILES IDX 4 1 5 2 6 3 7 4 32 5 14 6 15 7 16 8 17 9 18 10 20 11 21 12
REMARK SMILES IDX 22 13 24 14 27 15 28 16 29 17 30 18 12 19 11 20 10 21 13 22
REMARK SMILES IDX 31 23 25 24 26 25 19 26 2 27 3 28 1 29 8 30 9 31 23 33
REMARK H PARENT 9 32 23 34
REMARK Flexibility Score: inf
ROOT
ATOM      1  C   UNL     1      25.216  31.076  29.659  1.00  0.00     0.018 C 
ATOM      2  C   UNL     1      26.562  31.689  30.101  1.00  0.00     0.009 C 
ATOM      3  C   UNL     1      26.234  33.022  30.802  1.00  0.00     0.010 C 
ATOM      4  C   UNL     1      24.828  32.821  31.385  1.00  0.00    -0.003 C 
ATOM      5  C   UNL     1      24.149  32.032  30.251  1.00  0.00     0.008 C 
ATOM      6  C   UNL     1      22.685  31.613  30.556  1.00  0.00    -0.000 C 
ATOM      7  C   UNL     1      22.069  30.824  29.384  1.00  0.00     0.005 C 
ATOM      8  C   UNL     1      20.536  30.710  29.440  1.00  0.00     0.005 C 
ATOM      9  C   UNL     1      19.907  30.924  30.852  1.00  0.00     0.002 C 
ATOM     10  C   UNL     1      18.318  30.608  30.860  1.00  0.00    -0.026 C 
ATOM     11  C   UNL     1      17.621  31.010  29.515  1.00  0.00     0.010 C 
ATOM     12  C   UNL     1      16.092  30.816  29.489  1.00  0.00     0.033 C 
ATOM     13  C   UNL     1      15.359  31.524  30.640  1.00  0.00     0.120 C 
ATOM     14  C   UNL     1      15.963  31.182  32.041  1.00  0.00    -0.006 C 
ATOM     15  C   UNL     1      17.552  31.350  32.039  1.00  0.00     0.003 C 
ATOM     16  C   UNL     1      17.965  32.856  32.183  1.00  0.00     0.005 C 
ATOM     17  C   UNL     1      19.264  33.291  31.503  1.00  0.00     0.008 C 
ATOM     18  C   UNL     1      20.400  32.252  31.584  1.00  0.00    -0.024 C 
ATOM     19  C   UNL     1      21.778  32.852  30.955  1.00  0.00    -0.024 C 
ATOM     20  C   UNL     1      22.550  33.798  31.971  1.00  0.00     0.008 C 
ATOM     21  C   UNL     1      24.014  34.125  31.578  1.00  0.00     0.010 C 
ATOM     22  C   UNL     1      21.496  33.775  29.710  1.00  0.00     0.012 C 
ATOM     23  C   UNL     1      20.626  31.902  33.100  1.00  0.00     0.012 C 
ATOM     24  C   UNL     1      15.536  29.738  32.450  1.00  0.00     0.014 C 
ATOM     25  C   UNL     1      15.308  32.095  33.125  1.00  0.00     0.014 C 
ATOM     26  C   UNL     1      18.216  29.054  31.028  1.00  0.00     0.012 C 
ENDROOT
BRANCH   1  27
ATOM     27  C   UNL     1      25.131  29.568  29.916  1.00  0.00    -0.077 C 
ATOM     28  C   UNL     1      25.001  29.085  31.337  1.00  0.00     0.039 C 
ATOM     29  C   UNL     1      25.073  28.641  28.941  1.00  0.00     0.008 C 
ENDBRANCH   1  27
BRANCH   4  30
ATOM     30  C   UNL     1      24.969  32.064  32.747  1.00  0.00     0.163 C 
BRANCH  30  31
ATOM     31  O   UNL     1      26.322  31.955  33.109  1.00  0.00    -0.396 OA
ATOM     32  H   UNL     1      26.839  31.826  32.267  1.00  0.00     0.210 HD
ENDBRANCH  30  31
ENDBRANCH   4  30
BRANCH  13  33
ATOM     33  O   UNL     1      15.365  32.912  30.406  1.00  0.00    -0.393 OA
ATOM     34  H   UNL     1      15.925  33.326  31.113  1.00  0.00     0.210 HD
ENDBRANCH  13  33
TORSDOF 4
ENDMDL
MODEL 4
REMARK VINA RESULT:    -5.294      2.045      3.379
REMARK INTER + INTRA:          -6.686
REMARK INTER:                  -6.423
REMARK INTRA:                  -0.263
REMARK UNBOUND:                -0.464
REMARK SMILES C=C(C)[C@@H]1CC[C@@]2(CO)CC[C@@]3(C)[C@@H](CC[C@@H]4[C@]5(C)CC[C@H](O)C(C)(C)[C@@H]5CC[C@@]43C)[C@H]12
REMARK SMILES IDX 4 1 5 2 6 3 7 4 32 5 14 6 15 7 16 8 17 9 18 10 20 11 21 12
REMARK SMILES IDX 22 13 24 14 27 15 28 16 29 17 30 18 12 19 11 20 10 21 13 22
REMARK SMILES IDX 31 23 25 24 26 25 19 26 2 27 3 28 1 29 8 30 9 31 23 33
REMARK H PARENT 9 32 23 34
REMARK Flexibility Score: inf
ROOT
ATOM      1  C   UNL     1      14.909  27.613  30.259  1.00  0.00     0.018 C 
ATOM      2  C   UNL     1      14.035  26.588  29.506  1.00  0.00     0.009 C 
ATOM      3  C   UNL     1      14.814  26.188  28.237  1.00  0.00     0.010 C 
ATOM      4  C   UNL     1      16.292  26.366  28.613  1.00  0.00    -0.003 C 
ATOM      5  C   UNL     1      16.229  27.659  29.447  1.00  0.00     0.008 C 
ATOM      6  C   UNL     1      17.595  28.100  30.040  1.00  0.00    -0.000 C 
ATOM      7  C   UNL     1      17.459  29.394  30.865  1.00  0.00     0.005 C 
ATOM      8  C   UNL     1      18.797  30.096  31.157  1.00  0.00     0.005 C 
ATOM      9  C   UNL     1      20.059  29.187  31.052  1.00  0.00     0.002 C 
ATOM     10  C   UNL     1      21.399  29.952  31.549  1.00  0.00    -0.026 C 
ATOM     11  C   UNL     1      21.382  31.478  31.197  1.00  0.00     0.010 C 
ATOM     12  C   UNL     1      22.665  32.247  31.566  1.00  0.00     0.033 C 
ATOM     13  C   UNL     1      23.945  31.633  30.975  1.00  0.00     0.120 C 
ATOM     14  C   UNL     1      24.077  30.105  31.280  1.00  0.00    -0.006 C 
ATOM     15  C   UNL     1      22.724  29.330  30.930  1.00  0.00     0.003 C 
ATOM     16  C   UNL     1      22.608  29.055  29.390  1.00  0.00     0.005 C 
ATOM     17  C   UNL     1      21.202  29.022  28.792  1.00  0.00     0.008 C 
ATOM     18  C   UNL     1      20.145  28.354  29.694  1.00  0.00    -0.024 C 
ATOM     19  C   UNL     1      18.714  28.244  28.924  1.00  0.00    -0.024 C 
ATOM     20  C   UNL     1      18.655  27.013  27.921  1.00  0.00     0.008 C 
ATOM     21  C   UNL     1      17.235  26.645  27.418  1.00  0.00     0.010 C 
ATOM     22  C   UNL     1      18.446  29.498  28.010  1.00  0.00     0.012 C 
ATOM     23  C   UNL     1      20.658  26.913  30.053  1.00  0.00     0.012 C 
ATOM     24  C   UNL     1      24.485  29.908  32.774  1.00  0.00     0.014 C 
ATOM     25  C   UNL     1      25.279  29.517  30.476  1.00  0.00     0.014 C 
ATOM     26  C   UNL     1      21.394  29.800  33.109  1.00  0.00     0.012 C 
ENDROOT
BRANCH   1  27
ATOM     27  C   UNL     1      14.940  27.379  31.773  1.00  0.00    -0.077 C 
ATOM     28  C   UNL     1      14.799  28.567  32.689  1.00  0.00     0.039 C 
ATOM     29  C   UNL     1      14.995  26.162  32.344  1.00  0.00     0.008 C 
ENDBRANCH   1  27
BRANCH   4  30
ATOM     30  C   UNL     1      16.756  25.086  29.383  1.00  0.00     0.163 C 
BRANCH  30  31
ATOM     31  O   UNL     1      15.816  24.053  29.229  1.00  0.00    -0.396 OA
ATOM     32  H   UNL     1      14.950  24.482  28.988  1.00  0.00     0.210 HD
ENDBRANCH  30  31
ENDBRANCH   4  30
BRANCH  13  33
ATOM     33  O   UNL     1      23.981  31.883  29.591  1.00  0.00    -0.393 OA
ATOM     34  H   UNL     1      23.945  31.003  29.134  1.00  0.00     0.210 HD
ENDBRANCH  13  33
TORSDOF 4
ENDMDL
MODEL 5
REMARK VINA RESULT:    -5.291      2.016      7.832
REMARK INTER + INTRA:          -6.682
REMARK INTER:                  -7.201
REMARK INTRA:                   0.518
REMARK UNBOUND:                -0.464
REMARK SMILES C=C(C)[C@@H]1CC[C@@]2(CO)CC[C@@]3(C)[C@@H](CC[C@@H]4[C@]5(C)CC[C@H](O)C(C)(C)[C@@H]5CC[C@@]43C)[C@H]12
REMARK SMILES IDX 4 1 5 2 6 3 7 4 32 5 14 6 15 7 16 8 17 9 18 10 20 11 21 12
REMARK SMILES IDX 22 13 24 14 27 15 28 16 29 17 30 18 12 19 11 20 10 21 13 22
REMARK SMILES IDX 31 23 25 24 26 25 19 26 2 27 3 28 1 29 8 30 9 31 23 33
REMARK H PARENT 9 32 23 34
REMARK Flexibility Score: inf
ROOT
ATOM      1  C   UNL     1      24.876  30.781  29.829  1.00  0.00     0.018 C 
ATOM      2  C   UNL     1      26.220  30.994  30.558  1.00  0.00     0.009 C 
ATOM      3  C   UNL     1      25.911  31.811  31.828  1.00  0.00     0.010 C 
ATOM      4  C   UNL     1      24.465  31.441  32.189  1.00  0.00    -0.003 C 
ATOM      5  C   UNL     1      23.820  31.380  30.793  1.00  0.00     0.008 C 
ATOM      6  C   UNL     1      22.323  30.966  30.802  1.00  0.00    -0.000 C 
ATOM      7  C   UNL     1      21.743  30.920  29.375  1.00  0.00     0.005 C 
ATOM      8  C   UNL     1      20.205  30.898  29.322  1.00  0.00     0.005 C 
ATOM      9  C   UNL     1      19.505  30.415  30.629  1.00  0.00     0.002 C 
ATOM     10  C   UNL     1      17.904  30.248  30.430  1.00  0.00    -0.026 C 
ATOM     11  C   UNL     1      17.307  31.320  29.456  1.00  0.00     0.010 C 
ATOM     12  C   UNL     1      15.776  31.271  29.291  1.00  0.00     0.033 C 
ATOM     13  C   UNL     1      15.008  31.351  30.622  1.00  0.00     0.120 C 
ATOM     14  C   UNL     1      15.513  30.310  31.673  1.00  0.00    -0.006 C 
ATOM     15  C   UNL     1      17.104  30.346  31.801  1.00  0.00     0.003 C 
ATOM     16  C   UNL     1      17.576  31.541  32.700  1.00  0.00     0.005 C 
ATOM     17  C   UNL     1      18.930  32.169  32.370  1.00  0.00     0.008 C 
ATOM     18  C   UNL     1      20.012  31.155  31.947  1.00  0.00    -0.024 C 
ATOM     19  C   UNL     1      21.451  31.894  31.748  1.00  0.00    -0.024 C 
ATOM     20  C   UNL     1      22.203  32.143  33.124  1.00  0.00     0.008 C 
ATOM     21  C   UNL     1      23.701  32.522  32.993  1.00  0.00     0.010 C 
ATOM     22  C   UNL     1      21.285  33.335  31.134  1.00  0.00     0.012 C 
ATOM     23  C   UNL     1      20.132  30.075  33.082  1.00  0.00     0.012 C 
ATOM     24  C   UNL     1      14.997  28.889  31.282  1.00  0.00     0.014 C 
ATOM     25  C   UNL     1      14.836  30.594  33.051  1.00  0.00     0.014 C 
ATOM     26  C   UNL     1      17.724  28.832  29.785  1.00  0.00     0.012 C 
ENDROOT
BRANCH   1  27
ATOM     27  C   UNL     1      24.708  29.359  29.283  1.00  0.00    -0.077 C 
ATOM     28  C   UNL     1      25.704  28.853  28.272  1.00  0.00     0.039 C 
ATOM     29  C   UNL     1      23.774  28.493  29.717  1.00  0.00     0.008 C 
ENDBRANCH   1  27
BRANCH   4  30
ATOM     30  C   UNL     1      24.491  30.093  32.982  1.00  0.00     0.163 C 
BRANCH  30  31
ATOM     31  O   UNL     1      25.811  29.631  33.120  1.00  0.00    -0.396 OA
ATOM     32  H   UNL     1      25.910  28.850  32.509  1.00  0.00     0.210 HD
ENDBRANCH  30  31
ENDBRANCH   4  30
BRANCH  13  33
ATOM     33  O   UNL     1      15.090  32.664  31.123  1.00  0.00    -0.393 OA
ATOM     34  H   UNL     1      14.181  32.918  31.428  1.00  0.00     0.210 HD
ENDBRANCH  13  33
TORSDOF 4
ENDMDL
MODEL 6
REMARK VINA RESULT:    -4.754      1.482      7.749
REMARK INTER + INTRA:          -6.051
REMARK INTER:                  -6.191
REMARK INTRA:                   0.140
REMARK UNBOUND:                -0.464
REMARK SMILES C=C(C)[C@@H]1CC[C@@]2(CO)CC[C@@]3(C)[C@@H](CC[C@@H]4[C@]5(C)CC[C@H](O)C(C)(C)[C@@H]5CC[C@@]43C)[C@H]12
REMARK SMILES IDX 4 1 5 2 6 3 7 4 32 5 14 6 15 7 16 8 17 9 18 10 20 11 21 12
REMARK SMILES IDX 22 13 24 14 27 15 28 16 29 17 30 18 12 19 11 20 10 21 13 22
REMARK SMILES IDX 31 23 25 24 26 25 19 26 2 27 3 28 1 29 8 30 9 31 23 33
REMARK H PARENT 9 32 23 34
REMARK Flexibility Score: inf
ROOT
ATOM      1  C   UNL     1      25.551  31.902  32.788  1.00  0.00     0.018 C 
ATOM      2  C   UNL     1      26.932  31.395  32.323  1.00  0.00     0.009 C 
ATOM      3  C   UNL     1      26.691  30.063  31.585  1.00  0.00     0.010 C 
ATOM      4  C   UNL     1      25.270  30.185  31.014  1.00  0.00    -0.003 C 
ATOM      5  C   UNL     1      24.547  30.893  32.174  1.00  0.00     0.008 C 
ATOM      6  C   UNL     1      23.056  31.220  31.888  1.00  0.00    -0.000 C 
ATOM      7  C   UNL     1      22.396  31.932  33.086  1.00  0.00     0.005 C 
ATOM      8  C   UNL     1      20.858  31.943  33.040  1.00  0.00     0.005 C 
ATOM      9  C   UNL     1      20.236  31.727  31.626  1.00  0.00     0.002 C 
ATOM     10  C   UNL     1      18.629  31.935  31.635  1.00  0.00    -0.026 C 
ATOM     11  C   UNL     1      17.970  31.448  32.971  1.00  0.00     0.010 C 
ATOM     12  C   UNL     1      16.432  31.537  33.010  1.00  0.00     0.033 C 
ATOM     13  C   UNL     1      15.741  30.813  31.842  1.00  0.00     0.120 C 
ATOM     14  C   UNL     1      16.311  31.236  30.449  1.00  0.00    -0.006 C 
ATOM     15  C   UNL     1      17.907  31.176  30.438  1.00  0.00     0.003 C 
ATOM     16  C   UNL     1      18.421  29.706  30.249  1.00  0.00     0.005 C 
ATOM     17  C   UNL     1      19.750  29.342  30.910  1.00  0.00     0.008 C 
ATOM     18  C   UNL     1      20.813  30.457  30.853  1.00  0.00    -0.024 C 
ATOM     19  C   UNL     1      22.232  29.935  31.458  1.00  0.00    -0.024 C 
ATOM     20  C   UNL     1      23.060  29.073  30.411  1.00  0.00     0.008 C 
ATOM     21  C   UNL     1      24.546  28.835  30.787  1.00  0.00     0.010 C 
ATOM     22  C   UNL     1      22.022  28.960  32.677  1.00  0.00     0.012 C 
ATOM     23  C   UNL     1      21.004  30.865  29.347  1.00  0.00     0.012 C 
ATOM     24  C   UNL     1      15.783  32.659  30.083  1.00  0.00     0.014 C 
ATOM     25  C   UNL     1      15.712  30.312  29.342  1.00  0.00     0.014 C 
ATOM     26  C   UNL     1      18.421  33.483  31.513  1.00  0.00     0.012 C 
ENDROOT
BRANCH   1  27
ATOM     27  C   UNL     1      25.362  33.408  32.576  1.00  0.00    -0.077 C 
ATOM     28  C   UNL     1      26.280  34.122  31.618  1.00  0.00     0.039 C 
ATOM     29  C   UNL     1      24.364  34.125  33.125  1.00  0.00     0.008 C 
ENDBRANCH   1  27
BRANCH   4  30
ATOM     30  C   UNL     1      25.350  30.989  29.675  1.00  0.00     0.163 C 
BRANCH  30  31
ATOM     31  O   UNL     1      26.599  30.793  29.060  1.00  0.00    -0.396 OA
ATOM     32  H   UNL     1      26.871  31.669  28.671  1.00  0.00     0.210 HD
ENDBRANCH  30  31
ENDBRANCH   4  30
BRANCH  13  33
ATOM     33  O   UNL     1      15.842  29.423  32.036  1.00  0.00    -0.393 OA
ATOM     34  H   UNL     1      15.125  28.999  31.496  1.00  0.00     0.210 HD
ENDBRANCH  13  33
TORSDOF 4
ENDMDL
MODEL 7
REMARK VINA RESULT:    -4.426      4.026      7.284
REMARK INTER + INTRA:          -5.667
REMARK INTER:                  -5.356
REMARK INTRA:                  -0.311
REMARK UNBOUND:                -0.464
REMARK SMILES C=C(C)[C@@H]1CC[C@@]2(CO)CC[C@@]3(C)[C@@H](CC[C@@H]4[C@]5(C)CC[C@H](O)C(C)(C)[C@@H]5CC[C@@]43C)[C@H]12
REMARK SMILES IDX 4 1 5 2 6 3 7 4 32 5 14 6 15 7 16 8 17 9 18 10 20 11 21 12
REMARK SMILES IDX 22 13 24 14 27 15 28 16 29 17 30 18 12 19 11 20 10 21 13 22
REMARK SMILES IDX 31 23 25 24 26 25 19 26 2 27 3 28 1 29 8 30 9 31 23 33
REMARK H PARENT 9 32 23 34
REMARK Flexibility Score: inf
ROOT
ATOM      1  C   UNL     1      14.063  23.296  30.374  1.00  0.00     0.018 C 
ATOM      2  C   UNL     1      13.877  22.179  29.326  1.00  0.00     0.009 C 
ATOM      3  C   UNL     1      14.019  22.841  27.941  1.00  0.00     0.010 C 
ATOM      4  C   UNL     1      14.949  24.041  28.175  1.00  0.00    -0.003 C 
ATOM      5  C   UNL     1      14.441  24.545  29.538  1.00  0.00     0.008 C 
ATOM      6  C   UNL     1      15.231  25.759  30.101  1.00  0.00    -0.000 C 
ATOM      7  C   UNL     1      14.675  26.208  31.466  1.00  0.00     0.005 C 
ATOM      8  C   UNL     1      15.137  27.609  31.902  1.00  0.00     0.005 C 
ATOM      9  C   UNL     1      16.437  28.123  31.211  1.00  0.00     0.002 C 
ATOM     10  C   UNL     1      16.953  29.518  31.855  1.00  0.00    -0.026 C 
ATOM     11  C   UNL     1      15.771  30.443  32.305  1.00  0.00     0.010 C 
ATOM     12  C   UNL     1      16.193  31.823  32.847  1.00  0.00     0.033 C 
ATOM     13  C   UNL     1      17.085  32.620  31.880  1.00  0.00     0.120 C 
ATOM     14  C   UNL     1      18.313  31.795  31.375  1.00  0.00    -0.006 C 
ATOM     15  C   UNL     1      17.864  30.353  30.855  1.00  0.00     0.003 C 
ATOM     16  C   UNL     1      17.268  30.431  29.406  1.00  0.00     0.005 C 
ATOM     17  C   UNL     1      16.182  29.418  29.044  1.00  0.00     0.008 C 
ATOM     18  C   UNL     1      16.413  28.007  29.620  1.00  0.00    -0.024 C 
ATOM     19  C   UNL     1      15.284  26.967  29.075  1.00  0.00    -0.024 C 
ATOM     20  C   UNL     1      15.601  26.437  27.611  1.00  0.00     0.008 C 
ATOM     21  C   UNL     1      14.772  25.203  27.168  1.00  0.00     0.010 C 
ATOM     22  C   UNL     1      13.875  27.657  28.936  1.00  0.00     0.012 C 
ATOM     23  C   UNL     1      17.836  27.525  29.159  1.00  0.00     0.012 C 
ATOM     24  C   UNL     1      19.373  31.693  32.516  1.00  0.00     0.014 C 
ATOM     25  C   UNL     1      19.043  32.591  30.247  1.00  0.00     0.014 C 
ATOM     26  C   UNL     1      17.769  29.098  33.125  1.00  0.00     0.012 C 
ENDROOT
BRANCH   1  27
ATOM     27  C   UNL     1      14.934  22.867  31.560  1.00  0.00    -0.077 C 
ATOM     28  C   UNL     1      14.601  23.403  32.929  1.00  0.00     0.039 C 
ATOM     29  C   UNL     1      15.930  21.967  31.475  1.00  0.00     0.008 C 
ENDBRANCH   1  27
BRANCH   4  30
ATOM     30  C   UNL     1      16.425  23.523  28.152  1.00  0.00     0.163 C 
BRANCH  30  31
ATOM     31  O   UNL     1      16.805  23.182  26.843  1.00  0.00    -0.396 OA
ATOM     32  H   UNL     1      17.414  23.902  26.520  1.00  0.00     0.210 HD
ENDBRANCH  30  31
ENDBRANCH   4  30
BRANCH  13  33
ATOM     33  O   UNL     1      16.303  33.083  30.806  1.00  0.00    -0.393 OA
ATOM     34  H   UNL     1      16.570  34.023  30.633  1.00  0.00     0.210 HD
ENDBRANCH  13  33
TORSDOF 4
ENDMDL
MODEL 8
REMARK VINA RESULT:    -4.255      2.390      7.924
REMARK INTER + INTRA:          -5.465
REMARK INTER:                  -5.050
REMARK INTRA:                  -0.416
REMARK UNBOUND:                -0.464
REMARK SMILES C=C(C)[C@@H]1CC[C@@]2(CO)CC[C@@]3(C)[C@@H](CC[C@@H]4[C@]5(C)CC[C@H](O)C(C)(C)[C@@H]5CC[C@@]43C)[C@H]12
REMARK SMILES IDX 4 1 5 2 6 3 7 4 32 5 14 6 15 7 16 8 17 9 18 10 20 11 21 12
REMARK SMILES IDX 22 13 24 14 27 15 28 16 29 17 30 18 12 19 11 20 10 21 13 22
REMARK SMILES IDX 31 23 25 24 26 25 19 26 2 27 3 28 1 29 8 30 9 31 23 33
REMARK H PARENT 9 32 23 34
REMARK Flexibility Score: inf
ROOT
ATOM      1  C   UNL     1      19.583  32.956  32.344  1.00  0.00     0.018 C 
ATOM      2  C   UNL     1      20.869  33.801  32.216  1.00  0.00     0.009 C 
ATOM      3  C   UNL     1      21.929  32.898  31.556  1.00  0.00     0.010 C 
ATOM      4  C   UNL     1      21.124  31.913  30.697  1.00  0.00    -0.003 C 
ATOM      5  C   UNL     1      19.925  31.629  31.621  1.00  0.00     0.008 C 
ATOM      6  C   UNL     1      18.861  30.677  31.008  1.00  0.00    -0.000 C 
ATOM      7  C   UNL     1      17.690  30.441  31.981  1.00  0.00     0.005 C 
ATOM      8  C   UNL     1      16.805  29.236  31.619  1.00  0.00     0.005 C 
ATOM      9  C   UNL     1      16.886  28.779  30.129  1.00  0.00     0.002 C 
ATOM     10  C   UNL     1      15.795  27.630  29.790  1.00  0.00    -0.026 C 
ATOM     11  C   UNL     1      15.553  26.660  30.996  1.00  0.00     0.010 C 
ATOM     12  C   UNL     1      14.590  25.491  30.709  1.00  0.00     0.033 C 
ATOM     13  C   UNL     1      14.989  24.647  29.487  1.00  0.00     0.120 C 
ATOM     14  C   UNL     1      15.243  25.515  28.212  1.00  0.00    -0.006 C 
ATOM     15  C   UNL     1      16.210  26.744  28.536  1.00  0.00     0.003 C 
ATOM     16  C   UNL     1      17.711  26.292  28.577  1.00  0.00     0.005 C 
ATOM     17  C   UNL     1      18.641  27.049  29.525  1.00  0.00     0.008 C 
ATOM     18  C   UNL     1      18.375  28.565  29.598  1.00  0.00    -0.024 C 
ATOM     19  C   UNL     1      19.493  29.306  30.523  1.00  0.00    -0.024 C 
ATOM     20  C   UNL     1      20.852  29.567  29.743  1.00  0.00     0.008 C 
ATOM     21  C   UNL     1      21.824  30.557  30.436  1.00  0.00     0.010 C 
ATOM     22  C   UNL     1      19.919  28.412  31.748  1.00  0.00     0.012 C 
ATOM     23  C   UNL     1      18.443  29.138  28.136  1.00  0.00     0.012 C 
ATOM     24  C   UNL     1      13.875  25.993  27.631  1.00  0.00     0.014 C 
ATOM     25  C   UNL     1      15.842  24.617  27.084  1.00  0.00     0.014 C 
ATOM     26  C   UNL     1      14.466  28.408  29.501  1.00  0.00     0.012 C 
ENDROOT
BRANCH   1  27
ATOM     27  C   UNL     1      18.315  33.734  31.975  1.00  0.00    -0.077 C 
ATOM     28  C   UNL     1      18.103  34.125  30.535  1.00  0.00     0.039 C 
ATOM     29  C   UNL     1      17.327  34.016  32.844  1.00  0.00     0.008 C 
ENDBRANCH   1  27
BRANCH   4  30
ATOM     30  C   UNL     1      20.781  32.615  29.342  1.00  0.00     0.163 C 
BRANCH  30  31
ATOM     31  O   UNL     1      21.879  33.366  28.888  1.00  0.00    -0.396 OA
ATOM     32  H   UNL     1      22.598  32.717  28.653  1.00  0.00     0.210 HD
ENDBRANCH  30  31
ENDBRANCH   4  30
BRANCH  13  33
ATOM     33  O   UNL     1      16.117  23.871  29.811  1.00  0.00    -0.393 OA
ATOM     34  H   UNL     1      16.169  23.137  29.144  1.00  0.00     0.210 HD
ENDBRANCH  13  33
TORSDOF 4
ENDMDL
