MODEL 1
REMARK VINA RESULT:    -6.973      0.000      0.000
REMARK INTER + INTRA:          -6.973
REMARK INTER:                  -6.973
REMARK INTRA:                   0.000
REMARK UNBOUND:                 0.000
REMARK SMILES C=C1CCC[C@@]2(C)CC(=O)C(=C(C)C)C[C@@H]12
REMARK SMILES IDX 13 1 12 2 11 3 15 4 16 5 2 6 1 7 3 8 4 9 5 10 6 11 8 12 9 13
REMARK SMILES IDX 10 14 7 15 14 16
REMARK H PARENT
REMARK Flexibility Score: inf
ROOT
ATOM      1  C   UNL     1      11.184 -29.059  22.684  1.00  0.00     0.039 C 
ATOM      2  C   UNL     1      11.788 -30.084  21.753  1.00  0.00    -0.070 C 
ATOM      3  C   UNL     1      13.090 -30.471  21.865  1.00  0.00    -0.006 C 
ATOM      4  C   UNL     1      13.708 -31.559  21.009  1.00  0.00     0.047 C 
ATOM      5  C   UNL     1      14.334 -32.697  21.864  1.00  0.00     0.025 C 
ATOM      6  C   UNL     1      15.372 -33.421  21.021  1.00  0.00    -0.073 C 
ATOM      7  C   UNL     1      14.996 -34.349  20.126  1.00  0.00     0.008 C 
ATOM      8  C   UNL     1      16.816 -32.992  21.118  1.00  0.00     0.031 C 
ATOM      9  C   UNL     1      17.316 -32.936  22.572  1.00  0.00     0.005 C 
ATOM     10  C   UNL     1      16.197 -33.028  23.627  1.00  0.00     0.008 C 
ATOM     11  C   UNL     1      14.918 -32.223  23.257  1.00  0.00    -0.018 C 
ATOM     12  C   UNL     1      15.241 -30.699  23.250  1.00  0.00     0.088 C 
ATOM     13  C   UNL     1      14.036 -29.893  22.855  1.00  0.00     0.159 C 
ATOM     14  O   UNL     1      13.900 -28.725  23.307  1.00  0.00    -0.295 OA
ATOM     15  C   UNL     1      13.876 -32.501  24.376  1.00  0.00     0.012 C 
ATOM     16  C   UNL     1      10.875 -30.699  20.716  1.00  0.00     0.039 C 
ENDROOT
TORSDOF 0
ENDMDL
MODEL 2
REMARK VINA RESULT:    -6.655      2.193      4.961
REMARK INTER + INTRA:          -6.655
REMARK INTER:                  -6.655
REMARK INTRA:                   0.000
REMARK UNBOUND:                 0.000
REMARK SMILES C=C1CCC[C@@]2(C)CC(=O)C(=C(C)C)C[C@@H]12
REMARK SMILES IDX 13 1 12 2 11 3 15 4 16 5 2 6 1 7 3 8 4 9 5 10 6 11 8 12 9 13
REMARK SMILES IDX 10 14 7 15 14 16
REMARK H PARENT
REMARK Flexibility Score: inf
ROOT
ATOM      1  C   UNL     1      18.128 -35.692  21.510  1.00  0.00     0.039 C 
ATOM      2  C   UNL     1      16.774 -35.150  21.113  1.00  0.00    -0.070 C 
ATOM      3  C   UNL     1      16.143 -34.196  21.854  1.00  0.00    -0.006 C 
ATOM      4  C   UNL     1      14.827 -33.564  21.442  1.00  0.00     0.047 C 
ATOM      5  C   UNL     1      14.922 -32.015  21.350  1.00  0.00     0.025 C 
ATOM      6  C   UNL     1      13.522 -31.436  21.485  1.00  0.00    -0.073 C 
ATOM      7  C   UNL     1      12.689 -31.412  20.432  1.00  0.00     0.008 C 
ATOM      8  C   UNL     1      13.042 -31.004  22.850  1.00  0.00     0.031 C 
ATOM      9  C   UNL     1      14.035 -30.059  23.550  1.00  0.00     0.005 C 
ATOM     10  C   UNL     1      15.417 -29.986  22.875  1.00  0.00     0.008 C 
ATOM     11  C   UNL     1      15.943 -31.360  22.368  1.00  0.00    -0.018 C 
ATOM     12  C   UNL     1      16.217 -32.298  23.582  1.00  0.00     0.088 C 
ATOM     13  C   UNL     1      16.685 -33.649  23.125  1.00  0.00     0.159 C 
ATOM     14  O   UNL     1      17.458 -34.316  23.863  1.00  0.00    -0.295 OA
ATOM     15  C   UNL     1      17.289 -31.084  21.644  1.00  0.00     0.012 C 
ATOM     16  C   UNL     1      16.167 -35.678  19.833  1.00  0.00     0.039 C 
ENDROOT
TORSDOF 0
ENDMDL
MODEL 3
REMARK VINA RESULT:    -6.261      2.130      3.887
REMARK INTER + INTRA:          -6.261
REMARK INTER:                  -6.261
REMARK INTRA:                   0.000
REMARK UNBOUND:                 0.000
REMARK SMILES C=C1CCC[C@@]2(C)CC(=O)C(=C(C)C)C[C@@H]12
REMARK SMILES IDX 13 1 12 2 11 3 15 4 16 5 2 6 1 7 3 8 4 9 5 10 6 11 8 12 9 13
REMARK SMILES IDX 10 14 7 15 14 16
REMARK H PARENT
REMARK Flexibility Score: inf
ROOT
ATOM      1  C   UNL     1      12.932 -31.001  21.097  1.00  0.00     0.039 C 
ATOM      2  C   UNL     1      13.688 -31.618  22.250  1.00  0.00    -0.070 C 
ATOM      3  C   UNL     1      14.563 -32.646  22.061  1.00  0.00    -0.006 C 
ATOM      4  C   UNL     1      15.405 -33.233  23.177  1.00  0.00     0.047 C 
ATOM      5  C   UNL     1      16.925 -33.192  22.851  1.00  0.00     0.025 C 
ATOM      6  C   UNL     1      17.629 -34.244  23.695  1.00  0.00    -0.073 C 
ATOM      7  C   UNL     1      17.933 -33.995  24.979  1.00  0.00     0.008 C 
ATOM      8  C   UNL     1      17.867 -35.612  23.103  1.00  0.00     0.031 C 
ATOM      9  C   UNL     1      18.552 -35.546  21.726  1.00  0.00     0.005 C 
ATOM     10  C   UNL     1      18.583 -34.137  21.106  1.00  0.00     0.008 C 
ATOM     11  C   UNL     1      17.268 -33.330  21.311  1.00  0.00    -0.018 C 
ATOM     12  C   UNL     1      16.107 -34.011  20.528  1.00  0.00     0.088 C 
ATOM     13  C   UNL     1      14.811 -33.281  20.740  1.00  0.00     0.159 C 
ATOM     14  O   UNL     1      13.940 -33.293  19.830  1.00  0.00    -0.295 OA
ATOM     15  C   UNL     1      17.510 -31.920  20.708  1.00  0.00     0.012 C 
ATOM     16  C   UNL     1      13.467 -31.020  23.621  1.00  0.00     0.039 C 
ENDROOT
TORSDOF 0
ENDMDL
MODEL 4
REMARK VINA RESULT:    -6.237      2.079      4.908
REMARK INTER + INTRA:          -6.237
REMARK INTER:                  -6.237
REMARK INTRA:                   0.000
REMARK UNBOUND:                 0.000
REMARK SMILES C=C1CCC[C@@]2(C)CC(=O)C(=C(C)C)C[C@@H]12
REMARK SMILES IDX 13 1 12 2 11 3 15 4 16 5 2 6 1 7 3 8 4 9 5 10 6 11 8 12 9 13
REMARK SMILES IDX 10 14 7 15 14 16
REMARK H PARENT
REMARK Flexibility Score: inf
ROOT
ATOM      1  C   UNL     1      19.520 -32.385  21.453  1.00  0.00     0.039 C 
ATOM      2  C   UNL     1      18.074 -32.609  21.074  1.00  0.00    -0.070 C 
ATOM      3  C   UNL     1      17.054 -32.101  21.822  1.00  0.00    -0.006 C 
ATOM      4  C   UNL     1      15.596 -32.228  21.428  1.00  0.00     0.047 C 
ATOM      5  C   UNL     1      14.889 -30.846  21.333  1.00  0.00     0.025 C 
ATOM      6  C   UNL     1      13.391 -31.056  21.487  1.00  0.00    -0.073 C 
ATOM      7  C   UNL     1      12.649 -31.468  20.446  1.00  0.00     0.008 C 
ATOM      8  C   UNL     1      12.773 -30.916  22.858  1.00  0.00     0.031 C 
ATOM      9  C   UNL     1      13.158 -29.592  23.542  1.00  0.00     0.005 C 
ATOM     10  C   UNL     1      14.303 -28.833  22.847  1.00  0.00     0.008 C 
ATOM     11  C   UNL     1      15.448 -29.755  22.335  1.00  0.00    -0.018 C 
ATOM     12  C   UNL     1      16.174 -30.413  23.546  1.00  0.00     0.088 C 
ATOM     13  C   UNL     1      17.259 -31.343  23.084  1.00  0.00     0.159 C 
ATOM     14  O   UNL     1      18.272 -31.519  23.813  1.00  0.00    -0.295 OA
ATOM     15  C   UNL     1      16.459 -28.839  21.591  1.00  0.00     0.012 C 
ATOM     16  C   UNL     1      17.804 -33.383  19.804  1.00  0.00     0.039 C 
ENDROOT
TORSDOF 0
ENDMDL
MODEL 5
REMARK VINA RESULT:    -6.237      2.806      5.096
REMARK INTER + INTRA:          -6.237
REMARK INTER:                  -6.237
REMARK INTRA:                   0.000
REMARK UNBOUND:                 0.000
REMARK SMILES C=C1CCC[C@@]2(C)CC(=O)C(=C(C)C)C[C@@H]12
REMARK SMILES IDX 13 1 12 2 11 3 15 4 16 5 2 6 1 7 3 8 4 9 5 10 6 11 8 12 9 13
REMARK SMILES IDX 10 14 7 15 14 16
REMARK H PARENT
REMARK Flexibility Score: inf
ROOT
ATOM      1  C   UNL     1      15.315 -30.650  21.666  1.00  0.00     0.039 C 
ATOM      2  C   UNL     1      16.417 -31.541  22.191  1.00  0.00    -0.070 C 
ATOM      3  C   UNL     1      16.459 -32.871  21.899  1.00  0.00    -0.006 C 
ATOM      4  C   UNL     1      17.594 -33.778  22.332  1.00  0.00     0.047 C 
ATOM      5  C   UNL     1      18.256 -34.509  21.129  1.00  0.00     0.025 C 
ATOM      6  C   UNL     1      18.958 -35.755  21.646  1.00  0.00    -0.073 C 
ATOM      7  C   UNL     1      20.172 -35.667  22.214  1.00  0.00     0.008 C 
ATOM      8  C   UNL     1      18.217 -37.071  21.622  1.00  0.00     0.031 C 
ATOM      9  C   UNL     1      17.616 -37.381  20.240  1.00  0.00     0.005 C 
ATOM     10  C   UNL     1      17.625 -36.189  19.266  1.00  0.00     0.008 C 
ATOM     11  C   UNL     1      17.267 -34.829  19.934  1.00  0.00    -0.018 C 
ATOM     12  C   UNL     1      15.785 -34.854  20.413  1.00  0.00     0.088 C 
ATOM     13  C   UNL     1      15.418 -33.571  21.102  1.00  0.00     0.159 C 
ATOM     14  O   UNL     1      14.227 -33.164  21.054  1.00  0.00    -0.295 OA
ATOM     15  C   UNL     1      17.413 -33.740  18.836  1.00  0.00     0.012 C 
ATOM     16  C   UNL     1      17.500 -30.886  23.018  1.00  0.00     0.039 C 
ENDROOT
TORSDOF 0
ENDMDL
MODEL 6
REMARK VINA RESULT:    -6.168      1.710      3.031
REMARK INTER + INTRA:          -6.168
REMARK INTER:                  -6.168
REMARK INTRA:                   0.000
REMARK UNBOUND:                 0.000
REMARK SMILES C=C1CCC[C@@]2(C)CC(=O)C(=C(C)C)C[C@@H]12
REMARK SMILES IDX 13 1 12 2 11 3 15 4 16 5 2 6 1 7 3 8 4 9 5 10 6 11 8 12 9 13
REMARK SMILES IDX 10 14 7 15 14 16
REMARK H PARENT
REMARK Flexibility Score: inf
ROOT
ATOM      1  C   UNL     1      12.760 -29.677  23.225  1.00  0.00     0.039 C 
ATOM      2  C   UNL     1      14.221 -29.729  22.843  1.00  0.00    -0.070 C 
ATOM      3  C   UNL     1      14.945 -30.879  22.949  1.00  0.00    -0.006 C 
ATOM      4  C   UNL     1      16.387 -30.995  22.495  1.00  0.00     0.047 C 
ATOM      5  C   UNL     1      16.588 -32.138  21.461  1.00  0.00     0.025 C 
ATOM      6  C   UNL     1      18.051 -32.552  21.475  1.00  0.00    -0.073 C 
ATOM      7  C   UNL     1      18.969 -31.834  20.807  1.00  0.00     0.008 C 
ATOM      8  C   UNL     1      18.473 -33.707  22.351  1.00  0.00     0.031 C 
ATOM      9  C   UNL     1      17.609 -34.961  22.126  1.00  0.00     0.005 C 
ATOM     10  C   UNL     1      16.333 -34.707  21.301  1.00  0.00     0.008 C 
ATOM     11  C   UNL     1      15.614 -33.372  21.651  1.00  0.00    -0.018 C 
ATOM     12  C   UNL     1      15.059 -33.440  23.105  1.00  0.00     0.088 C 
ATOM     13  C   UNL     1      14.395 -32.149  23.491  1.00  0.00     0.159 C 
ATOM     14  O   UNL     1      13.447 -32.167  24.320  1.00  0.00    -0.295 OA
ATOM     15  C   UNL     1      14.415 -33.240  20.671  1.00  0.00     0.012 C 
ATOM     16  C   UNL     1      14.838 -28.463  22.296  1.00  0.00     0.039 C 
ENDROOT
TORSDOF 0
ENDMDL
MODEL 7
REMARK VINA RESULT:    -6.152      3.163      5.359
REMARK INTER + INTRA:          -6.152
REMARK INTER:                  -6.152
REMARK INTRA:                   0.000
REMARK UNBOUND:                 0.000
REMARK SMILES C=C1CCC[C@@]2(C)CC(=O)C(=C(C)C)C[C@@H]12
REMARK SMILES IDX 13 1 12 2 11 3 15 4 16 5 2 6 1 7 3 8 4 9 5 10 6 11 8 12 9 13
REMARK SMILES IDX 10 14 7 15 14 16
REMARK H PARENT
REMARK Flexibility Score: inf
ROOT
ATOM      1  C   UNL     1      20.588 -29.711  20.688  1.00  0.00     0.039 C 
ATOM      2  C   UNL     1      19.201 -29.130  20.833  1.00  0.00    -0.070 C 
ATOM      3  C   UNL     1      18.119 -29.920  21.086  1.00  0.00    -0.006 C 
ATOM      4  C   UNL     1      16.728 -29.367  21.325  1.00  0.00     0.047 C 
ATOM      5  C   UNL     1      16.136 -29.833  22.686  1.00  0.00     0.025 C 
ATOM      6  C   UNL     1      14.621 -29.726  22.617  1.00  0.00    -0.073 C 
ATOM      7  C   UNL     1      14.013 -28.542  22.798  1.00  0.00     0.008 C 
ATOM      8  C   UNL     1      13.822 -30.944  22.219  1.00  0.00     0.031 C 
ATOM      9  C   UNL     1      14.190 -32.185  23.052  1.00  0.00     0.005 C 
ATOM     10  C   UNL     1      15.472 -32.024  23.890  1.00  0.00     0.008 C 
ATOM     11  C   UNL     1      16.615 -31.269  23.151  1.00  0.00    -0.018 C 
ATOM     12  C   UNL     1      17.113 -32.121  21.945  1.00  0.00     0.088 C 
ATOM     13  C   UNL     1      18.189 -31.402  21.183  1.00  0.00     0.159 C 
ATOM     14  O   UNL     1      19.072 -32.070  20.582  1.00  0.00    -0.295 OA
ATOM     15  C   UNL     1      17.782 -31.122  24.166  1.00  0.00     0.012 C 
ATOM     16  C   UNL     1      19.067 -27.628  20.733  1.00  0.00     0.039 C 
ENDROOT
TORSDOF 0
ENDMDL
MODEL 8
REMARK VINA RESULT:    -6.067      1.559      2.170
REMARK INTER + INTRA:          -6.067
REMARK INTER:                  -6.067
REMARK INTRA:                   0.000
REMARK UNBOUND:                 0.000
REMARK SMILES C=C1CCC[C@@]2(C)CC(=O)C(=C(C)C)C[C@@H]12
REMARK SMILES IDX 13 1 12 2 11 3 15 4 16 5 2 6 1 7 3 8 4 9 5 10 6 11 8 12 9 13
REMARK SMILES IDX 10 14 7 15 14 16
REMARK H PARENT
REMARK Flexibility Score: inf
ROOT
ATOM      1  C   UNL     1      13.658 -29.590  23.040  1.00  0.00     0.039 C 
ATOM      2  C   UNL     1      13.878 -30.700  22.039  1.00  0.00    -0.070 C 
ATOM      3  C   UNL     1      15.057 -31.382  21.977  1.00  0.00    -0.006 C 
ATOM      4  C   UNL     1      15.285 -32.558  21.048  1.00  0.00     0.047 C 
ATOM      5  C   UNL     1      15.732 -33.836  21.814  1.00  0.00     0.025 C 
ATOM      6  C   UNL     1      16.452 -34.757  20.841  1.00  0.00    -0.073 C 
ATOM      7  C   UNL     1      15.756 -35.544  20.006  1.00  0.00     0.008 C 
ATOM      8  C   UNL     1      17.957 -34.679  20.743  1.00  0.00     0.031 C 
ATOM      9  C   UNL     1      18.641 -34.783  22.118  1.00  0.00     0.005 C 
ATOM     10  C   UNL     1      17.679 -34.643  23.313  1.00  0.00     0.008 C 
ATOM     11  C   UNL     1      16.587 -33.552  23.116  1.00  0.00    -0.018 C 
ATOM     12  C   UNL     1      17.255 -32.145  23.063  1.00  0.00     0.088 C 
ATOM     13  C   UNL     1      16.232 -31.070  22.831  1.00  0.00     0.159 C 
ATOM     14  O   UNL     1      16.434 -29.917  23.295  1.00  0.00    -0.295 OA
ATOM     15  C   UNL     1      15.664 -33.613  24.364  1.00  0.00     0.012 C 
ATOM     16  C   UNL     1      12.720 -31.055  21.135  1.00  0.00     0.039 C 
ENDROOT
TORSDOF 0
ENDMDL
MODEL 9
REMARK VINA RESULT:    -5.989      4.064      6.797
REMARK INTER + INTRA:          -5.989
REMARK INTER:                  -5.989
REMARK INTRA:                   0.000
REMARK UNBOUND:                 0.000
REMARK SMILES C=C1CCC[C@@]2(C)CC(=O)C(=C(C)C)C[C@@H]12
REMARK SMILES IDX 13 1 12 2 11 3 15 4 16 5 2 6 1 7 3 8 4 9 5 10 6 11 8 12 9 13
REMARK SMILES IDX 10 14 7 15 14 16
REMARK H PARENT
REMARK Flexibility Score: inf
ROOT
ATOM      1  C   UNL     1      19.288 -37.100  25.586  1.00  0.00     0.039 C 
ATOM      2  C   UNL     1      18.202 -36.196  25.049  1.00  0.00    -0.070 C 
ATOM      3  C   UNL     1      18.352 -35.523  23.873  1.00  0.00    -0.006 C 
ATOM      4  C   UNL     1      17.254 -34.677  23.259  1.00  0.00     0.047 C 
ATOM      5  C   UNL     1      16.909 -35.123  21.810  1.00  0.00     0.025 C 
ATOM      6  C   UNL     1      16.252 -33.957  21.087  1.00  0.00    -0.073 C 
ATOM      7  C   UNL     1      14.951 -33.684  21.275  1.00  0.00     0.008 C 
ATOM      8  C   UNL     1      17.114 -33.039  20.254  1.00  0.00     0.031 C 
ATOM      9  C   UNL     1      17.993 -33.808  19.252  1.00  0.00     0.005 C 
ATOM     10  C   UNL     1      18.046 -35.327  19.496  1.00  0.00     0.008 C 
ATOM     11  C   UNL     1      18.132 -35.719  21.000  1.00  0.00    -0.018 C 
ATOM     12  C   UNL     1      19.492 -35.242  21.590  1.00  0.00     0.088 C 
ATOM     13  C   UNL     1      19.590 -35.567  23.053  1.00  0.00     0.159 C 
ATOM     14  O   UNL     1      20.721 -35.789  23.561  1.00  0.00    -0.295 OA
ATOM     15  C   UNL     1      18.085 -37.271  21.060  1.00  0.00     0.012 C 
ATOM     16  C   UNL     1      16.923 -36.103  25.848  1.00  0.00     0.039 C 
ENDROOT
TORSDOF 0
ENDMDL
