MODEL 1
REMARK VINA RESULT:    -3.869      0.000      0.000
REMARK INTER + INTRA:          -7.820
REMARK INTER:                  -6.809
REMARK INTRA:                  -1.011
REMARK UNBOUND:                -1.011
REMARK SMILES CCCCCCC=CCCCCCCCC(=O)[O-]
REMARK SMILES IDX 10 1 11 2 12 3 13 4 14 5 15 6 16 7 17 8 18 9 9 10 8 11 7 12
REMARK SMILES IDX 6 13 5 14 4 15 3 16 2 17 1 18
REMARK H PARENT
REMARK Flexibility Score: inf
ROOT
ATOM      1  C   UNL     1      60.010  28.511  49.524  1.00  0.00     0.004 C 
ENDROOT
BRANCH   1   2
ATOM      2  C   UNL     1      59.977  26.986  49.361  1.00  0.00     0.000 C 
BRANCH   2   3
ATOM      3  C   UNL     1      61.321  26.362  49.760  1.00  0.00     0.000 C 
BRANCH   3   4
ATOM      4  C   UNL     1      62.415  27.412  50.027  1.00  0.00     0.000 C 
BRANCH   4   5
ATOM      5  C   UNL     1      63.722  27.210  49.233  1.00  0.00     0.006 C 
BRANCH   5   6
ATOM      6  C   UNL     1      63.804  28.011  47.925  1.00  0.00     0.053 C 
BRANCH   6   7
ATOM      7  C   UNL     1      64.513  29.316  48.108  1.00  0.00     0.041 C 
ATOM      8  O   UNL     1      63.913  30.297  48.622  1.00  0.00    -0.550 OA
ATOM      9  O   UNL     1      65.848  29.441  47.744  1.00  0.00    -0.550 OA
ENDBRANCH   6   7
ENDBRANCH   5   6
ENDBRANCH   4   5
ENDBRANCH   3   4
ENDBRANCH   2   3
ENDBRANCH   1   2
BRANCH   1  10
ATOM     10  C   UNL     1      58.616  29.115  49.318  1.00  0.00     0.027 C 
BRANCH  10  11
ATOM     11  C   UNL     1      57.805  29.055  50.582  1.00  0.00    -0.031 C 
ATOM     12  C   UNL     1      56.645  28.384  50.641  1.00  0.00    -0.031 C 
BRANCH  12  13
ATOM     13  C   UNL     1      55.839  28.309  51.910  1.00  0.00     0.027 C 
BRANCH  13  14
ATOM     14  C   UNL     1      54.328  28.470  51.663  1.00  0.00     0.004 C 
BRANCH  14  15
ATOM     15  C   UNL     1      53.952  28.693  50.187  1.00  0.00     0.000 C 
BRANCH  15  16
ATOM     16  C   UNL     1      53.163  27.515  49.591  1.00  0.00    -0.000 C 
BRANCH  16  17
ATOM     17  C   UNL     1      54.063  26.322  49.237  1.00  0.00    -0.003 C 
ATOM     18  C   UNL     1      53.417  24.977  49.571  1.00  0.00     0.004 C 
ENDBRANCH  16  17
ENDBRANCH  15  16
ENDBRANCH  14  15
ENDBRANCH  13  14
ENDBRANCH  12  13
ENDBRANCH  10  11
ENDBRANCH   1  10
TORSDOF 13
ENDMDL
MODEL 2
REMARK VINA RESULT:    -3.852     11.707     13.370
REMARK INTER + INTRA:          -7.789
REMARK INTER:                  -5.669
REMARK INTRA:                  -2.120
REMARK UNBOUND:                -1.011
REMARK SMILES CCCCCCC=CCCCCCCCC(=O)[O-]
REMARK SMILES IDX 10 1 11 2 12 3 13 4 14 5 15 6 16 7 17 8 18 9 9 10 8 11 7 12
REMARK SMILES IDX 6 13 5 14 4 15 3 16 2 17 1 18
REMARK H PARENT
REMARK Flexibility Score: inf
ROOT
ATOM      1  C   UNL     1      64.172  33.364  59.830  1.00  0.00     0.004 C 
ENDROOT
BRANCH   1   2
ATOM      2  C   UNL     1      64.462  31.861  59.920  1.00  0.00     0.000 C 
BRANCH   2   3
ATOM      3  C   UNL     1      64.230  31.341  61.345  1.00  0.00     0.000 C 
BRANCH   3   4
ATOM      4  C   UNL     1      63.281  30.130  61.395  1.00  0.00     0.000 C 
BRANCH   4   5
ATOM      5  C   UNL     1      61.881  30.420  61.976  1.00  0.00     0.006 C 
BRANCH   5   6
ATOM      6  C   UNL     1      61.144  31.592  61.310  1.00  0.00     0.053 C 
BRANCH   6   7
ATOM      7  C   UNL     1      60.732  31.271  59.907  1.00  0.00     0.041 C 
ATOM      8  O   UNL     1      60.969  32.084  58.975  1.00  0.00    -0.550 OA
ATOM      9  O   UNL     1      60.115  30.059  59.622  1.00  0.00    -0.550 OA
ENDBRANCH   6   7
ENDBRANCH   5   6
ENDBRANCH   4   5
ENDBRANCH   3   4
ENDBRANCH   2   3
ENDBRANCH   1   2
BRANCH   1  10
ATOM     10  C   UNL     1      64.122  33.998  61.225  1.00  0.00     0.027 C 
BRANCH  10  11
ATOM     11  C   UNL     1      63.301  35.258  61.220  1.00  0.00    -0.031 C 
ATOM     12  C   UNL     1      62.016  35.257  60.837  1.00  0.00    -0.031 C 
BRANCH  12  13
ATOM     13  C   UNL     1      61.187  36.514  60.847  1.00  0.00     0.027 C 
BRANCH  13  14
ATOM     14  C   UNL     1      60.322  36.663  59.583  1.00  0.00     0.004 C 
BRANCH  14  15
ATOM     15  C   UNL     1      60.394  35.460  58.625  1.00  0.00     0.000 C 
BRANCH  15  16
ATOM     16  C   UNL     1      61.046  35.812  57.278  1.00  0.00    -0.000 C 
BRANCH  16  17
ATOM     17  C   UNL     1      62.152  36.869  57.416  1.00  0.00    -0.003 C 
ATOM     18  C   UNL     1      63.546  36.252  57.529  1.00  0.00     0.004 C 
ENDBRANCH  16  17
ENDBRANCH  15  16
ENDBRANCH  14  15
ENDBRANCH  13  14
ENDBRANCH  12  13
ENDBRANCH  10  11
ENDBRANCH   1  10
TORSDOF 13
ENDMDL
MODEL 3
REMARK VINA RESULT:    -3.850      3.495      4.655
REMARK INTER + INTRA:          -7.787
REMARK INTER:                  -5.842
REMARK INTRA:                  -1.945
REMARK UNBOUND:                -1.011
REMARK SMILES CCCCCCC=CCCCCCCCC(=O)[O-]
REMARK SMILES IDX 10 1 11 2 12 3 13 4 14 5 15 6 16 7 17 8 18 9 9 10 8 11 7 12
REMARK SMILES IDX 6 13 5 14 4 15 3 16 2 17 1 18
REMARK H PARENT
REMARK Flexibility Score: inf
ROOT
ATOM      1  C   UNL     1      59.942  29.558  50.585  1.00  0.00     0.004 C 
ENDROOT
BRANCH   1   2
ATOM      2  C   UNL     1      59.260  28.700  49.511  1.00  0.00     0.000 C 
BRANCH   2   3
ATOM      3  C   UNL     1      60.173  27.550  49.065  1.00  0.00     0.000 C 
BRANCH   3   4
ATOM      4  C   UNL     1      59.737  26.185  49.629  1.00  0.00     0.000 C 
BRANCH   4   5
ATOM      5  C   UNL     1      58.259  26.100  50.065  1.00  0.00     0.006 C 
BRANCH   5   6
ATOM      6  C   UNL     1      57.975  25.057  51.156  1.00  0.00     0.053 C 
BRANCH   6   7
ATOM      7  C   UNL     1      57.829  25.684  52.508  1.00  0.00     0.041 C 
ATOM      8  O   UNL     1      58.828  26.194  53.081  1.00  0.00    -0.550 OA
ATOM      9  O   UNL     1      56.584  25.736  53.121  1.00  0.00    -0.550 OA
ENDBRANCH   6   7
ENDBRANCH   5   6
ENDBRANCH   4   5
ENDBRANCH   3   4
ENDBRANCH   2   3
ENDBRANCH   1   2
BRANCH   1  10
ATOM     10  C   UNL     1      59.101  29.605  51.866  1.00  0.00     0.027 C 
BRANCH  10  11
ATOM     11  C   UNL     1      57.689  29.157  51.606  1.00  0.00    -0.031 C 
ATOM     12  C   UNL     1      56.713  29.356  52.504  1.00  0.00    -0.031 C 
BRANCH  12  13
ATOM     13  C   UNL     1      55.295  28.923  52.239  1.00  0.00     0.027 C 
BRANCH  13  14
ATOM     14  C   UNL     1      54.788  29.367  50.856  1.00  0.00     0.004 C 
BRANCH  14  15
ATOM     15  C   UNL     1      54.134  28.242  50.034  1.00  0.00     0.000 C 
BRANCH  15  16
ATOM     16  C   UNL     1      54.629  26.844  50.441  1.00  0.00    -0.000 C 
BRANCH  16  17
ATOM     17  C   UNL     1      54.591  25.843  49.276  1.00  0.00    -0.003 C 
ATOM     18  C   UNL     1      53.279  25.062  49.212  1.00  0.00     0.004 C 
ENDBRANCH  16  17
ENDBRANCH  15  16
ENDBRANCH  14  15
ENDBRANCH  13  14
ENDBRANCH  12  13
ENDBRANCH  10  11
ENDBRANCH   1  10
TORSDOF 13
ENDMDL
MODEL 4
REMARK VINA RESULT:    -3.845      4.365      7.341
REMARK INTER + INTRA:          -7.777
REMARK INTER:                  -5.455
REMARK INTRA:                  -2.322
REMARK UNBOUND:                -1.011
REMARK SMILES CCCCCCC=CCCCCCCCC(=O)[O-]
REMARK SMILES IDX 10 1 11 2 12 3 13 4 14 5 15 6 16 7 17 8 18 9 9 10 8 11 7 12
REMARK SMILES IDX 6 13 5 14 4 15 3 16 2 17 1 18
REMARK H PARENT
REMARK Flexibility Score: inf
ROOT
ATOM      1  C   UNL     1      57.629  29.641  53.452  1.00  0.00     0.004 C 
ENDROOT
BRANCH   1   2
ATOM      2  C   UNL     1      56.633  28.669  52.808  1.00  0.00     0.000 C 
BRANCH   2   3
ATOM      3  C   UNL     1      55.316  29.380  52.466  1.00  0.00     0.000 C 
BRANCH   3   4
ATOM      4  C   UNL     1      54.819  29.070  51.042  1.00  0.00     0.000 C 
BRANCH   4   5
ATOM      5  C   UNL     1      55.459  27.831  50.382  1.00  0.00     0.006 C 
BRANCH   5   6
ATOM      6  C   UNL     1      54.467  26.913  49.652  1.00  0.00     0.053 C 
BRANCH   6   7
ATOM      7  C   UNL     1      54.155  25.680  50.443  1.00  0.00     0.041 C 
ATOM      8  O   UNL     1      54.607  25.545  51.610  1.00  0.00    -0.550 OA
ATOM      9  O   UNL     1      53.337  24.696  49.904  1.00  0.00    -0.550 OA
ENDBRANCH   6   7
ENDBRANCH   5   6
ENDBRANCH   4   5
ENDBRANCH   3   4
ENDBRANCH   2   3
ENDBRANCH   1   2
BRANCH   1  10
ATOM     10  C   UNL     1      58.611  30.191  52.410  1.00  0.00     0.027 C 
BRANCH  10  11
ATOM     11  C   UNL     1      58.910  29.166  51.350  1.00  0.00    -0.031 C 
ATOM     12  C   UNL     1      58.709  29.423  50.049  1.00  0.00    -0.031 C 
BRANCH  12  13
ATOM     13  C   UNL     1      59.022  28.405  48.985  1.00  0.00     0.027 C 
BRANCH  13  14
ATOM     14  C   UNL     1      60.311  27.617  49.280  1.00  0.00     0.004 C 
BRANCH  14  15
ATOM     15  C   UNL     1      60.075  26.144  49.661  1.00  0.00     0.000 C 
BRANCH  15  16
ATOM     16  C   UNL     1      58.583  25.786  49.757  1.00  0.00    -0.000 C 
BRANCH  16  17
ATOM     17  C   UNL     1      58.142  25.477  51.195  1.00  0.00    -0.003 C 
ATOM     18  C   UNL     1      59.301  25.527  52.191  1.00  0.00     0.004 C 
ENDBRANCH  16  17
ENDBRANCH  15  16
ENDBRANCH  14  15
ENDBRANCH  13  14
ENDBRANCH  12  13
ENDBRANCH  10  11
ENDBRANCH   1  10
TORSDOF 13
ENDMDL
MODEL 5
REMARK VINA RESULT:    -3.809      3.931      7.943
REMARK INTER + INTRA:          -7.714
REMARK INTER:                  -5.853
REMARK INTRA:                  -1.862
REMARK UNBOUND:                -1.011
REMARK SMILES CCCCCCC=CCCCCCCCC(=O)[O-]
REMARK SMILES IDX 10 1 11 2 12 3 13 4 14 5 15 6 16 7 17 8 18 9 9 10 8 11 7 12
REMARK SMILES IDX 6 13 5 14 4 15 3 16 2 17 1 18
REMARK H PARENT
REMARK Flexibility Score: inf
ROOT
ATOM      1  C   UNL     1      55.099  25.993  51.007  1.00  0.00     0.004 C 
ENDROOT
BRANCH   1   2
ATOM      2  C   UNL     1      54.472  25.856  49.615  1.00  0.00     0.000 C 
BRANCH   2   3
ATOM      3  C   UNL     1      53.466  26.985  49.351  1.00  0.00     0.000 C 
BRANCH   3   4
ATOM      4  C   UNL     1      53.277  27.914  50.564  1.00  0.00     0.000 C 
BRANCH   4   5
ATOM      5  C   UNL     1      53.788  29.356  50.367  1.00  0.00     0.006 C 
BRANCH   5   6
ATOM      6  C   UNL     1      53.126  30.399  51.281  1.00  0.00     0.053 C 
BRANCH   6   7
ATOM      7  C   UNL     1      54.025  30.810  52.406  1.00  0.00     0.041 C 
ATOM      8  O   UNL     1      55.179  30.317  52.508  1.00  0.00    -0.550 OA
ATOM      9  O   UNL     1      53.600  31.763  53.324  1.00  0.00    -0.550 OA
ENDBRANCH   6   7
ENDBRANCH   5   6
ENDBRANCH   4   5
ENDBRANCH   3   4
ENDBRANCH   2   3
ENDBRANCH   1   2
BRANCH   1  10
ATOM     10  C   UNL     1      56.608  25.723  50.959  1.00  0.00     0.027 C 
BRANCH  10  11
ATOM     11  C   UNL     1      57.338  26.840  50.266  1.00  0.00    -0.031 C 
ATOM     12  C   UNL     1      57.269  28.105  50.708  1.00  0.00    -0.031 C 
BRANCH  12  13
ATOM     13  C   UNL     1      58.012  29.222  50.025  1.00  0.00     0.027 C 
BRANCH  13  14
ATOM     14  C   UNL     1      59.150  28.712  49.122  1.00  0.00     0.004 C 
BRANCH  14  15
ATOM     15  C   UNL     1      60.511  28.591  49.831  1.00  0.00     0.000 C 
BRANCH  15  16
ATOM     16  C   UNL     1      61.193  27.236  49.580  1.00  0.00    -0.000 C 
BRANCH  16  17
ATOM     17  C   UNL     1      60.900  26.214  50.689  1.00  0.00    -0.003 C 
ATOM     18  C   UNL     1      60.623  26.874  52.040  1.00  0.00     0.004 C 
ENDBRANCH  16  17
ENDBRANCH  15  16
ENDBRANCH  14  15
ENDBRANCH  13  14
ENDBRANCH  12  13
ENDBRANCH  10  11
ENDBRANCH   1  10
TORSDOF 13
ENDMDL
MODEL 6
REMARK VINA RESULT:    -3.788     11.579     13.637
REMARK INTER + INTRA:          -7.677
REMARK INTER:                  -5.862
REMARK INTRA:                  -1.815
REMARK UNBOUND:                -1.011
REMARK SMILES CCCCCCC=CCCCCCCCC(=O)[O-]
REMARK SMILES IDX 10 1 11 2 12 3 13 4 14 5 15 6 16 7 17 8 18 9 9 10 8 11 7 12
REMARK SMILES IDX 6 13 5 14 4 15 3 16 2 17 1 18
REMARK H PARENT
REMARK Flexibility Score: inf
ROOT
ATOM      1  C   UNL     1      63.963  28.580  61.186  1.00  0.00     0.004 C 
ENDROOT
BRANCH   1   2
ATOM      2  C   UNL     1      63.086  29.545  61.993  1.00  0.00     0.000 C 
BRANCH   2   3
ATOM      3  C   UNL     1      61.754  29.808  61.277  1.00  0.00     0.000 C 
BRANCH   3   4
ATOM      4  C   UNL     1      61.045  31.079  61.778  1.00  0.00     0.000 C 
BRANCH   4   5
ATOM      5  C   UNL     1      60.892  32.199  60.728  1.00  0.00     0.006 C 
BRANCH   5   6
ATOM      6  C   UNL     1      60.789  31.705  59.277  1.00  0.00     0.053 C 
BRANCH   6   7
ATOM      7  C   UNL     1      61.014  32.808  58.291  1.00  0.00     0.041 C 
ATOM      8  O   UNL     1      60.386  33.894  58.399  1.00  0.00    -0.550 OA
ATOM      9  O   UNL     1      61.944  32.651  57.270  1.00  0.00    -0.550 OA
ENDBRANCH   6   7
ENDBRANCH   5   6
ENDBRANCH   4   5
ENDBRANCH   3   4
ENDBRANCH   2   3
ENDBRANCH   1   2
BRANCH   1  10
ATOM     10  C   UNL     1      64.676  29.312  60.043  1.00  0.00     0.027 C 
BRANCH  10  11
ATOM     11  C   UNL     1      64.854  30.771  60.359  1.00  0.00    -0.031 C 
ATOM     12  C   UNL     1      64.544  31.725  59.469  1.00  0.00    -0.031 C 
BRANCH  12  13
ATOM     13  C   UNL     1      64.706  33.188  59.789  1.00  0.00     0.027 C 
BRANCH  13  14
ATOM     14  C   UNL     1      63.975  33.596  61.080  1.00  0.00     0.004 C 
BRANCH  14  15
ATOM     15  C   UNL     1      64.491  34.903  61.710  1.00  0.00     0.000 C 
BRANCH  15  16
ATOM     16  C   UNL     1      63.520  36.079  61.516  1.00  0.00    -0.000 C 
BRANCH  16  17
ATOM     17  C   UNL     1      62.277  35.690  60.701  1.00  0.00    -0.003 C 
ATOM     18  C   UNL     1      61.132  36.691  60.858  1.00  0.00     0.004 C 
ENDBRANCH  16  17
ENDBRANCH  15  16
ENDBRANCH  14  15
ENDBRANCH  13  14
ENDBRANCH  12  13
ENDBRANCH  10  11
ENDBRANCH   1  10
TORSDOF 13
ENDMDL
MODEL 7
REMARK VINA RESULT:    -3.751      3.152      4.113
REMARK INTER + INTRA:          -7.612
REMARK INTER:                  -5.280
REMARK INTRA:                  -2.331
REMARK UNBOUND:                -1.011
REMARK SMILES CCCCCCC=CCCCCCCCC(=O)[O-]
REMARK SMILES IDX 10 1 11 2 12 3 13 4 14 5 15 6 16 7 17 8 18 9 9 10 8 11 7 12
REMARK SMILES IDX 6 13 5 14 4 15 3 16 2 17 1 18
REMARK H PARENT
REMARK Flexibility Score: inf
ROOT
ATOM      1  C   UNL     1      58.702  25.201  51.706  1.00  0.00     0.004 C 
ENDROOT
BRANCH   1   2
ATOM      2  C   UNL     1      58.154  25.527  50.311  1.00  0.00     0.000 C 
BRANCH   2   3
ATOM      3  C   UNL     1      59.117  26.442  49.543  1.00  0.00     0.000 C 
BRANCH   3   4
ATOM      4  C   UNL     1      58.724  27.928  49.622  1.00  0.00     0.000 C 
BRANCH   4   5
ATOM      5  C   UNL     1      59.781  28.851  50.262  1.00  0.00     0.006 C 
BRANCH   5   6
ATOM      6  C   UNL     1      59.707  28.940  51.794  1.00  0.00     0.053 C 
BRANCH   6   7
ATOM      7  C   UNL     1      59.386  30.326  52.261  1.00  0.00     0.041 C 
ATOM      8  O   UNL     1      60.306  31.172  52.411  1.00  0.00    -0.550 OA
ATOM      9  O   UNL     1      58.068  30.693  52.499  1.00  0.00    -0.550 OA
ENDBRANCH   6   7
ENDBRANCH   5   6
ENDBRANCH   4   5
ENDBRANCH   3   4
ENDBRANCH   2   3
ENDBRANCH   1   2
BRANCH   1  10
ATOM     10  C   UNL     1      57.795  25.776  52.801  1.00  0.00     0.027 C 
BRANCH  10  11
ATOM     11  C   UNL     1      56.578  26.432  52.209  1.00  0.00    -0.031 C 
ATOM     12  C   UNL     1      56.263  27.706  52.485  1.00  0.00    -0.031 C 
BRANCH  12  13
ATOM     13  C   UNL     1      55.054  28.369  51.882  1.00  0.00     0.027 C 
BRANCH  13  14
ATOM     14  C   UNL     1      55.047  28.304  50.344  1.00  0.00     0.004 C 
BRANCH  14  15
ATOM     15  C   UNL     1      53.914  27.444  49.755  1.00  0.00     0.000 C 
BRANCH  15  16
ATOM     16  C   UNL     1      54.407  26.081  49.242  1.00  0.00    -0.000 C 
BRANCH  16  17
ATOM     17  C   UNL     1      53.508  24.921  49.696  1.00  0.00    -0.003 C 
ATOM     18  C   UNL     1      53.134  25.008  51.175  1.00  0.00     0.004 C 
ENDBRANCH  16  17
ENDBRANCH  15  16
ENDBRANCH  14  15
ENDBRANCH  13  14
ENDBRANCH  12  13
ENDBRANCH  10  11
ENDBRANCH   1  10
TORSDOF 13
ENDMDL
MODEL 8
REMARK VINA RESULT:    -3.733     12.819     14.141
REMARK INTER + INTRA:          -7.580
REMARK INTER:                  -5.900
REMARK INTRA:                  -1.680
REMARK UNBOUND:                -1.011
REMARK SMILES CCCCCCC=CCCCCCCCC(=O)[O-]
REMARK SMILES IDX 10 1 11 2 12 3 13 4 14 5 15 6 16 7 17 8 18 9 9 10 8 11 7 12
REMARK SMILES IDX 6 13 5 14 4 15 3 16 2 17 1 18
REMARK H PARENT
REMARK Flexibility Score: inf
ROOT
ATOM      1  C   UNL     1      65.882  28.661  61.152  1.00  0.00     0.004 C 
ENDROOT
BRANCH   1   2
ATOM      2  C   UNL     1      65.612  27.507  60.179  1.00  0.00     0.000 C 
BRANCH   2   3
ATOM      3  C   UNL     1      64.855  26.368  60.874  1.00  0.00     0.000 C 
BRANCH   3   4
ATOM      4  C   UNL     1      63.326  26.504  60.758  1.00  0.00     0.000 C 
BRANCH   4   5
ATOM      5  C   UNL     1      62.592  26.779  62.087  1.00  0.00     0.006 C 
BRANCH   5   6
ATOM      6  C   UNL     1      61.379  25.873  62.346  1.00  0.00     0.053 C 
BRANCH   6   7
ATOM      7  C   UNL     1      61.618  24.924  63.478  1.00  0.00     0.041 C 
ATOM      8  O   UNL     1      60.724  24.734  64.345  1.00  0.00    -0.550 OA
ATOM      9  O   UNL     1      62.814  24.223  63.559  1.00  0.00    -0.550 OA
ENDBRANCH   6   7
ENDBRANCH   5   6
ENDBRANCH   4   5
ENDBRANCH   3   4
ENDBRANCH   2   3
ENDBRANCH   1   2
BRANCH   1  10
ATOM     10  C   UNL     1      65.608  30.016  60.487  1.00  0.00     0.027 C 
BRANCH  10  11
ATOM     11  C   UNL     1      64.171  30.424  60.659  1.00  0.00    -0.031 C 
ATOM     12  C   UNL     1      63.474  30.097  61.758  1.00  0.00    -0.031 C 
BRANCH  12  13
ATOM     13  C   UNL     1      62.040  30.519  61.939  1.00  0.00     0.027 C 
BRANCH  13  14
ATOM     14  C   UNL     1      61.471  31.231  60.699  1.00  0.00     0.004 C 
BRANCH  14  15
ATOM     15  C   UNL     1      61.172  32.726  60.914  1.00  0.00     0.000 C 
BRANCH  15  16
ATOM     16  C   UNL     1      62.042  33.638  60.033  1.00  0.00    -0.000 C 
BRANCH  16  17
ATOM     17  C   UNL     1      62.837  34.665  60.853  1.00  0.00    -0.003 C 
ATOM     18  C   UNL     1      64.187  34.125  61.324  1.00  0.00     0.004 C 
ENDBRANCH  16  17
ENDBRANCH  15  16
ENDBRANCH  14  15
ENDBRANCH  13  14
ENDBRANCH  12  13
ENDBRANCH  10  11
ENDBRANCH   1  10
TORSDOF 13
ENDMDL
MODEL 9
REMARK VINA RESULT:    -3.724      2.613      3.727
REMARK INTER + INTRA:          -7.566
REMARK INTER:                  -5.482
REMARK INTRA:                  -2.084
REMARK UNBOUND:                -1.011
REMARK SMILES CCCCCCC=CCCCCCCCC(=O)[O-]
REMARK SMILES IDX 10 1 11 2 12 3 13 4 14 5 15 6 16 7 17 8 18 9 9 10 8 11 7 12
REMARK SMILES IDX 6 13 5 14 4 15 3 16 2 17 1 18
REMARK H PARENT
REMARK Flexibility Score: inf
ROOT
ATOM      1  C   UNL     1      60.214  28.164  53.413  1.00  0.00     0.004 C 
ENDROOT
BRANCH   1   2
ATOM      2  C   UNL     1      61.031  29.215  52.652  1.00  0.00     0.000 C 
BRANCH   2   3
ATOM      3  C   UNL     1      60.115  30.134  51.830  1.00  0.00     0.000 C 
BRANCH   3   4
ATOM      4  C   UNL     1      59.097  29.356  50.976  1.00  0.00     0.000 C 
BRANCH   4   5
ATOM      5  C   UNL     1      59.526  29.105  49.516  1.00  0.00     0.006 C 
BRANCH   5   6
ATOM      6  C   UNL     1      59.894  27.647  49.200  1.00  0.00     0.053 C 
BRANCH   6   7
ATOM      7  C   UNL     1      61.347  27.372  49.429  1.00  0.00     0.041 C 
ATOM      8  O   UNL     1      62.177  28.319  49.440  1.00  0.00    -0.550 OA
ATOM      9  O   UNL     1      61.782  26.074  49.664  1.00  0.00    -0.550 OA
ENDBRANCH   6   7
ENDBRANCH   5   6
ENDBRANCH   4   5
ENDBRANCH   3   4
ENDBRANCH   2   3
ENDBRANCH   1   2
BRANCH   1  10
ATOM     10  C   UNL     1      60.765  26.755  53.164  1.00  0.00     0.027 C 
BRANCH  10  11
ATOM     11  C   UNL     1      59.711  25.855  52.579  1.00  0.00    -0.031 C 
ATOM     12  C   UNL     1      58.474  26.302  52.315  1.00  0.00    -0.031 C 
BRANCH  12  13
ATOM     13  C   UNL     1      57.423  25.408  51.714  1.00  0.00     0.027 C 
BRANCH  13  14
ATOM     14  C   UNL     1      56.900  25.932  50.364  1.00  0.00     0.004 C 
BRANCH  14  15
ATOM     15  C   UNL     1      56.150  27.273  50.457  1.00  0.00     0.000 C 
BRANCH  15  16
ATOM     16  C   UNL     1      54.705  27.182  49.940  1.00  0.00    -0.000 C 
BRANCH  16  17
ATOM     17  C   UNL     1      54.442  25.892  49.149  1.00  0.00    -0.003 C 
ATOM     18  C   UNL     1      53.053  25.310  49.414  1.00  0.00     0.004 C 
ENDBRANCH  16  17
ENDBRANCH  15  16
ENDBRANCH  14  15
ENDBRANCH  13  14
ENDBRANCH  12  13
ENDBRANCH  10  11
ENDBRANCH   1  10
TORSDOF 13
ENDMDL
