MODEL 1
REMARK VINA RESULT:    -2.916      0.000      0.000
REMARK INTER + INTRA:          -4.849
REMARK INTER:                  -4.195
REMARK INTRA:                  -0.654
REMARK UNBOUND:                -0.654
REMARK SMILES CCCCCCCCCO
REMARK SMILES IDX 6 1 5 2 4 3 3 4 2 5 1 6 7 7 8 8 9 9 10 10
REMARK H PARENT 10 11
REMARK Flexibility Score: inf
ROOT
ATOM      1  C   UNL     1     116.743 118.897 119.328  1.00  0.00     0.000 C 
ENDROOT
BRANCH   1   2
ATOM      2  C   UNL     1     115.396 119.268 119.959  1.00  0.00     0.000 C 
BRANCH   2   3
ATOM      3  C   UNL     1     114.773 118.062 120.676  1.00  0.00    -0.000 C 
BRANCH   3   4
ATOM      4  C   UNL     1     114.332 116.958 119.703  1.00  0.00    -0.000 C 
BRANCH   4   5
ATOM      5  C   UNL     1     114.753 115.555 120.168  1.00  0.00    -0.003 C 
ATOM      6  C   UNL     1     115.562 115.626 121.460  1.00  0.00     0.004 C 
ENDBRANCH   4   5
ENDBRANCH   3   4
ENDBRANCH   2   3
ENDBRANCH   1   2
BRANCH   1   7
ATOM      7  C   UNL     1     117.767 118.506 120.405  1.00  0.00     0.002 C 
BRANCH   7   8
ATOM      8  C   UNL     1     118.713 117.386 119.943  1.00  0.00     0.028 C 
BRANCH   8   9
ATOM      9  C   UNL     1     119.959 117.919 119.231  1.00  0.00     0.156 C 
BRANCH   9  10
ATOM     10  O   UNL     1     121.031 117.949 120.132  1.00  0.00    -0.396 OA
ATOM     11  H   UNL     1     121.805 118.311 119.627  1.00  0.00     0.210 HD
ENDBRANCH   9  10
ENDBRANCH   8   9
ENDBRANCH   7   8
ENDBRANCH   1   7
TORSDOF 8
ENDMDL
MODEL 2
REMARK VINA RESULT:    -2.909      2.620      3.923
REMARK INTER + INTRA:          -4.838
REMARK INTER:                  -4.184
REMARK INTRA:                  -0.654
REMARK UNBOUND:                -0.654
REMARK SMILES CCCCCCCCCO
REMARK SMILES IDX 6 1 5 2 4 3 3 4 2 5 1 6 7 7 8 8 9 9 10 10
REMARK H PARENT 10 11
REMARK Flexibility Score: inf
ROOT
ATOM      1  C   UNL     1     114.212 116.699 119.526  1.00  0.00     0.000 C 
ENDROOT
BRANCH   1   2
ATOM      2  C   UNL     1     114.085 115.286 120.110  1.00  0.00     0.000 C 
BRANCH   2   3
ATOM      3  C   UNL     1     115.429 114.803 120.676  1.00  0.00    -0.000 C 
BRANCH   3   4
ATOM      4  C   UNL     1     116.400 114.338 119.580  1.00  0.00    -0.000 C 
BRANCH   4   5
ATOM      5  C   UNL     1     117.836 114.832 119.814  1.00  0.00    -0.003 C 
ATOM      6  C   UNL     1     117.962 115.537 121.161  1.00  0.00     0.004 C 
ENDBRANCH   4   5
ENDBRANCH   3   4
ENDBRANCH   2   3
ENDBRANCH   1   2
BRANCH   1   7
ATOM      7  C   UNL     1     114.772 117.678 120.570  1.00  0.00     0.002 C 
BRANCH   7   8
ATOM      8  C   UNL     1     115.853 118.604 119.991  1.00  0.00     0.028 C 
BRANCH   8   9
ATOM      9  C   UNL     1     115.267 119.812 119.255  1.00  0.00     0.156 C 
BRANCH   9  10
ATOM     10  O   UNL     1     115.288 120.926 120.103  1.00  0.00    -0.396 OA
ATOM     11  H   UNL     1     114.643 120.730 120.831  1.00  0.00     0.210 HD
ENDBRANCH   9  10
ENDBRANCH   8   9
ENDBRANCH   7   8
ENDBRANCH   1   7
TORSDOF 8
ENDMDL
MODEL 3
REMARK VINA RESULT:    -2.902      1.724      2.267
REMARK INTER + INTRA:          -4.828
REMARK INTER:                  -4.139
REMARK INTRA:                  -0.689
REMARK UNBOUND:                -0.654
REMARK SMILES CCCCCCCCCO
REMARK SMILES IDX 6 1 5 2 4 3 3 4 2 5 1 6 7 7 8 8 9 9 10 10
REMARK H PARENT 10 11
REMARK Flexibility Score: inf
ROOT
ATOM      1  C   UNL     1     116.082 118.884 120.098  1.00  0.00     0.000 C 
ENDROOT
BRANCH   1   2
ATOM      2  C   UNL     1     114.782 118.116 120.369  1.00  0.00     0.000 C 
BRANCH   2   3
ATOM      3  C   UNL     1     114.463 117.151 119.218  1.00  0.00    -0.000 C 
BRANCH   3   4
ATOM      4  C   UNL     1     113.700 115.902 119.687  1.00  0.00    -0.000 C 
BRANCH   4   5
ATOM      5  C   UNL     1     114.604 114.897 120.417  1.00  0.00    -0.003 C 
ATOM      6  C   UNL     1     115.846 114.576 119.592  1.00  0.00     0.004 C 
ENDBRANCH   4   5
ENDBRANCH   3   4
ENDBRANCH   2   3
ENDBRANCH   1   2
BRANCH   1   7
ATOM      7  C   UNL     1     117.302 118.097 120.603  1.00  0.00     0.002 C 
BRANCH   7   8
ATOM      8  C   UNL     1     117.016 117.336 121.908  1.00  0.00     0.028 C 
BRANCH   8   9
ATOM      9  C   UNL     1     117.802 117.887 123.100  1.00  0.00     0.156 C 
BRANCH   9  10
ATOM     10  O   UNL     1     118.792 118.764 122.637  1.00  0.00    -0.396 OA
ATOM     11  H   UNL     1     119.654 118.411 122.980  1.00  0.00     0.210 HD
ENDBRANCH   9  10
ENDBRANCH   8   9
ENDBRANCH   7   8
ENDBRANCH   1   7
TORSDOF 8
ENDMDL
MODEL 4
REMARK VINA RESULT:    -2.821      2.669      3.983
REMARK INTER + INTRA:          -4.711
REMARK INTER:                  -4.141
REMARK INTRA:                  -0.570
REMARK UNBOUND:                -0.654
REMARK SMILES CCCCCCCCCO
REMARK SMILES IDX 6 1 5 2 4 3 3 4 2 5 1 6 7 7 8 8 9 9 10 10
REMARK H PARENT 10 11
REMARK Flexibility Score: inf
ROOT
ATOM      1  C   UNL     1     114.950 115.463 120.326  1.00  0.00     0.000 C 
ENDROOT
BRANCH   1   2
ATOM      2  C   UNL     1     113.955 116.388 119.615  1.00  0.00     0.000 C 
BRANCH   2   3
ATOM      3  C   UNL     1     114.568 117.775 119.373  1.00  0.00    -0.000 C 
BRANCH   3   4
ATOM      4  C   UNL     1     115.537 118.196 120.490  1.00  0.00    -0.000 C 
BRANCH   4   5
ATOM      5  C   UNL     1     116.906 118.637 119.951  1.00  0.00    -0.003 C 
ATOM      6  C   UNL     1     118.030 118.199 120.884  1.00  0.00     0.004 C 
ENDBRANCH   4   5
ENDBRANCH   3   4
ENDBRANCH   2   3
ENDBRANCH   1   2
BRANCH   1   7
ATOM      7  C   UNL     1     115.849 114.738 119.313  1.00  0.00     0.002 C 
BRANCH   7   8
ATOM      8  C   UNL     1     117.226 114.379 119.895  1.00  0.00     0.028 C 
BRANCH   8   9
ATOM      9  C   UNL     1     117.885 113.201 119.172  1.00  0.00     0.156 C 
BRANCH   9  10
ATOM     10  O   UNL     1     118.050 112.139 120.071  1.00  0.00    -0.396 OA
ATOM     11  H   UNL     1     118.794 111.589 119.714  1.00  0.00     0.210 HD
ENDBRANCH   9  10
ENDBRANCH   8   9
ENDBRANCH   7   8
ENDBRANCH   1   7
TORSDOF 8
ENDMDL
MODEL 5
REMARK VINA RESULT:    -2.818      3.292      5.479
REMARK INTER + INTRA:          -4.707
REMARK INTER:                  -4.144
REMARK INTRA:                  -0.563
REMARK UNBOUND:                -0.654
REMARK SMILES CCCCCCCCCO
REMARK SMILES IDX 6 1 5 2 4 3 3 4 2 5 1 6 7 7 8 8 9 9 10 10
REMARK H PARENT 10 11
REMARK Flexibility Score: inf
ROOT
ATOM      1  C   UNL     1     115.653 114.795 120.523  1.00  0.00     0.000 C 
ENDROOT
BRANCH   1   2
ATOM      2  C   UNL     1     116.977 114.574 119.781  1.00  0.00     0.000 C 
BRANCH   2   3
ATOM      3  C   UNL     1     118.147 115.218 120.538  1.00  0.00    -0.000 C 
BRANCH   3   4
ATOM      4  C   UNL     1     118.885 116.273 119.700  1.00  0.00    -0.000 C 
BRANCH   4   5
ATOM      5  C   UNL     1     118.640 117.705 120.199  1.00  0.00    -0.003 C 
ATOM      6  C   UNL     1     117.972 118.555 119.123  1.00  0.00     0.004 C 
ENDBRANCH   4   5
ENDBRANCH   3   4
ENDBRANCH   2   3
ENDBRANCH   1   2
BRANCH   1   7
ATOM      7  C   UNL     1     115.203 116.261 120.422  1.00  0.00     0.002 C 
BRANCH   7   8
ATOM      8  C   UNL     1     113.998 116.447 119.487  1.00  0.00     0.028 C 
BRANCH   8   9
ATOM      9  C   UNL     1     113.223 115.148 119.253  1.00  0.00     0.156 C 
BRANCH   9  10
ATOM     10  O   UNL     1     112.090 115.130 120.075  1.00  0.00    -0.396 OA
ATOM     11  H   UNL     1     112.126 114.273 120.574  1.00  0.00     0.210 HD
ENDBRANCH   9  10
ENDBRANCH   8   9
ENDBRANCH   7   8
ENDBRANCH   1   7
TORSDOF 8
ENDMDL
MODEL 6
REMARK VINA RESULT:    -2.818      2.633      3.962
REMARK INTER + INTRA:          -4.707
REMARK INTER:                  -3.947
REMARK INTRA:                  -0.760
REMARK UNBOUND:                -0.654
REMARK SMILES CCCCCCCCCO
REMARK SMILES IDX 6 1 5 2 4 3 3 4 2 5 1 6 7 7 8 8 9 9 10 10
REMARK H PARENT 10 11
REMARK Flexibility Score: inf
ROOT
ATOM      1  C   UNL     1     117.718 117.973 120.792  1.00  0.00     0.000 C 
ENDROOT
BRANCH   1   2
ATOM      2  C   UNL     1     118.466 116.801 120.145  1.00  0.00     0.000 C 
BRANCH   2   3
ATOM      3  C   UNL     1     118.155 115.482 120.869  1.00  0.00    -0.000 C 
BRANCH   3   4
ATOM      4  C   UNL     1     117.354 114.503 119.996  1.00  0.00    -0.000 C 
BRANCH   4   5
ATOM      5  C   UNL     1     115.838 114.619 120.215  1.00  0.00    -0.003 C 
ATOM      6  C   UNL     1     115.114 114.903 118.902  1.00  0.00     0.004 C 
ENDBRANCH   4   5
ENDBRANCH   3   4
ENDBRANCH   2   3
ENDBRANCH   1   2
BRANCH   1   7
ATOM      7  C   UNL     1     116.694 118.577 119.819  1.00  0.00     0.002 C 
BRANCH   7   8
ATOM      8  C   UNL     1     115.249 118.454 120.328  1.00  0.00     0.028 C 
BRANCH   8   9
ATOM      9  C   UNL     1     115.171 117.955 121.773  1.00  0.00     0.156 C 
BRANCH   9  10
ATOM     10  O   UNL     1     114.391 118.840 122.527  1.00  0.00    -0.396 OA
ATOM     11  H   UNL     1     113.531 118.373 122.697  1.00  0.00     0.210 HD
ENDBRANCH   9  10
ENDBRANCH   8   9
ENDBRANCH   7   8
ENDBRANCH   1   7
TORSDOF 8
ENDMDL
MODEL 7
REMARK VINA RESULT:    -2.791      2.672      4.372
REMARK INTER + INTRA:          -4.668
REMARK INTER:                  -3.943
REMARK INTRA:                  -0.725
REMARK UNBOUND:                -0.654
REMARK SMILES CCCCCCCCCO
REMARK SMILES IDX 6 1 5 2 4 3 3 4 2 5 1 6 7 7 8 8 9 9 10 10
REMARK H PARENT 10 11
REMARK Flexibility Score: inf
ROOT
ATOM      1  C   UNL     1     118.322 115.878 119.562  1.00  0.00     0.000 C 
ENDROOT
BRANCH   1   2
ATOM      2  C   UNL     1     119.063 117.204 119.771  1.00  0.00     0.000 C 
BRANCH   2   3
ATOM      3  C   UNL     1     118.167 118.230 120.480  1.00  0.00    -0.000 C 
BRANCH   3   4
ATOM      4  C   UNL     1     117.096 118.823 119.550  1.00  0.00    -0.000 C 
BRANCH   4   5
ATOM      5  C   UNL     1     115.683 118.738 120.145  1.00  0.00    -0.003 C 
ATOM      6  C   UNL     1     114.715 118.079 119.167  1.00  0.00     0.004 C 
ENDBRANCH   4   5
ENDBRANCH   3   4
ENDBRANCH   2   3
ENDBRANCH   1   2
BRANCH   1   7
ATOM      7  C   UNL     1     117.730 115.364 120.884  1.00  0.00     0.002 C 
BRANCH   7   8
ATOM      8  C   UNL     1     116.228 115.052 120.777  1.00  0.00     0.028 C 
BRANCH   8   9
ATOM      9  C   UNL     1     115.444 115.482 122.020  1.00  0.00     0.156 C 
BRANCH   9  10
ATOM     10  O   UNL     1     114.489 114.504 122.326  1.00  0.00    -0.396 OA
ATOM     11  H   UNL     1     114.997 113.672 122.511  1.00  0.00     0.210 HD
ENDBRANCH   9  10
ENDBRANCH   8   9
ENDBRANCH   7   8
ENDBRANCH   1   7
TORSDOF 8
ENDMDL
MODEL 8
REMARK VINA RESULT:    -2.788      2.689      3.782
REMARK INTER + INTRA:          -4.664
REMARK INTER:                  -4.011
REMARK INTRA:                  -0.652
REMARK UNBOUND:                -0.654
REMARK SMILES CCCCCCCCCO
REMARK SMILES IDX 6 1 5 2 4 3 3 4 2 5 1 6 7 7 8 8 9 9 10 10
REMARK H PARENT 10 11
REMARK Flexibility Score: inf
ROOT
ATOM      1  C   UNL     1     118.931 116.273 119.454  1.00  0.00     0.000 C 
ENDROOT
BRANCH   1   2
ATOM      2  C   UNL     1     118.049 117.333 118.784  1.00  0.00     0.000 C 
BRANCH   2   3
ATOM      3  C   UNL     1     117.785 118.510 119.735  1.00  0.00    -0.000 C 
BRANCH   3   4
ATOM      4  C   UNL     1     116.319 118.970 119.713  1.00  0.00    -0.000 C 
BRANCH   4   5
ATOM      5  C   UNL     1     115.428 118.153 120.661  1.00  0.00    -0.003 C 
ATOM      6  C   UNL     1     114.491 117.237 119.879  1.00  0.00     0.004 C 
ENDBRANCH   4   5
ENDBRANCH   3   4
ENDBRANCH   2   3
ENDBRANCH   1   2
BRANCH   1   7
ATOM      7  C   UNL     1     118.140 115.483 120.507  1.00  0.00     0.002 C 
BRANCH   7   8
ATOM      8  C   UNL     1     117.145 114.493 119.881  1.00  0.00     0.028 C 
BRANCH   8   9
ATOM      9  C   UNL     1     117.836 113.324 119.175  1.00  0.00     0.156 C 
BRANCH   9  10
ATOM     10  O   UNL     1     117.988 112.263 120.076  1.00  0.00    -0.396 OA
ATOM     11  H   UNL     1     117.923 111.432 119.537  1.00  0.00     0.210 HD
ENDBRANCH   9  10
ENDBRANCH   8   9
ENDBRANCH   7   8
ENDBRANCH   1   7
TORSDOF 8
ENDMDL
MODEL 9
REMARK VINA RESULT:    -2.787      2.227      3.678
REMARK INTER + INTRA:          -4.663
REMARK INTER:                  -3.963
REMARK INTRA:                  -0.700
REMARK UNBOUND:                -0.654
REMARK SMILES CCCCCCCCCO
REMARK SMILES IDX 6 1 5 2 4 3 3 4 2 5 1 6 7 7 8 8 9 9 10 10
REMARK H PARENT 10 11
REMARK Flexibility Score: inf
ROOT
ATOM      1  C   UNL     1     115.681 114.698 120.259  1.00  0.00     0.000 C 
ENDROOT
BRANCH   1   2
ATOM      2  C   UNL     1     114.669 115.104 119.180  1.00  0.00     0.000 C 
BRANCH   2   3
ATOM      3  C   UNL     1     114.008 116.448 119.524  1.00  0.00    -0.000 C 
BRANCH   3   4
ATOM      4  C   UNL     1     114.818 117.262 120.545  1.00  0.00    -0.000 C 
BRANCH   4   5
ATOM      5  C   UNL     1     115.406 118.547 119.944  1.00  0.00    -0.003 C 
ATOM      6  C   UNL     1     116.921 118.441 119.798  1.00  0.00     0.004 C 
ENDBRANCH   4   5
ENDBRANCH   3   4
ENDBRANCH   2   3
ENDBRANCH   1   2
BRANCH   1   7
ATOM      7  C   UNL     1     117.067 114.447 119.646  1.00  0.00     0.002 C 
BRANCH   7   8
ATOM      8  C   UNL     1     118.212 114.835 120.595  1.00  0.00     0.028 C 
BRANCH   8   9
ATOM      9  C   UNL     1     117.713 115.327 121.956  1.00  0.00     0.156 C 
BRANCH   9  10
ATOM     10  O   UNL     1     118.410 114.662 122.973  1.00  0.00    -0.396 OA
ATOM     11  H   UNL     1     117.835 113.901 123.248  1.00  0.00     0.210 HD
ENDBRANCH   9  10
ENDBRANCH   8   9
ENDBRANCH   7   8
ENDBRANCH   1   7
TORSDOF 8
ENDMDL
