MODEL 1
REMARK VINA RESULT:    -5.029      0.000      0.000
REMARK INTER + INTRA:          -8.764
REMARK INTER:                  -7.381
REMARK INTRA:                  -1.383
REMARK UNBOUND:                -1.383
REMARK SMILES Cc1cc2c(C(C)C)c(O)c(O)c(C=O)c2c(O)c1-c1c(C)cc2c(C(C)C)c(O)c(O)c(C=O)c2c1O
REMARK SMILES IDX 1 1 2 2 3 3 4 4 16 5 13 6 11 7 9 8 5 9 17 10 19 11 20 12
REMARK SMILES IDX 37 13 21 14 36 15 23 16 22 17 24 18 33 19 25 20 31 21 29 22
REMARK SMILES IDX 38 23 34 25 35 26 26 27 27 28 28 29 32 30 30 32 18 34 6 36
REMARK SMILES IDX 7 37 8 38 14 39 15 40 10 41 12 43
REMARK H PARENT 38 24 32 31 30 33 18 35 10 42 12 44
REMARK Flexibility Score: inf
ROOT
ATOM      1  C   UNL     1      21.115  -4.397  22.034  1.00  0.00     0.045 C 
ATOM      2  C   UNL     1      21.740  -5.365  21.059  1.00  0.00    -0.039 A 
ATOM      3  C   UNL     1      21.579  -6.737  21.258  1.00  0.00     0.013 A 
ATOM      4  C   UNL     1      22.117  -7.691  20.365  1.00  0.00    -0.006 A 
ATOM      5  C   UNL     1      22.905  -7.233  19.266  1.00  0.00     0.039 A 
ATOM      6  C   UNL     1      23.470  -8.194  18.377  1.00  0.00     0.072 A 
ATOM      7  C   UNL     1      23.404  -9.564  18.689  1.00  0.00     0.169 A 
ATOM      8  C   UNL     1      22.706  -9.999  19.829  1.00  0.00     0.162 A 
ATOM      9  C   UNL     1      21.923  -9.092  20.574  1.00  0.00     0.008 A 
ATOM     10  C   UNL     1      23.138  -5.833  19.117  1.00  0.00     0.132 A 
ATOM     11  C   UNL     1      22.530  -4.908  19.993  1.00  0.00     0.031 A 
ENDROOT
BRANCH  11  12
ATOM     12  C   UNL     1      22.754  -3.449  19.817  1.00  0.00     0.031 A 
ATOM     13  C   UNL     1      23.723  -2.784  20.595  1.00  0.00     0.132 A 
ATOM     14  C   UNL     1      21.970  -2.726  18.902  1.00  0.00    -0.039 A 
ATOM     15  C   UNL     1      23.985  -1.399  20.391  1.00  0.00     0.039 A 
ATOM     16  C   UNL     1      22.141  -1.344  18.793  1.00  0.00     0.013 A 
ATOM     17  C   UNL     1      20.873  -3.396  18.111  1.00  0.00     0.045 C 
ATOM     18  C   UNL     1      23.156  -0.659  19.497  1.00  0.00    -0.006 A 
ATOM     19  C   UNL     1      25.015  -0.715  21.098  1.00  0.00     0.072 A 
ATOM     20  C   UNL     1      23.330   0.754  19.364  1.00  0.00     0.008 A 
ATOM     21  C   UNL     1      25.051   0.688  21.099  1.00  0.00     0.169 A 
ATOM     22  C   UNL     1      24.159   1.421  20.295  1.00  0.00     0.162 A 
BRANCH  13  23
ATOM     23  O   UNL     1      24.387  -3.483  21.610  1.00  0.00    -0.507 OA
ATOM     24  H   UNL     1      24.542  -3.116  22.540  1.00  0.00     0.293 HD
ENDBRANCH  13  23
BRANCH  19  25
ATOM     25  C   UNL     1      26.125  -1.414  21.785  1.00  0.00     0.264 C 
ATOM     26  O   UNL     1      26.125  -1.547  23.037  1.00  0.00    -0.298 OA
ENDBRANCH  19  25
BRANCH  20  27
ATOM     27  C   UNL     1      22.594   1.564  18.282  1.00  0.00     0.017 C 
ATOM     28  C   UNL     1      21.462   2.395  18.896  1.00  0.00     0.012 C 
ATOM     29  C   UNL     1      23.523   2.436  17.418  1.00  0.00     0.012 C 
ENDBRANCH  20  27
BRANCH  21  30
ATOM     30  O   UNL     1      26.023   1.330  21.876  1.00  0.00    -0.504 OA
ATOM     31  H   UNL     1      26.136   1.191  22.871  1.00  0.00     0.293 HD
ENDBRANCH  21  30
BRANCH  22  32
ATOM     32  O   UNL     1      24.076   2.811  20.410  1.00  0.00    -0.504 OA
ATOM     33  H   UNL     1      24.474   3.460  19.747  1.00  0.00     0.293 HD
ENDBRANCH  22  32
ENDBRANCH  11  12
BRANCH  10  34
ATOM     34  O   UNL     1      24.009  -5.363  18.126  1.00  0.00    -0.507 OA
ATOM     35  H   UNL     1      24.950  -5.709  17.989  1.00  0.00     0.293 HD
ENDBRANCH  10  34
BRANCH   9  36
ATOM     36  C   UNL     1      20.926  -9.625  21.619  1.00  0.00     0.017 C 
ATOM     37  C   UNL     1      21.661 -10.297  22.785  1.00  0.00     0.012 C 
ATOM     38  C   UNL     1      19.845 -10.552  21.031  1.00  0.00     0.012 C 
ENDBRANCH   9  36
BRANCH   6  39
ATOM     39  C   UNL     1      24.061  -7.811  17.070  1.00  0.00     0.264 C 
ATOM     40  O   UNL     1      25.306  -7.840  16.885  1.00  0.00    -0.298 OA
ENDBRANCH   6  39
BRANCH   8  41
ATOM     41  O   UNL     1      22.788 -11.331  20.246  1.00  0.00    -0.504 OA
ATOM     42  H   UNL     1      23.651 -11.851  20.318  1.00  0.00     0.293 HD
ENDBRANCH   8  41
BRANCH   7  43
ATOM     43  O   UNL     1      24.000 -10.483  17.818  1.00  0.00    -0.504 OA
ATOM     44  H   UNL     1      24.988 -10.694  17.805  1.00  0.00     0.293 HD
ENDBRANCH   7  43
TORSDOF 11
ENDMDL
MODEL 2
REMARK VINA RESULT:    -4.815      4.131      5.925
REMARK INTER + INTRA:          -8.449
REMARK INTER:                  -7.123
REMARK INTRA:                  -1.327
REMARK UNBOUND:                -1.383
REMARK SMILES Cc1cc2c(C(C)C)c(O)c(O)c(C=O)c2c(O)c1-c1c(C)cc2c(C(C)C)c(O)c(O)c(C=O)c2c1O
REMARK SMILES IDX 1 1 2 2 3 3 4 4 16 5 13 6 11 7 9 8 5 9 17 10 19 11 20 12
REMARK SMILES IDX 37 13 21 14 36 15 23 16 22 17 24 18 33 19 25 20 31 21 29 22
REMARK SMILES IDX 38 23 34 25 35 26 26 27 27 28 28 29 32 30 30 32 18 34 6 36
REMARK SMILES IDX 7 37 8 38 14 39 15 40 10 41 12 43
REMARK H PARENT 38 24 32 31 30 33 18 35 10 42 12 44
REMARK Flexibility Score: inf
ROOT
ATOM      1  C   UNL     1      22.542  -2.884  19.863  1.00  0.00     0.045 C 
ATOM      2  C   UNL     1      22.171  -4.272  20.326  1.00  0.00    -0.039 A 
ATOM      3  C   UNL     1      22.764  -5.379  19.718  1.00  0.00     0.013 A 
ATOM      4  C   UNL     1      22.478  -6.701  20.126  1.00  0.00    -0.006 A 
ATOM      5  C   UNL     1      21.499  -6.907  21.146  1.00  0.00     0.039 A 
ATOM      6  C   UNL     1      21.189  -8.241  21.543  1.00  0.00     0.072 A 
ATOM      7  C   UNL     1      21.702  -9.328  20.813  1.00  0.00     0.169 A 
ATOM      8  C   UNL     1      22.592  -9.110  19.747  1.00  0.00     0.162 A 
ATOM      9  C   UNL     1      23.113  -7.821  19.506  1.00  0.00     0.008 A 
ATOM     10  C   UNL     1      20.831  -5.775  21.703  1.00  0.00     0.132 A 
ATOM     11  C   UNL     1      21.193  -4.467  21.314  1.00  0.00     0.031 A 
ENDROOT
BRANCH  11  12
ATOM     12  C   UNL     1      20.513  -3.290  21.917  1.00  0.00     0.031 A 
ATOM     13  C   UNL     1      19.391  -2.721  21.283  1.00  0.00     0.132 A 
ATOM     14  C   UNL     1      21.017  -2.722  23.100  1.00  0.00    -0.039 A 
ATOM     15  C   UNL     1      18.698  -1.631  21.885  1.00  0.00     0.039 A 
ATOM     16  C   UNL     1      20.413  -1.575  23.622  1.00  0.00     0.013 A 
ATOM     17  C   UNL     1      22.261  -3.262  23.759  1.00  0.00     0.045 C 
ATOM     18  C   UNL     1      19.239  -1.027  23.059  1.00  0.00    -0.006 A 
ATOM     19  C   UNL     1      17.511  -1.086  21.317  1.00  0.00     0.072 A 
ATOM     20  C   UNL     1      18.622   0.138  23.613  1.00  0.00     0.008 A 
ATOM     21  C   UNL     1      17.030   0.156  21.759  1.00  0.00     0.169 A 
ATOM     22  C   UNL     1      17.633   0.803  22.852  1.00  0.00     0.162 A 
BRANCH  13  23
ATOM     23  O   UNL     1      18.994  -3.198  20.028  1.00  0.00    -0.507 OA
ATOM     24  H   UNL     1      18.649  -2.607  19.284  1.00  0.00     0.293 HD
ENDBRANCH  13  23
BRANCH  19  25
ATOM     25  C   UNL     1      16.689  -1.807  20.319  1.00  0.00     0.264 C 
ATOM     26  O   UNL     1      15.476  -2.057  20.545  1.00  0.00    -0.298 OA
ENDBRANCH  19  25
BRANCH  20  27
ATOM     27  C   UNL     1      19.050   0.713  24.974  1.00  0.00     0.017 C 
ATOM     28  C   UNL     1      19.916   1.965  24.792  1.00  0.00     0.012 C 
ATOM     29  C   UNL     1      17.876   0.980  25.935  1.00  0.00     0.012 C 
ENDBRANCH  20  27
BRANCH  21  30
ATOM     30  O   UNL     1      15.912   0.704  21.117  1.00  0.00    -0.504 OA
ATOM     31  H   UNL     1      15.117   0.165  20.804  1.00  0.00     0.293 HD
ENDBRANCH  21  30
BRANCH  22  32
ATOM     32  O   UNL     1      17.270   2.107  23.196  1.00  0.00    -0.504 OA
ATOM     33  H   UNL     1      17.336   2.898  22.570  1.00  0.00     0.293 HD
ENDBRANCH  22  32
ENDBRANCH  11  12
BRANCH  10  34
ATOM     34  O   UNL     1      19.780  -5.951  22.611  1.00  0.00    -0.507 OA
ATOM     35  H   UNL     1      19.723  -6.717  23.269  1.00  0.00     0.293 HD
ENDBRANCH  10  34
BRANCH   9  36
ATOM     36  C   UNL     1      24.309  -7.649  18.552  1.00  0.00     0.017 C 
ATOM     37  C   UNL     1      23.877  -7.834  17.093  1.00  0.00     0.012 C 
ATOM     38  C   UNL     1      25.514  -8.545  18.896  1.00  0.00     0.012 C 
ENDBRANCH   9  36
BRANCH   6  39
ATOM     39  C   UNL     1      20.403  -8.539  22.766  1.00  0.00     0.264 C 
ATOM     40  O   UNL     1      19.214  -8.947  22.693  1.00  0.00    -0.298 OA
ENDBRANCH   6  39
BRANCH   8  41
ATOM     41  O   UNL     1      22.962 -10.163  18.906  1.00  0.00    -0.504 OA
ATOM     42  H   UNL     1      23.002 -11.131  19.192  1.00  0.00     0.293 HD
ENDBRANCH   8  41
BRANCH   7  43
ATOM     43  O   UNL     1      21.352 -10.626  21.202  1.00  0.00    -0.504 OA
ATOM     44  H   UNL     1      21.942 -11.436  21.072  1.00  0.00     0.293 HD
ENDBRANCH   7  43
TORSDOF 11
ENDMDL
MODEL 3
REMARK VINA RESULT:    -4.790      1.806      2.974
REMARK INTER + INTRA:          -8.414
REMARK INTER:                  -7.446
REMARK INTRA:                  -0.967
REMARK UNBOUND:                -1.383
REMARK SMILES Cc1cc2c(C(C)C)c(O)c(O)c(C=O)c2c(O)c1-c1c(C)cc2c(C(C)C)c(O)c(O)c(C=O)c2c1O
REMARK SMILES IDX 1 1 2 2 3 3 4 4 16 5 13 6 11 7 9 8 5 9 17 10 19 11 20 12
REMARK SMILES IDX 37 13 21 14 36 15 23 16 22 17 24 18 33 19 25 20 31 21 29 22
REMARK SMILES IDX 38 23 34 25 35 26 26 27 27 28 28 29 32 30 30 32 18 34 6 36
REMARK SMILES IDX 7 37 8 38 14 39 15 40 10 41 12 43
REMARK H PARENT 38 24 32 31 30 33 18 35 10 42 12 44
REMARK Flexibility Score: inf
ROOT
ATOM      1  C   UNL     1      21.532  -4.548  22.277  1.00  0.00     0.045 C 
ATOM      2  C   UNL     1      22.024  -5.468  21.185  1.00  0.00    -0.039 A 
ATOM      3  C   UNL     1      21.925  -6.849  21.357  1.00  0.00     0.013 A 
ATOM      4  C   UNL     1      22.343  -7.759  20.360  1.00  0.00    -0.006 A 
ATOM      5  C   UNL     1      22.947  -7.245  19.172  1.00  0.00     0.039 A 
ATOM      6  C   UNL     1      23.392  -8.162  18.175  1.00  0.00     0.072 A 
ATOM      7  C   UNL     1      23.404  -9.542  18.444  1.00  0.00     0.169 A 
ATOM      8  C   UNL     1      22.896 -10.032  19.660  1.00  0.00     0.162 A 
ATOM      9  C   UNL     1      22.214  -9.170  20.545  1.00  0.00     0.008 A 
ATOM     10  C   UNL     1      23.124  -5.835  19.040  1.00  0.00     0.132 A 
ATOM     11  C   UNL     1      22.635  -4.956  20.030  1.00  0.00     0.031 A 
ENDROOT
BRANCH  11  12
ATOM     12  C   UNL     1      22.797  -3.486  19.875  1.00  0.00     0.031 A 
ATOM     13  C   UNL     1      21.706  -2.694  19.463  1.00  0.00     0.132 A 
ATOM     14  C   UNL     1      24.051  -2.893  20.100  1.00  0.00    -0.039 A 
ATOM     15  C   UNL     1      21.837  -1.279  19.369  1.00  0.00     0.039 A 
ATOM     16  C   UNL     1      24.211  -1.521  19.885  1.00  0.00     0.013 A 
ATOM     17  C   UNL     1      25.255  -3.725  20.466  1.00  0.00     0.045 C 
ATOM     18  C   UNL     1      23.121  -0.686  19.552  1.00  0.00    -0.006 A 
ATOM     19  C   UNL     1      20.734  -0.440  19.041  1.00  0.00     0.072 A 
ATOM     20  C   UNL     1      23.296   0.719  19.351  1.00  0.00     0.008 A 
ATOM     21  C   UNL     1      20.956   0.894  18.667  1.00  0.00     0.169 A 
ATOM     22  C   UNL     1      22.246   1.448  18.746  1.00  0.00     0.162 A 
BRANCH  13  23
ATOM     23  O   UNL     1      20.507  -3.315  19.093  1.00  0.00    -0.507 OA
ATOM     24  H   UNL     1      19.592  -2.980  19.364  1.00  0.00     0.293 HD
ENDBRANCH  13  23
BRANCH  19  25
ATOM     25  C   UNL     1      19.324  -0.880  19.149  1.00  0.00     0.264 C 
ATOM     26  O   UNL     1      18.545  -0.342  19.978  1.00  0.00    -0.298 OA
ENDBRANCH  19  25
BRANCH  20  27
ATOM     27  C   UNL     1      24.609   1.434  19.715  1.00  0.00     0.017 C 
ATOM     28  C   UNL     1      25.416   1.771  18.457  1.00  0.00     0.012 C 
ATOM     29  C   UNL     1      24.415   2.675  20.605  1.00  0.00     0.012 C 
ENDBRANCH  20  27
BRANCH  21  30
ATOM     30  O   UNL     1      19.859   1.666  18.263  1.00  0.00    -0.504 OA
ATOM     31  H   UNL     1      19.861   2.275  17.458  1.00  0.00     0.293 HD
ENDBRANCH  21  30
BRANCH  22  32
ATOM     32  O   UNL     1      22.509   2.717  18.225  1.00  0.00    -0.504 OA
ATOM     33  H   UNL     1      23.334   3.259  18.440  1.00  0.00     0.293 HD
ENDBRANCH  22  32
ENDBRANCH  11  12
BRANCH  10  34
ATOM     34  O   UNL     1      23.825  -5.310  17.947  1.00  0.00    -0.507 OA
ATOM     35  H   UNL     1      23.383  -4.947  17.113  1.00  0.00     0.293 HD
ENDBRANCH  10  34
BRANCH   9  36
ATOM     36  C   UNL     1      21.397  -9.764  21.708  1.00  0.00     0.017 C 
ATOM     37  C   UNL     1      22.312 -10.467  22.717  1.00  0.00     0.012 C 
ATOM     38  C   UNL     1      20.250 -10.688  21.255  1.00  0.00     0.012 C 
ENDBRANCH   9  36
BRANCH   6  39
ATOM     39  C   UNL     1      23.772  -7.721  16.809  1.00  0.00     0.264 C 
ATOM     40  O   UNL     1      24.974  -7.720  16.435  1.00  0.00    -0.298 OA
ENDBRANCH   6  39
BRANCH   8  41
ATOM     41  O   UNL     1      23.068 -11.373  20.011  1.00  0.00    -0.504 OA
ATOM     42  H   UNL     1      23.387 -12.090  19.375  1.00  0.00     0.293 HD
ENDBRANCH   8  41
BRANCH   7  43
ATOM     43  O   UNL     1      23.882 -10.416  17.461  1.00  0.00    -0.504 OA
ATOM     44  H   UNL     1      24.853 -10.677  17.357  1.00  0.00     0.293 HD
ENDBRANCH   7  43
TORSDOF 11
ENDMDL
MODEL 4
REMARK VINA RESULT:    -4.690      3.733      7.305
REMARK INTER + INTRA:          -8.266
REMARK INTER:                  -6.892
REMARK INTRA:                  -1.373
REMARK UNBOUND:                -1.383
REMARK SMILES Cc1cc2c(C(C)C)c(O)c(O)c(C=O)c2c(O)c1-c1c(C)cc2c(C(C)C)c(O)c(O)c(C=O)c2c1O
REMARK SMILES IDX 1 1 2 2 3 3 4 4 16 5 13 6 11 7 9 8 5 9 17 10 19 11 20 12
REMARK SMILES IDX 37 13 21 14 36 15 23 16 22 17 24 18 33 19 25 20 31 21 29 22
REMARK SMILES IDX 38 23 34 25 35 26 26 27 27 28 28 29 32 30 30 32 18 34 6 36
REMARK SMILES IDX 7 37 8 38 14 39 15 40 10 41 12 43
REMARK H PARENT 38 24 32 31 30 33 18 35 10 42 12 44
REMARK Flexibility Score: inf
ROOT
ATOM      1  C   UNL     1      19.178  -9.420  20.823  1.00  0.00     0.045 C 
ATOM      2  C   UNL     1      20.056 -10.009  21.901  1.00  0.00    -0.039 A 
ATOM      3  C   UNL     1      19.494 -10.863  22.851  1.00  0.00     0.013 A 
ATOM      4  C   UNL     1      20.269 -11.467  23.867  1.00  0.00    -0.006 A 
ATOM      5  C   UNL     1      21.656 -11.136  23.959  1.00  0.00     0.039 A 
ATOM      6  C   UNL     1      22.436 -11.724  24.997  1.00  0.00     0.072 A 
ATOM      7  C   UNL     1      21.808 -12.464  26.014  1.00  0.00     0.169 A 
ATOM      8  C   UNL     1      20.423 -12.703  25.966  1.00  0.00     0.162 A 
ATOM      9  C   UNL     1      19.680 -12.356  24.817  1.00  0.00     0.008 A 
ATOM     10  C   UNL     1      22.206 -10.194  23.037  1.00  0.00     0.132 A 
ATOM     11  C   UNL     1      21.413  -9.663  21.997  1.00  0.00     0.031 A 
ENDROOT
BRANCH  11  12
ATOM     12  C   UNL     1      21.997  -8.704  21.023  1.00  0.00     0.031 A 
ATOM     13  C   UNL     1      22.680  -9.181  19.886  1.00  0.00     0.132 A 
ATOM     14  C   UNL     1      21.903  -7.322  21.258  1.00  0.00    -0.039 A 
ATOM     15  C   UNL     1      23.192  -8.270  18.917  1.00  0.00     0.039 A 
ATOM     16  C   UNL     1      22.515  -6.431  20.373  1.00  0.00     0.013 A 
ATOM     17  C   UNL     1      21.246  -6.784  22.505  1.00  0.00     0.045 C 
ATOM     18  C   UNL     1      23.136  -6.870  19.183  1.00  0.00    -0.006 A 
ATOM     19  C   UNL     1      23.811  -8.718  17.715  1.00  0.00     0.072 A 
ATOM     20  C   UNL     1      23.745  -5.945  18.277  1.00  0.00     0.008 A 
ATOM     21  C   UNL     1      24.560  -7.821  16.938  1.00  0.00     0.169 A 
ATOM     22  C   UNL     1      24.590  -6.453  17.264  1.00  0.00     0.162 A 
BRANCH  13  23
ATOM     23  O   UNL     1      22.902 -10.556  19.744  1.00  0.00    -0.507 OA
ATOM     24  H   UNL     1      23.623 -11.065  20.239  1.00  0.00     0.293 HD
ENDBRANCH  13  23
BRANCH  19  25
ATOM     25  C   UNL     1      23.641 -10.088  17.181  1.00  0.00     0.264 C 
ATOM     26  O   UNL     1      24.592 -10.913  17.213  1.00  0.00    -0.298 OA
ENDBRANCH  19  25
BRANCH  20  27
ATOM     27  C   UNL     1      23.552  -4.425  18.418  1.00  0.00     0.017 C 
ATOM     28  C   UNL     1      22.066  -4.055  18.367  1.00  0.00     0.012 C 
ATOM     29  C   UNL     1      24.237  -3.823  19.659  1.00  0.00     0.012 C 
ENDBRANCH  20  27
BRANCH  21  30
ATOM     30  O   UNL     1      25.229  -8.313  15.811  1.00  0.00    -0.504 OA
ATOM     31  H   UNL     1      25.225  -9.283  15.528  1.00  0.00     0.293 HD
ENDBRANCH  21  30
BRANCH  22  32
ATOM     32  O   UNL     1      25.458  -5.582  16.600  1.00  0.00    -0.504 OA
ATOM     33  H   UNL     1      25.930  -5.802  15.734  1.00  0.00     0.293 HD
ENDBRANCH  22  32
ENDBRANCH  11  12
BRANCH  10  34
ATOM     34  O   UNL     1      23.527  -9.754  23.180  1.00  0.00    -0.507 OA
ATOM     35  H   UNL     1      24.256  -9.921  22.498  1.00  0.00     0.293 HD
ENDBRANCH  10  34
BRANCH   9  36
ATOM     36  C   UNL     1      18.249 -12.896  24.644  1.00  0.00     0.017 C 
ATOM     37  C   UNL     1      17.239 -12.025  25.399  1.00  0.00     0.012 C 
ATOM     38  C   UNL     1      18.095 -14.383  25.018  1.00  0.00     0.012 C 
ENDBRANCH   9  36
BRANCH   6  39
ATOM     39  C   UNL     1      23.918 -11.659  25.005  1.00  0.00     0.264 C 
ATOM     40  O   UNL     1      24.534 -10.925  25.822  1.00  0.00    -0.298 OA
ENDBRANCH   6  39
BRANCH   8  41
ATOM     41  O   UNL     1      19.764 -13.277  27.056  1.00  0.00    -0.504 OA
ATOM     42  H   UNL     1      18.769 -13.451  27.091  1.00  0.00     0.293 HD
ENDBRANCH   8  41
BRANCH   7  43
ATOM     43  O   UNL     1      22.593 -12.999  27.042  1.00  0.00    -0.504 OA
ATOM     44  H   UNL     1      22.226 -13.318  27.928  1.00  0.00     0.293 HD
ENDBRANCH   7  43
TORSDOF 11
ENDMDL
MODEL 5
REMARK VINA RESULT:    -4.657      3.396      9.275
REMARK INTER + INTRA:          -8.218
REMARK INTER:                  -7.103
REMARK INTRA:                  -1.115
REMARK UNBOUND:                -1.383
REMARK SMILES Cc1cc2c(C(C)C)c(O)c(O)c(C=O)c2c(O)c1-c1c(C)cc2c(C(C)C)c(O)c(O)c(C=O)c2c1O
REMARK SMILES IDX 1 1 2 2 3 3 4 4 16 5 13 6 11 7 9 8 5 9 17 10 19 11 20 12
REMARK SMILES IDX 37 13 21 14 36 15 23 16 22 17 24 18 33 19 25 20 31 21 29 22
REMARK SMILES IDX 38 23 34 25 35 26 26 27 27 28 28 29 32 30 30 32 18 34 6 36
REMARK SMILES IDX 7 37 8 38 14 39 15 40 10 41 12 43
REMARK H PARENT 38 24 32 31 30 33 18 35 10 42 12 44
REMARK Flexibility Score: inf
ROOT
ATOM      1  C   UNL     1      23.197  -2.166  22.044  1.00  0.00     0.045 C 
ATOM      2  C   UNL     1      21.794  -1.744  21.683  1.00  0.00    -0.039 A 
ATOM      3  C   UNL     1      21.404  -0.419  21.885  1.00  0.00     0.013 A 
ATOM      4  C   UNL     1      20.113   0.042  21.542  1.00  0.00    -0.006 A 
ATOM      5  C   UNL     1      19.162  -0.896  21.037  1.00  0.00     0.039 A 
ATOM      6  C   UNL     1      17.850  -0.439  20.713  1.00  0.00     0.072 A 
ATOM      7  C   UNL     1      17.455   0.865  21.060  1.00  0.00     0.169 A 
ATOM      8  C   UNL     1      18.374   1.753  21.647  1.00  0.00     0.162 A 
ATOM      9  C   UNL     1      19.740   1.408  21.735  1.00  0.00     0.008 A 
ATOM     10  C   UNL     1      19.539  -2.267  20.915  1.00  0.00     0.132 A 
ATOM     11  C   UNL     1      20.858  -2.676  21.208  1.00  0.00     0.031 A 
ENDROOT
BRANCH  11  12
ATOM     12  C   UNL     1      21.254  -4.101  21.053  1.00  0.00     0.031 A 
ATOM     13  C   UNL     1      21.940  -4.521  19.895  1.00  0.00     0.132 A 
ATOM     14  C   UNL     1      20.908  -5.035  22.044  1.00  0.00    -0.039 A 
ATOM     15  C   UNL     1      22.375  -5.871  19.765  1.00  0.00     0.039 A 
ATOM     16  C   UNL     1      21.224  -6.383  21.857  1.00  0.00     0.013 A 
ATOM     17  C   UNL     1      20.107  -4.629  23.256  1.00  0.00     0.045 C 
ATOM     18  C   UNL     1      21.981  -6.826  20.750  1.00  0.00    -0.006 A 
ATOM     19  C   UNL     1      23.144  -6.311  18.651  1.00  0.00     0.072 A 
ATOM     20  C   UNL     1      22.311  -8.207  20.579  1.00  0.00     0.008 A 
ATOM     21  C   UNL     1      23.298  -7.684  18.404  1.00  0.00     0.169 A 
ATOM     22  C   UNL     1      22.813  -8.629  19.326  1.00  0.00     0.162 A 
BRANCH  13  23
ATOM     23  O   UNL     1      22.141  -3.614  18.848  1.00  0.00    -0.507 OA
ATOM     24  H   UNL     1      22.832  -3.739  18.119  1.00  0.00     0.293 HD
ENDBRANCH  13  23
BRANCH  19  25
ATOM     25  C   UNL     1      23.876  -5.384  17.758  1.00  0.00     0.264 C 
ATOM     26  O   UNL     1      25.135  -5.386  17.722  1.00  0.00    -0.298 OA
ENDBRANCH  19  25
BRANCH  20  27
ATOM     27  C   UNL     1      22.076  -9.241  21.694  1.00  0.00     0.017 C 
ATOM     28  C   UNL     1      20.848 -10.106  21.389  1.00  0.00     0.012 C 
ATOM     29  C   UNL     1      23.309 -10.110  22.006  1.00  0.00     0.012 C 
ENDBRANCH  20  27
BRANCH  21  30
ATOM     30  O   UNL     1      23.984  -8.082  17.250  1.00  0.00    -0.504 OA
ATOM     31  H   UNL     1      24.295  -9.027  17.073  1.00  0.00     0.293 HD
ENDBRANCH  21  30
BRANCH  22  32
ATOM     32  O   UNL     1      22.814  -9.991  19.016  1.00  0.00    -0.504 OA
ATOM     33  H   UNL     1      23.583 -10.472  18.571  1.00  0.00     0.293 HD
ENDBRANCH  22  32
ENDBRANCH  11  12
BRANCH  10  34
ATOM     34  O   UNL     1      18.592  -3.231  20.545  1.00  0.00    -0.507 OA
ATOM     35  H   UNL     1      17.874  -3.079  19.850  1.00  0.00     0.293 HD
ENDBRANCH  10  34
BRANCH   9  36
ATOM     36  C   UNL     1      20.778   2.491  22.084  1.00  0.00     0.017 C 
ATOM     37  C   UNL     1      21.835   2.612  20.981  1.00  0.00     0.012 C 
ATOM     38  C   UNL     1      21.431   2.304  23.467  1.00  0.00     0.012 C 
ENDBRANCH   9  36
BRANCH   6  39
ATOM     39  C   UNL     1      16.895  -1.266  19.935  1.00  0.00     0.264 C 
ATOM     40  O   UNL     1      15.852  -1.731  20.467  1.00  0.00    -0.298 OA
ENDBRANCH   6  39
BRANCH   8  41
ATOM     41  O   UNL     1      17.947   2.981  22.159  1.00  0.00    -0.504 OA
ATOM     42  H   UNL     1      18.549   3.637  22.635  1.00  0.00     0.293 HD
ENDBRANCH   8  41
BRANCH   7  43
ATOM     43  O   UNL     1      16.150   1.275  20.764  1.00  0.00    -0.504 OA
ATOM     44  H   UNL     1      15.845   1.578  19.850  1.00  0.00     0.293 HD
ENDBRANCH   7  43
TORSDOF 11
ENDMDL
MODEL 6
REMARK VINA RESULT:    -4.654      2.414      9.304
REMARK INTER + INTRA:          -8.213
REMARK INTER:                  -7.075
REMARK INTRA:                  -1.138
REMARK UNBOUND:                -1.383
REMARK SMILES Cc1cc2c(C(C)C)c(O)c(O)c(C=O)c2c(O)c1-c1c(C)cc2c(C(C)C)c(O)c(O)c(C=O)c2c1O
REMARK SMILES IDX 1 1 2 2 3 3 4 4 16 5 13 6 11 7 9 8 5 9 17 10 19 11 20 12
REMARK SMILES IDX 37 13 21 14 36 15 23 16 22 17 24 18 33 19 25 20 31 21 29 22
REMARK SMILES IDX 38 23 34 25 35 26 26 27 27 28 28 29 32 30 30 32 18 34 6 36
REMARK SMILES IDX 7 37 8 38 14 39 15 40 10 41 12 43
REMARK H PARENT 38 24 32 31 30 33 18 35 10 42 12 44
REMARK Flexibility Score: inf
ROOT
ATOM      1  C   UNL     1      24.910  -3.366  19.904  1.00  0.00     0.045 C 
ATOM      2  C   UNL     1      23.480  -2.900  20.039  1.00  0.00    -0.039 A 
ATOM      3  C   UNL     1      23.199  -1.533  20.006  1.00  0.00     0.013 A 
ATOM      4  C   UNL     1      21.879  -1.038  20.100  1.00  0.00    -0.006 A 
ATOM      5  C   UNL     1      20.812  -1.965  20.303  1.00  0.00     0.039 A 
ATOM      6  C   UNL     1      19.481  -1.467  20.423  1.00  0.00     0.072 A 
ATOM      7  C   UNL     1      19.256  -0.082  20.526  1.00  0.00     0.169 A 
ATOM      8  C   UNL     1      20.329   0.821  20.421  1.00  0.00     0.162 A 
ATOM      9  C   UNL     1      21.609   0.364  20.042  1.00  0.00     0.008 A 
ATOM     10  C   UNL     1      21.115  -3.355  20.423  1.00  0.00     0.132 A 
ATOM     11  C   UNL     1      22.439  -3.815  20.259  1.00  0.00     0.031 A 
ENDROOT
BRANCH  11  12
ATOM     12  C   UNL     1      22.746  -5.267  20.357  1.00  0.00     0.031 A 
ATOM     13  C   UNL     1      22.905  -6.036  19.186  1.00  0.00     0.132 A 
ATOM     14  C   UNL     1      22.837  -5.880  21.618  1.00  0.00    -0.039 A 
ATOM     15  C   UNL     1      23.258  -7.413  19.270  1.00  0.00     0.039 A 
ATOM     16  C   UNL     1      23.058  -7.257  21.699  1.00  0.00     0.013 A 
ATOM     17  C   UNL     1      22.596  -5.098  22.886  1.00  0.00     0.045 C 
ATOM     18  C   UNL     1      23.303  -8.042  20.550  1.00  0.00    -0.006 A 
ATOM     19  C   UNL     1      23.511  -8.199  18.110  1.00  0.00     0.072 A 
ATOM     20  C   UNL     1      23.543  -9.448  20.648  1.00  0.00     0.008 A 
ATOM     21  C   UNL     1      23.559  -9.598  18.209  1.00  0.00     0.169 A 
ATOM     22  C   UNL     1      23.496 -10.223  19.467  1.00  0.00     0.162 A 
BRANCH  13  23
ATOM     23  O   UNL     1      22.659  -5.448  17.939  1.00  0.00    -0.507 OA
ATOM     24  H   UNL     1      21.839  -4.894  17.730  1.00  0.00     0.293 HD
ENDBRANCH  13  23
BRANCH  19  25
ATOM     25  C   UNL     1      23.812  -7.610  16.786  1.00  0.00     0.264 C 
ATOM     26  O   UNL     1      24.942  -7.771  16.253  1.00  0.00    -0.298 OA
ENDBRANCH  19  25
BRANCH  20  27
ATOM     27  C   UNL     1      23.787 -10.137  22.003  1.00  0.00     0.017 C 
ATOM     28  C   UNL     1      22.550 -10.926  22.446  1.00  0.00     0.012 C 
ATOM     29  C   UNL     1      25.052 -11.015  22.036  1.00  0.00     0.012 C 
ENDBRANCH  20  27
BRANCH  21  30
ATOM     30  O   UNL     1      23.720 -10.345  17.035  1.00  0.00    -0.504 OA
ATOM     31  H   UNL     1      24.613 -10.537  16.603  1.00  0.00     0.293 HD
ENDBRANCH  21  30
BRANCH  22  32
ATOM     32  O   UNL     1      23.378 -11.612  19.566  1.00  0.00    -0.504 OA
ATOM     33  H   UNL     1      23.800 -12.166  20.298  1.00  0.00     0.293 HD
ENDBRANCH  22  32
ENDBRANCH  11  12
BRANCH  10  34
ATOM     34  O   UNL     1      20.109  -4.272  20.747  1.00  0.00    -0.507 OA
ATOM     35  H   UNL     1      19.462  -4.154  21.516  1.00  0.00     0.293 HD
ENDBRANCH  10  34
BRANCH   9  36
ATOM     36  C   UNL     1      22.689   1.382  19.630  1.00  0.00     0.017 C 
ATOM     37  C   UNL     1      23.211   2.151  20.848  1.00  0.00     0.012 C 
ATOM     38  C   UNL     1      22.244   2.342  18.510  1.00  0.00     0.012 C 
ENDBRANCH   9  36
BRANCH   6  39
ATOM     39  C   UNL     1      18.295  -2.357  20.358  1.00  0.00     0.264 C 
ATOM     40  O   UNL     1      17.639  -2.644  21.393  1.00  0.00    -0.298 OA
ENDBRANCH   6  39
BRANCH   8  41
ATOM     41  O   UNL     1      20.144   2.177  20.702  1.00  0.00    -0.504 OA
ATOM     42  H   UNL     1      19.272   2.670  20.569  1.00  0.00     0.293 HD
ENDBRANCH   8  41
BRANCH   7  43
ATOM     43  O   UNL     1      17.943   0.377  20.680  1.00  0.00    -0.504 OA
ATOM     44  H   UNL     1      17.249   0.367  19.946  1.00  0.00     0.293 HD
ENDBRANCH   7  43
TORSDOF 11
ENDMDL
MODEL 7
REMARK VINA RESULT:    -4.622      3.667      9.154
REMARK INTER + INTRA:          -8.166
REMARK INTER:                  -6.700
REMARK INTRA:                  -1.466
REMARK UNBOUND:                -1.383
REMARK SMILES Cc1cc2c(C(C)C)c(O)c(O)c(C=O)c2c(O)c1-c1c(C)cc2c(C(C)C)c(O)c(O)c(C=O)c2c1O
REMARK SMILES IDX 1 1 2 2 3 3 4 4 16 5 13 6 11 7 9 8 5 9 17 10 19 11 20 12
REMARK SMILES IDX 37 13 21 14 36 15 23 16 22 17 24 18 33 19 25 20 31 21 29 22
REMARK SMILES IDX 38 23 34 25 35 26 26 27 27 28 28 29 32 30 30 32 18 34 6 36
REMARK SMILES IDX 7 37 8 38 14 39 15 40 10 41 12 43
REMARK H PARENT 38 24 32 31 30 33 18 35 10 42 12 44
REMARK Flexibility Score: inf
ROOT
ATOM      1  C   UNL     1      23.116  -1.365  20.644  1.00  0.00     0.045 C 
ATOM      2  C   UNL     1      21.619  -1.172  20.650  1.00  0.00    -0.039 A 
ATOM      3  C   UNL     1      21.095   0.118  20.741  1.00  0.00     0.013 A 
ATOM      4  C   UNL     1      19.704   0.364  20.724  1.00  0.00    -0.006 A 
ATOM      5  C   UNL     1      18.811  -0.750  20.682  1.00  0.00     0.039 A 
ATOM      6  C   UNL     1      17.406  -0.506  20.690  1.00  0.00     0.072 A 
ATOM      7  C   UNL     1      16.920   0.793  20.923  1.00  0.00     0.169 A 
ATOM      8  C   UNL     1      17.812   1.871  21.060  1.00  0.00     0.162 A 
ATOM      9  C   UNL     1      19.187   1.695  20.795  1.00  0.00     0.008 A 
ATOM     10  C   UNL     1      19.352  -2.071  20.678  1.00  0.00     0.132 A 
ATOM     11  C   UNL     1      20.748  -2.273  20.630  1.00  0.00     0.031 A 
ENDROOT
BRANCH  11  12
ATOM     12  C   UNL     1      21.306  -3.651  20.598  1.00  0.00     0.031 A 
ATOM     13  C   UNL     1      21.550  -4.342  21.801  1.00  0.00     0.132 A 
ATOM     14  C   UNL     1      21.626  -4.248  19.366  1.00  0.00    -0.039 A 
ATOM     15  C   UNL     1      22.028  -5.684  21.778  1.00  0.00     0.039 A 
ATOM     16  C   UNL     1      22.213  -5.515  19.350  1.00  0.00     0.013 A 
ATOM     17  C   UNL     1      21.447  -3.503  18.067  1.00  0.00     0.045 C 
ATOM     18  C   UNL     1      22.397  -6.268  20.531  1.00  0.00    -0.006 A 
ATOM     19  C   UNL     1      22.205  -6.441  22.971  1.00  0.00     0.072 A 
ATOM     20  C   UNL     1      22.985  -7.571  20.497  1.00  0.00     0.008 A 
ATOM     21  C   UNL     1      22.949  -7.631  22.940  1.00  0.00     0.169 A 
ATOM     22  C   UNL     1      23.404  -8.152  21.716  1.00  0.00     0.162 A 
BRANCH  13  23
ATOM     23  O   UNL     1      21.373  -3.680  23.022  1.00  0.00    -0.507 OA
ATOM     24  H   UNL     1      21.607  -2.707  23.175  1.00  0.00     0.293 HD
ENDBRANCH  13  23
BRANCH  19  25
ATOM     25  C   UNL     1      21.569  -6.081  24.258  1.00  0.00     0.264 C 
ATOM     26  O   UNL     1      22.242  -5.558  25.185  1.00  0.00    -0.298 OA
ENDBRANCH  19  25
BRANCH  20  27
ATOM     27  C   UNL     1      23.226  -8.320  19.174  1.00  0.00     0.017 C 
ATOM     28  C   UNL     1      24.698  -8.236  18.758  1.00  0.00     0.012 C 
ATOM     29  C   UNL     1      22.729  -9.777  19.184  1.00  0.00     0.012 C 
ENDBRANCH  20  27
BRANCH  21  30
ATOM     30  O   UNL     1      23.179  -8.305  24.147  1.00  0.00    -0.504 OA
ATOM     31  H   UNL     1      23.640  -9.201  24.216  1.00  0.00     0.293 HD
ENDBRANCH  21  30
BRANCH  22  32
ATOM     32  O   UNL     1      24.279  -9.241  21.688  1.00  0.00    -0.504 OA
ATOM     33  H   UNL     1      24.012 -10.176  21.415  1.00  0.00     0.293 HD
ENDBRANCH  22  32
ENDBRANCH  11  12
BRANCH  10  34
ATOM     34  O   UNL     1      18.504  -3.182  20.765  1.00  0.00    -0.507 OA
ATOM     35  H   UNL     1      17.582  -3.158  21.180  1.00  0.00     0.293 HD
ENDBRANCH  10  34
BRANCH   9  36
ATOM     36  C   UNL     1      20.097   2.928  20.642  1.00  0.00     0.017 C 
ATOM     37  C   UNL     1      20.722   2.977  19.244  1.00  0.00     0.012 C 
ATOM     38  C   UNL     1      21.171   3.048  21.740  1.00  0.00     0.012 C 
ENDBRANCH   9  36
BRANCH   6  39
ATOM     39  C   UNL     1      16.418  -1.567  20.373  1.00  0.00     0.264 C 
ATOM     40  O   UNL     1      15.664  -2.042  21.263  1.00  0.00    -0.298 OA
ENDBRANCH   6  39
BRANCH   8  41
ATOM     41  O   UNL     1      17.351   3.125  21.469  1.00  0.00    -0.504 OA
ATOM     42  H   UNL     1      16.825   3.755  20.882  1.00  0.00     0.293 HD
ENDBRANCH   8  41
BRANCH   7  43
ATOM     43  O   UNL     1      15.535   0.997  20.962  1.00  0.00    -0.504 OA
ATOM     44  H   UNL     1      15.016   1.199  21.806  1.00  0.00     0.293 HD
ENDBRANCH   7  43
TORSDOF 11
ENDMDL
MODEL 8
REMARK VINA RESULT:    -4.598      1.108      9.130
REMARK INTER + INTRA:          -8.132
REMARK INTER:                  -6.856
REMARK INTRA:                  -1.276
REMARK UNBOUND:                -1.383
REMARK SMILES Cc1cc2c(C(C)C)c(O)c(O)c(C=O)c2c(O)c1-c1c(C)cc2c(C(C)C)c(O)c(O)c(C=O)c2c1O
REMARK SMILES IDX 1 1 2 2 3 3 4 4 16 5 13 6 11 7 9 8 5 9 17 10 19 11 20 12
REMARK SMILES IDX 37 13 21 14 36 15 23 16 22 17 24 18 33 19 25 20 31 21 29 22
REMARK SMILES IDX 38 23 34 25 35 26 26 27 27 28 28 29 32 30 30 32 18 34 6 36
REMARK SMILES IDX 7 37 8 38 14 39 15 40 10 41 12 43
REMARK H PARENT 38 24 32 31 30 33 18 35 10 42 12 44
REMARK Flexibility Score: inf
ROOT
ATOM      1  C   UNL     1      21.155  -3.627  18.251  1.00  0.00     0.045 C 
ATOM      2  C   UNL     1      22.071  -2.849  19.165  1.00  0.00    -0.039 A 
ATOM      3  C   UNL     1      22.475  -1.565  18.799  1.00  0.00     0.013 A 
ATOM      4  C   UNL     1      23.308  -0.778  19.625  1.00  0.00    -0.006 A 
ATOM      5  C   UNL     1      23.804  -1.346  20.838  1.00  0.00     0.039 A 
ATOM      6  C   UNL     1      24.666  -0.564  21.662  1.00  0.00     0.072 A 
ATOM      7  C   UNL     1      25.161   0.666  21.193  1.00  0.00     0.169 A 
ATOM      8  C   UNL     1      24.740   1.173  19.951  1.00  0.00     0.162 A 
ATOM      9  C   UNL     1      23.693   0.544  19.243  1.00  0.00     0.008 A 
ATOM     10  C   UNL     1      23.458  -2.692  21.165  1.00  0.00     0.132 A 
ATOM     11  C   UNL     1      22.571  -3.422  20.345  1.00  0.00     0.031 A 
ENDROOT
BRANCH  11  12
ATOM     12  C   UNL     1      22.191  -4.814  20.704  1.00  0.00     0.031 A 
ATOM     13  C   UNL     1      22.837  -5.904  20.086  1.00  0.00     0.132 A 
ATOM     14  C   UNL     1      21.160  -5.041  21.631  1.00  0.00    -0.039 A 
ATOM     15  C   UNL     1      22.522  -7.240  20.467  1.00  0.00     0.039 A 
ATOM     16  C   UNL     1      20.764  -6.352  21.911  1.00  0.00     0.013 A 
ATOM     17  C   UNL     1      20.399  -3.895  22.251  1.00  0.00     0.045 C 
ATOM     18  C   UNL     1      21.443  -7.467  21.372  1.00  0.00    -0.006 A 
ATOM     19  C   UNL     1      23.213  -8.361  19.927  1.00  0.00     0.072 A 
ATOM     20  C   UNL     1      21.037  -8.804  21.679  1.00  0.00     0.008 A 
ATOM     21  C   UNL     1      22.689  -9.652  20.090  1.00  0.00     0.169 A 
ATOM     22  C   UNL     1      21.558  -9.862  20.899  1.00  0.00     0.162 A 
BRANCH  13  23
ATOM     23  O   UNL     1      23.752  -5.665  19.053  1.00  0.00    -0.507 OA
ATOM     24  H   UNL     1      24.739  -5.502  19.201  1.00  0.00     0.293 HD
ENDBRANCH  13  23
BRANCH  19  25
ATOM     25  C   UNL     1      24.528  -8.251  19.255  1.00  0.00     0.264 C 
ATOM     26  O   UNL     1      24.621  -8.354  18.003  1.00  0.00    -0.298 OA
ENDBRANCH  19  25
BRANCH  20  27
ATOM     27  C   UNL     1      20.011  -9.106  22.786  1.00  0.00     0.017 C 
ATOM     28  C   UNL     1      20.566  -8.731  24.164  1.00  0.00     0.012 C 
ATOM     29  C   UNL     1      18.630  -8.468  22.546  1.00  0.00     0.012 C 
ENDBRANCH  20  27
BRANCH  21  30
ATOM     30  O   UNL     1      23.346 -10.722  19.470  1.00  0.00    -0.504 OA
ATOM     31  H   UNL     1      24.041 -11.299  19.922  1.00  0.00     0.293 HD
ENDBRANCH  21  30
BRANCH  22  32
ATOM     32  O   UNL     1      20.932 -11.110  20.938  1.00  0.00    -0.504 OA
ATOM     33  H   UNL     1      20.422 -11.513  20.165  1.00  0.00     0.293 HD
ENDBRANCH  22  32
ENDBRANCH  11  12
BRANCH  10  34
ATOM     34  O   UNL     1      24.030  -3.318  22.279  1.00  0.00    -0.507 OA
ATOM     35  H   UNL     1      24.490  -4.218  22.248  1.00  0.00     0.293 HD
ENDBRANCH  10  34
BRANCH   9  36
ATOM     36  C   UNL     1      23.033   1.270  18.056  1.00  0.00     0.017 C 
ATOM     37  C   UNL     1      24.024   1.444  16.900  1.00  0.00     0.012 C 
ATOM     38  C   UNL     1      22.374   2.610  18.434  1.00  0.00     0.012 C 
ENDBRANCH   9  36
BRANCH   6  39
ATOM     39  C   UNL     1      25.002  -0.958  23.053  1.00  0.00     0.264 C 
ATOM     40  O   UNL     1      26.125  -1.453  23.336  1.00  0.00    -0.298 OA
ENDBRANCH   6  39
BRANCH   8  41
ATOM     41  O   UNL     1      25.359   2.297  19.397  1.00  0.00    -0.504 OA
ATOM     42  H   UNL     1      25.820   3.015  19.937  1.00  0.00     0.293 HD
ENDBRANCH   8  41
BRANCH   7  43
ATOM     43  O   UNL     1      26.035   1.396  22.007  1.00  0.00    -0.504 OA
ATOM     44  H   UNL     1      25.857   2.338  22.327  1.00  0.00     0.293 HD
ENDBRANCH   7  43
TORSDOF 11
ENDMDL
MODEL 9
REMARK VINA RESULT:    -4.550      4.395      9.883
REMARK INTER + INTRA:          -8.060
REMARK INTER:                  -7.047
REMARK INTRA:                  -1.013
REMARK UNBOUND:                -1.383
REMARK SMILES Cc1cc2c(C(C)C)c(O)c(O)c(C=O)c2c(O)c1-c1c(C)cc2c(C(C)C)c(O)c(O)c(C=O)c2c1O
REMARK SMILES IDX 1 1 2 2 3 3 4 4 16 5 13 6 11 7 9 8 5 9 17 10 19 11 20 12
REMARK SMILES IDX 37 13 21 14 36 15 23 16 22 17 24 18 33 19 25 20 31 21 29 22
REMARK SMILES IDX 38 23 34 25 35 26 26 27 27 28 28 29 32 30 30 32 18 34 6 36
REMARK SMILES IDX 7 37 8 38 14 39 15 40 10 41 12 43
REMARK H PARENT 38 24 32 31 30 33 18 35 10 42 12 44
REMARK Flexibility Score: inf
ROOT
ATOM      1  C   UNL     1      21.316  -7.300  22.202  1.00  0.00     0.045 C 
ATOM      2  C   UNL     1      22.080  -7.939  21.067  1.00  0.00    -0.039 A 
ATOM      3  C   UNL     1      22.628  -7.132  20.070  1.00  0.00     0.013 A 
ATOM      4  C   UNL     1      23.375  -7.669  18.998  1.00  0.00    -0.006 A 
ATOM      5  C   UNL     1      23.513  -9.088  18.901  1.00  0.00     0.039 A 
ATOM      6  C   UNL     1      24.245  -9.635  17.807  1.00  0.00     0.072 A 
ATOM      7  C   UNL     1      24.660  -8.802  16.753  1.00  0.00     0.169 A 
ATOM      8  C   UNL     1      24.433  -7.416  16.812  1.00  0.00     0.162 A 
ATOM      9  C   UNL     1      23.948  -6.824  17.998  1.00  0.00     0.008 A 
ATOM     10  C   UNL     1      22.876  -9.913  19.877  1.00  0.00     0.132 A 
ATOM     11  C   UNL     1      22.192  -9.335  20.968  1.00  0.00     0.031 A 
ENDROOT
BRANCH  11  12
ATOM     12  C   UNL     1      21.555 -10.198  21.996  1.00  0.00     0.031 A 
ATOM     13  C   UNL     1      22.318 -10.697  23.072  1.00  0.00     0.132 A 
ATOM     14  C   UNL     1      20.200 -10.550  21.873  1.00  0.00    -0.039 A 
ATOM     15  C   UNL     1      21.702 -11.475  24.093  1.00  0.00     0.039 A 
ATOM     16  C   UNL     1      19.627 -11.417  22.807  1.00  0.00     0.013 A 
ATOM     17  C   UNL     1      19.378 -10.095  20.692  1.00  0.00     0.045 C 
ATOM     18  C   UNL     1      20.339 -11.870  23.940  1.00  0.00    -0.006 A 
ATOM     19  C   UNL     1      22.422 -11.923  25.237  1.00  0.00     0.072 A 
ATOM     20  C   UNL     1      19.736 -12.745  24.897  1.00  0.00     0.008 A 
ATOM     21  C   UNL     1      21.878 -12.922  26.060  1.00  0.00     0.169 A 
ATOM     22  C   UNL     1      20.570 -13.387  25.841  1.00  0.00     0.162 A 
BRANCH  13  23
ATOM     23  O   UNL     1      23.699 -10.467  23.099  1.00  0.00    -0.507 OA
ATOM     24  H   UNL     1      24.303 -10.571  22.295  1.00  0.00     0.293 HD
ENDBRANCH  13  23
BRANCH  19  25
ATOM     25  C   UNL     1      23.707 -11.326  25.667  1.00  0.00     0.264 C 
ATOM     26  O   UNL     1      24.789 -11.951  25.516  1.00  0.00    -0.298 OA
ENDBRANCH  19  25
BRANCH  20  27
ATOM     27  C   UNL     1      18.228 -13.047  24.882  1.00  0.00     0.017 C 
ATOM     28  C   UNL     1      17.972 -14.559  24.879  1.00  0.00     0.012 C 
ATOM     29  C   UNL     1      17.441 -12.349  26.006  1.00  0.00     0.012 C 
ENDBRANCH  20  27
BRANCH  21  30
ATOM     30  O   UNL     1      22.651 -13.403  27.125  1.00  0.00    -0.504 OA
ATOM     31  H   UNL     1      22.313 -14.048  27.824  1.00  0.00     0.293 HD
ENDBRANCH  21  30
BRANCH  22  32
ATOM     32  O   UNL     1      20.079 -14.490  26.545  1.00  0.00    -0.504 OA
ATOM     33  H   UNL     1      20.660 -15.147  27.046  1.00  0.00     0.293 HD
ENDBRANCH  22  32
ENDBRANCH  11  12
BRANCH  10  34
ATOM     34  O   UNL     1      22.886 -11.306  19.738  1.00  0.00    -0.507 OA
ATOM     35  H   UNL     1      23.450 -11.803  19.061  1.00  0.00     0.293 HD
ENDBRANCH  10  34
BRANCH   9  36
ATOM     36  C   UNL     1      23.998  -5.294  18.161  1.00  0.00     0.017 C 
ATOM     37  C   UNL     1      25.044  -4.888  19.206  1.00  0.00     0.012 C 
ATOM     38  C   UNL     1      22.629  -4.654  18.463  1.00  0.00     0.012 C 
ENDBRANCH   9  36
BRANCH   6  39
ATOM     39  C   UNL     1      24.671 -11.056  17.774  1.00  0.00     0.264 C 
ATOM     40  O   UNL     1      25.632 -11.465  18.477  1.00  0.00    -0.298 OA
ENDBRANCH   6  39
BRANCH   8  41
ATOM     41  O   UNL     1      24.675  -6.609  15.697  1.00  0.00    -0.504 OA
ATOM     42  H   UNL     1      25.597  -6.353  15.372  1.00  0.00     0.293 HD
ENDBRANCH   8  41
BRANCH   7  43
ATOM     43  O   UNL     1      25.345  -9.372  15.673  1.00  0.00    -0.504 OA
ATOM     44  H   UNL     1      25.023  -9.338  14.716  1.00  0.00     0.293 HD
ENDBRANCH   7  43
TORSDOF 11
ENDMDL
