MODEL 1
REMARK VINA RESULT:    -5.143      0.000      0.000
REMARK INTER + INTRA:          -6.289
REMARK INTER:                  -6.195
REMARK INTRA:                  -0.094
REMARK UNBOUND:                -0.094
REMARK SMILES OCCc1ccc(O)c(O)c1
REMARK SMILES IDX 3 1 4 2 5 3 6 4 7 5 11 6 9 7 8 8 10 10 2 12 1 13
REMARK H PARENT 8 9 10 11 1 14
REMARK Flexibility Score: inf
ROOT
ATOM      1  C   UNL     1      74.761  41.747  -4.767  1.00  0.00     0.064 C 
ENDROOT
BRANCH   1   2
ATOM      2  C   UNL     1      74.382  42.521  -3.531  1.00  0.00    -0.042 A 
ATOM      3  C   UNL     1      73.522  41.955  -2.577  1.00  0.00     0.008 A 
ATOM      4  C   UNL     1      73.147  42.684  -1.446  1.00  0.00     0.050 A 
ATOM      5  C   UNL     1      73.616  43.989  -1.259  1.00  0.00     0.157 A 
ATOM      6  C   UNL     1      74.842  43.834  -3.350  1.00  0.00     0.054 A 
ATOM      7  C   UNL     1      74.466  44.569  -2.216  1.00  0.00     0.157 A 
BRANCH   5   8
ATOM      8  O   UNL     1      73.225  44.692  -0.121  1.00  0.00    -0.504 OA
ATOM      9  H   UNL     1      72.666  45.535  -0.174  1.00  0.00     0.293 HD
ENDBRANCH   5   8
BRANCH   7  10
ATOM     10  O   UNL     1      74.932  45.871  -2.039  1.00  0.00    -0.504 OA
ATOM     11  H   UNL     1      75.000  46.290  -1.118  1.00  0.00     0.293 HD
ENDBRANCH   7  10
ENDBRANCH   1   2
BRANCH   1  12
ATOM     12  C   UNL     1      74.626  40.242  -4.524  1.00  0.00     0.161 C 
BRANCH  12  13
ATOM     13  O   UNL     1      73.655  39.699  -5.375  1.00  0.00    -0.396 OA
ATOM     14  H   UNL     1      72.835  40.247  -5.258  1.00  0.00     0.210 HD
ENDBRANCH  12  13
ENDBRANCH   1  12
TORSDOF 5
ENDMDL
MODEL 2
REMARK VINA RESULT:    -5.030      1.357      2.561
REMARK INTER + INTRA:          -6.153
REMARK INTER:                  -6.087
REMARK INTRA:                  -0.066
REMARK UNBOUND:                -0.094
REMARK SMILES OCCc1ccc(O)c(O)c1
REMARK SMILES IDX 3 1 4 2 5 3 6 4 7 5 11 6 9 7 8 8 10 10 2 12 1 13
REMARK H PARENT 8 9 10 11 1 14
REMARK Flexibility Score: inf
ROOT
ATOM      1  C   UNL     1      72.918  40.633  -3.049  1.00  0.00     0.064 C 
ENDROOT
BRANCH   1   2
ATOM      2  C   UNL     1      73.435  42.017  -2.759  1.00  0.00    -0.042 A 
ATOM      3  C   UNL     1      74.327  42.640  -3.645  1.00  0.00     0.008 A 
ATOM      4  C   UNL     1      74.830  43.912  -3.361  1.00  0.00     0.050 A 
ATOM      5  C   UNL     1      74.458  44.573  -2.184  1.00  0.00     0.157 A 
ATOM      6  C   UNL     1      73.072  42.674  -1.573  1.00  0.00     0.054 A 
ATOM      7  C   UNL     1      73.576  43.951  -1.284  1.00  0.00     0.157 A 
BRANCH   5   8
ATOM      8  O   UNL     1      74.976  45.841  -1.927  1.00  0.00    -0.504 OA
ATOM      9  H   UNL     1      75.525  46.041  -1.100  1.00  0.00     0.293 HD
ENDBRANCH   5   8
BRANCH   7  10
ATOM     10  O   UNL     1      73.207  44.600  -0.107  1.00  0.00    -0.504 OA
ATOM     11  H   UNL     1      73.628  44.364   0.784  1.00  0.00     0.293 HD
ENDBRANCH   7  10
ENDBRANCH   1   2
BRANCH   1  12
ATOM     12  C   UNL     1      71.431  40.528  -2.700  1.00  0.00     0.161 C 
BRANCH  12  13
ATOM     13  O   UNL     1      70.693  40.157  -3.833  1.00  0.00    -0.396 OA
ATOM     14  H   UNL     1      69.795  40.570  -3.734  1.00  0.00     0.210 HD
ENDBRANCH  12  13
ENDBRANCH   1  12
TORSDOF 5
ENDMDL
MODEL 3
REMARK VINA RESULT:    -4.907      2.092      5.023
REMARK INTER + INTRA:          -6.005
REMARK INTER:                  -5.951
REMARK INTRA:                  -0.053
REMARK UNBOUND:                -0.094
REMARK SMILES OCCc1ccc(O)c(O)c1
REMARK SMILES IDX 3 1 4 2 5 3 6 4 7 5 11 6 9 7 8 8 10 10 2 12 1 13
REMARK H PARENT 8 9 10 11 1 14
REMARK Flexibility Score: inf
ROOT
ATOM      1  C   UNL     1      72.521  44.770  -0.006  1.00  0.00     0.064 C 
ENDROOT
BRANCH   1   2
ATOM      2  C   UNL     1      73.210  44.130  -1.181  1.00  0.00    -0.042 A 
ATOM      3  C   UNL     1      74.174  44.843  -1.912  1.00  0.00     0.008 A 
ATOM      4  C   UNL     1      74.791  44.259  -3.020  1.00  0.00     0.050 A 
ATOM      5  C   UNL     1      74.448  42.963  -3.421  1.00  0.00     0.157 A 
ATOM      6  C   UNL     1      72.857  42.834  -1.590  1.00  0.00     0.054 A 
ATOM      7  C   UNL     1      73.475  42.246  -2.704  1.00  0.00     0.157 A 
BRANCH   5   8
ATOM      8  O   UNL     1      75.082  42.407  -4.531  1.00  0.00    -0.504 OA
ATOM      9  H   UNL     1      75.912  41.833  -4.445  1.00  0.00     0.293 HD
ENDBRANCH   5   8
BRANCH   7  10
ATOM     10  O   UNL     1      73.123  40.957  -3.101  1.00  0.00    -0.504 OA
ATOM     11  H   UNL     1      73.513  40.534  -3.936  1.00  0.00     0.293 HD
ENDBRANCH   7  10
ENDBRANCH   1   2
BRANCH   1  12
ATOM     12  C   UNL     1      71.277  45.537  -0.462  1.00  0.00     0.161 C 
BRANCH  12  13
ATOM     13  O   UNL     1      70.324  45.569   0.566  1.00  0.00    -0.396 OA
ATOM     14  H   UNL     1      70.440  44.732   1.087  1.00  0.00     0.210 HD
ENDBRANCH  12  13
ENDBRANCH   1  12
TORSDOF 5
ENDMDL
MODEL 4
REMARK VINA RESULT:    -4.900      0.563      2.037
REMARK INTER + INTRA:          -5.996
REMARK INTER:                  -5.913
REMARK INTRA:                  -0.083
REMARK UNBOUND:                -0.094
REMARK SMILES OCCc1ccc(O)c(O)c1
REMARK SMILES IDX 3 1 4 2 5 3 6 4 7 5 11 6 9 7 8 8 10 10 2 12 1 13
REMARK H PARENT 8 9 10 11 1 14
REMARK Flexibility Score: inf
ROOT
ATOM      1  C   UNL     1      73.323  40.645  -3.329  1.00  0.00     0.064 C 
ENDROOT
BRANCH   1   2
ATOM      2  C   UNL     1      73.720  42.050  -2.961  1.00  0.00    -0.042 A 
ATOM      3  C   UNL     1      74.587  42.780  -3.789  1.00  0.00     0.008 A 
ATOM      4  C   UNL     1      74.979  44.073  -3.432  1.00  0.00     0.050 A 
ATOM      5  C   UNL     1      74.521  44.647  -2.240  1.00  0.00     0.157 A 
ATOM      6  C   UNL     1      73.271  42.621  -1.760  1.00  0.00     0.054 A 
ATOM      7  C   UNL     1      73.664  43.918  -1.399  1.00  0.00     0.157 A 
BRANCH   5   8
ATOM      8  O   UNL     1      74.929  45.938  -1.910  1.00  0.00    -0.504 OA
ATOM      9  H   UNL     1      75.887  46.153  -1.660  1.00  0.00     0.293 HD
ENDBRANCH   5   8
BRANCH   7  10
ATOM     10  O   UNL     1      73.209  44.481  -0.208  1.00  0.00    -0.504 OA
ATOM     11  H   UNL     1      73.453  44.086   0.694  1.00  0.00     0.293 HD
ENDBRANCH   7  10
ENDBRANCH   1   2
BRANCH   1  12
ATOM     12  C   UNL     1      74.117  40.160  -4.545  1.00  0.00     0.161 C 
BRANCH  12  13
ATOM     13  O   UNL     1      73.298  39.391  -5.383  1.00  0.00    -0.396 OA
ATOM     14  H   UNL     1      73.249  39.872  -6.251  1.00  0.00     0.210 HD
ENDBRANCH  12  13
ENDBRANCH   1  12
TORSDOF 5
ENDMDL
MODEL 5
REMARK VINA RESULT:    -4.759      1.312      5.003
REMARK INTER + INTRA:          -5.827
REMARK INTER:                  -5.768
REMARK INTRA:                  -0.058
REMARK UNBOUND:                -0.094
REMARK SMILES OCCc1ccc(O)c(O)c1
REMARK SMILES IDX 3 1 4 2 5 3 6 4 7 5 11 6 9 7 8 8 10 10 2 12 1 13
REMARK H PARENT 8 9 10 11 1 14
REMARK Flexibility Score: inf
ROOT
ATOM      1  C   UNL     1      73.493  43.372  -1.231  1.00  0.00     0.064 C 
ENDROOT
BRANCH   1   2
ATOM      2  C   UNL     1      73.538  42.271  -2.257  1.00  0.00    -0.042 A 
ATOM      3  C   UNL     1      74.644  42.144  -3.111  1.00  0.00     0.008 A 
ATOM      4  C   UNL     1      74.672  41.141  -4.083  1.00  0.00     0.050 A 
ATOM      5  C   UNL     1      73.593  40.260  -4.222  1.00  0.00     0.157 A 
ATOM      6  C   UNL     1      72.451  41.396  -2.404  1.00  0.00     0.054 A 
ATOM      7  C   UNL     1      72.475  40.389  -3.380  1.00  0.00     0.157 A 
BRANCH   5   8
ATOM      8  O   UNL     1      73.649  39.269  -5.200  1.00  0.00    -0.504 OA
ATOM      9  H   UNL     1      74.238  38.450  -5.103  1.00  0.00     0.293 HD
ENDBRANCH   5   8
BRANCH   7  10
ATOM     10  O   UNL     1      71.395  39.519  -3.517  1.00  0.00    -0.504 OA
ATOM     11  H   UNL     1      70.484  39.738  -3.128  1.00  0.00     0.293 HD
ENDBRANCH   7  10
ENDBRANCH   1   2
BRANCH   1  12
ATOM     12  C   UNL     1      73.837  44.720  -1.870  1.00  0.00     0.161 C 
BRANCH  12  13
ATOM     13  O   UNL     1      75.124  45.123  -1.487  1.00  0.00    -0.396 OA
ATOM     14  H   UNL     1      75.270  46.022  -1.885  1.00  0.00     0.210 HD
ENDBRANCH  12  13
ENDBRANCH   1  12
TORSDOF 5
ENDMDL
MODEL 6
REMARK VINA RESULT:    -4.567      1.401      4.876
REMARK INTER + INTRA:          -5.596
REMARK INTER:                  -5.502
REMARK INTRA:                  -0.093
REMARK UNBOUND:                -0.094
REMARK SMILES OCCc1ccc(O)c(O)c1
REMARK SMILES IDX 3 1 4 2 5 3 6 4 7 5 11 6 9 7 8 8 10 10 2 12 1 13
REMARK H PARENT 8 9 10 11 1 14
REMARK Flexibility Score: inf
ROOT
ATOM      1  C   UNL     1      73.769  44.657  -1.557  1.00  0.00     0.064 C 
ENDROOT
BRANCH   1   2
ATOM      2  C   UNL     1      73.768  43.375  -2.346  1.00  0.00    -0.042 A 
ATOM      3  C   UNL     1      74.722  43.162  -3.352  1.00  0.00     0.008 A 
ATOM      4  C   UNL     1      74.702  41.985  -4.105  1.00  0.00     0.050 A 
ATOM      5  C   UNL     1      73.724  41.012  -3.871  1.00  0.00     0.157 A 
ATOM      6  C   UNL     1      72.779  42.405  -2.119  1.00  0.00     0.054 A 
ATOM      7  C   UNL     1      72.755  41.223  -2.874  1.00  0.00     0.157 A 
BRANCH   5   8
ATOM      8  O   UNL     1      73.729  39.848  -4.638  1.00  0.00    -0.504 OA
ATOM      9  H   UNL     1      72.874  39.419  -4.970  1.00  0.00     0.293 HD
ENDBRANCH   5   8
BRANCH   7  10
ATOM     10  O   UNL     1      71.774  40.261  -2.640  1.00  0.00    -0.504 OA
ATOM     11  H   UNL     1      70.893  40.497  -2.198  1.00  0.00     0.293 HD
ENDBRANCH   7  10
ENDBRANCH   1   2
BRANCH   1  12
ATOM     12  C   UNL     1      72.535  44.737  -0.655  1.00  0.00     0.161 C 
BRANCH  12  13
ATOM     13  O   UNL     1      72.915  44.684   0.693  1.00  0.00    -0.396 OA
ATOM     14  H   UNL     1      72.653  43.785   1.027  1.00  0.00     0.210 HD
ENDBRANCH  12  13
ENDBRANCH   1  12
TORSDOF 5
ENDMDL
MODEL 7
REMARK VINA RESULT:    -4.413      7.981     10.846
REMARK INTER + INTRA:          -5.410
REMARK INTER:                  -5.336
REMARK INTRA:                  -0.074
REMARK UNBOUND:                -0.094
REMARK SMILES OCCc1ccc(O)c(O)c1
REMARK SMILES IDX 3 1 4 2 5 3 6 4 7 5 11 6 9 7 8 8 10 10 2 12 1 13
REMARK H PARENT 8 9 10 11 1 14
REMARK Flexibility Score: inf
ROOT
ATOM      1  C   UNL     1      74.383  48.464   7.726  1.00  0.00     0.064 C 
ENDROOT
BRANCH   1   2
ATOM      2  C   UNL     1      74.125  47.666   6.476  1.00  0.00    -0.042 A 
ATOM      3  C   UNL     1      73.674  48.302   5.309  1.00  0.00     0.008 A 
ATOM      4  C   UNL     1      73.406  47.558   4.158  1.00  0.00     0.050 A 
ATOM      5  C   UNL     1      73.575  46.168   4.160  1.00  0.00     0.157 A 
ATOM      6  C   UNL     1      74.283  46.271   6.481  1.00  0.00     0.054 A 
ATOM      7  C   UNL     1      74.014  45.520   5.327  1.00  0.00     0.157 A 
BRANCH   5   8
ATOM      8  O   UNL     1      73.300  45.451   2.996  1.00  0.00    -0.504 OA
ATOM      9  H   UNL     1      73.870  45.539   2.163  1.00  0.00     0.293 HD
ENDBRANCH   5   8
BRANCH   7  10
ATOM     10  O   UNL     1      74.178  44.136   5.337  1.00  0.00    -0.504 OA
ATOM     11  H   UNL     1      74.429  43.625   4.499  1.00  0.00     0.293 HD
ENDBRANCH   7  10
ENDBRANCH   1   2
BRANCH   1  12
ATOM     12  C   UNL     1      74.778  47.542   8.883  1.00  0.00     0.161 C 
BRANCH  12  13
ATOM     13  O   UNL     1      74.481  48.151  10.110  1.00  0.00    -0.396 OA
ATOM     14  H   UNL     1      73.491  48.157  10.192  1.00  0.00     0.210 HD
ENDBRANCH  12  13
ENDBRANCH   1  12
TORSDOF 5
ENDMDL
MODEL 8
REMARK VINA RESULT:    -4.343      8.755     10.719
REMARK INTER + INTRA:          -5.326
REMARK INTER:                  -5.253
REMARK INTRA:                  -0.072
REMARK UNBOUND:                -0.094
REMARK SMILES OCCc1ccc(O)c(O)c1
REMARK SMILES IDX 3 1 4 2 5 3 6 4 7 5 11 6 9 7 8 8 10 10 2 12 1 13
REMARK H PARENT 8 9 10 11 1 14
REMARK Flexibility Score: inf
ROOT
ATOM      1  C   UNL     1      73.637  47.167   4.557  1.00  0.00     0.064 C 
ENDROOT
BRANCH   1   2
ATOM      2  C   UNL     1      73.968  47.317   6.019  1.00  0.00    -0.042 A 
ATOM      3  C   UNL     1      74.400  46.209   6.764  1.00  0.00     0.008 A 
ATOM      4  C   UNL     1      74.678  46.341   8.126  1.00  0.00     0.050 A 
ATOM      5  C   UNL     1      74.519  47.576   8.764  1.00  0.00     0.157 A 
ATOM      6  C   UNL     1      73.797  48.553   6.661  1.00  0.00     0.054 A 
ATOM      7  C   UNL     1      74.074  48.689   8.029  1.00  0.00     0.157 A 
BRANCH   5   8
ATOM      8  O   UNL     1      74.804  47.678  10.125  1.00  0.00    -0.504 OA
ATOM      9  H   UNL     1      75.061  48.558  10.556  1.00  0.00     0.293 HD
ENDBRANCH   5   8
BRANCH   7  10
ATOM     10  O   UNL     1      73.907  49.920   8.659  1.00  0.00    -0.504 OA
ATOM     11  H   UNL     1      73.415  50.003   9.542  1.00  0.00     0.293 HD
ENDBRANCH   7  10
ENDBRANCH   1   2
BRANCH   1  12
ATOM     12  C   UNL     1      73.229  45.726   4.240  1.00  0.00     0.161 C 
BRANCH  12  13
ATOM     13  O   UNL     1      73.323  45.488   2.863  1.00  0.00    -0.396 OA
ATOM     14  H   UNL     1      73.357  44.502   2.746  1.00  0.00     0.210 HD
ENDBRANCH  12  13
ENDBRANCH   1  12
TORSDOF 5
ENDMDL
MODEL 9
REMARK VINA RESULT:    -4.282     11.179     12.449
REMARK INTER + INTRA:          -5.252
REMARK INTER:                  -5.191
REMARK INTRA:                  -0.060
REMARK UNBOUND:                -0.094
REMARK SMILES OCCc1ccc(O)c(O)c1
REMARK SMILES IDX 3 1 4 2 5 3 6 4 7 5 11 6 9 7 8 8 10 10 2 12 1 13
REMARK H PARENT 8 9 10 11 1 14
REMARK Flexibility Score: inf
ROOT
ATOM      1  C   UNL     1      69.737  49.599   6.698  1.00  0.00     0.064 C 
ENDROOT
BRANCH   1   2
ATOM      2  C   UNL     1      71.147  49.282   7.117  1.00  0.00    -0.042 A 
ATOM      3  C   UNL     1      71.893  50.214   7.855  1.00  0.00     0.008 A 
ATOM      4  C   UNL     1      73.212  49.933   8.218  1.00  0.00     0.050 A 
ATOM      5  C   UNL     1      73.807  48.723   7.841  1.00  0.00     0.157 A 
ATOM      6  C   UNL     1      71.748  48.074   6.729  1.00  0.00     0.054 A 
ATOM      7  C   UNL     1      73.072  47.789   7.091  1.00  0.00     0.157 A 
BRANCH   5   8
ATOM      8  O   UNL     1      75.125  48.469   8.218  1.00  0.00    -0.504 OA
ATOM      9  H   UNL     1      75.869  49.138   8.057  1.00  0.00     0.293 HD
ENDBRANCH   5   8
BRANCH   7  10
ATOM     10  O   UNL     1      73.660  46.585   6.706  1.00  0.00    -0.504 OA
ATOM     11  H   UNL     1      74.467  46.209   7.191  1.00  0.00     0.293 HD
ENDBRANCH   7  10
ENDBRANCH   1   2
BRANCH   1  12
ATOM     12  C   UNL     1      68.775  48.503   7.166  1.00  0.00     0.161 C 
BRANCH  12  13
ATOM     13  O   UNL     1      67.609  48.517   6.389  1.00  0.00    -0.396 OA
ATOM     14  H   UNL     1      66.978  49.141   6.835  1.00  0.00     0.210 HD
ENDBRANCH  12  13
ENDBRANCH   1  12
TORSDOF 5
ENDMDL
