MODEL 1
REMARK VINA RESULT:    -5.970      0.000      0.000
REMARK INTER + INTRA:          -6.882
REMARK INTER:                  -6.668
REMARK INTRA:                  -0.214
REMARK UNBOUND:                -0.214
REMARK SMILES CC(C)c1ccc(C(=O)[O-])cc1
REMARK SMILES IDX 7 1 6 2 11 3 5 4 12 5 4 6 8 7 9 8 10 9 2 10 1 11 3 12
REMARK H PARENT
REMARK Flexibility Score: inf
ROOT
ATOM      1  C   UNL     1      54.074  37.136  28.112  1.00  0.00    -0.003 A 
ATOM      2  C   UNL     1      52.986  36.819  27.282  1.00  0.00     0.010 A 
ATOM      3  C   UNL     1      54.981  36.122  28.461  1.00  0.00     0.010 A 
ATOM      4  C   UNL     1      52.809  35.515  26.810  1.00  0.00     0.004 A 
ATOM      5  C   UNL     1      54.805  34.818  27.988  1.00  0.00     0.004 A 
ATOM      6  C   UNL     1      53.716  34.500  27.158  1.00  0.00    -0.045 A 
ENDROOT
BRANCH   1   7
ATOM      7  C   UNL     1      54.256  38.517  28.609  1.00  0.00     0.071 C 
ATOM      8  O   UNL     1      55.348  39.122  28.433  1.00  0.00    -0.545 OA
ATOM      9  O   UNL     1      53.225  39.169  29.276  1.00  0.00    -0.545 OA
ENDBRANCH   1   7
BRANCH   6  10
ATOM     10  C   UNL     1      53.511  33.089  26.638  1.00  0.00     0.013 C 
ATOM     11  C   UNL     1      54.395  32.089  27.393  1.00  0.00     0.012 C 
ATOM     12  C   UNL     1      52.035  32.684  26.708  1.00  0.00     0.012 C 
ENDBRANCH   6  10
TORSDOF 2
ENDMDL
MODEL 2
REMARK VINA RESULT:    -5.707      3.112      5.167
REMARK INTER + INTRA:          -6.589
REMARK INTER:                  -6.378
REMARK INTRA:                  -0.211
REMARK UNBOUND:                -0.214
REMARK SMILES CC(C)c1ccc(C(=O)[O-])cc1
REMARK SMILES IDX 7 1 6 2 11 3 5 4 12 5 4 6 8 7 9 8 10 9 2 10 1 11 3 12
REMARK H PARENT
REMARK Flexibility Score: inf
ROOT
ATOM      1  C   UNL     1      53.249  35.695  27.820  1.00  0.00    -0.003 A 
ATOM      2  C   UNL     1      51.894  35.829  28.165  1.00  0.00     0.010 A 
ATOM      3  C   UNL     1      54.118  36.776  28.045  1.00  0.00     0.010 A 
ATOM      4  C   UNL     1      51.418  37.019  28.724  1.00  0.00     0.004 A 
ATOM      5  C   UNL     1      53.642  37.965  28.605  1.00  0.00     0.004 A 
ATOM      6  C   UNL     1      52.286  38.100  28.951  1.00  0.00    -0.045 A 
ENDROOT
BRANCH   1   7
ATOM      7  C   UNL     1      53.747  34.435  27.228  1.00  0.00     0.071 C 
ATOM      8  O   UNL     1      54.980  34.169  27.231  1.00  0.00    -0.545 OA
ATOM      9  O   UNL     1      52.863  33.524  26.660  1.00  0.00    -0.545 OA
ENDBRANCH   1   7
BRANCH   6  10
ATOM     10  C   UNL     1      51.755  39.385  29.558  1.00  0.00     0.013 C 
ATOM     11  C   UNL     1      50.328  39.675  29.079  1.00  0.00     0.012 C 
ATOM     12  C   UNL     1      51.826  39.343  31.089  1.00  0.00     0.012 C 
ENDBRANCH   6  10
TORSDOF 2
ENDMDL
MODEL 3
REMARK VINA RESULT:    -5.564      1.271      2.516
REMARK INTER + INTRA:          -6.429
REMARK INTER:                  -6.213
REMARK INTRA:                  -0.216
REMARK UNBOUND:                -0.214
REMARK SMILES CC(C)c1ccc(C(=O)[O-])cc1
REMARK SMILES IDX 7 1 6 2 11 3 5 4 12 5 4 6 8 7 9 8 10 9 2 10 1 11 3 12
REMARK H PARENT
REMARK Flexibility Score: inf
ROOT
ATOM      1  C   UNL     1      54.842  38.338  28.526  1.00  0.00    -0.003 A 
ATOM      2  C   UNL     1      55.655  37.193  28.541  1.00  0.00     0.010 A 
ATOM      3  C   UNL     1      53.476  38.200  28.229  1.00  0.00     0.010 A 
ATOM      4  C   UNL     1      55.112  35.934  28.266  1.00  0.00     0.004 A 
ATOM      5  C   UNL     1      52.933  36.942  27.956  1.00  0.00     0.004 A 
ATOM      6  C   UNL     1      53.746  35.794  27.970  1.00  0.00    -0.045 A 
ENDROOT
BRANCH   1   7
ATOM      7  C   UNL     1      55.422  39.668  28.817  1.00  0.00     0.071 C 
ATOM      8  O   UNL     1      54.888  40.427  29.671  1.00  0.00    -0.545 OA
ATOM      9  O   UNL     1      56.565  40.100  28.154  1.00  0.00    -0.545 OA
ENDBRANCH   1   7
BRANCH   6  10
ATOM     10  C   UNL     1      53.171  34.421  27.674  1.00  0.00     0.013 C 
ATOM     11  C   UNL     1      51.956  34.520  26.743  1.00  0.00     0.012 C 
ATOM     12  C   UNL     1      54.238  33.489  27.091  1.00  0.00     0.012 C 
ENDBRANCH   6  10
TORSDOF 2
ENDMDL
MODEL 4
REMARK VINA RESULT:    -5.371      1.380      1.705
REMARK INTER + INTRA:          -6.214
REMARK INTER:                  -5.994
REMARK INTRA:                  -0.220
REMARK UNBOUND:                -0.214
REMARK SMILES CC(C)c1ccc(C(=O)[O-])cc1
REMARK SMILES IDX 7 1 6 2 11 3 5 4 12 5 4 6 8 7 9 8 10 9 2 10 1 11 3 12
REMARK H PARENT
REMARK Flexibility Score: inf
ROOT
ATOM      1  C   UNL     1      52.673  37.932  28.788  1.00  0.00    -0.003 A 
ATOM      2  C   UNL     1      51.602  37.077  28.480  1.00  0.00     0.010 A 
ATOM      3  C   UNL     1      53.978  37.538  28.451  1.00  0.00     0.010 A 
ATOM      4  C   UNL     1      51.831  35.852  27.847  1.00  0.00     0.004 A 
ATOM      5  C   UNL     1      54.207  36.313  27.816  1.00  0.00     0.004 A 
ATOM      6  C   UNL     1      53.136  35.456  27.507  1.00  0.00    -0.045 A 
ENDROOT
BRANCH   1   7
ATOM      7  C   UNL     1      52.425  39.227  29.460  1.00  0.00     0.071 C 
ATOM      8  O   UNL     1      53.379  39.884  29.957  1.00  0.00    -0.545 OA
ATOM      9  O   UNL     1      51.135  39.739  29.550  1.00  0.00    -0.545 OA
ENDBRANCH   1   7
BRANCH   6  10
ATOM     10  C   UNL     1      53.370  34.124  26.820  1.00  0.00     0.013 C 
ATOM     11  C   UNL     1      54.546  33.373  27.455  1.00  0.00     0.012 C 
ATOM     12  C   UNL     1      52.099  33.267  26.828  1.00  0.00     0.012 C 
ENDBRANCH   6  10
TORSDOF 2
ENDMDL
MODEL 5
REMARK VINA RESULT:    -5.330      1.483      2.354
REMARK INTER + INTRA:          -6.167
REMARK INTER:                  -5.948
REMARK INTRA:                  -0.219
REMARK UNBOUND:                -0.214
REMARK SMILES CC(C)c1ccc(C(=O)[O-])cc1
REMARK SMILES IDX 7 1 6 2 11 3 5 4 12 5 4 6 8 7 9 8 10 9 2 10 1 11 3 12
REMARK H PARENT
REMARK Flexibility Score: inf
ROOT
ATOM      1  C   UNL     1      52.529  37.940  28.920  1.00  0.00    -0.003 A 
ATOM      2  C   UNL     1      53.834  37.651  28.490  1.00  0.00     0.010 A 
ATOM      3  C   UNL     1      51.505  37.014  28.660  1.00  0.00     0.010 A 
ATOM      4  C   UNL     1      54.111  36.459  27.814  1.00  0.00     0.004 A 
ATOM      5  C   UNL     1      51.782  35.821  27.984  1.00  0.00     0.004 A 
ATOM      6  C   UNL     1      53.089  35.531  27.553  1.00  0.00    -0.045 A 
ENDROOT
BRANCH   1   7
ATOM      7  C   UNL     1      52.241  39.203  29.634  1.00  0.00     0.071 C 
ATOM      8  O   UNL     1      51.061  39.494  29.971  1.00  0.00    -0.545 OA
ATOM      9  O   UNL     1      53.268  40.087  29.946  1.00  0.00    -0.545 OA
ENDBRANCH   1   7
BRANCH   6  10
ATOM     10  C   UNL     1      53.404  34.241  26.818  1.00  0.00     0.013 C 
ATOM     11  C   UNL     1      54.596  33.518  27.457  1.00  0.00     0.012 C 
ATOM     12  C   UNL     1      52.175  33.328  26.754  1.00  0.00     0.012 C 
ENDBRANCH   6  10
TORSDOF 2
ENDMDL
MODEL 6
REMARK VINA RESULT:    -5.260     14.689     15.884
REMARK INTER + INTRA:          -6.089
REMARK INTER:                  -5.875
REMARK INTRA:                  -0.214
REMARK UNBOUND:                -0.214
REMARK SMILES CC(C)c1ccc(C(=O)[O-])cc1
REMARK SMILES IDX 7 1 6 2 11 3 5 4 12 5 4 6 8 7 9 8 10 9 2 10 1 11 3 12
REMARK H PARENT
REMARK Flexibility Score: inf
ROOT
ATOM      1  C   UNL     1      58.614  49.006  22.603  1.00  0.00    -0.003 A 
ATOM      2  C   UNL     1      57.860  49.424  21.494  1.00  0.00     0.010 A 
ATOM      3  C   UNL     1      59.859  48.392  22.386  1.00  0.00     0.010 A 
ATOM      4  C   UNL     1      58.341  49.234  20.195  1.00  0.00     0.004 A 
ATOM      5  C   UNL     1      60.341  48.202  21.087  1.00  0.00     0.004 A 
ATOM      6  C   UNL     1      59.586  48.621  19.977  1.00  0.00    -0.045 A 
ENDROOT
BRANCH   1   7
ATOM      7  C   UNL     1      58.101  49.209  23.975  1.00  0.00     0.071 C 
ATOM      8  O   UNL     1      57.011  48.688  24.334  1.00  0.00    -0.545 OA
ATOM      9  O   UNL     1      58.815  49.976  24.889  1.00  0.00    -0.545 OA
ENDBRANCH   1   7
BRANCH   6  10
ATOM     10  C   UNL     1      60.095  48.421  18.562  1.00  0.00     0.013 C 
ATOM     11  C   UNL     1      59.557  49.506  17.621  1.00  0.00     0.012 C 
ATOM     12  C   UNL     1      61.627  48.371  18.527  1.00  0.00     0.012 C 
ENDBRANCH   6  10
TORSDOF 2
ENDMDL
MODEL 7
REMARK VINA RESULT:    -5.128     14.290     16.136
REMARK INTER + INTRA:          -5.942
REMARK INTER:                  -5.721
REMARK INTRA:                  -0.221
REMARK UNBOUND:                -0.214
REMARK SMILES CC(C)c1ccc(C(=O)[O-])cc1
REMARK SMILES IDX 7 1 6 2 11 3 5 4 12 5 4 6 8 7 9 8 10 9 2 10 1 11 3 12
REMARK H PARENT
REMARK Flexibility Score: inf
ROOT
ATOM      1  C   UNL     1      59.765  48.854  19.595  1.00  0.00    -0.003 A 
ATOM      2  C   UNL     1      58.513  49.429  19.869  1.00  0.00     0.010 A 
ATOM      3  C   UNL     1      60.511  48.311  20.654  1.00  0.00     0.010 A 
ATOM      4  C   UNL     1      58.017  49.459  21.176  1.00  0.00     0.004 A 
ATOM      5  C   UNL     1      60.015  48.340  21.960  1.00  0.00     0.004 A 
ATOM      6  C   UNL     1      58.761  48.915  22.236  1.00  0.00    -0.045 A 
ENDROOT
BRANCH   1   7
ATOM      7  C   UNL     1      60.286  48.825  18.211  1.00  0.00     0.071 C 
ATOM      8  O   UNL     1      61.362  48.225  17.944  1.00  0.00    -0.545 OA
ATOM      9  O   UNL     1      59.594  49.457  17.183  1.00  0.00    -0.545 OA
ENDBRANCH   1   7
BRANCH   6  10
ATOM     10  C   UNL     1      58.210  48.955  23.649  1.00  0.00     0.013 C 
ATOM     11  C   UNL     1      56.705  49.249  23.648  1.00  0.00     0.012 C 
ATOM     12  C   UNL     1      58.518  47.655  24.399  1.00  0.00     0.012 C 
ENDBRANCH   6  10
TORSDOF 2
ENDMDL
MODEL 8
REMARK VINA RESULT:    -5.125     14.308     16.196
REMARK INTER + INTRA:          -5.938
REMARK INTER:                  -5.717
REMARK INTRA:                  -0.221
REMARK UNBOUND:                -0.214
REMARK SMILES CC(C)c1ccc(C(=O)[O-])cc1
REMARK SMILES IDX 7 1 6 2 11 3 5 4 12 5 4 6 8 7 9 8 10 9 2 10 1 11 3 12
REMARK H PARENT
REMARK Flexibility Score: inf
ROOT
ATOM      1  C   UNL     1      59.776  48.853  19.592  1.00  0.00    -0.003 A 
ATOM      2  C   UNL     1      60.519  48.292  20.643  1.00  0.00     0.010 A 
ATOM      3  C   UNL     1      58.533  49.444  19.875  1.00  0.00     0.010 A 
ATOM      4  C   UNL     1      60.030  48.323  21.953  1.00  0.00     0.004 A 
ATOM      5  C   UNL     1      58.045  49.475  21.185  1.00  0.00     0.004 A 
ATOM      6  C   UNL     1      58.788  48.914  22.239  1.00  0.00    -0.045 A 
ENDROOT
BRANCH   1   7
ATOM      7  C   UNL     1      60.297  48.818  18.208  1.00  0.00     0.071 C 
ATOM      8  O   UNL     1      61.373  48.215  17.943  1.00  0.00    -0.545 OA
ATOM      9  O   UNL     1      59.607  49.448  17.178  1.00  0.00    -0.545 OA
ENDBRANCH   1   7
BRANCH   6  10
ATOM     10  C   UNL     1      58.270  48.940  23.664  1.00  0.00     0.013 C 
ATOM     11  C   UNL     1      56.760  49.206  23.700  1.00  0.00     0.012 C 
ATOM     12  C   UNL     1      58.618  47.642  24.402  1.00  0.00     0.012 C 
ENDBRANCH   6  10
TORSDOF 2
ENDMDL
MODEL 9
REMARK VINA RESULT:    -5.031     14.741     15.605
REMARK INTER + INTRA:          -5.833
REMARK INTER:                  -5.615
REMARK INTRA:                  -0.218
REMARK UNBOUND:                -0.214
REMARK SMILES CC(C)c1ccc(C(=O)[O-])cc1
REMARK SMILES IDX 7 1 6 2 11 3 5 4 12 5 4 6 8 7 9 8 10 9 2 10 1 11 3 12
REMARK H PARENT
REMARK Flexibility Score: inf
ROOT
ATOM      1  C   UNL     1      57.666  49.181  22.254  1.00  0.00    -0.003 A 
ATOM      2  C   UNL     1      58.844  48.726  22.871  1.00  0.00     0.010 A 
ATOM      3  C   UNL     1      57.645  49.334  20.858  1.00  0.00     0.010 A 
ATOM      4  C   UNL     1      59.976  48.430  22.106  1.00  0.00     0.004 A 
ATOM      5  C   UNL     1      58.777  49.036  20.093  1.00  0.00     0.004 A 
ATOM      6  C   UNL     1      59.956  48.581  20.710  1.00  0.00    -0.045 A 
ENDROOT
BRANCH   1   7
ATOM      7  C   UNL     1      56.471  49.495  23.067  1.00  0.00     0.071 C 
ATOM      8  O   UNL     1      55.540  50.200  22.592  1.00  0.00    -0.545 OA
ATOM      9  O   UNL     1      56.356  49.015  24.367  1.00  0.00    -0.545 OA
ENDBRANCH   1   7
BRANCH   6  10
ATOM     10  C   UNL     1      61.193  48.255  19.893  1.00  0.00     0.013 C 
ATOM     11  C   UNL     1      61.738  46.866  20.246  1.00  0.00     0.012 C 
ATOM     12  C   UNL     1      60.909  48.371  18.392  1.00  0.00     0.012 C 
ENDBRANCH   6  10
TORSDOF 2
ENDMDL
