MODEL 1
REMARK VINA RESULT:    -3.335      0.000      0.000
REMARK INTER + INTRA:          -4.389
REMARK INTER:                  -4.309
REMARK INTRA:                  -0.079
REMARK UNBOUND:                -0.079
REMARK SMILES CCCCCCC(=O)[O-]
REMARK SMILES IDX 5 1 6 2 7 3 8 4 9 5 4 6 3 7 2 8 1 9
REMARK H PARENT
REMARK Flexibility Score: inf
ROOT
ATOM      1  C   UNL     1      -2.388 -51.779   4.226  1.00  0.00     0.006 C 
ENDROOT
BRANCH   1   2
ATOM      2  C   UNL     1      -3.319 -51.716   5.450  1.00  0.00     0.053 C 
BRANCH   2   3
ATOM      3  C   UNL     1      -2.687 -51.018   6.615  1.00  0.00     0.041 C 
ATOM      4  O   UNL     1      -3.403 -50.548   7.538  1.00  0.00    -0.550 OA
ATOM      5  O   UNL     1      -1.304 -50.920   6.703  1.00  0.00    -0.550 OA
ENDBRANCH   2   3
ENDBRANCH   1   2
BRANCH   1   6
ATOM      6  C   UNL     1      -3.087 -51.457   2.890  1.00  0.00     0.000 C 
BRANCH   6   7
ATOM      7  C   UNL     1      -2.224 -50.703   1.859  1.00  0.00    -0.000 C 
BRANCH   7   8
ATOM      8  C   UNL     1      -2.576 -50.982   0.387  1.00  0.00    -0.003 C 
ATOM      9  C   UNL     1      -1.420 -51.600  -0.397  1.00  0.00     0.004 C 
ENDBRANCH   7   8
ENDBRANCH   6   7
ENDBRANCH   1   6
TORSDOF 5
ENDMDL
MODEL 2
REMARK VINA RESULT:    -3.302      3.296      4.629
REMARK INTER + INTRA:          -4.346
REMARK INTER:                  -4.187
REMARK INTRA:                  -0.159
REMARK UNBOUND:                -0.079
REMARK SMILES CCCCCCC(=O)[O-]
REMARK SMILES IDX 5 1 6 2 7 3 8 4 9 5 4 6 3 7 2 8 1 9
REMARK H PARENT
REMARK Flexibility Score: inf
ROOT
ATOM      1  C   UNL     1      -3.184 -50.621   0.755  1.00  0.00     0.006 C 
ENDROOT
BRANCH   1   2
ATOM      2  C   UNL     1      -2.793 -51.109   2.161  1.00  0.00     0.053 C 
BRANCH   2   3
ATOM      3  C   UNL     1      -1.412 -51.688   2.203  1.00  0.00     0.041 C 
ATOM      4  O   UNL     1      -0.875 -52.125   1.150  1.00  0.00    -0.550 OA
ATOM      5  O   UNL     1      -0.699 -51.710   3.395  1.00  0.00    -0.550 OA
ENDBRANCH   2   3
ENDBRANCH   1   2
BRANCH   1   6
ATOM      6  C   UNL     1      -4.107 -51.589  -0.011  1.00  0.00     0.000 C 
BRANCH   6   7
ATOM      7  C   UNL     1      -5.611 -51.263   0.063  1.00  0.00    -0.000 C 
BRANCH   7   8
ATOM      8  C   UNL     1      -6.349 -51.866   1.271  1.00  0.00    -0.003 C 
ATOM      9  C   UNL     1      -7.815 -51.442   1.348  1.00  0.00     0.004 C 
ENDBRANCH   7   8
ENDBRANCH   6   7
ENDBRANCH   1   6
TORSDOF 5
ENDMDL
MODEL 3
REMARK VINA RESULT:    -3.263      2.238      3.447
REMARK INTER + INTRA:          -4.296
REMARK INTER:                  -4.061
REMARK INTRA:                  -0.235
REMARK UNBOUND:                -0.079
REMARK SMILES CCCCCCC(=O)[O-]
REMARK SMILES IDX 5 1 6 2 7 3 8 4 9 5 4 6 3 7 2 8 1 9
REMARK H PARENT
REMARK Flexibility Score: inf
ROOT
ATOM      1  C   UNL     1      -2.268 -50.656   1.620  1.00  0.00     0.006 C 
ENDROOT
BRANCH   1   2
ATOM      2  C   UNL     1      -2.866 -51.514   2.750  1.00  0.00     0.053 C 
BRANCH   2   3
ATOM      3  C   UNL     1      -1.852 -51.874   3.792  1.00  0.00     0.041 C 
ATOM      4  O   UNL     1      -0.629 -51.927   3.496  1.00  0.00    -0.550 OA
ATOM      5  O   UNL     1      -2.250 -52.114   5.101  1.00  0.00    -0.550 OA
ENDBRANCH   2   3
ENDBRANCH   1   2
BRANCH   1   6
ATOM      6  C   UNL     1      -3.126 -50.622   0.339  1.00  0.00     0.000 C 
BRANCH   6   7
ATOM      7  C   UNL     1      -4.033 -51.849   0.120  1.00  0.00    -0.000 C 
BRANCH   7   8
ATOM      8  C   UNL     1      -5.489 -51.522  -0.255  1.00  0.00    -0.003 C 
ATOM      9  C   UNL     1      -6.454 -51.657   0.922  1.00  0.00     0.004 C 
ENDBRANCH   7   8
ENDBRANCH   6   7
ENDBRANCH   1   6
TORSDOF 5
ENDMDL
MODEL 4
REMARK VINA RESULT:    -3.116      2.004      2.651
REMARK INTER + INTRA:          -4.107
REMARK INTER:                  -3.788
REMARK INTRA:                  -0.319
REMARK UNBOUND:                -0.079
REMARK SMILES CCCCCCC(=O)[O-]
REMARK SMILES IDX 5 1 6 2 7 3 8 4 9 5 4 6 3 7 2 8 1 9
REMARK H PARENT
REMARK Flexibility Score: inf
ROOT
ATOM      1  C   UNL     1      -1.785 -51.040   2.623  1.00  0.00     0.006 C 
ENDROOT
BRANCH   1   2
ATOM      2  C   UNL     1      -2.195 -51.894   3.837  1.00  0.00     0.053 C 
BRANCH   2   3
ATOM      3  C   UNL     1      -3.593 -51.608   4.291  1.00  0.00     0.041 C 
ATOM      4  O   UNL     1      -3.801 -51.114   5.431  1.00  0.00    -0.550 OA
ATOM      5  O   UNL     1      -4.667 -51.850   3.444  1.00  0.00    -0.550 OA
ENDBRANCH   2   3
ENDBRANCH   1   2
BRANCH   1   6
ATOM      6  C   UNL     1      -1.436 -51.863   1.367  1.00  0.00     0.000 C 
BRANCH   6   7
ATOM      7  C   UNL     1      -2.257 -51.522   0.107  1.00  0.00    -0.000 C 
BRANCH   7   8
ATOM      8  C   UNL     1      -3.429 -50.552   0.337  1.00  0.00    -0.003 C 
ATOM      9  C   UNL     1      -4.790 -51.173   0.029  1.00  0.00     0.004 C 
ENDBRANCH   7   8
ENDBRANCH   6   7
ENDBRANCH   1   6
TORSDOF 5
ENDMDL
MODEL 5
REMARK VINA RESULT:    -3.065      2.494      5.375
REMARK INTER + INTRA:          -4.040
REMARK INTER:                  -3.897
REMARK INTRA:                  -0.143
REMARK UNBOUND:                -0.079
REMARK SMILES CCCCCCC(=O)[O-]
REMARK SMILES IDX 5 1 6 2 7 3 8 4 9 5 4 6 3 7 2 8 1 9
REMARK H PARENT
REMARK Flexibility Score: inf
ROOT
ATOM      1  C   UNL     1      -3.335 -51.440   4.391  1.00  0.00     0.006 C 
ENDROOT
BRANCH   1   2
ATOM      2  C   UNL     1      -2.698 -52.125   3.169  1.00  0.00     0.053 C 
BRANCH   2   3
ATOM      3  C   UNL     1      -1.438 -51.447   2.726  1.00  0.00     0.041 C 
ATOM      4  O   UNL     1      -0.529 -51.190   3.559  1.00  0.00    -0.550 OA
ATOM      5  O   UNL     1      -1.247 -51.132   1.386  1.00  0.00    -0.550 OA
ENDBRANCH   2   3
ENDBRANCH   1   2
BRANCH   1   6
ATOM      6  C   UNL     1      -2.961 -52.088   5.739  1.00  0.00     0.000 C 
BRANCH   6   7
ATOM      7  C   UNL     1      -2.296 -51.146   6.762  1.00  0.00    -0.000 C 
BRANCH   7   8
ATOM      8  C   UNL     1      -2.585 -51.479   8.236  1.00  0.00    -0.003 C 
ATOM      9  C   UNL     1      -4.010 -51.130   8.660  1.00  0.00     0.004 C 
ENDBRANCH   7   8
ENDBRANCH   6   7
ENDBRANCH   1   6
TORSDOF 5
ENDMDL
MODEL 6
REMARK VINA RESULT:    -3.034      3.373      5.484
REMARK INTER + INTRA:          -4.000
REMARK INTER:                  -3.840
REMARK INTRA:                  -0.160
REMARK UNBOUND:                -0.079
REMARK SMILES CCCCCCC(=O)[O-]
REMARK SMILES IDX 5 1 6 2 7 3 8 4 9 5 4 6 3 7 2 8 1 9
REMARK H PARENT
REMARK Flexibility Score: inf
ROOT
ATOM      1  C   UNL     1      -2.961 -51.760   2.960  1.00  0.00     0.006 C 
ENDROOT
BRANCH   1   2
ATOM      2  C   UNL     1      -1.713 -51.061   2.392  1.00  0.00     0.053 C 
BRANCH   2   3
ATOM      3  C   UNL     1      -1.685 -51.067   0.894  1.00  0.00     0.041 C 
ATOM      4  O   UNL     1      -0.649 -51.435   0.280  1.00  0.00    -0.550 OA
ATOM      5  O   UNL     1      -2.816 -50.704   0.173  1.00  0.00    -0.550 OA
ENDBRANCH   2   3
ENDBRANCH   1   2
BRANCH   1   6
ATOM      6  C   UNL     1      -3.039 -51.749   4.499  1.00  0.00     0.000 C 
BRANCH   6   7
ATOM      7  C   UNL     1      -1.712 -52.035   5.229  1.00  0.00    -0.000 C 
BRANCH   7   8
ATOM      8  C   UNL     1      -1.538 -51.304   6.572  1.00  0.00    -0.003 C 
ATOM      9  C   UNL     1      -2.866 -51.001   7.264  1.00  0.00     0.004 C 
ENDBRANCH   7   8
ENDBRANCH   6   7
ENDBRANCH   1   6
TORSDOF 5
ENDMDL
MODEL 7
REMARK VINA RESULT:    -2.977      3.799      4.706
REMARK INTER + INTRA:          -3.926
REMARK INTER:                  -3.788
REMARK INTRA:                  -0.138
REMARK UNBOUND:                -0.079
REMARK SMILES CCCCCCC(=O)[O-]
REMARK SMILES IDX 5 1 6 2 7 3 8 4 9 5 4 6 3 7 2 8 1 9
REMARK H PARENT
REMARK Flexibility Score: inf
ROOT
ATOM      1  C   UNL     1      -3.811 -50.829   0.317  1.00  0.00     0.006 C 
ENDROOT
BRANCH   1   2
ATOM      2  C   UNL     1      -4.752 -52.047   0.334  1.00  0.00     0.053 C 
BRANCH   2   3
ATOM      3  C   UNL     1      -5.889 -51.878   1.295  1.00  0.00     0.041 C 
ATOM      4  O   UNL     1      -5.702 -52.027   2.532  1.00  0.00    -0.550 OA
ATOM      5  O   UNL     1      -7.148 -51.517   0.831  1.00  0.00    -0.550 OA
ENDBRANCH   2   3
ENDBRANCH   1   2
BRANCH   1   6
ATOM      6  C   UNL     1      -2.662 -50.910   1.341  1.00  0.00     0.000 C 
BRANCH   6   7
ATOM      7  C   UNL     1      -1.279 -51.256   0.754  1.00  0.00    -0.000 C 
BRANCH   7   8
ATOM      8  C   UNL     1      -1.305 -51.849  -0.665  1.00  0.00    -0.003 C 
ATOM      9  C   UNL     1       0.066 -51.851  -1.338  1.00  0.00     0.004 C 
ENDBRANCH   7   8
ENDBRANCH   6   7
ENDBRANCH   1   6
TORSDOF 5
ENDMDL
MODEL 8
REMARK VINA RESULT:    -2.951      3.438      4.090
REMARK INTER + INTRA:          -3.893
REMARK INTER:                  -3.762
REMARK INTRA:                  -0.131
REMARK UNBOUND:                -0.079
REMARK SMILES CCCCCCC(=O)[O-]
REMARK SMILES IDX 5 1 6 2 7 3 8 4 9 5 4 6 3 7 2 8 1 9
REMARK H PARENT
REMARK Flexibility Score: inf
ROOT
ATOM      1  C   UNL     1      -5.447 -51.749   3.750  1.00  0.00     0.006 C 
ENDROOT
BRANCH   1   2
ATOM      2  C   UNL     1      -6.961 -51.755   3.471  1.00  0.00     0.053 C 
BRANCH   2   3
ATOM      3  C   UNL     1      -7.735 -50.987   4.498  1.00  0.00     0.041 C 
ATOM      4  O   UNL     1      -7.690 -51.326   5.711  1.00  0.00    -0.550 OA
ATOM      5  O   UNL     1      -8.477 -49.873   4.126  1.00  0.00    -0.550 OA
ENDBRANCH   2   3
ENDBRANCH   1   2
BRANCH   1   6
ATOM      6  C   UNL     1      -4.580 -52.022   2.505  1.00  0.00     0.000 C 
BRANCH   6   7
ATOM      7  C   UNL     1      -3.058 -51.905   2.723  1.00  0.00    -0.000 C 
BRANCH   7   8
ATOM      8  C   UNL     1      -2.342 -50.915   1.789  1.00  0.00    -0.003 C 
ATOM      9  C   UNL     1      -3.128 -50.622   0.512  1.00  0.00     0.004 C 
ENDBRANCH   7   8
ENDBRANCH   6   7
ENDBRANCH   1   6
TORSDOF 5
ENDMDL
