MODEL 1
REMARK VINA RESULT:    -4.315      0.000      0.000
REMARK INTER + INTRA:          -6.133
REMARK INTER:                  -5.324
REMARK INTRA:                  -0.809
REMARK UNBOUND:                -0.809
REMARK SMILES C=CC(=C)CCC=C(C)C
REMARK SMILES IDX 5 1 6 2 7 3 9 4 8 5 10 6 3 7 4 8 2 9 1 10
REMARK H PARENT
REMARK Flexibility Score: inf
ROOT
ATOM      1  C   UNL     1     144.915 140.350 164.655  1.00  0.00     0.039 C 
ENDROOT
BRANCH   1   2
ATOM      2  C   UNL     1     144.957 139.768 163.237  1.00  0.00     0.032 C 
BRANCH   2   3
ATOM      3  C   UNL     1     145.564 140.751 162.265  1.00  0.00    -0.028 C 
ATOM      4  C   UNL     1     145.680 142.209 160.291  1.00  0.00     0.039 C 
ATOM      5  C   UNL     1     144.947 141.216 161.157  1.00  0.00    -0.080 C 
ATOM      6  C   UNL     1     143.565 140.759 160.755  1.00  0.00     0.039 C 
ENDBRANCH   2   3
ENDBRANCH   1   2
BRANCH   1   7
ATOM      7  C   UNL     1     143.600 141.056 164.908  1.00  0.00    -0.055 C 
ATOM      8  C   UNL     1     142.504 140.325 165.137  1.00  0.00     0.012 C 
BRANCH   7   9
ATOM      9  C   UNL     1     143.472 142.535 164.864  1.00  0.00    -0.005 C 
ATOM     10  C   UNL     1     143.136 143.223 163.772  1.00  0.00     0.009 C 
ENDBRANCH   7   9
ENDBRANCH   1   7
TORSDOF 4
ENDMDL
MODEL 2
REMARK VINA RESULT:    -4.298      5.291      6.405
REMARK INTER + INTRA:          -6.113
REMARK INTER:                  -5.288
REMARK INTRA:                  -0.824
REMARK UNBOUND:                -0.809
REMARK SMILES C=CC(=C)CCC=C(C)C
REMARK SMILES IDX 5 1 6 2 7 3 9 4 8 5 10 6 3 7 4 8 2 9 1 10
REMARK H PARENT
REMARK Flexibility Score: inf
ROOT
ATOM      1  C   UNL     1     150.215 144.950 164.535  1.00  0.00     0.039 C 
ENDROOT
BRANCH   1   2
ATOM      2  C   UNL     1     150.920 144.983 163.174  1.00  0.00     0.032 C 
BRANCH   2   3
ATOM      3  C   UNL     1     150.017 145.552 162.108  1.00  0.00    -0.028 C 
ATOM      4  C   UNL     1     148.676 145.579 160.049  1.00  0.00     0.039 C 
ATOM      5  C   UNL     1     149.590 144.875 161.019  1.00  0.00    -0.080 C 
ATOM      6  C   UNL     1     150.014 143.453 160.741  1.00  0.00     0.039 C 
ENDBRANCH   2   3
ENDBRANCH   1   2
BRANCH   1   7
ATOM      7  C   UNL     1     149.594 143.593 164.787  1.00  0.00    -0.055 C 
ATOM      8  C   UNL     1     150.391 142.555 165.061  1.00  0.00     0.012 C 
BRANCH   7   9
ATOM      9  C   UNL     1     148.129 143.361 164.695  1.00  0.00    -0.005 C 
ATOM     10  C   UNL     1     147.499 143.014 163.573  1.00  0.00     0.009 C 
ENDBRANCH   7   9
ENDBRANCH   1   7
TORSDOF 4
ENDMDL
MODEL 3
REMARK VINA RESULT:    -4.282      7.524      9.064
REMARK INTER + INTRA:          -6.093
REMARK INTER:                  -5.286
REMARK INTRA:                  -0.807
REMARK UNBOUND:                -0.809
REMARK SMILES C=CC(=C)CCC=C(C)C
REMARK SMILES IDX 5 1 6 2 7 3 9 4 8 5 10 6 3 7 4 8 2 9 1 10
REMARK H PARENT
REMARK Flexibility Score: inf
ROOT
ATOM      1  C   UNL     1     145.763 150.177 164.506  1.00  0.00     0.039 C 
ENDROOT
BRANCH   1   2
ATOM      2  C   UNL     1     145.764 150.885 163.146  1.00  0.00     0.032 C 
BRANCH   2   3
ATOM      3  C   UNL     1     145.190 149.994 162.071  1.00  0.00    -0.028 C 
ATOM      4  C   UNL     1     145.172 148.637 160.022  1.00  0.00     0.039 C 
ATOM      5  C   UNL     1     145.882 149.532 161.006  1.00  0.00    -0.080 C 
ATOM      6  C   UNL     1     147.327 149.900 160.765  1.00  0.00     0.039 C 
ENDBRANCH   2   3
ENDBRANCH   1   2
BRANCH   1   7
ATOM      7  C   UNL     1     147.125 149.586 164.805  1.00  0.00    -0.055 C 
ATOM      8  C   UNL     1     148.142 150.408 165.083  1.00  0.00     0.012 C 
BRANCH   7   9
ATOM      9  C   UNL     1     147.384 148.124 164.756  1.00  0.00    -0.005 C 
ATOM     10  C   UNL     1     147.792 147.476 163.665  1.00  0.00     0.009 C 
ENDBRANCH   7   9
ENDBRANCH   1   7
TORSDOF 4
ENDMDL
MODEL 4
REMARK VINA RESULT:    -4.170      6.626      7.729
REMARK INTER + INTRA:          -5.955
REMARK INTER:                  -5.526
REMARK INTRA:                  -0.429
REMARK UNBOUND:                -0.809
REMARK SMILES C=CC(=C)CCC=C(C)C
REMARK SMILES IDX 5 1 6 2 7 3 9 4 8 5 10 6 3 7 4 8 2 9 1 10
REMARK H PARENT
REMARK Flexibility Score: inf
ROOT
ATOM      1  C   UNL     1     143.097 147.374 165.068  1.00  0.00     0.039 C 
ENDROOT
BRANCH   1   2
ATOM      2  C   UNL     1     144.329 147.564 164.177  1.00  0.00     0.032 C 
BRANCH   2   3
ATOM      3  C   UNL     1     145.069 148.829 164.536  1.00  0.00    -0.028 C 
ATOM      4  C   UNL     1     146.096 151.033 164.182  1.00  0.00     0.039 C 
ATOM      5  C   UNL     1     145.362 149.821 163.667  1.00  0.00    -0.080 C 
ATOM      6  C   UNL     1     144.995 149.742 162.204  1.00  0.00     0.039 C 
ENDBRANCH   2   3
ENDBRANCH   1   2
BRANCH   1   7
ATOM      7  C   UNL     1     141.827 147.391 164.244  1.00  0.00    -0.055 C 
ATOM      8  C   UNL     1     141.910 147.621 162.929  1.00  0.00     0.012 C 
BRANCH   7   9
ATOM      9  C   UNL     1     140.484 147.208 164.851  1.00  0.00    -0.005 C 
ATOM     10  C   UNL     1     139.784 146.076 164.786  1.00  0.00     0.009 C 
ENDBRANCH   7   9
ENDBRANCH   1   7
TORSDOF 4
ENDMDL
MODEL 5
REMARK VINA RESULT:    -4.165      3.978      5.215
REMARK INTER + INTRA:          -5.948
REMARK INTER:                  -5.534
REMARK INTRA:                  -0.415
REMARK UNBOUND:                -0.809
REMARK SMILES C=CC(=C)CCC=C(C)C
REMARK SMILES IDX 5 1 6 2 7 3 9 4 8 5 10 6 3 7 4 8 2 9 1 10
REMARK H PARENT
REMARK Flexibility Score: inf
ROOT
ATOM      1  C   UNL     1     147.590 143.444 165.014  1.00  0.00     0.039 C 
ENDROOT
BRANCH   1   2
ATOM      2  C   UNL     1     146.402 143.167 164.086  1.00  0.00     0.032 C 
BRANCH   2   3
ATOM      3  C   UNL     1     145.665 141.919 164.507  1.00  0.00    -0.028 C 
ATOM      4  C   UNL     1     144.635 139.702 164.260  1.00  0.00     0.039 C 
ATOM      5  C   UNL     1     145.365 140.889 163.686  1.00  0.00    -0.080 C 
ATOM      6  C   UNL     1     145.722 140.902 162.218  1.00  0.00     0.039 C 
ENDBRANCH   2   3
ENDBRANCH   1   2
BRANCH   1   7
ATOM      7  C   UNL     1     148.895 143.392 164.249  1.00  0.00    -0.055 C 
ATOM      8  C   UNL     1     148.870 143.127 162.938  1.00  0.00     0.012 C 
BRANCH   7   9
ATOM      9  C   UNL     1     150.212 143.579 164.912  1.00  0.00    -0.005 C 
ATOM     10  C   UNL     1     150.934 144.697 164.834  1.00  0.00     0.009 C 
ENDBRANCH   7   9
ENDBRANCH   1   7
TORSDOF 4
ENDMDL
MODEL 6
REMARK VINA RESULT:    -4.146      6.854      8.016
REMARK INTER + INTRA:          -5.925
REMARK INTER:                  -5.510
REMARK INTRA:                  -0.415
REMARK UNBOUND:                -0.809
REMARK SMILES C=CC(=C)CCC=C(C)C
REMARK SMILES IDX 5 1 6 2 7 3 9 4 8 5 10 6 3 7 4 8 2 9 1 10
REMARK H PARENT
REMARK Flexibility Score: inf
ROOT
ATOM      1  C   UNL     1     147.430 147.769 164.979  1.00  0.00     0.039 C 
ENDROOT
BRANCH   1   2
ATOM      2  C   UNL     1     147.592 146.517 164.109  1.00  0.00     0.032 C 
BRANCH   2   3
ATOM      3  C   UNL     1     148.815 145.731 164.513  1.00  0.00    -0.028 C 
ATOM      4  C   UNL     1     150.980 144.603 164.232  1.00  0.00     0.039 C 
ATOM      5  C   UNL     1     149.814 145.378 163.674  1.00  0.00    -0.080 C 
ATOM      6  C   UNL     1     149.786 145.720 162.203  1.00  0.00     0.039 C 
ENDBRANCH   2   3
ENDBRANCH   1   2
BRANCH   1   7
ATOM      7  C   UNL     1     147.372 149.016 164.123  1.00  0.00    -0.055 C 
ATOM      8  C   UNL     1     147.579 148.911 162.807  1.00  0.00     0.012 C 
BRANCH   7   9
ATOM      9  C   UNL     1     147.140 150.365 164.702  1.00  0.00    -0.005 C 
ATOM     10  C   UNL     1     145.939 150.838 165.033  1.00  0.00     0.009 C 
ENDBRANCH   7   9
ENDBRANCH   1   7
TORSDOF 4
ENDMDL
MODEL 7
REMARK VINA RESULT:    -4.131      5.624      6.467
REMARK INTER + INTRA:          -5.906
REMARK INTER:                  -5.063
REMARK INTRA:                  -0.843
REMARK UNBOUND:                -0.809
REMARK SMILES C=CC(=C)CCC=C(C)C
REMARK SMILES IDX 5 1 6 2 7 3 9 4 8 5 10 6 3 7 4 8 2 9 1 10
REMARK H PARENT
REMARK Flexibility Score: inf
ROOT
ATOM      1  C   UNL     1     140.618 145.694 164.074  1.00  0.00     0.039 C 
ENDROOT
BRANCH   1   2
ATOM      2  C   UNL     1     139.960 145.830 162.697  1.00  0.00     0.032 C 
BRANCH   2   3
ATOM      3  C   UNL     1     140.911 145.420 161.599  1.00  0.00    -0.028 C 
ATOM      4  C   UNL     1     142.331 145.688 159.611  1.00  0.00     0.039 C 
ATOM      5  C   UNL     1     141.372 146.244 160.632  1.00  0.00    -0.080 C 
ATOM      6  C   UNL     1     140.941 147.689 160.537  1.00  0.00     0.039 C 
ENDBRANCH   2   3
ENDBRANCH   1   2
BRANCH   1   7
ATOM      7  C   UNL     1     141.269 146.995 164.491  1.00  0.00    -0.055 C 
ATOM      8  C   UNL     1     140.497 148.000 164.919  1.00  0.00     0.012 C 
BRANCH   7   9
ATOM      9  C   UNL     1     142.736 147.215 164.397  1.00  0.00    -0.005 C 
ATOM     10  C   UNL     1     143.333 147.830 163.377  1.00  0.00     0.009 C 
ENDBRANCH   7   9
ENDBRANCH   1   7
TORSDOF 4
ENDMDL
MODEL 8
REMARK VINA RESULT:    -4.090      6.723      8.565
REMARK INTER + INTRA:          -5.855
REMARK INTER:                  -4.970
REMARK INTRA:                  -0.886
REMARK UNBOUND:                -0.809
REMARK SMILES C=CC(=C)CCC=C(C)C
REMARK SMILES IDX 5 1 6 2 7 3 9 4 8 5 10 6 3 7 4 8 2 9 1 10
REMARK H PARENT
REMARK Flexibility Score: inf
ROOT
ATOM      1  C   UNL     1     145.843 150.400 164.019  1.00  0.00     0.039 C 
ENDROOT
BRANCH   1   2
ATOM      2  C   UNL     1     147.275 149.940 164.315  1.00  0.00     0.032 C 
BRANCH   2   3
ATOM      3  C   UNL     1     147.289 148.541 164.882  1.00  0.00    -0.028 C 
ATOM      4  C   UNL     1     147.599 146.104 164.895  1.00  0.00     0.039 C 
ATOM      5  C   UNL     1     147.618 147.432 164.184  1.00  0.00    -0.080 C 
ATOM      6  C   UNL     1     147.981 147.484 162.718  1.00  0.00     0.039 C 
ENDBRANCH   2   3
ENDBRANCH   1   2
BRANCH   1   7
ATOM      7  C   UNL     1     145.405 149.944 162.644  1.00  0.00    -0.055 C 
ATOM      8  C   UNL     1     145.966 150.500 161.565  1.00  0.00     0.012 C 
BRANCH   7   9
ATOM      9  C   UNL     1     144.336 148.931 162.447  1.00  0.00    -0.005 C 
ATOM     10  C   UNL     1     143.980 148.034 163.367  1.00  0.00     0.009 C 
ENDBRANCH   7   9
ENDBRANCH   1   7
TORSDOF 4
ENDMDL
MODEL 9
REMARK VINA RESULT:    -4.075      5.096      6.515
REMARK INTER + INTRA:          -5.837
REMARK INTER:                  -4.965
REMARK INTRA:                  -0.871
REMARK UNBOUND:                -0.809
REMARK SMILES C=CC(=C)CCC=C(C)C
REMARK SMILES IDX 5 1 6 2 7 3 9 4 8 5 10 6 3 7 4 8 2 9 1 10
REMARK H PARENT
REMARK Flexibility Score: inf
ROOT
ATOM      1  C   UNL     1     150.387 144.939 163.981  1.00  0.00     0.039 C 
ENDROOT
BRANCH   1   2
ATOM      2  C   UNL     1     149.961 143.484 164.211  1.00  0.00     0.032 C 
BRANCH   2   3
ATOM      3  C   UNL     1     148.573 143.413 164.800  1.00  0.00    -0.028 C 
ATOM      4  C   UNL     1     146.141 143.061 164.836  1.00  0.00     0.039 C 
ATOM      5  C   UNL     1     147.457 143.107 164.102  1.00  0.00    -0.080 C 
ATOM      6  C   UNL     1     147.488 142.832 162.617  1.00  0.00     0.039 C 
ENDBRANCH   2   3
ENDBRANCH   1   2
BRANCH   1   7
ATOM      7  C   UNL     1     149.873 145.446 162.651  1.00  0.00    -0.055 C 
ATOM      8  C   UNL     1     150.426 144.988 161.523  1.00  0.00     0.012 C 
BRANCH   7   9
ATOM      9  C   UNL     1     148.805 146.475 162.553  1.00  0.00    -0.005 C 
ATOM     10  C   UNL     1     148.011 146.823 163.565  1.00  0.00     0.009 C 
ENDBRANCH   7   9
ENDBRANCH   1   7
TORSDOF 4
ENDMDL
