MODEL 1
REMARK VINA RESULT:    -5.487      0.000      0.000
REMARK INTER + INTRA:          -7.914
REMARK INTER:                  -7.733
REMARK INTRA:                  -0.181
REMARK UNBOUND:                -0.181
REMARK SMILES C[C@@H](CO)CCC(=O)[C@H](C)[C@@H]1C(=O)C[C@@H]2[C@@H]3CC=C4C[C@@H](O)CC[C@@]4(C)[C@H]3CC[C@]21C
REMARK SMILES IDX 6 1 5 2 2 3 1 4 3 5 4 6 7 8 8 9 9 10 10 11 11 12 12 13 30 14
REMARK SMILES IDX 13 15 14 16 15 17 29 18 31 19 16 20 28 21 27 22 17 23 25 24
REMARK SMILES IDX 18 25 19 26 24 27 26 28 20 29 23 30 21 31 22 32
REMARK H PARENT 4 7 22 33
REMARK Flexibility Score: inf
ROOT
ATOM      1  C   UNL     1      21.946 -15.611  37.950  1.00  0.00     0.076 C 
ENDROOT
BRANCH   1   2
ATOM      2  C   UNL     1      23.358 -15.006  38.031  1.00  0.00     0.013 C 
BRANCH   2   3
ATOM      3  C   UNL     1      24.130 -15.132  36.696  1.00  0.00     0.012 C 
ATOM      4  C   UNL     1      24.790 -16.516  36.581  1.00  0.00     0.010 C 
BRANCH   3   5
ATOM      5  C   UNL     1      23.241 -14.835  35.469  1.00  0.00     0.159 C 
BRANCH   5   6
ATOM      6  O   UNL     1      22.968 -15.991  34.722  1.00  0.00    -0.396 OA
ATOM      7  H   UNL     1      22.290 -16.509  35.229  1.00  0.00     0.210 HD
ENDBRANCH   5   6
ENDBRANCH   3   5
ENDBRANCH   2   3
ENDBRANCH   1   2
BRANCH   1   8
ATOM      8  C   UNL     1      20.921 -14.687  38.557  1.00  0.00     0.136 C 
ATOM      9  O   UNL     1      20.751 -13.579  38.069  1.00  0.00    -0.299 OA
BRANCH   8  10
ATOM     10  C   UNL     1      20.096 -15.125  39.751  1.00  0.00     0.064 C 
ATOM     11  C   UNL     1      21.027 -15.197  40.973  1.00  0.00     0.017 C 
BRANCH  10  12
ATOM     12  C   UNL     1      19.372 -16.487  39.484  1.00  0.00     0.072 C 
ATOM     13  C   UNL     1      18.253 -16.399  38.464  1.00  0.00     0.137 C 
ATOM     14  C   UNL     1      18.630 -17.158  40.696  1.00  0.00    -0.019 C 
ATOM     15  O   UNL     1      18.330 -15.781  37.413  1.00  0.00    -0.299 OA
ATOM     16  C   UNL     1      17.072 -17.251  38.802  1.00  0.00     0.080 C 
ATOM     17  C   UNL     1      17.642 -18.080  39.944  1.00  0.00     0.007 C 
ATOM     18  C   UNL     1      19.541 -18.044  41.618  1.00  0.00     0.008 C 
ATOM     19  C   UNL     1      17.881 -16.067  41.530  1.00  0.00     0.012 C 
ATOM     20  C   UNL     1      16.716 -18.972  40.817  1.00  0.00     0.001 C 
ATOM     21  C   UNL     1      18.905 -19.401  42.047  1.00  0.00     0.005 C 
ATOM     22  C   UNL     1      17.362 -19.300  42.190  1.00  0.00     0.003 C 
ATOM     23  C   UNL     1      15.289 -18.474  41.059  1.00  0.00     0.031 C 
ATOM     24  C   UNL     1      16.636 -20.518  42.873  1.00  0.00    -0.008 C 
ATOM     25  C   UNL     1      14.523 -19.523  41.829  1.00  0.00    -0.027 C 
ATOM     26  C   UNL     1      15.112 -20.445  42.637  1.00  0.00    -0.065 C 
ATOM     27  C   UNL     1      17.142 -21.880  42.309  1.00  0.00     0.014 C 
ATOM     28  C   UNL     1      16.901 -20.446  44.402  1.00  0.00     0.016 C 
ATOM     29  C   UNL     1      14.281 -21.605  43.143  1.00  0.00     0.063 C 
ATOM     30  C   UNL     1      16.314 -23.093  42.788  1.00  0.00     0.033 C 
ATOM     31  C   UNL     1      14.804 -22.918  42.539  1.00  0.00     0.118 C 
BRANCH  31  32
ATOM     32  O   UNL     1      14.535 -22.932  41.160  1.00  0.00    -0.393 OA
ATOM     33  H   UNL     1      14.252 -22.015  40.910  1.00  0.00     0.210 HD
ENDBRANCH  31  32
ENDBRANCH  10  12
ENDBRANCH   8  10
ENDBRANCH   1   8
TORSDOF 8
ENDMDL
MODEL 2
REMARK VINA RESULT:    -5.476      2.835      8.856
REMARK INTER + INTRA:          -7.897
REMARK INTER:                  -7.208
REMARK INTRA:                  -0.689
REMARK UNBOUND:                -0.181
REMARK SMILES C[C@@H](CO)CCC(=O)[C@H](C)[C@@H]1C(=O)C[C@@H]2[C@@H]3CC=C4C[C@@H](O)CC[C@@]4(C)[C@H]3CC[C@]21C
REMARK SMILES IDX 6 1 5 2 2 3 1 4 3 5 4 6 7 8 8 9 9 10 10 11 11 12 12 13 30 14
REMARK SMILES IDX 13 15 14 16 15 17 29 18 31 19 16 20 28 21 27 22 17 23 25 24
REMARK SMILES IDX 18 25 19 26 24 27 26 28 20 29 23 30 21 31 22 32
REMARK H PARENT 4 7 22 33
REMARK Flexibility Score: inf
ROOT
ATOM      1  C   UNL     1      13.985 -22.419  41.190  1.00  0.00     0.076 C 
ENDROOT
BRANCH   1   2
ATOM      2  C   UNL     1      12.452 -22.374  41.307  1.00  0.00     0.013 C 
BRANCH   2   3
ATOM      3  C   UNL     1      11.818 -21.345  40.340  1.00  0.00     0.012 C 
ATOM      4  C   UNL     1      10.850 -22.040  39.369  1.00  0.00     0.010 C 
BRANCH   3   5
ATOM      5  C   UNL     1      11.123 -20.184  41.085  1.00  0.00     0.159 C 
BRANCH   5   6
ATOM      6  O   UNL     1      12.042 -19.241  41.568  1.00  0.00    -0.396 OA
ATOM      7  H   UNL     1      12.892 -19.387  41.076  1.00  0.00     0.210 HD
ENDBRANCH   5   6
ENDBRANCH   3   5
ENDBRANCH   2   3
ENDBRANCH   1   2
BRANCH   1   8
ATOM      8  C   UNL     1      14.635 -21.482  42.176  1.00  0.00     0.136 C 
ATOM      9  O   UNL     1      13.969 -21.020  43.092  1.00  0.00    -0.299 OA
BRANCH   8  10
ATOM     10  C   UNL     1      16.102 -21.122  42.050  1.00  0.00     0.064 C 
ATOM     11  C   UNL     1      16.861 -21.804  43.201  1.00  0.00     0.017 C 
BRANCH  10  12
ATOM     12  C   UNL     1      16.318 -19.572  42.043  1.00  0.00     0.072 C 
ATOM     13  C   UNL     1      15.750 -18.878  40.819  1.00  0.00     0.137 C 
ATOM     14  C   UNL     1      17.800 -19.051  42.031  1.00  0.00    -0.019 C 
ATOM     15  O   UNL     1      14.656 -19.125  40.337  1.00  0.00    -0.299 OA
ATOM     16  C   UNL     1      16.605 -17.757  40.321  1.00  0.00     0.080 C 
ATOM     17  C   UNL     1      17.592 -17.624  41.473  1.00  0.00     0.007 C 
ATOM     18  C   UNL     1      18.473 -18.944  43.445  1.00  0.00     0.008 C 
ATOM     19  C   UNL     1      18.663 -19.928  41.064  1.00  0.00     0.012 C 
ATOM     20  C   UNL     1      18.859 -16.735  41.334  1.00  0.00     0.001 C 
ATOM     21  C   UNL     1      19.301 -17.643  43.672  1.00  0.00     0.005 C 
ATOM     22  C   UNL     1      19.954 -17.133  42.360  1.00  0.00     0.003 C 
ATOM     23  C   UNL     1      19.502 -16.644  39.948  1.00  0.00     0.031 C 
ATOM     24  C   UNL     1      21.028 -15.990  42.503  1.00  0.00    -0.008 C 
ATOM     25  C   UNL     1      20.643 -15.656  39.996  1.00  0.00    -0.027 C 
ATOM     26  C   UNL     1      21.328 -15.350  41.131  1.00  0.00    -0.065 C 
ATOM     27  C   UNL     1      20.541 -14.861  43.460  1.00  0.00     0.014 C 
ATOM     28  C   UNL     1      22.338 -16.620  43.050  1.00  0.00     0.016 C 
ATOM     29  C   UNL     1      22.264 -14.161  41.116  1.00  0.00     0.063 C 
ATOM     30  C   UNL     1      21.460 -13.619  43.468  1.00  0.00     0.033 C 
ATOM     31  C   UNL     1      21.727 -13.068  42.055  1.00  0.00     0.118 C 
BRANCH  31  32
ATOM     32  O   UNL     1      20.548 -12.531  41.511  1.00  0.00    -0.393 OA
ATOM     33  H   UNL     1      20.570 -12.710  40.537  1.00  0.00     0.210 HD
ENDBRANCH  31  32
ENDBRANCH  10  12
ENDBRANCH   8  10
ENDBRANCH   1   8
TORSDOF 8
ENDMDL
MODEL 3
REMARK VINA RESULT:    -5.437      3.197      4.476
REMARK INTER + INTRA:          -7.843
REMARK INTER:                  -7.154
REMARK INTRA:                  -0.688
REMARK UNBOUND:                -0.181
REMARK SMILES C[C@@H](CO)CCC(=O)[C@H](C)[C@@H]1C(=O)C[C@@H]2[C@@H]3CC=C4C[C@@H](O)CC[C@@]4(C)[C@H]3CC[C@]21C
REMARK SMILES IDX 6 1 5 2 2 3 1 4 3 5 4 6 7 8 8 9 9 10 10 11 11 12 12 13 30 14
REMARK SMILES IDX 13 15 14 16 15 17 29 18 31 19 16 20 28 21 27 22 17 23 25 24
REMARK SMILES IDX 18 25 19 26 24 27 26 28 20 29 23 30 21 31 22 32
REMARK H PARENT 4 7 22 33
REMARK Flexibility Score: inf
ROOT
ATOM      1  C   UNL     1      23.030 -13.176  44.332  1.00  0.00     0.076 C 
ENDROOT
BRANCH   1   2
ATOM      2  C   UNL     1      22.233 -12.813  43.068  1.00  0.00     0.013 C 
BRANCH   2   3
ATOM      3  C   UNL     1      23.113 -12.816  41.795  1.00  0.00     0.012 C 
ATOM      4  C   UNL     1      24.492 -13.427  42.092  1.00  0.00     0.010 C 
BRANCH   3   5
ATOM      5  C   UNL     1      22.432 -13.529  40.607  1.00  0.00     0.159 C 
BRANCH   5   6
ATOM      6  O   UNL     1      23.020 -14.771  40.328  1.00  0.00    -0.396 OA
ATOM      7  H   UNL     1      23.510 -15.049  41.147  1.00  0.00     0.210 HD
ENDBRANCH   5   6
ENDBRANCH   3   5
ENDBRANCH   2   3
ENDBRANCH   1   2
BRANCH   1   8
ATOM      8  C   UNL     1      22.444 -14.384  45.017  1.00  0.00     0.136 C 
ATOM      9  O   UNL     1      23.154 -15.061  45.748  1.00  0.00    -0.299 OA
BRANCH   8  10
ATOM     10  C   UNL     1      20.987 -14.756  44.819  1.00  0.00     0.064 C 
ATOM     11  C   UNL     1      20.225 -14.394  46.104  1.00  0.00     0.017 C 
BRANCH  10  12
ATOM     12  C   UNL     1      20.823 -16.267  44.445  1.00  0.00     0.072 C 
ATOM     13  C   UNL     1      21.478 -16.650  43.131  1.00  0.00     0.137 C 
ATOM     14  C   UNL     1      19.361 -16.800  44.226  1.00  0.00    -0.019 C 
ATOM     15  O   UNL     1      22.587 -16.277  42.784  1.00  0.00    -0.299 OA
ATOM     16  C   UNL     1      20.687 -17.642  42.340  1.00  0.00     0.080 C 
ATOM     17  C   UNL     1      19.645 -18.056  43.370  1.00  0.00     0.007 C 
ATOM     18  C   UNL     1      18.618 -17.242  45.536  1.00  0.00     0.008 C 
ATOM     19  C   UNL     1      18.523 -15.741  43.436  1.00  0.00     0.012 C 
ATOM     20  C   UNL     1      18.417 -18.913  42.957  1.00  0.00     0.001 C 
ATOM     21  C   UNL     1      17.822 -18.577  45.410  1.00  0.00     0.005 C 
ATOM     22  C   UNL     1      17.256 -18.783  43.979  1.00  0.00     0.003 C 
ATOM     23  C   UNL     1      17.852 -18.696  41.552  1.00  0.00     0.031 C 
ATOM     24  C   UNL     1      16.215 -19.949  43.794  1.00  0.00    -0.008 C 
ATOM     25  C   UNL     1      16.743 -19.690  41.304  1.00  0.00    -0.027 C 
ATOM     26  C   UNL     1      16.008 -20.262  42.296  1.00  0.00    -0.065 C 
ATOM     27  C   UNL     1      16.686 -21.259  44.495  1.00  0.00     0.014 C 
ATOM     28  C   UNL     1      14.857 -19.488  44.392  1.00  0.00     0.016 C 
ATOM     29  C   UNL     1      15.114 -21.435  41.955  1.00  0.00     0.063 C 
ATOM     30  C   UNL     1      15.809 -22.487  44.164  1.00  0.00     0.033 C 
ATOM     31  C   UNL     1      15.635 -22.703  42.649  1.00  0.00     0.118 C 
BRANCH  31  32
ATOM     32  O   UNL     1      16.859 -23.078  42.068  1.00  0.00    -0.393 OA
ATOM     33  H   UNL     1      17.510 -22.359  42.275  1.00  0.00     0.210 HD
ENDBRANCH  31  32
ENDBRANCH  10  12
ENDBRANCH   8  10
ENDBRANCH   1   8
TORSDOF 8
ENDMDL
MODEL 4
REMARK VINA RESULT:    -5.434      3.316      5.311
REMARK INTER + INTRA:          -7.839
REMARK INTER:                  -7.937
REMARK INTRA:                   0.098
REMARK UNBOUND:                -0.181
REMARK SMILES C[C@@H](CO)CCC(=O)[C@H](C)[C@@H]1C(=O)C[C@@H]2[C@@H]3CC=C4C[C@@H](O)CC[C@@]4(C)[C@H]3CC[C@]21C
REMARK SMILES IDX 6 1 5 2 2 3 1 4 3 5 4 6 7 8 8 9 9 10 10 11 11 12 12 13 30 14
REMARK SMILES IDX 13 15 14 16 15 17 29 18 31 19 16 20 28 21 27 22 17 23 25 24
REMARK SMILES IDX 18 25 19 26 24 27 26 28 20 29 23 30 21 31 22 32
REMARK H PARENT 4 7 22 33
REMARK Flexibility Score: inf
ROOT
ATOM      1  C   UNL     1      21.763 -16.627  42.992  1.00  0.00     0.076 C 
ENDROOT
BRANCH   1   2
ATOM      2  C   UNL     1      22.009 -15.742  44.225  1.00  0.00     0.013 C 
BRANCH   2   3
ATOM      3  C   UNL     1      23.467 -15.225  44.297  1.00  0.00     0.012 C 
ATOM      4  C   UNL     1      23.684 -14.079  43.296  1.00  0.00     0.010 C 
BRANCH   3   5
ATOM      5  C   UNL     1      23.874 -14.802  45.725  1.00  0.00     0.159 C 
BRANCH   5   6
ATOM      6  O   UNL     1      24.733 -13.694  45.723  1.00  0.00    -0.396 OA
ATOM      7  H   UNL     1      25.388 -13.835  46.456  1.00  0.00     0.210 HD
ENDBRANCH   5   6
ENDBRANCH   3   5
ENDBRANCH   2   3
ENDBRANCH   1   2
BRANCH   1   8
ATOM      8  C   UNL     1      20.435 -16.312  42.352  1.00  0.00     0.136 C 
ATOM      9  O   UNL     1      19.963 -15.190  42.470  1.00  0.00    -0.299 OA
BRANCH   8  10
ATOM     10  C   UNL     1      19.690 -17.367  41.555  1.00  0.00     0.064 C 
ATOM     11  C   UNL     1      19.489 -16.831  40.128  1.00  0.00     0.017 C 
BRANCH  10  12
ATOM     12  C   UNL     1      18.334 -17.752  42.234  1.00  0.00     0.072 C 
ATOM     13  C   UNL     1      18.489 -18.616  43.471  1.00  0.00     0.137 C 
ATOM     14  C   UNL     1      17.322 -18.607  41.388  1.00  0.00    -0.019 C 
ATOM     15  O   UNL     1      19.324 -18.424  44.341  1.00  0.00    -0.299 OA
ATOM     16  C   UNL     1      17.433 -19.666  43.599  1.00  0.00     0.080 C 
ATOM     17  C   UNL     1      16.460 -19.220  42.516  1.00  0.00     0.007 C 
ATOM     18  C   UNL     1      16.390 -17.775  40.438  1.00  0.00     0.008 C 
ATOM     19  C   UNL     1      18.096 -19.708  40.589  1.00  0.00     0.012 C 
ATOM     20  C   UNL     1      15.284 -20.136  42.078  1.00  0.00     0.001 C 
ATOM     21  C   UNL     1      14.898 -18.231  40.432  1.00  0.00     0.005 C 
ATOM     22  C   UNL     1      14.757 -19.759  40.667  1.00  0.00     0.003 C 
ATOM     23  C   UNL     1      15.521 -21.647  42.119  1.00  0.00     0.031 C 
ATOM     24  C   UNL     1      13.334 -20.383  40.417  1.00  0.00    -0.008 C 
ATOM     25  C   UNL     1      14.236 -22.359  41.766  1.00  0.00    -0.027 C 
ATOM     26  C   UNL     1      13.249 -21.804  41.013  1.00  0.00    -0.065 C 
ATOM     27  C   UNL     1      12.207 -19.524  41.068  1.00  0.00     0.014 C 
ATOM     28  C   UNL     1      13.108 -20.478  38.883  1.00  0.00     0.016 C 
ATOM     29  C   UNL     1      11.906 -22.499  40.948  1.00  0.00     0.063 C 
ATOM     30  C   UNL     1      10.819 -20.201  41.037  1.00  0.00     0.033 C 
ATOM     31  C   UNL     1      10.838 -21.625  41.624  1.00  0.00     0.118 C 
BRANCH  31  32
ATOM     32  O   UNL     1      11.086 -21.577  43.006  1.00  0.00    -0.393 OA
ATOM     33  H   UNL     1      11.122 -22.515  43.327  1.00  0.00     0.210 HD
ENDBRANCH  31  32
ENDBRANCH  10  12
ENDBRANCH   8  10
ENDBRANCH   1   8
TORSDOF 8
ENDMDL
MODEL 5
REMARK VINA RESULT:    -5.395     12.460     15.412
REMARK INTER + INTRA:          -7.784
REMARK INTER:                  -7.639
REMARK INTRA:                  -0.144
REMARK UNBOUND:                -0.181
REMARK SMILES C[C@@H](CO)CCC(=O)[C@H](C)[C@@H]1C(=O)C[C@@H]2[C@@H]3CC=C4C[C@@H](O)CC[C@@]4(C)[C@H]3CC[C@]21C
REMARK SMILES IDX 6 1 5 2 2 3 1 4 3 5 4 6 7 8 8 9 9 10 10 11 11 12 12 13 30 14
REMARK SMILES IDX 13 15 14 16 15 17 29 18 31 19 16 20 28 21 27 22 17 23 25 24
REMARK SMILES IDX 18 25 19 26 24 27 26 28 20 29 23 30 21 31 22 32
REMARK H PARENT 4 7 22 33
REMARK Flexibility Score: inf
ROOT
ATOM      1  C   UNL     1       7.364  -9.609  35.742  1.00  0.00     0.076 C 
ENDROOT
BRANCH   1   2
ATOM      2  C   UNL     1       6.037 -10.066  35.114  1.00  0.00     0.013 C 
BRANCH   2   3
ATOM      3  C   UNL     1       5.838  -9.506  33.685  1.00  0.00     0.012 C 
ATOM      4  C   UNL     1       4.960  -8.245  33.715  1.00  0.00     0.010 C 
BRANCH   3   5
ATOM      5  C   UNL     1       7.177  -9.236  32.964  1.00  0.00     0.159 C 
BRANCH   5   6
ATOM      6  O   UNL     1       7.142  -8.055  32.209  1.00  0.00    -0.396 OA
ATOM      7  H   UNL     1       6.367  -8.130  31.592  1.00  0.00     0.210 HD
ENDBRANCH   5   6
ENDBRANCH   3   5
ENDBRANCH   2   3
ENDBRANCH   1   2
BRANCH   1   8
ATOM      8  C   UNL     1       7.978 -10.704  36.576  1.00  0.00     0.136 C 
ATOM      9  O   UNL     1       8.363 -11.729  36.031  1.00  0.00    -0.299 OA
BRANCH   8  10
ATOM     10  C   UNL     1       8.134 -10.539  38.076  1.00  0.00     0.064 C 
ATOM     11  C   UNL     1       6.736 -10.618  38.712  1.00  0.00     0.017 C 
BRANCH  10  12
ATOM     12  C   UNL     1       8.868  -9.205  38.436  1.00  0.00     0.072 C 
ATOM     13  C   UNL     1      10.295  -9.130  37.924  1.00  0.00     0.137 C 
ATOM     14  C   UNL     1       9.073  -8.884  39.961  1.00  0.00    -0.019 C 
ATOM     15  O   UNL     1      10.640  -9.480  36.807  1.00  0.00    -0.299 OA
ATOM     16  C   UNL     1      11.233  -8.461  38.876  1.00  0.00     0.080 C 
ATOM     17  C   UNL     1      10.249  -7.882  39.882  1.00  0.00     0.007 C 
ATOM     18  C   UNL     1       7.856  -8.177  40.655  1.00  0.00     0.008 C 
ATOM     19  C   UNL     1       9.476 -10.187  40.728  1.00  0.00     0.012 C 
ATOM     20  C   UNL     1      10.747  -7.282  41.226  1.00  0.00     0.001 C 
ATOM     21  C   UNL     1       8.244  -7.002  41.604  1.00  0.00     0.005 C 
ATOM     22  C   UNL     1       9.617  -7.238  42.289  1.00  0.00     0.003 C 
ATOM     23  C   UNL     1      11.985  -7.917  41.861  1.00  0.00     0.031 C 
ATOM     24  C   UNL     1       9.994  -6.263  43.466  1.00  0.00    -0.008 C 
ATOM     25  C   UNL     1      12.371  -7.129  43.090  1.00  0.00    -0.027 C 
ATOM     26  C   UNL     1      11.494  -6.382  43.812  1.00  0.00    -0.065 C 
ATOM     27  C   UNL     1       9.706  -4.776  43.097  1.00  0.00     0.014 C 
ATOM     28  C   UNL     1       9.167  -6.669  44.717  1.00  0.00     0.016 C 
ATOM     29  C   UNL     1      12.038  -5.430  44.855  1.00  0.00     0.063 C 
ATOM     30  C   UNL     1      10.256  -3.766  44.129  1.00  0.00     0.033 C 
ATOM     31  C   UNL     1      11.750  -3.980  44.433  1.00  0.00     0.118 C 
BRANCH  31  32
ATOM     32  O   UNL     1      12.525  -3.665  43.304  1.00  0.00    -0.393 OA
ATOM     33  H   UNL     1      12.732  -2.697  43.356  1.00  0.00     0.210 HD
ENDBRANCH  31  32
ENDBRANCH  10  12
ENDBRANCH   8  10
ENDBRANCH   1   8
TORSDOF 8
ENDMDL
MODEL 6
REMARK VINA RESULT:    -5.288      3.035      4.737
REMARK INTER + INTRA:          -7.633
REMARK INTER:                  -6.678
REMARK INTRA:                  -0.955
REMARK UNBOUND:                -0.181
REMARK SMILES C[C@@H](CO)CCC(=O)[C@H](C)[C@@H]1C(=O)C[C@@H]2[C@@H]3CC=C4C[C@@H](O)CC[C@@]4(C)[C@H]3CC[C@]21C
REMARK SMILES IDX 6 1 5 2 2 3 1 4 3 5 4 6 7 8 8 9 9 10 10 11 11 12 12 13 30 14
REMARK SMILES IDX 13 15 14 16 15 17 29 18 31 19 16 20 28 21 27 22 17 23 25 24
REMARK SMILES IDX 18 25 19 26 24 27 26 28 20 29 23 30 21 31 22 32
REMARK H PARENT 4 7 22 33
REMARK Flexibility Score: inf
ROOT
ATOM      1  C   UNL     1      21.310 -13.538  42.733  1.00  0.00     0.076 C 
ENDROOT
BRANCH   1   2
ATOM      2  C   UNL     1      22.499 -13.183  43.641  1.00  0.00     0.013 C 
BRANCH   2   3
ATOM      3  C   UNL     1      22.387 -13.834  45.041  1.00  0.00     0.012 C 
ATOM      4  C   UNL     1      21.004 -14.477  45.229  1.00  0.00     0.010 C 
BRANCH   3   5
ATOM      5  C   UNL     1      23.516 -14.853  45.311  1.00  0.00     0.159 C 
BRANCH   5   6
ATOM      6  O   UNL     1      23.998 -15.434  44.129  1.00  0.00    -0.396 OA
ATOM      7  H   UNL     1      23.535 -16.306  44.026  1.00  0.00     0.210 HD
ENDBRANCH   5   6
ENDBRANCH   3   5
ENDBRANCH   2   3
ENDBRANCH   1   2
BRANCH   1   8
ATOM      8  C   UNL     1      21.717 -14.510  41.656  1.00  0.00     0.136 C 
ATOM      9  O   UNL     1      22.891 -14.572  41.317  1.00  0.00    -0.299 OA
BRANCH   8  10
ATOM     10  C   UNL     1      20.691 -15.417  41.003  1.00  0.00     0.064 C 
ATOM     11  C   UNL     1      19.704 -14.533  40.222  1.00  0.00     0.017 C 
BRANCH  10  12
ATOM     12  C   UNL     1      19.965 -16.318  42.056  1.00  0.00     0.072 C 
ATOM     13  C   UNL     1      20.871 -17.337  42.722  1.00  0.00     0.137 C 
ATOM     14  C   UNL     1      18.801 -17.237  41.536  1.00  0.00    -0.019 C 
ATOM     15  O   UNL     1      21.997 -17.092  43.124  1.00  0.00    -0.299 OA
ATOM     16  C   UNL     1      20.207 -18.654  42.964  1.00  0.00     0.080 C 
ATOM     17  C   UNL     1      18.759 -18.299  42.659  1.00  0.00     0.007 C 
ATOM     18  C   UNL     1      17.398 -16.539  41.451  1.00  0.00     0.008 C 
ATOM     19  C   UNL     1      19.197 -17.868  40.160  1.00  0.00     0.012 C 
ATOM     20  C   UNL     1      17.679 -19.410  42.532  1.00  0.00     0.001 C 
ATOM     21  C   UNL     1      16.211 -17.404  41.976  1.00  0.00     0.005 C 
ATOM     22  C   UNL     1      16.443 -18.919  41.731  1.00  0.00     0.003 C 
ATOM     23  C   UNL     1      18.124 -20.757  41.960  1.00  0.00     0.031 C 
ATOM     24  C   UNL     1      15.210 -19.869  41.968  1.00  0.00    -0.008 C 
ATOM     25  C   UNL     1      16.968 -21.727  42.020  1.00  0.00    -0.027 C 
ATOM     26  C   UNL     1      15.663 -21.344  42.030  1.00  0.00    -0.065 C 
ATOM     27  C   UNL     1      14.477 -19.538  43.303  1.00  0.00     0.014 C 
ATOM     28  C   UNL     1      14.233 -19.704  40.772  1.00  0.00     0.016 C 
ATOM     29  C   UNL     1      14.606 -22.375  42.361  1.00  0.00     0.063 C 
ATOM     30  C   UNL     1      13.397 -20.573  43.688  1.00  0.00     0.033 C 
ATOM     31  C   UNL     1      13.932 -22.017  43.694  1.00  0.00     0.118 C 
BRANCH  31  32
ATOM     32  O   UNL     1      14.856 -22.188  44.739  1.00  0.00    -0.393 OA
ATOM     33  H   UNL     1      14.382 -22.660  45.471  1.00  0.00     0.210 HD
ENDBRANCH  31  32
ENDBRANCH  10  12
ENDBRANCH   8  10
ENDBRANCH   1   8
TORSDOF 8
ENDMDL
MODEL 7
REMARK VINA RESULT:    -5.274      7.080     10.904
REMARK INTER + INTRA:          -7.613
REMARK INTER:                  -6.957
REMARK INTRA:                  -0.656
REMARK UNBOUND:                -0.181
REMARK SMILES C[C@@H](CO)CCC(=O)[C@H](C)[C@@H]1C(=O)C[C@@H]2[C@@H]3CC=C4C[C@@H](O)CC[C@@]4(C)[C@H]3CC[C@]21C
REMARK SMILES IDX 6 1 5 2 2 3 1 4 3 5 4 6 7 8 8 9 9 10 10 11 11 12 12 13 30 14
REMARK SMILES IDX 13 15 14 16 15 17 29 18 31 19 16 20 28 21 27 22 17 23 25 24
REMARK SMILES IDX 18 25 19 26 24 27 26 28 20 29 23 30 21 31 22 32
REMARK H PARENT 4 7 22 33
REMARK Flexibility Score: inf
ROOT
ATOM      1  C   UNL     1      24.058 -16.022  37.120  1.00  0.00     0.076 C 
ENDROOT
BRANCH   1   2
ATOM      2  C   UNL     1      24.376 -14.918  38.142  1.00  0.00     0.013 C 
BRANCH   2   3
ATOM      3  C   UNL     1      23.099 -14.337  38.798  1.00  0.00     0.012 C 
ATOM      4  C   UNL     1      23.184 -14.440  40.329  1.00  0.00     0.010 C 
BRANCH   3   5
ATOM      5  C   UNL     1      22.813 -12.887  38.352  1.00  0.00     0.159 C 
BRANCH   5   6
ATOM      6  O   UNL     1      22.375 -12.820  37.021  1.00  0.00    -0.396 OA
ATOM      7  H   UNL     1      22.735 -11.977  36.640  1.00  0.00     0.210 HD
ENDBRANCH   5   6
ENDBRANCH   3   5
ENDBRANCH   2   3
ENDBRANCH   1   2
BRANCH   1   8
ATOM      8  C   UNL     1      24.099 -15.489  35.711  1.00  0.00     0.136 C 
ATOM      9  O   UNL     1      24.512 -14.356  35.511  1.00  0.00    -0.299 OA
BRANCH   8  10
ATOM     10  C   UNL     1      23.649 -16.348  34.545  1.00  0.00     0.064 C 
ATOM     11  C   UNL     1      24.894 -16.738  33.731  1.00  0.00     0.017 C 
BRANCH  10  12
ATOM     12  C   UNL     1      22.580 -15.616  33.667  1.00  0.00     0.072 C 
ATOM     13  C   UNL     1      21.263 -15.368  34.380  1.00  0.00     0.137 C 
ATOM     14  C   UNL     1      22.091 -16.349  32.366  1.00  0.00    -0.019 C 
ATOM     15  O   UNL     1      21.172 -14.966  35.529  1.00  0.00    -0.299 OA
ATOM     16  C   UNL     1      20.069 -15.541  33.499  1.00  0.00     0.080 C 
ATOM     17  C   UNL     1      20.737 -15.638  32.135  1.00  0.00     0.007 C 
ATOM     18  C   UNL     1      22.998 -16.128  31.104  1.00  0.00     0.008 C 
ATOM     19  C   UNL     1      21.898 -17.875  32.658  1.00  0.00     0.012 C 
ATOM     20  C   UNL     1      19.926 -16.069  30.881  1.00  0.00     0.001 C 
ATOM     21  C   UNL     1      22.215 -15.858  29.783  1.00  0.00     0.005 C 
ATOM     22  C   UNL     1      20.852 -16.600  29.753  1.00  0.00     0.003 C 
ATOM     23  C   UNL     1      18.793 -17.075  31.092  1.00  0.00     0.031 C 
ATOM     24  C   UNL     1      20.093 -16.627  28.374  1.00  0.00    -0.008 C 
ATOM     25  C   UNL     1      18.062 -17.279  29.786  1.00  0.00    -0.027 C 
ATOM     26  C   UNL     1      18.629 -17.076  28.566  1.00  0.00    -0.065 C 
ATOM     27  C   UNL     1      20.076 -15.221  27.699  1.00  0.00     0.014 C 
ATOM     28  C   UNL     1      20.805 -17.650  27.448  1.00  0.00     0.016 C 
ATOM     29  C   UNL     1      17.735 -17.051  27.345  1.00  0.00     0.063 C 
ATOM     30  C   UNL     1      19.164 -15.145  26.454  1.00  0.00     0.033 C 
ATOM     31  C   UNL     1      17.734 -15.641  26.734  1.00  0.00     0.118 C 
BRANCH  31  32
ATOM     32  O   UNL     1      17.075 -14.759  27.607  1.00  0.00    -0.393 OA
ATOM     33  H   UNL     1      16.886 -13.932  27.095  1.00  0.00     0.210 HD
ENDBRANCH  31  32
ENDBRANCH  10  12
ENDBRANCH   8  10
ENDBRANCH   1   8
TORSDOF 8
ENDMDL
MODEL 8
REMARK VINA RESULT:    -5.177      3.034      4.238
REMARK INTER + INTRA:          -7.476
REMARK INTER:                  -7.530
REMARK INTRA:                   0.054
REMARK UNBOUND:                -0.181
REMARK SMILES C[C@@H](CO)CCC(=O)[C@H](C)[C@@H]1C(=O)C[C@@H]2[C@@H]3CC=C4C[C@@H](O)CC[C@@]4(C)[C@H]3CC[C@]21C
REMARK SMILES IDX 6 1 5 2 2 3 1 4 3 5 4 6 7 8 8 9 9 10 10 11 11 12 12 13 30 14
REMARK SMILES IDX 13 15 14 16 15 17 29 18 31 19 16 20 28 21 27 22 17 23 25 24
REMARK SMILES IDX 18 25 19 26 24 27 26 28 20 29 23 30 21 31 22 32
REMARK H PARENT 4 7 22 33
REMARK Flexibility Score: inf
ROOT
ATOM      1  C   UNL     1      22.457 -15.102  41.373  1.00  0.00     0.076 C 
ENDROOT
BRANCH   1   2
ATOM      2  C   UNL     1      22.752 -13.906  42.294  1.00  0.00     0.013 C 
BRANCH   2   3
ATOM      3  C   UNL     1      23.966 -14.162  43.220  1.00  0.00     0.012 C 
ATOM      4  C   UNL     1      24.582 -12.832  43.684  1.00  0.00     0.010 C 
BRANCH   3   5
ATOM      5  C   UNL     1      23.612 -15.062  44.423  1.00  0.00     0.159 C 
BRANCH   5   6
ATOM      6  O   UNL     1      22.417 -14.669  45.044  1.00  0.00    -0.396 OA
ATOM      7  H   UNL     1      21.701 -15.259  44.691  1.00  0.00     0.210 HD
ENDBRANCH   5   6
ENDBRANCH   3   5
ENDBRANCH   2   3
ENDBRANCH   1   2
BRANCH   1   8
ATOM      8  C   UNL     1      21.000 -15.487  41.431  1.00  0.00     0.136 C 
ATOM      9  O   UNL     1      20.247 -15.119  40.540  1.00  0.00    -0.299 OA
BRANCH   8  10
ATOM     10  C   UNL     1      20.469 -16.336  42.570  1.00  0.00     0.064 C 
ATOM     11  C   UNL     1      21.439 -17.510  42.782  1.00  0.00     0.017 C 
BRANCH  10  12
ATOM     12  C   UNL     1      19.008 -16.824  42.293  1.00  0.00     0.072 C 
ATOM     13  C   UNL     1      17.937 -15.926  42.881  1.00  0.00     0.137 C 
ATOM     14  C   UNL     1      18.593 -18.222  42.880  1.00  0.00    -0.019 C 
ATOM     15  O   UNL     1      17.960 -14.707  42.828  1.00  0.00    -0.299 OA
ATOM     16  C   UNL     1      16.767 -16.677  43.430  1.00  0.00     0.080 C 
ATOM     17  C   UNL     1      17.054 -18.074  42.896  1.00  0.00     0.007 C 
ATOM     18  C   UNL     1      18.970 -19.453  41.982  1.00  0.00     0.008 C 
ATOM     19  C   UNL     1      19.172 -18.384  44.325  1.00  0.00     0.012 C 
ATOM     20  C   UNL     1      16.238 -19.299  43.396  1.00  0.00     0.001 C 
ATOM     21  C   UNL     1      17.853 -20.534  41.861  1.00  0.00     0.005 C 
ATOM     22  C   UNL     1      16.997 -20.631  43.152  1.00  0.00     0.003 C 
ATOM     23  C   UNL     1      15.756 -19.274  44.848  1.00  0.00     0.031 C 
ATOM     24  C   UNL     1      16.017 -21.859  43.259  1.00  0.00    -0.008 C 
ATOM     25  C   UNL     1      14.898 -20.489  45.105  1.00  0.00    -0.027 C 
ATOM     26  C   UNL     1      14.999 -21.647  44.399  1.00  0.00    -0.065 C 
ATOM     27  C   UNL     1      15.217 -22.072  41.938  1.00  0.00     0.014 C 
ATOM     28  C   UNL     1      16.859 -23.125  43.578  1.00  0.00     0.016 C 
ATOM     29  C   UNL     1      13.919 -22.694  44.561  1.00  0.00     0.063 C 
ATOM     30  C   UNL     1      14.092 -23.125  42.060  1.00  0.00     0.033 C 
ATOM     31  C   UNL     1      13.145 -22.848  43.243  1.00  0.00     0.118 C 
BRANCH  31  32
ATOM     32  O   UNL     1      12.400 -21.681  43.005  1.00  0.00    -0.393 OA
ATOM     33  H   UNL     1      12.891 -21.158  42.320  1.00  0.00     0.210 HD
ENDBRANCH  31  32
ENDBRANCH  10  12
ENDBRANCH   8  10
ENDBRANCH   1   8
TORSDOF 8
ENDMDL
MODEL 9
REMARK VINA RESULT:    -5.176     12.509     13.912
REMARK INTER + INTRA:          -7.475
REMARK INTER:                  -7.044
REMARK INTRA:                  -0.431
REMARK UNBOUND:                -0.181
REMARK SMILES C[C@@H](CO)CCC(=O)[C@H](C)[C@@H]1C(=O)C[C@@H]2[C@@H]3CC=C4C[C@@H](O)CC[C@@]4(C)[C@H]3CC[C@]21C
REMARK SMILES IDX 6 1 5 2 2 3 1 4 3 5 4 6 7 8 8 9 9 10 10 11 11 12 12 13 30 14
REMARK SMILES IDX 13 15 14 16 15 17 29 18 31 19 16 20 28 21 27 22 17 23 25 24
REMARK SMILES IDX 18 25 19 26 24 27 26 28 20 29 23 30 21 31 22 32
REMARK H PARENT 4 7 22 33
REMARK Flexibility Score: inf
ROOT
ATOM      1  C   UNL     1      13.010  -4.037  43.539  1.00  0.00     0.076 C 
ENDROOT
BRANCH   1   2
ATOM      2  C   UNL     1      14.288  -4.007  44.392  1.00  0.00     0.013 C 
BRANCH   2   3
ATOM      3  C   UNL     1      15.559  -4.303  43.559  1.00  0.00     0.012 C 
ATOM      4  C   UNL     1      16.761  -3.516  44.107  1.00  0.00     0.010 C 
BRANCH   3   5
ATOM      5  C   UNL     1      15.873  -5.813  43.477  1.00  0.00     0.159 C 
BRANCH   5   6
ATOM      6  O   UNL     1      15.464  -6.502  44.628  1.00  0.00    -0.396 OA
ATOM      7  H   UNL     1      16.195  -6.411  45.294  1.00  0.00     0.210 HD
ENDBRANCH   5   6
ENDBRANCH   3   5
ENDBRANCH   2   3
ENDBRANCH   1   2
BRANCH   1   8
ATOM      8  C   UNL     1      12.153  -5.229  43.882  1.00  0.00     0.136 C 
ATOM      9  O   UNL     1      12.498  -5.974  44.789  1.00  0.00    -0.299 OA
BRANCH   8  10
ATOM     10  C   UNL     1      10.868  -5.502  43.124  1.00  0.00     0.064 C 
ATOM     11  C   UNL     1       9.688  -5.154  44.047  1.00  0.00     0.017 C 
BRANCH  10  12
ATOM     12  C   UNL     1      10.799  -6.981  42.618  1.00  0.00     0.072 C 
ATOM     13  C   UNL     1      11.855  -7.327  41.585  1.00  0.00     0.137 C 
ATOM     14  C   UNL     1       9.488  -7.429  41.877  1.00  0.00    -0.019 C 
ATOM     15  O   UNL     1      13.027  -6.992  41.665  1.00  0.00    -0.299 OA
ATOM     16  C   UNL     1      11.358  -8.236  40.508  1.00  0.00     0.080 C 
ATOM     17  C   UNL     1      10.013  -8.651  41.089  1.00  0.00     0.007 C 
ATOM     18  C   UNL     1       8.326  -7.901  42.821  1.00  0.00     0.008 C 
ATOM     19  C   UNL     1       9.004  -6.289  40.920  1.00  0.00     0.012 C 
ATOM     20  C   UNL     1       8.979  -9.424  40.224  1.00  0.00     0.001 C 
ATOM     21  C   UNL     1       7.583  -9.186  42.342  1.00  0.00     0.005 C 
ATOM     22  C   UNL     1       7.541  -9.290  40.794  1.00  0.00     0.003 C 
ATOM     23  C   UNL     1       8.939  -9.105  38.728  1.00  0.00     0.031 C 
ATOM     24  C   UNL     1       6.594 -10.391  40.186  1.00  0.00    -0.008 C 
ATOM     25  C   UNL     1       7.955 -10.029  38.051  1.00  0.00    -0.027 C 
ATOM     26  C   UNL     1       6.908 -10.615  38.691  1.00  0.00    -0.065 C 
ATOM     27  C   UNL     1       6.757 -11.757  40.918  1.00  0.00     0.014 C 
ATOM     28  C   UNL     1       5.128  -9.894  40.312  1.00  0.00     0.016 C 
ATOM     29  C   UNL     1       6.153 -11.722  37.988  1.00  0.00     0.063 C 
ATOM     30  C   UNL     1       6.013 -12.921  40.227  1.00  0.00     0.033 C 
ATOM     31  C   UNL     1       6.366 -13.049  38.733  1.00  0.00     0.118 C 
BRANCH  31  32
ATOM     32  O   UNL     1       7.703 -13.453  38.583  1.00  0.00    -0.393 OA
ATOM     33  H   UNL     1       8.044 -13.668  39.489  1.00  0.00     0.210 HD
ENDBRANCH  31  32
ENDBRANCH  10  12
ENDBRANCH   8  10
ENDBRANCH   1   8
TORSDOF 8
ENDMDL
