MODEL 1
REMARK VINA RESULT:    -3.369      0.000      0.000
REMARK INTER + INTRA:          -6.136
REMARK INTER:                  -5.142
REMARK INTRA:                  -0.994
REMARK UNBOUND:                -0.994
REMARK SMILES CCCCCCCCCCC(=O)[O-]
REMARK SMILES IDX 7 1 8 2 9 3 10 4 11 5 12 6 13 7 6 8 5 9 4 10 3 11 2 12 1 13
REMARK H PARENT
REMARK Flexibility Score: inf
ROOT
ATOM      1  C   UNL     1       4.169 106.787 181.520  1.00  0.00     0.000 C 
ENDROOT
BRANCH   1   2
ATOM      2  C   UNL     1       4.542 108.246 181.207  1.00  0.00     0.000 C 
BRANCH   2   3
ATOM      3  C   UNL     1       3.339 109.197 181.291  1.00  0.00     0.006 C 
BRANCH   3   4
ATOM      4  C   UNL     1       2.144 108.511 181.963  1.00  0.00     0.053 C 
BRANCH   4   5
ATOM      5  C   UNL     1       1.832 109.163 183.272  1.00  0.00     0.041 C 
ATOM      6  O   UNL     1       2.135 110.369 183.467  1.00  0.00    -0.550 OA
ATOM      7  O   UNL     1       1.161 108.453 184.260  1.00  0.00    -0.550 OA
ENDBRANCH   4   5
ENDBRANCH   3   4
ENDBRANCH   2   3
ENDBRANCH   1   2
BRANCH   1   8
ATOM      8  C   UNL     1       4.149 105.900 180.263  1.00  0.00     0.000 C 
BRANCH   8   9
ATOM      9  C   UNL     1       2.833 105.118 180.117  1.00  0.00    -0.000 C 
BRANCH   9  10
ATOM     10  C   UNL     1       2.381 104.994 178.651  1.00  0.00    -0.000 C 
BRANCH  10  11
ATOM     11  C   UNL     1       1.697 106.270 178.126  1.00  0.00    -0.000 C 
BRANCH  11  12
ATOM     12  C   UNL     1       0.563 106.811 179.015  1.00  0.00    -0.003 C 
ATOM     13  C   UNL     1       0.304 108.303 178.812  1.00  0.00     0.004 C 
ENDBRANCH  11  12
ENDBRANCH  10  11
ENDBRANCH   9  10
ENDBRANCH   8   9
ENDBRANCH   1   8
TORSDOF 9
ENDMDL
MODEL 2
REMARK VINA RESULT:    -3.254      1.204      2.719
REMARK INTER + INTRA:          -5.960
REMARK INTER:                  -4.726
REMARK INTRA:                  -1.234
REMARK UNBOUND:                -0.994
REMARK SMILES CCCCCCCCCCC(=O)[O-]
REMARK SMILES IDX 7 1 8 2 9 3 10 4 11 5 12 6 13 7 6 8 5 9 4 10 3 11 2 12 1 13
REMARK H PARENT
REMARK Flexibility Score: inf
ROOT
ATOM      1  C   UNL     1       2.420 108.423 179.176  1.00  0.00     0.000 C 
ENDROOT
BRANCH   1   2
ATOM      2  C   UNL     1       3.491 108.518 180.276  1.00  0.00     0.000 C 
BRANCH   2   3
ATOM      3  C   UNL     1       3.240 107.540 181.433  1.00  0.00     0.006 C 
BRANCH   3   4
ATOM      4  C   UNL     1       3.522 108.206 182.784  1.00  0.00     0.053 C 
BRANCH   4   5
ATOM      5  C   UNL     1       2.489 109.247 183.082  1.00  0.00     0.041 C 
ATOM      6  O   UNL     1       1.299 108.910 183.313  1.00  0.00    -0.550 OA
ATOM      7  O   UNL     1       2.852 110.586 183.153  1.00  0.00    -0.550 OA
ENDBRANCH   4   5
ENDBRANCH   3   4
ENDBRANCH   2   3
ENDBRANCH   1   2
BRANCH   1   8
ATOM      8  C   UNL     1       1.050 107.985 179.721  1.00  0.00     0.000 C 
BRANCH   8   9
ATOM      9  C   UNL     1       0.467 106.787 178.953  1.00  0.00    -0.000 C 
BRANCH   9  10
ATOM     10  C   UNL     1       1.356 106.356 177.773  1.00  0.00    -0.000 C 
BRANCH  10  11
ATOM     11  C   UNL     1       1.905 104.925 177.928  1.00  0.00    -0.000 C 
BRANCH  11  12
ATOM     12  C   UNL     1       2.975 104.756 179.022  1.00  0.00    -0.003 C 
ATOM     13  C   UNL     1       4.357 105.240 178.586  1.00  0.00     0.004 C 
ENDBRANCH  11  12
ENDBRANCH  10  11
ENDBRANCH   9  10
ENDBRANCH   8   9
ENDBRANCH   1   8
TORSDOF 9
ENDMDL
MODEL 3
REMARK VINA RESULT:    -3.243      2.754      4.675
REMARK INTER + INTRA:          -5.944
REMARK INTER:                  -4.662
REMARK INTRA:                  -1.282
REMARK UNBOUND:                -0.994
REMARK SMILES CCCCCCCCCCC(=O)[O-]
REMARK SMILES IDX 7 1 8 2 9 3 10 4 11 5 12 6 13 7 6 8 5 9 4 10 3 11 2 12 1 13
REMARK H PARENT
REMARK Flexibility Score: inf
ROOT
ATOM      1  C   UNL     1       3.118 109.094 181.431  1.00  0.00     0.000 C 
ENDROOT
BRANCH   1   2
ATOM      2  C   UNL     1       2.265 109.021 182.708  1.00  0.00     0.000 C 
BRANCH   2   3
ATOM      3  C   UNL     1       2.311 110.319 183.528  1.00  0.00     0.006 C 
BRANCH   3   4
ATOM      4  C   UNL     1       3.502 111.188 183.111  1.00  0.00     0.053 C 
BRANCH   4   5
ATOM      5  C   UNL     1       3.795 112.215 184.158  1.00  0.00     0.041 C 
ATOM      6  O   UNL     1       4.984 112.473 184.478  1.00  0.00    -0.550 OA
ATOM      7  O   UNL     1       2.754 112.923 184.747  1.00  0.00    -0.550 OA
ENDBRANCH   4   5
ENDBRANCH   3   4
ENDBRANCH   2   3
ENDBRANCH   1   2
BRANCH   1   8
ATOM      8  C   UNL     1       3.461 107.703 180.870  1.00  0.00     0.000 C 
BRANCH   8   9
ATOM      9  C   UNL     1       3.870 106.710 181.970  1.00  0.00    -0.000 C 
BRANCH   9  10
ATOM     10  C   UNL     1       5.346 106.860 182.379  1.00  0.00    -0.000 C 
BRANCH  10  11
ATOM     11  C   UNL     1       5.518 107.360 183.826  1.00  0.00    -0.000 C 
BRANCH  11  12
ATOM     12  C   UNL     1       6.175 108.746 183.959  1.00  0.00    -0.003 C 
ATOM     13  C   UNL     1       6.703 109.288 182.632  1.00  0.00     0.004 C 
ENDBRANCH  11  12
ENDBRANCH  10  11
ENDBRANCH   9  10
ENDBRANCH   8   9
ENDBRANCH   1   8
TORSDOF 9
ENDMDL
MODEL 4
REMARK VINA RESULT:    -3.106      4.008      6.700
REMARK INTER + INTRA:          -5.734
REMARK INTER:                  -4.655
REMARK INTRA:                  -1.078
REMARK UNBOUND:                -0.994
REMARK SMILES CCCCCCCCCCC(=O)[O-]
REMARK SMILES IDX 7 1 8 2 9 3 10 4 11 5 12 6 13 7 6 8 5 9 4 10 3 11 2 12 1 13
REMARK H PARENT
REMARK Flexibility Score: inf
ROOT
ATOM      1  C   UNL     1       5.431 111.658 183.095  1.00  0.00     0.000 C 
ENDROOT
BRANCH   1   2
ATOM      2  C   UNL     1       4.349 111.291 182.065  1.00  0.00     0.000 C 
BRANCH   2   3
ATOM      3  C   UNL     1       4.416 109.818 181.634  1.00  0.00     0.006 C 
BRANCH   3   4
ATOM      4  C   UNL     1       3.737 108.913 182.668  1.00  0.00     0.053 C 
BRANCH   4   5
ATOM      5  C   UNL     1       2.253 108.923 182.479  1.00  0.00     0.041 C 
ATOM      6  O   UNL     1       1.747 108.476 181.418  1.00  0.00    -0.550 OA
ATOM      7  O   UNL     1       1.427 109.379 183.499  1.00  0.00    -0.550 OA
ENDBRANCH   4   5
ENDBRANCH   3   4
ENDBRANCH   2   3
ENDBRANCH   1   2
BRANCH   1   8
ATOM      8  C   UNL     1       4.840 112.265 184.380  1.00  0.00     0.000 C 
BRANCH   8   9
ATOM      9  C   UNL     1       3.307 112.369 184.330  1.00  0.00    -0.000 C 
BRANCH   9  10
ATOM     10  C   UNL     1       2.803 113.788 184.644  1.00  0.00    -0.000 C 
BRANCH  10  11
ATOM     11  C   UNL     1       3.804 114.884 184.231  1.00  0.00    -0.000 C 
BRANCH  11  12
ATOM     12  C   UNL     1       3.477 115.597 182.907  1.00  0.00    -0.003 C 
ATOM     13  C   UNL     1       4.367 115.147 181.749  1.00  0.00     0.004 C 
ENDBRANCH  11  12
ENDBRANCH  10  11
ENDBRANCH   9  10
ENDBRANCH   8   9
ENDBRANCH   1   8
TORSDOF 9
ENDMDL
MODEL 5
REMARK VINA RESULT:    -3.098      2.353      3.548
REMARK INTER + INTRA:          -5.722
REMARK INTER:                  -4.594
REMARK INTRA:                  -1.128
REMARK UNBOUND:                -0.994
REMARK SMILES CCCCCCCCCCC(=O)[O-]
REMARK SMILES IDX 7 1 8 2 9 3 10 4 11 5 12 6 13 7 6 8 5 9 4 10 3 11 2 12 1 13
REMARK H PARENT
REMARK Flexibility Score: inf
ROOT
ATOM      1  C   UNL     1       3.234 108.886 180.398  1.00  0.00     0.000 C 
ENDROOT
BRANCH   1   2
ATOM      2  C   UNL     1       2.413 108.518 181.645  1.00  0.00     0.000 C 
BRANCH   2   3
ATOM      3  C   UNL     1       3.293 108.108 182.835  1.00  0.00     0.006 C 
BRANCH   3   4
ATOM      4  C   UNL     1       4.279 107.006 182.433  1.00  0.00     0.053 C 
BRANCH   4   5
ATOM      5  C   UNL     1       5.518 107.080 183.269  1.00  0.00     0.041 C 
ATOM      6  O   UNL     1       6.386 106.173 183.195  1.00  0.00    -0.550 OA
ATOM      7  O   UNL     1       5.736 108.178 184.092  1.00  0.00    -0.550 OA
ENDBRANCH   4   5
ENDBRANCH   3   4
ENDBRANCH   2   3
ENDBRANCH   1   2
BRANCH   1   8
ATOM      8  C   UNL     1       2.566 108.421 179.092  1.00  0.00     0.000 C 
BRANCH   8   9
ATOM      9  C   UNL     1       1.298 107.588 179.346  1.00  0.00    -0.000 C 
BRANCH   9  10
ATOM     10  C   UNL     1       1.397 106.171 178.754  1.00  0.00    -0.000 C 
BRANCH  10  11
ATOM     11  C   UNL     1       2.315 105.244 179.572  1.00  0.00    -0.000 C 
BRANCH  11  12
ATOM     12  C   UNL     1       3.528 104.689 178.803  1.00  0.00    -0.003 C 
ATOM     13  C   UNL     1       4.815 105.465 179.076  1.00  0.00     0.004 C 
ENDBRANCH  11  12
ENDBRANCH  10  11
ENDBRANCH   9  10
ENDBRANCH   8   9
ENDBRANCH   1   8
TORSDOF 9
ENDMDL
MODEL 6
REMARK VINA RESULT:    -3.040      3.254      5.074
REMARK INTER + INTRA:          -5.634
REMARK INTER:                  -4.825
REMARK INTRA:                  -0.810
REMARK UNBOUND:                -0.994
REMARK SMILES CCCCCCCCCCC(=O)[O-]
REMARK SMILES IDX 7 1 8 2 9 3 10 4 11 5 12 6 13 7 6 8 5 9 4 10 3 11 2 12 1 13
REMARK H PARENT
REMARK Flexibility Score: inf
ROOT
ATOM      1  C   UNL     1       4.192 110.688 182.539  1.00  0.00     0.000 C 
ENDROOT
BRANCH   1   2
ATOM      2  C   UNL     1       5.249 110.885 183.638  1.00  0.00     0.000 C 
BRANCH   2   3
ATOM      3  C   UNL     1       5.563 112.365 183.901  1.00  0.00     0.006 C 
BRANCH   3   4
ATOM      4  C   UNL     1       4.797 112.878 185.125  1.00  0.00     0.053 C 
BRANCH   4   5
ATOM      5  C   UNL     1       3.702 113.808 184.707  1.00  0.00     0.041 C 
ATOM      6  O   UNL     1       2.500 113.439 184.769  1.00  0.00    -0.550 OA
ATOM      7  O   UNL     1       4.006 115.099 184.295  1.00  0.00    -0.550 OA
ENDBRANCH   4   5
ENDBRANCH   3   4
ENDBRANCH   2   3
ENDBRANCH   1   2
BRANCH   1   8
ATOM      8  C   UNL     1       2.797 110.380 183.110  1.00  0.00     0.000 C 
BRANCH   8   9
ATOM      9  C   UNL     1       2.378 108.918 182.882  1.00  0.00    -0.000 C 
BRANCH   9  10
ATOM     10  C   UNL     1       2.489 108.497 181.406  1.00  0.00    -0.000 C 
BRANCH  10  11
ATOM     11  C   UNL     1       3.614 107.475 181.158  1.00  0.00    -0.000 C 
BRANCH  11  12
ATOM     12  C   UNL     1       4.265 106.905 182.431  1.00  0.00    -0.003 C 
ATOM     13  C   UNL     1       5.785 106.792 182.327  1.00  0.00     0.004 C 
ENDBRANCH  11  12
ENDBRANCH  10  11
ENDBRANCH   9  10
ENDBRANCH   8   9
ENDBRANCH   1   8
TORSDOF 9
ENDMDL
MODEL 7
REMARK VINA RESULT:    -3.001      3.640      6.391
REMARK INTER + INTRA:          -5.574
REMARK INTER:                  -4.621
REMARK INTRA:                  -0.954
REMARK UNBOUND:                -0.994
REMARK SMILES CCCCCCCCCCC(=O)[O-]
REMARK SMILES IDX 7 1 8 2 9 3 10 4 11 5 12 6 13 7 6 8 5 9 4 10 3 11 2 12 1 13
REMARK H PARENT
REMARK Flexibility Score: inf
ROOT
ATOM      1  C   UNL     1       2.960 110.425 183.218  1.00  0.00     0.000 C 
ENDROOT
BRANCH   1   2
ATOM      2  C   UNL     1       2.268 109.134 182.750  1.00  0.00     0.000 C 
BRANCH   2   3
ATOM      3  C   UNL     1       3.080 108.376 181.690  1.00  0.00     0.006 C 
BRANCH   3   4
ATOM      4  C   UNL     1       3.784 107.161 182.304  1.00  0.00     0.053 C 
BRANCH   4   5
ATOM      5  C   UNL     1       5.185 107.510 182.697  1.00  0.00     0.041 C 
ATOM      6  O   UNL     1       6.102 107.512 181.837  1.00  0.00    -0.550 OA
ATOM      7  O   UNL     1       5.466 107.880 184.007  1.00  0.00    -0.550 OA
ENDBRANCH   4   5
ENDBRANCH   3   4
ENDBRANCH   2   3
ENDBRANCH   1   2
BRANCH   1   8
ATOM      8  C   UNL     1       3.991 110.944 182.201  1.00  0.00     0.000 C 
BRANCH   8   9
ATOM      9  C   UNL     1       5.166 111.672 182.874  1.00  0.00    -0.000 C 
BRANCH   9  10
ATOM     10  C   UNL     1       5.081 111.631 184.410  1.00  0.00    -0.000 C 
BRANCH  10  11
ATOM     11  C   UNL     1       4.909 113.028 185.037  1.00  0.00    -0.000 C 
BRANCH  11  12
ATOM     12  C   UNL     1       3.474 113.584 185.001  1.00  0.00    -0.003 C 
ATOM     13  C   UNL     1       3.286 114.686 183.959  1.00  0.00     0.004 C 
ENDBRANCH  11  12
ENDBRANCH  10  11
ENDBRANCH   9  10
ENDBRANCH   8   9
ENDBRANCH   1   8
TORSDOF 9
ENDMDL
MODEL 8
REMARK VINA RESULT:    -3.000      3.704      5.630
REMARK INTER + INTRA:          -5.572
REMARK INTER:                  -4.822
REMARK INTRA:                  -0.750
REMARK UNBOUND:                -0.994
REMARK SMILES CCCCCCCCCCC(=O)[O-]
REMARK SMILES IDX 7 1 8 2 9 3 10 4 11 5 12 6 13 7 6 8 5 9 4 10 3 11 2 12 1 13
REMARK H PARENT
REMARK Flexibility Score: inf
ROOT
ATOM      1  C   UNL     1       4.739 106.075 180.214  1.00  0.00     0.000 C 
ENDROOT
BRANCH   1   2
ATOM      2  C   UNL     1       3.299 105.716 180.617  1.00  0.00     0.000 C 
BRANCH   2   3
ATOM      3  C   UNL     1       2.535 104.987 179.502  1.00  0.00     0.006 C 
BRANCH   3   4
ATOM      4  C   UNL     1       3.490 104.518 178.400  1.00  0.00     0.053 C 
BRANCH   4   5
ATOM      5  C   UNL     1       2.882 104.736 177.050  1.00  0.00     0.041 C 
ATOM      6  O   UNL     1       3.615 104.807 176.030  1.00  0.00    -0.550 OA
ATOM      7  O   UNL     1       1.502 104.811 176.915  1.00  0.00    -0.550 OA
ENDBRANCH   4   5
ENDBRANCH   3   4
ENDBRANCH   2   3
ENDBRANCH   1   2
BRANCH   1   8
ATOM      8  C   UNL     1       5.544 106.682 181.376  1.00  0.00     0.000 C 
BRANCH   8   9
ATOM      9  C   UNL     1       4.673 106.956 182.614  1.00  0.00    -0.000 C 
BRANCH   9  10
ATOM     10  C   UNL     1       4.935 108.345 183.222  1.00  0.00    -0.000 C 
BRANCH  10  11
ATOM     11  C   UNL     1       4.019 109.437 182.638  1.00  0.00    -0.000 C 
BRANCH  11  12
ATOM     12  C   UNL     1       2.604 108.962 182.259  1.00  0.00    -0.003 C 
ATOM     13  C   UNL     1       1.602 109.098 183.404  1.00  0.00     0.004 C 
ENDBRANCH  11  12
ENDBRANCH  10  11
ENDBRANCH   9  10
ENDBRANCH   8   9
ENDBRANCH   1   8
TORSDOF 9
ENDMDL
MODEL 9
REMARK VINA RESULT:    -2.966      1.623      2.507
REMARK INTER + INTRA:          -5.521
REMARK INTER:                  -4.302
REMARK INTRA:                  -1.220
REMARK UNBOUND:                -0.994
REMARK SMILES CCCCCCCCCCC(=O)[O-]
REMARK SMILES IDX 7 1 8 2 9 3 10 4 11 5 12 6 13 7 6 8 5 9 4 10 3 11 2 12 1 13
REMARK H PARENT
REMARK Flexibility Score: inf
ROOT
ATOM      1  C   UNL     1       3.300 105.232 180.066  1.00  0.00     0.000 C 
ENDROOT
BRANCH   1   2
ATOM      2  C   UNL     1       4.703 105.860 180.117  1.00  0.00     0.000 C 
BRANCH   2   3
ATOM      3  C   UNL     1       4.964 106.622 181.424  1.00  0.00     0.006 C 
BRANCH   3   4
ATOM      4  C   UNL     1       3.648 106.978 182.124  1.00  0.00     0.053 C 
BRANCH   4   5
ATOM      5  C   UNL     1       3.784 108.265 182.874  1.00  0.00     0.041 C 
ATOM      6  O   UNL     1       4.817 108.496 183.553  1.00  0.00    -0.550 OA
ATOM      7  O   UNL     1       2.790 109.231 182.781  1.00  0.00    -0.550 OA
ENDBRANCH   4   5
ENDBRANCH   3   4
ENDBRANCH   2   3
ENDBRANCH   1   2
BRANCH   1   8
ATOM      8  C   UNL     1       2.955 104.670 178.676  1.00  0.00     0.000 C 
BRANCH   8   9
ATOM      9  C   UNL     1       1.757 105.387 178.032  1.00  0.00    -0.000 C 
BRANCH   9  10
ATOM     10  C   UNL     1       1.051 106.345 179.008  1.00  0.00    -0.000 C 
BRANCH  10  11
ATOM     11  C   UNL     1       1.115 107.816 178.555  1.00  0.00    -0.000 C 
BRANCH  11  12
ATOM     12  C   UNL     1       2.336 108.600 179.070  1.00  0.00    -0.003 C 
ATOM     13  C   UNL     1       3.441 108.741 178.025  1.00  0.00     0.004 C 
ENDBRANCH  11  12
ENDBRANCH  10  11
ENDBRANCH   9  10
ENDBRANCH   8   9
ENDBRANCH   1   8
TORSDOF 9
ENDMDL
