MODEL 1
REMARK VINA RESULT:    -4.182      0.000      0.000
REMARK INTER + INTRA:          -5.424
REMARK INTER:                  -5.160
REMARK INTRA:                  -0.264
REMARK UNBOUND:                -0.264
REMARK SMILES CCCCC=CC(C)=O
REMARK SMILES IDX 4 1 3 2 2 3 1 4 5 5 6 6 7 7 9 8 8 9
REMARK H PARENT
REMARK Flexibility Score: inf
ROOT
ATOM      1  C   UNL     1     102.889 131.727  50.191  1.00  0.00     0.027 C 
ENDROOT
BRANCH   1   2
ATOM      2  C   UNL     1     101.882 131.371  51.290  1.00  0.00     0.004 C 
BRANCH   2   3
ATOM      3  C   UNL     1     102.568 130.629  52.443  1.00  0.00    -0.003 C 
ATOM      4  C   UNL     1     102.639 131.498  53.694  1.00  0.00     0.004 C 
ENDBRANCH   2   3
ENDBRANCH   1   2
BRANCH   1   5
ATOM      5  C   UNL     1     103.099 133.212  50.105  1.00  0.00    -0.023 C 
ATOM      6  C   UNL     1     102.195 134.073  50.587  1.00  0.00     0.042 C 
BRANCH   6   7
ATOM      7  C   UNL     1     102.374 135.535  50.502  1.00  0.00     0.152 C 
ATOM      8  O   UNL     1     103.382 136.093  51.016  1.00  0.00    -0.295 OA
ATOM      9  C   UNL     1     101.350 136.367  49.799  1.00  0.00     0.093 C 
ENDBRANCH   6   7
ENDBRANCH   1   5
TORSDOF 4
ENDMDL
MODEL 2
REMARK VINA RESULT:    -4.134      1.058      1.349
REMARK INTER + INTRA:          -5.365
REMARK INTER:                  -5.140
REMARK INTRA:                  -0.225
REMARK UNBOUND:                -0.264
REMARK SMILES CCCCC=CC(C)=O
REMARK SMILES IDX 4 1 3 2 2 3 1 4 5 5 6 6 7 7 9 8 8 9
REMARK H PARENT
REMARK Flexibility Score: inf
ROOT
ATOM      1  C   UNL     1     102.861 131.703  50.400  1.00  0.00     0.027 C 
ENDROOT
BRANCH   1   2
ATOM      2  C   UNL     1     102.106 131.440  51.708  1.00  0.00     0.004 C 
BRANCH   2   3
ATOM      3  C   UNL     1     100.600 131.306  51.455  1.00  0.00    -0.003 C 
ATOM      4  C   UNL     1      99.797 131.667  52.701  1.00  0.00     0.004 C 
ENDBRANCH   2   3
ENDBRANCH   1   2
BRANCH   1   5
ATOM      5  C   UNL     1     102.908 133.171  50.085  1.00  0.00    -0.023 C 
ATOM      6  C   UNL     1     102.888 134.094  51.053  1.00  0.00     0.042 C 
BRANCH   6   7
ATOM      7  C   UNL     1     102.920 135.540  50.766  1.00  0.00     0.152 C 
ATOM      8  O   UNL     1     103.924 136.238  51.077  1.00  0.00    -0.295 OA
ATOM      9  C   UNL     1     101.750 136.189  50.100  1.00  0.00     0.093 C 
ENDBRANCH   6   7
ENDBRANCH   1   5
TORSDOF 4
ENDMDL
MODEL 3
REMARK VINA RESULT:    -4.062      8.581      9.063
REMARK INTER + INTRA:          -5.277
REMARK INTER:                  -5.080
REMARK INTRA:                  -0.196
REMARK UNBOUND:                -0.264
REMARK SMILES CCCCC=CC(C)=O
REMARK SMILES IDX 4 1 3 2 2 3 1 4 5 5 6 6 7 7 9 8 8 9
REMARK H PARENT
REMARK Flexibility Score: inf
ROOT
ATOM      1  C   UNL     1      98.077 127.253  47.346  1.00  0.00     0.027 C 
ENDROOT
BRANCH   1   2
ATOM      2  C   UNL     1      96.739 127.341  48.089  1.00  0.00     0.004 C 
BRANCH   2   3
ATOM      3  C   UNL     1      96.726 126.410  49.307  1.00  0.00    -0.003 C 
ATOM      4  C   UNL     1      98.138 125.968  49.679  1.00  0.00     0.004 C 
ENDBRANCH   2   3
ENDBRANCH   1   2
BRANCH   1   5
ATOM      5  C   UNL     1      97.952 127.762  45.939  1.00  0.00    -0.023 C 
ATOM      6  C   UNL     1      97.140 128.781  45.635  1.00  0.00     0.042 C 
BRANCH   6   7
ATOM      7  C   UNL     1      96.991 129.288  44.258  1.00  0.00     0.152 C 
ATOM      8  O   UNL     1      97.707 130.239  43.839  1.00  0.00    -0.295 OA
ATOM      9  C   UNL     1      95.981 128.671  43.346  1.00  0.00     0.093 C 
ENDBRANCH   6   7
ENDBRANCH   1   5
TORSDOF 4
ENDMDL
MODEL 4
REMARK VINA RESULT:    -4.037      2.923      4.041
REMARK INTER + INTRA:          -5.246
REMARK INTER:                  -4.999
REMARK INTRA:                  -0.247
REMARK UNBOUND:                -0.264
REMARK SMILES CCCCC=CC(C)=O
REMARK SMILES IDX 4 1 3 2 2 3 1 4 5 5 6 6 7 7 9 8 8 9
REMARK H PARENT
REMARK Flexibility Score: inf
ROOT
ATOM      1  C   UNL     1     101.422 136.417  50.039  1.00  0.00     0.027 C 
ENDROOT
BRANCH   1   2
ATOM      2  C   UNL     1     100.886 135.106  49.451  1.00  0.00     0.004 C 
BRANCH   2   3
ATOM      3  C   UNL     1      99.521 134.753  50.053  1.00  0.00    -0.003 C 
ATOM      4  C   UNL     1      99.664 133.751  51.195  1.00  0.00     0.004 C 
ENDBRANCH   2   3
ENDBRANCH   1   2
BRANCH   1   5
ATOM      5  C   UNL     1     102.848 136.269  50.487  1.00  0.00    -0.023 C 
ATOM      6  C   UNL     1     103.163 135.613  51.609  1.00  0.00     0.042 C 
BRANCH   6   7
ATOM      7  C   UNL     1     104.555 135.467  52.073  1.00  0.00     0.152 C 
ATOM      8  O   UNL     1     105.320 136.467  52.146  1.00  0.00    -0.295 OA
ATOM      9  C   UNL     1     105.069 134.118  52.462  1.00  0.00     0.093 C 
ENDBRANCH   6   7
ENDBRANCH   1   5
TORSDOF 4
ENDMDL
MODEL 5
REMARK VINA RESULT:    -3.962      3.027      4.793
REMARK INTER + INTRA:          -5.153
REMARK INTER:                  -5.024
REMARK INTRA:                  -0.129
REMARK UNBOUND:                -0.264
REMARK SMILES CCCCC=CC(C)=O
REMARK SMILES IDX 4 1 3 2 2 3 1 4 5 5 6 6 7 7 9 8 8 9
REMARK H PARENT
REMARK Flexibility Score: inf
ROOT
ATOM      1  C   UNL     1     100.563 135.183  49.786  1.00  0.00     0.027 C 
ENDROOT
BRANCH   1   2
ATOM      2  C   UNL     1     101.410 136.395  50.192  1.00  0.00     0.004 C 
BRANCH   2   3
ATOM      3  C   UNL     1     102.901 136.039  50.214  1.00  0.00    -0.003 C 
ATOM      4  C   UNL     1     103.462 136.102  51.631  1.00  0.00     0.004 C 
ENDBRANCH   2   3
ENDBRANCH   1   2
BRANCH   1   5
ATOM      5  C   UNL     1     100.730 134.052  50.760  1.00  0.00    -0.023 C 
ATOM      6  C   UNL     1      99.674 133.436  51.303  1.00  0.00     0.042 C 
BRANCH   6   7
ATOM      7  C   UNL     1      99.816 132.332  52.271  1.00  0.00     0.152 C 
ATOM      8  O   UNL     1     100.192 131.188  51.895  1.00  0.00    -0.295 OA
ATOM      9  C   UNL     1      99.510 132.570  53.714  1.00  0.00     0.093 C 
ENDBRANCH   6   7
ENDBRANCH   1   5
TORSDOF 4
ENDMDL
MODEL 6
REMARK VINA RESULT:    -3.939      2.747      3.598
REMARK INTER + INTRA:          -5.125
REMARK INTER:                  -4.865
REMARK INTRA:                  -0.260
REMARK UNBOUND:                -0.264
REMARK SMILES CCCCC=CC(C)=O
REMARK SMILES IDX 4 1 3 2 2 3 1 4 5 5 6 6 7 7 9 8 8 9
REMARK H PARENT
REMARK Flexibility Score: inf
ROOT
ATOM      1  C   UNL     1     102.848 133.721  50.824  1.00  0.00     0.027 C 
ENDROOT
BRANCH   1   2
ATOM      2  C   UNL     1     103.333 132.603  49.893  1.00  0.00     0.004 C 
BRANCH   2   3
ATOM      3  C   UNL     1     102.618 131.283  50.203  1.00  0.00    -0.003 C 
ATOM      4  C   UNL     1     102.419 131.104  51.705  1.00  0.00     0.004 C 
ENDBRANCH   2   3
ENDBRANCH   1   2
BRANCH   1   5
ATOM      5  C   UNL     1     104.005 134.485  51.403  1.00  0.00    -0.023 C 
ATOM      6  C   UNL     1     104.894 133.899  52.212  1.00  0.00     0.042 C 
BRANCH   6   7
ATOM      7  C   UNL     1     106.029 134.633  52.802  1.00  0.00     0.152 C 
ATOM      8  O   UNL     1     106.111 135.887  52.696  1.00  0.00    -0.295 OA
ATOM      9  C   UNL     1     107.096 133.884  53.533  1.00  0.00     0.093 C 
ENDBRANCH   6   7
ENDBRANCH   1   5
TORSDOF 4
ENDMDL
MODEL 7
REMARK VINA RESULT:    -3.939      2.390      4.717
REMARK INTER + INTRA:          -5.124
REMARK INTER:                  -4.880
REMARK INTRA:                  -0.244
REMARK UNBOUND:                -0.264
REMARK SMILES CCCCC=CC(C)=O
REMARK SMILES IDX 4 1 3 2 2 3 1 4 5 5 6 6 7 7 9 8 8 9
REMARK H PARENT
REMARK Flexibility Score: inf
ROOT
ATOM      1  C   UNL     1     104.169 134.652  51.645  1.00  0.00     0.027 C 
ENDROOT
BRANCH   1   2
ATOM      2  C   UNL     1     103.348 135.946  51.599  1.00  0.00     0.004 C 
BRANCH   2   3
ATOM      3  C   UNL     1     103.009 136.329  50.154  1.00  0.00    -0.003 C 
ATOM      4  C   UNL     1     101.500 136.347  49.927  1.00  0.00     0.004 C 
ENDBRANCH   2   3
ENDBRANCH   1   2
BRANCH   1   5
ATOM      5  C   UNL     1     103.349 133.505  52.162  1.00  0.00    -0.023 C 
ATOM      6  C   UNL     1     102.823 132.594  51.335  1.00  0.00     0.042 C 
BRANCH   6   7
ATOM      7  C   UNL     1     102.004 131.468  51.820  1.00  0.00     0.152 C 
ATOM      8  O   UNL     1     102.541 130.470  52.374  1.00  0.00    -0.295 OA
ATOM      9  C   UNL     1     100.519 131.506  51.654  1.00  0.00     0.093 C 
ENDBRANCH   6   7
ENDBRANCH   1   5
TORSDOF 4
ENDMDL
MODEL 8
REMARK VINA RESULT:    -3.920      3.473      4.346
REMARK INTER + INTRA:          -5.100
REMARK INTER:                  -4.869
REMARK INTRA:                  -0.232
REMARK UNBOUND:                -0.264
REMARK SMILES CCCCC=CC(C)=O
REMARK SMILES IDX 4 1 3 2 2 3 1 4 5 5 6 6 7 7 9 8 8 9
REMARK H PARENT
REMARK Flexibility Score: inf
ROOT
ATOM      1  C   UNL     1     103.396 133.296  52.114  1.00  0.00     0.027 C 
ENDROOT
BRANCH   1   2
ATOM      2  C   UNL     1     103.627 133.605  50.630  1.00  0.00     0.004 C 
BRANCH   2   3
ATOM      3  C   UNL     1     103.248 132.405  49.754  1.00  0.00    -0.003 C 
ATOM      4  C   UNL     1     102.515 131.341  50.565  1.00  0.00     0.004 C 
ENDBRANCH   2   3
ENDBRANCH   1   2
BRANCH   1   5
ATOM      5  C   UNL     1     104.529 133.805  52.958  1.00  0.00    -0.023 C 
ATOM      6  C   UNL     1     105.647 134.290  52.406  1.00  0.00     0.042 C 
BRANCH   6   7
ATOM      7  C   UNL     1     106.777 134.784  53.216  1.00  0.00     0.152 C 
ATOM      8  O   UNL     1     106.639 135.780  53.977  1.00  0.00    -0.295 OA
ATOM      9  C   UNL     1     108.102 134.097  53.134  1.00  0.00     0.093 C 
ENDBRANCH   6   7
ENDBRANCH   1   5
TORSDOF 4
ENDMDL
MODEL 9
REMARK VINA RESULT:    -3.887      2.513      4.128
REMARK INTER + INTRA:          -5.060
REMARK INTER:                  -4.795
REMARK INTRA:                  -0.266
REMARK UNBOUND:                -0.264
REMARK SMILES CCCCC=CC(C)=O
REMARK SMILES IDX 4 1 3 2 2 3 1 4 5 5 6 6 7 7 9 8 8 9
REMARK H PARENT
REMARK Flexibility Score: inf
ROOT
ATOM      1  C   UNL     1     102.444 133.383  50.134  1.00  0.00     0.027 C 
ENDROOT
BRANCH   1   2
ATOM      2  C   UNL     1     101.317 134.211  50.762  1.00  0.00     0.004 C 
BRANCH   2   3
ATOM      3  C   UNL     1     100.722 135.189  49.742  1.00  0.00    -0.003 C 
ATOM      4  C   UNL     1     101.527 136.483  49.684  1.00  0.00     0.004 C 
ENDBRANCH   2   3
ENDBRANCH   1   2
BRANCH   1   5
ATOM      5  C   UNL     1     103.654 133.349  51.023  1.00  0.00    -0.023 C 
ATOM      6  C   UNL     1     104.012 134.410  51.755  1.00  0.00     0.042 C 
BRANCH   6   7
ATOM      7  C   UNL     1     105.203 134.403  52.624  1.00  0.00     0.152 C 
ATOM      8  O   UNL     1     105.514 133.374  53.285  1.00  0.00    -0.295 OA
ATOM      9  C   UNL     1     106.053 135.628  52.726  1.00  0.00     0.093 C 
ENDBRANCH   6   7
ENDBRANCH   1   5
TORSDOF 4
ENDMDL
