MODEL 1
REMARK VINA RESULT:    -5.085      0.000      0.000
REMARK INTER + INTRA:         -14.370
REMARK INTER:                 -11.030
REMARK INTRA:                  -3.340
REMARK UNBOUND:                -3.340
REMARK SMILES CCCCCCCCCCCCCCCCCCCCCC(=O)[O-]
REMARK SMILES IDX 12 1 11 2 10 3 9 4 8 5 7 6 6 7 5 8 4 9 3 10 2 11 1 12 13 13
REMARK SMILES IDX 14 14 15 15 16 16 17 17 18 18 19 19 20 20 21 21 22 22 23 23
REMARK SMILES IDX 24 24
REMARK H PARENT
REMARK Flexibility Score: inf
ROOT
ATOM      1  C   UNL     1      -2.077  10.446  -7.385  1.00  0.00     0.000 C 
ENDROOT
BRANCH   1   2
ATOM      2  C   UNL     1      -2.104  11.446  -8.551  1.00  0.00     0.000 C 
BRANCH   2   3
ATOM      3  C   UNL     1      -1.210  12.678  -8.313  1.00  0.00     0.000 C 
BRANCH   3   4
ATOM      4  C   UNL     1      -1.588  13.542  -7.093  1.00  0.00    -0.000 C 
BRANCH   4   5
ATOM      5  C   UNL     1      -0.470  13.726  -6.049  1.00  0.00    -0.000 C 
BRANCH   5   6
ATOM      6  C   UNL     1      -0.244  12.518  -5.119  1.00  0.00    -0.000 C 
BRANCH   6   7
ATOM      7  C   UNL     1       1.230  12.207  -4.807  1.00  0.00    -0.000 C 
BRANCH   7   8
ATOM      8  C   UNL     1       2.086  12.037  -6.071  1.00  0.00    -0.000 C 
BRANCH   8   9
ATOM      9  C   UNL     1       1.511  10.936  -6.976  1.00  0.00    -0.000 C 
BRANCH   9  10
ATOM     10  C   UNL     1       2.048  11.010  -8.414  1.00  0.00    -0.000 C 
BRANCH  10  11
ATOM     11  C   UNL     1       2.347   9.627  -9.008  1.00  0.00    -0.003 C 
ATOM     12  C   UNL     1       3.597   9.658  -9.882  1.00  0.00     0.004 C 
ENDBRANCH  10  11
ENDBRANCH   9  10
ENDBRANCH   8   9
ENDBRANCH   7   8
ENDBRANCH   6   7
ENDBRANCH   5   6
ENDBRANCH   4   5
ENDBRANCH   3   4
ENDBRANCH   2   3
ENDBRANCH   1   2
BRANCH   1  13
ATOM     13  C   UNL     1      -3.483  10.091  -6.868  1.00  0.00     0.000 C 
BRANCH  13  14
ATOM     14  C   UNL     1      -4.303  11.311  -6.397  1.00  0.00     0.000 C 
BRANCH  14  15
ATOM     15  C   UNL     1      -5.523  11.575  -7.299  1.00  0.00     0.000 C 
BRANCH  15  16
ATOM     16  C   UNL     1      -5.458  12.934  -8.013  1.00  0.00     0.000 C 
BRANCH  16  17
ATOM     17  C   UNL     1      -5.434  12.799  -9.543  1.00  0.00     0.000 C 
BRANCH  17  18
ATOM     18  C   UNL     1      -5.792  11.370  -9.972  1.00  0.00     0.000 C 
BRANCH  18  19
ATOM     19  C   UNL     1      -4.902  10.844 -11.112  1.00  0.00     0.000 C 
BRANCH  19  20
ATOM     20  C   UNL     1      -4.232   9.478 -10.846  1.00  0.00     0.006 C 
BRANCH  20  21
ATOM     21  C   UNL     1      -5.033   8.543  -9.929  1.00  0.00     0.053 C 
BRANCH  21  22
ATOM     22  C   UNL     1      -5.738   7.475 -10.707  1.00  0.00     0.041 C 
ATOM     23  O   UNL     1      -6.856   7.040 -10.318  1.00  0.00    -0.550 OA
ATOM     24  O   UNL     1      -5.132   6.920 -11.828  1.00  0.00    -0.550 OA
ENDBRANCH  21  22
ENDBRANCH  20  21
ENDBRANCH  19  20
ENDBRANCH  18  19
ENDBRANCH  17  18
ENDBRANCH  16  17
ENDBRANCH  15  16
ENDBRANCH  14  15
ENDBRANCH  13  14
ENDBRANCH   1  13
TORSDOF 20
ENDMDL
MODEL 2
REMARK VINA RESULT:    -4.838      1.193      2.308
REMARK INTER + INTRA:         -13.836
REMARK INTER:                 -10.683
REMARK INTRA:                  -3.153
REMARK UNBOUND:                -3.340
REMARK SMILES CCCCCCCCCCCCCCCCCCCCCC(=O)[O-]
REMARK SMILES IDX 12 1 11 2 10 3 9 4 8 5 7 6 6 7 5 8 4 9 3 10 2 11 1 12 13 13
REMARK SMILES IDX 14 14 15 15 16 16 17 17 18 18 19 19 20 20 21 21 22 22 23 23
REMARK SMILES IDX 24 24
REMARK H PARENT
REMARK Flexibility Score: inf
ROOT
ATOM      1  C   UNL     1      -3.059  11.380  -5.203  1.00  0.00     0.000 C 
ENDROOT
BRANCH   1   2
ATOM      2  C   UNL     1      -1.919  10.976  -4.256  1.00  0.00     0.000 C 
BRANCH   2   3
ATOM      3  C   UNL     1      -0.662  11.853  -4.411  1.00  0.00     0.000 C 
BRANCH   3   4
ATOM      4  C   UNL     1      -0.890  13.221  -5.086  1.00  0.00    -0.000 C 
BRANCH   4   5
ATOM      5  C   UNL     1      -0.248  13.381  -6.476  1.00  0.00    -0.000 C 
BRANCH   5   6
ATOM      6  C   UNL     1      -1.193  13.111  -7.664  1.00  0.00    -0.000 C 
BRANCH   6   7
ATOM      7  C   UNL     1      -0.679  12.075  -8.679  1.00  0.00    -0.000 C 
BRANCH   7   8
ATOM      8  C   UNL     1      -0.908  10.627  -8.222  1.00  0.00    -0.000 C 
BRANCH   8   9
ATOM      9  C   UNL     1       0.428   9.937  -7.900  1.00  0.00    -0.000 C 
BRANCH   9  10
ATOM     10  C   UNL     1       1.644  10.755  -8.364  1.00  0.00    -0.000 C 
BRANCH  10  11
ATOM     11  C   UNL     1       2.936   9.929  -8.398  1.00  0.00    -0.003 C 
ATOM     12  C   UNL     1       3.264   9.473  -9.818  1.00  0.00     0.004 C 
ENDBRANCH  10  11
ENDBRANCH   9  10
ENDBRANCH   8   9
ENDBRANCH   7   8
ENDBRANCH   6   7
ENDBRANCH   5   6
ENDBRANCH   4   5
ENDBRANCH   3   4
ENDBRANCH   2   3
ENDBRANCH   1   2
BRANCH   1  13
ATOM     13  C   UNL     1      -3.862  10.175  -5.722  1.00  0.00     0.000 C 
BRANCH  13  14
ATOM     14  C   UNL     1      -4.555  10.421  -7.080  1.00  0.00     0.000 C 
BRANCH  14  15
ATOM     15  C   UNL     1      -4.472  11.896  -7.516  1.00  0.00     0.000 C 
BRANCH  15  16
ATOM     16  C   UNL     1      -4.845  12.107  -8.991  1.00  0.00     0.000 C 
BRANCH  16  17
ATOM     17  C   UNL     1      -4.046  11.201  -9.940  1.00  0.00     0.000 C 
BRANCH  17  18
ATOM     18  C   UNL     1      -4.950  10.631 -11.041  1.00  0.00     0.000 C 
BRANCH  18  19
ATOM     19  C   UNL     1      -6.440  10.624 -10.653  1.00  0.00     0.000 C 
BRANCH  19  20
ATOM     20  C   UNL     1      -6.965   9.287 -10.088  1.00  0.00     0.006 C 
BRANCH  20  21
ATOM     21  C   UNL     1      -5.882   8.225  -9.851  1.00  0.00     0.053 C 
BRANCH  21  22
ATOM     22  C   UNL     1      -5.983   7.100 -10.834  1.00  0.00     0.041 C 
ATOM     23  O   UNL     1      -5.109   6.962 -11.733  1.00  0.00    -0.550 OA
ATOM     24  O   UNL     1      -7.075   6.241 -10.794  1.00  0.00    -0.550 OA
ENDBRANCH  21  22
ENDBRANCH  20  21
ENDBRANCH  19  20
ENDBRANCH  18  19
ENDBRANCH  17  18
ENDBRANCH  16  17
ENDBRANCH  15  16
ENDBRANCH  14  15
ENDBRANCH  13  14
ENDBRANCH   1  13
TORSDOF 20
ENDMDL
MODEL 3
REMARK VINA RESULT:    -4.791      1.151      2.605
REMARK INTER + INTRA:         -13.734
REMARK INTER:                 -10.355
REMARK INTRA:                  -3.379
REMARK UNBOUND:                -3.340
REMARK SMILES CCCCCCCCCCCCCCCCCCCCCC(=O)[O-]
REMARK SMILES IDX 12 1 11 2 10 3 9 4 8 5 7 6 6 7 5 8 4 9 3 10 2 11 1 12 13 13
REMARK SMILES IDX 14 14 15 15 16 16 17 17 18 18 19 19 20 20 21 21 22 22 23 23
REMARK SMILES IDX 24 24
REMARK H PARENT
REMARK Flexibility Score: inf
ROOT
ATOM      1  C   UNL     1      -2.282  11.862  -5.151  1.00  0.00     0.000 C 
ENDROOT
BRANCH   1   2
ATOM      2  C   UNL     1      -1.563  13.135  -5.623  1.00  0.00     0.000 C 
BRANCH   2   3
ATOM      3  C   UNL     1      -1.933  13.541  -7.062  1.00  0.00     0.000 C 
BRANCH   3   4
ATOM      4  C   UNL     1      -1.124  12.844  -8.174  1.00  0.00    -0.000 C 
BRANCH   4   5
ATOM      5  C   UNL     1      -1.921  11.848  -9.038  1.00  0.00    -0.000 C 
BRANCH   5   6
ATOM      6  C   UNL     1      -1.616  10.361  -8.765  1.00  0.00    -0.000 C 
BRANCH   6   7
ATOM      7  C   UNL     1      -0.457  10.107  -7.785  1.00  0.00    -0.000 C 
BRANCH   7   8
ATOM      8  C   UNL     1       0.902   9.973  -8.490  1.00  0.00    -0.000 C 
BRANCH   8   9
ATOM      9  C   UNL     1       1.951  10.882  -7.831  1.00  0.00    -0.000 C 
BRANCH   9  10
ATOM     10  C   UNL     1       1.511  11.392  -6.449  1.00  0.00    -0.000 C 
BRANCH  10  11
ATOM     11  C   UNL     1       2.592  12.230  -5.754  1.00  0.00    -0.003 C 
ATOM     12  C   UNL     1       2.010  13.522  -5.184  1.00  0.00     0.004 C 
ENDBRANCH  10  11
ENDBRANCH   9  10
ENDBRANCH   8   9
ENDBRANCH   7   8
ENDBRANCH   6   7
ENDBRANCH   5   6
ENDBRANCH   4   5
ENDBRANCH   3   4
ENDBRANCH   2   3
ENDBRANCH   1   2
BRANCH   1  13
ATOM     13  C   UNL     1      -3.802  11.909  -5.387  1.00  0.00     0.000 C 
BRANCH  13  14
ATOM     14  C   UNL     1      -4.340  10.742  -6.243  1.00  0.00     0.000 C 
BRANCH  14  15
ATOM     15  C   UNL     1      -5.544  11.161  -7.106  1.00  0.00     0.000 C 
BRANCH  15  16
ATOM     16  C   UNL     1      -5.412  12.584  -7.669  1.00  0.00     0.000 C 
BRANCH  16  17
ATOM     17  C   UNL     1      -5.221  12.605  -9.192  1.00  0.00     0.000 C 
BRANCH  17  18
ATOM     18  C   UNL     1      -6.390  11.906  -9.900  1.00  0.00     0.000 C 
BRANCH  18  19
ATOM     19  C   UNL     1      -5.940  10.730 -10.785  1.00  0.00     0.000 C 
BRANCH  19  20
ATOM     20  C   UNL     1      -4.932   9.762 -10.129  1.00  0.00     0.006 C 
BRANCH  20  21
ATOM     21  C   UNL     1      -4.332   8.721 -11.086  1.00  0.00     0.053 C 
BRANCH  21  22
ATOM     22  C   UNL     1      -4.953   7.372 -10.898  1.00  0.00     0.041 C 
ATOM     23  O   UNL     1      -5.250   6.965  -9.742  1.00  0.00    -0.550 OA
ATOM     24  O   UNL     1      -5.151   6.541 -11.995  1.00  0.00    -0.550 OA
ENDBRANCH  21  22
ENDBRANCH  20  21
ENDBRANCH  19  20
ENDBRANCH  18  19
ENDBRANCH  17  18
ENDBRANCH  16  17
ENDBRANCH  15  16
ENDBRANCH  14  15
ENDBRANCH  13  14
ENDBRANCH   1  13
TORSDOF 20
ENDMDL
MODEL 4
REMARK VINA RESULT:    -4.784      1.304      2.397
REMARK INTER + INTRA:         -13.718
REMARK INTER:                 -10.667
REMARK INTRA:                  -3.051
REMARK UNBOUND:                -3.340
REMARK SMILES CCCCCCCCCCCCCCCCCCCCCC(=O)[O-]
REMARK SMILES IDX 12 1 11 2 10 3 9 4 8 5 7 6 6 7 5 8 4 9 3 10 2 11 1 12 13 13
REMARK SMILES IDX 14 14 15 15 16 16 17 17 18 18 19 19 20 20 21 21 22 22 23 23
REMARK SMILES IDX 24 24
REMARK H PARENT
REMARK Flexibility Score: inf
ROOT
ATOM      1  C   UNL     1      -2.972  11.249  -9.496  1.00  0.00     0.000 C 
ENDROOT
BRANCH   1   2
ATOM      2  C   UNL     1      -2.870  10.364  -8.245  1.00  0.00     0.000 C 
BRANCH   2   3
ATOM      3  C   UNL     1      -3.367  11.065  -6.966  1.00  0.00     0.000 C 
BRANCH   3   4
ATOM      4  C   UNL     1      -2.279  11.780  -6.139  1.00  0.00    -0.000 C 
BRANCH   4   5
ATOM      5  C   UNL     1      -1.846  13.156  -6.679  1.00  0.00    -0.000 C 
BRANCH   5   6
ATOM      6  C   UNL     1      -0.373  13.525  -6.409  1.00  0.00    -0.000 C 
BRANCH   6   7
ATOM      7  C   UNL     1       0.577  12.325  -6.253  1.00  0.00    -0.000 C 
BRANCH   7   8
ATOM      8  C   UNL     1       1.097  11.795  -7.598  1.00  0.00    -0.000 C 
BRANCH   8   9
ATOM      9  C   UNL     1       0.682  10.330  -7.805  1.00  0.00    -0.000 C 
BRANCH   9  10
ATOM     10  C   UNL     1       1.547   9.613  -8.854  1.00  0.00    -0.000 C 
BRANCH  10  11
ATOM     11  C   UNL     1       3.040   9.939  -8.715  1.00  0.00    -0.003 C 
ATOM     12  C   UNL     1       3.786   9.687 -10.024  1.00  0.00     0.004 C 
ENDBRANCH  10  11
ENDBRANCH   9  10
ENDBRANCH   8   9
ENDBRANCH   7   8
ENDBRANCH   6   7
ENDBRANCH   5   6
ENDBRANCH   4   5
ENDBRANCH   3   4
ENDBRANCH   2   3
ENDBRANCH   1   2
BRANCH   1  13
ATOM     13  C   UNL     1      -3.802  10.604 -10.621  1.00  0.00     0.000 C 
BRANCH  13  14
ATOM     14  C   UNL     1      -5.245  11.142 -10.722  1.00  0.00     0.000 C 
BRANCH  14  15
ATOM     15  C   UNL     1      -5.464  12.389  -9.845  1.00  0.00     0.000 C 
BRANCH  15  16
ATOM     16  C   UNL     1      -6.516  12.173  -8.747  1.00  0.00     0.000 C 
BRANCH  16  17
ATOM     17  C   UNL     1      -7.091  10.749  -8.749  1.00  0.00     0.000 C 
BRANCH  17  18
ATOM     18  C   UNL     1      -6.687   9.994  -7.475  1.00  0.00     0.000 C 
BRANCH  18  19
ATOM     19  C   UNL     1      -6.212   8.557  -7.753  1.00  0.00     0.000 C 
BRANCH  19  20
ATOM     20  C   UNL     1      -6.331   8.098  -9.223  1.00  0.00     0.006 C 
BRANCH  20  21
ATOM     21  C   UNL     1      -5.368   6.969  -9.619  1.00  0.00     0.053 C 
BRANCH  21  22
ATOM     22  C   UNL     1      -5.505   6.606 -11.065  1.00  0.00     0.041 C 
ATOM     23  O   UNL     1      -4.974   7.327 -11.954  1.00  0.00    -0.550 OA
ATOM     24  O   UNL     1      -6.267   5.504 -11.433  1.00  0.00    -0.550 OA
ENDBRANCH  21  22
ENDBRANCH  20  21
ENDBRANCH  19  20
ENDBRANCH  18  19
ENDBRANCH  17  18
ENDBRANCH  16  17
ENDBRANCH  15  16
ENDBRANCH  14  15
ENDBRANCH  13  14
ENDBRANCH   1  13
TORSDOF 20
ENDMDL
MODEL 5
REMARK VINA RESULT:    -4.707      3.080      6.566
REMARK INTER + INTRA:         -13.551
REMARK INTER:                 -10.033
REMARK INTRA:                  -3.518
REMARK UNBOUND:                -3.340
REMARK SMILES CCCCCCCCCCCCCCCCCCCCCC(=O)[O-]
REMARK SMILES IDX 12 1 11 2 10 3 9 4 8 5 7 6 6 7 5 8 4 9 3 10 2 11 1 12 13 13
REMARK SMILES IDX 14 14 15 15 16 16 17 17 18 18 19 19 20 20 21 21 22 22 23 23
REMARK SMILES IDX 24 24
REMARK H PARENT
REMARK Flexibility Score: inf
ROOT
ATOM      1  C   UNL     1      -2.618   9.899  -5.142  1.00  0.00     0.000 C 
ENDROOT
BRANCH   1   2
ATOM      2  C   UNL     1      -3.894   9.138  -4.750  1.00  0.00     0.000 C 
BRANCH   2   3
ATOM      3  C   UNL     1      -4.932   9.073  -5.886  1.00  0.00     0.000 C 
BRANCH   3   4
ATOM      4  C   UNL     1      -4.736  10.098  -7.021  1.00  0.00    -0.000 C 
BRANCH   4   5
ATOM      5  C   UNL     1      -6.035  10.677  -7.612  1.00  0.00    -0.000 C 
BRANCH   5   6
ATOM      6  C   UNL     1      -5.887  12.060  -8.278  1.00  0.00    -0.000 C 
BRANCH   6   7
ATOM      7  C   UNL     1      -5.177  12.049  -9.643  1.00  0.00    -0.000 C 
BRANCH   7   8
ATOM      8  C   UNL     1      -5.633  10.891 -10.543  1.00  0.00    -0.000 C 
BRANCH   8   9
ATOM      9  C   UNL     1      -4.426  10.201 -11.200  1.00  0.00    -0.000 C 
BRANCH   9  10
ATOM     10  C   UNL     1      -3.961   8.958 -10.426  1.00  0.00    -0.000 C 
BRANCH  10  11
ATOM     11  C   UNL     1      -5.092   7.944 -10.198  1.00  0.00    -0.003 C 
ATOM     12  C   UNL     1      -5.169   6.936 -11.342  1.00  0.00     0.004 C 
ENDBRANCH  10  11
ENDBRANCH   9  10
ENDBRANCH   8   9
ENDBRANCH   7   8
ENDBRANCH   6   7
ENDBRANCH   5   6
ENDBRANCH   4   5
ENDBRANCH   3   4
ENDBRANCH   2   3
ENDBRANCH   1   2
BRANCH   1  13
ATOM     13  C   UNL     1      -2.377  11.150  -4.279  1.00  0.00     0.000 C 
BRANCH  13  14
ATOM     14  C   UNL     1      -2.544  12.481  -5.043  1.00  0.00     0.000 C 
BRANCH  14  15
ATOM     15  C   UNL     1      -1.190  13.098  -5.439  1.00  0.00     0.000 C 
BRANCH  15  16
ATOM     16  C   UNL     1      -1.115  13.477  -6.925  1.00  0.00     0.000 C 
BRANCH  16  17
ATOM     17  C   UNL     1      -2.171  12.755  -7.775  1.00  0.00     0.000 C 
BRANCH  17  18
ATOM     18  C   UNL     1      -1.505  11.879  -8.845  1.00  0.00     0.000 C 
BRANCH  18  19
ATOM     19  C   UNL     1      -1.353  10.410  -8.411  1.00  0.00     0.000 C 
BRANCH  19  20
ATOM     20  C   UNL     1       0.093   9.959  -8.114  1.00  0.00     0.006 C 
BRANCH  20  21
ATOM     21  C   UNL     1       1.167  11.010  -8.431  1.00  0.00     0.053 C 
BRANCH  21  22
ATOM     22  C   UNL     1       2.536  10.405  -8.481  1.00  0.00     0.041 C 
ATOM     23  O   UNL     1       2.841   9.598  -9.400  1.00  0.00    -0.550 OA
ATOM     24  O   UNL     1       3.456  10.690  -7.477  1.00  0.00    -0.550 OA
ENDBRANCH  21  22
ENDBRANCH  20  21
ENDBRANCH  19  20
ENDBRANCH  18  19
ENDBRANCH  17  18
ENDBRANCH  16  17
ENDBRANCH  15  16
ENDBRANCH  14  15
ENDBRANCH  13  14
ENDBRANCH   1  13
TORSDOF 20
ENDMDL
MODEL 6
REMARK VINA RESULT:    -4.704      2.598      7.035
REMARK INTER + INTRA:         -13.545
REMARK INTER:                 -10.393
REMARK INTRA:                  -3.152
REMARK UNBOUND:                -3.340
REMARK SMILES CCCCCCCCCCCCCCCCCCCCCC(=O)[O-]
REMARK SMILES IDX 12 1 11 2 10 3 9 4 8 5 7 6 6 7 5 8 4 9 3 10 2 11 1 12 13 13
REMARK SMILES IDX 14 14 15 15 16 16 17 17 18 18 19 19 20 20 21 21 22 22 23 23
REMARK SMILES IDX 24 24
REMARK H PARENT
REMARK Flexibility Score: inf
ROOT
ATOM      1  C   UNL     1      -2.344  10.370  -7.882  1.00  0.00     0.000 C 
ENDROOT
BRANCH   1   2
ATOM      2  C   UNL     1      -2.988  10.135  -6.507  1.00  0.00     0.000 C 
BRANCH   2   3
ATOM      3  C   UNL     1      -4.093  11.155  -6.173  1.00  0.00     0.000 C 
BRANCH   3   4
ATOM      4  C   UNL     1      -5.526  10.721  -6.541  1.00  0.00    -0.000 C 
BRANCH   4   5
ATOM      5  C   UNL     1      -6.304  11.712  -7.428  1.00  0.00    -0.000 C 
BRANCH   5   6
ATOM      6  C   UNL     1      -5.466  12.880  -7.986  1.00  0.00    -0.000 C 
BRANCH   6   7
ATOM      7  C   UNL     1      -4.879  12.645  -9.388  1.00  0.00    -0.000 C 
BRANCH   7   8
ATOM      8  C   UNL     1      -5.568  11.496 -10.139  1.00  0.00    -0.000 C 
BRANCH   8   9
ATOM      9  C   UNL     1      -4.612  10.857 -11.159  1.00  0.00    -0.000 C 
BRANCH   9  10
ATOM     10  C   UNL     1      -4.258   9.403 -10.808  1.00  0.00    -0.000 C 
BRANCH  10  11
ATOM     11  C   UNL     1      -5.211   8.795  -9.770  1.00  0.00    -0.003 C 
ATOM     12  C   UNL     1      -6.175   7.804 -10.418  1.00  0.00     0.004 C 
ENDBRANCH  10  11
ENDBRANCH   9  10
ENDBRANCH   8   9
ENDBRANCH   7   8
ENDBRANCH   6   7
ENDBRANCH   5   6
ENDBRANCH   4   5
ENDBRANCH   3   4
ENDBRANCH   2   3
ENDBRANCH   1   2
BRANCH   1  13
ATOM     13  C   UNL     1      -1.062  11.219  -7.806  1.00  0.00     0.000 C 
BRANCH  13  14
ATOM     14  C   UNL     1      -1.234  12.662  -8.326  1.00  0.00     0.000 C 
BRANCH  14  15
ATOM     15  C   UNL     1      -1.506  13.662  -7.187  1.00  0.00     0.000 C 
BRANCH  15  16
ATOM     16  C   UNL     1      -0.985  13.177  -5.826  1.00  0.00     0.000 C 
BRANCH  16  17
ATOM     17  C   UNL     1       0.460  13.618  -5.552  1.00  0.00     0.000 C 
BRANCH  17  18
ATOM     18  C   UNL     1       1.286  12.459  -4.978  1.00  0.00     0.000 C 
BRANCH  18  19
ATOM     19  C   UNL     1       2.475  12.067  -5.873  1.00  0.00     0.000 C 
BRANCH  19  20
ATOM     20  C   UNL     1       2.148  11.059  -6.995  1.00  0.00     0.006 C 
BRANCH  20  21
ATOM     21  C   UNL     1       3.346  10.670  -7.873  1.00  0.00     0.053 C 
BRANCH  21  22
ATOM     22  C   UNL     1       2.920   9.890  -9.078  1.00  0.00     0.041 C 
ATOM     23  O   UNL     1       1.720   9.524  -9.206  1.00  0.00    -0.550 OA
ATOM     24  O   UNL     1       3.862   9.517 -10.031  1.00  0.00    -0.550 OA
ENDBRANCH  21  22
ENDBRANCH  20  21
ENDBRANCH  19  20
ENDBRANCH  18  19
ENDBRANCH  17  18
ENDBRANCH  16  17
ENDBRANCH  15  16
ENDBRANCH  14  15
ENDBRANCH  13  14
ENDBRANCH   1  13
TORSDOF 20
ENDMDL
MODEL 7
REMARK VINA RESULT:    -4.692      3.589      5.780
REMARK INTER + INTRA:         -13.519
REMARK INTER:                 -11.516
REMARK INTRA:                  -2.003
REMARK UNBOUND:                -3.340
REMARK SMILES CCCCCCCCCCCCCCCCCCCCCC(=O)[O-]
REMARK SMILES IDX 12 1 11 2 10 3 9 4 8 5 7 6 6 7 5 8 4 9 3 10 2 11 1 12 13 13
REMARK SMILES IDX 14 14 15 15 16 16 17 17 18 18 19 19 20 20 21 21 22 22 23 23
REMARK SMILES IDX 24 24
REMARK H PARENT
REMARK Flexibility Score: inf
ROOT
ATOM      1  C   UNL     1      -6.638  10.286 -10.068  1.00  0.00     0.000 C 
ENDROOT
BRANCH   1   2
ATOM      2  C   UNL     1      -5.704  11.464 -10.382  1.00  0.00     0.000 C 
BRANCH   2   3
ATOM      3  C   UNL     1      -5.662  12.520  -9.261  1.00  0.00     0.000 C 
BRANCH   3   4
ATOM      4  C   UNL     1      -5.565  11.959  -7.828  1.00  0.00    -0.000 C 
BRANCH   4   5
ATOM      5  C   UNL     1      -4.141  11.897  -7.244  1.00  0.00    -0.000 C 
BRANCH   5   6
ATOM      6  C   UNL     1      -3.452  10.522  -7.353  1.00  0.00    -0.000 C 
BRANCH   6   7
ATOM      7  C   UNL     1      -2.606  10.319  -8.622  1.00  0.00    -0.000 C 
BRANCH   7   8
ATOM      8  C   UNL     1      -1.928  11.611  -9.100  1.00  0.00    -0.000 C 
BRANCH   8   9
ATOM      9  C   UNL     1      -0.427  11.596  -8.772  1.00  0.00    -0.000 C 
BRANCH   9  10
ATOM     10  C   UNL     1       0.083  10.195  -8.397  1.00  0.00    -0.000 C 
BRANCH  10  11
ATOM     11  C   UNL     1       1.500  10.219  -7.807  1.00  0.00    -0.003 C 
ATOM     12  C   UNL     1       2.542   9.831  -8.853  1.00  0.00     0.004 C 
ENDBRANCH  10  11
ENDBRANCH   9  10
ENDBRANCH   8   9
ENDBRANCH   7   8
ENDBRANCH   6   7
ENDBRANCH   5   6
ENDBRANCH   4   5
ENDBRANCH   3   4
ENDBRANCH   2   3
ENDBRANCH   1   2
BRANCH   1  13
ATOM     13  C   UNL     1      -5.883   8.964  -9.846  1.00  0.00     0.000 C 
BRANCH  13  14
ATOM     14  C   UNL     1      -4.914   8.596 -10.990  1.00  0.00     0.000 C 
BRANCH  14  15
ATOM     15  C   UNL     1      -4.946   7.091 -11.317  1.00  0.00     0.000 C 
BRANCH  15  16
ATOM     16  C   UNL     1      -6.120   6.357 -10.650  1.00  0.00     0.000 C 
BRANCH  16  17
ATOM     17  C   UNL     1      -6.640   5.183 -11.492  1.00  0.00     0.000 C 
BRANCH  17  18
ATOM     18  C   UNL     1      -5.785   4.991 -12.751  1.00  0.00     0.000 C 
BRANCH  18  19
ATOM     19  C   UNL     1      -6.404   4.001 -13.754  1.00  0.00     0.000 C 
BRANCH  19  20
ATOM     20  C   UNL     1      -5.485   3.592 -14.925  1.00  0.00     0.006 C 
BRANCH  20  21
ATOM     21  C   UNL     1      -5.105   2.104 -14.948  1.00  0.00     0.053 C 
BRANCH  21  22
ATOM     22  C   UNL     1      -6.230   1.252 -15.450  1.00  0.00     0.041 C 
ATOM     23  O   UNL     1      -6.894   1.609 -16.461  1.00  0.00    -0.550 OA
ATOM     24  O   UNL     1      -6.581   0.094 -14.764  1.00  0.00    -0.550 OA
ENDBRANCH  21  22
ENDBRANCH  20  21
ENDBRANCH  19  20
ENDBRANCH  18  19
ENDBRANCH  17  18
ENDBRANCH  16  17
ENDBRANCH  15  16
ENDBRANCH  14  15
ENDBRANCH  13  14
ENDBRANCH   1  13
TORSDOF 20
ENDMDL
MODEL 8
REMARK VINA RESULT:    -4.633      1.355      4.586
REMARK INTER + INTRA:         -13.391
REMARK INTER:                 -10.257
REMARK INTRA:                  -3.134
REMARK UNBOUND:                -3.340
REMARK SMILES CCCCCCCCCCCCCCCCCCCCCC(=O)[O-]
REMARK SMILES IDX 12 1 11 2 10 3 9 4 8 5 7 6 6 7 5 8 4 9 3 10 2 11 1 12 13 13
REMARK SMILES IDX 14 14 15 15 16 16 17 17 18 18 19 19 20 20 21 21 22 22 23 23
REMARK SMILES IDX 24 24
REMARK H PARENT
REMARK Flexibility Score: inf
ROOT
ATOM      1  C   UNL     1       2.487  11.062  -7.436  1.00  0.00     0.000 C 
ENDROOT
BRANCH   1   2
ATOM      2  C   UNL     1       2.629  11.855  -6.128  1.00  0.00     0.000 C 
BRANCH   2   3
ATOM      3  C   UNL     1       1.280  12.123  -5.433  1.00  0.00     0.000 C 
BRANCH   3   4
ATOM      4  C   UNL     1       0.767  13.574  -5.524  1.00  0.00    -0.000 C 
BRANCH   4   5
ATOM      5  C   UNL     1      -0.667  13.728  -6.066  1.00  0.00    -0.000 C 
BRANCH   5   6
ATOM      6  C   UNL     1      -1.783  13.405  -5.052  1.00  0.00    -0.000 C 
BRANCH   6   7
ATOM      7  C   UNL     1      -2.254  11.940  -5.052  1.00  0.00    -0.000 C 
BRANCH   7   8
ATOM      8  C   UNL     1      -3.634  11.756  -5.702  1.00  0.00    -0.000 C 
BRANCH   8   9
ATOM      9  C   UNL     1      -4.014  10.268  -5.766  1.00  0.00    -0.000 C 
BRANCH   9  10
ATOM     10  C   UNL     1      -4.633   9.873  -7.116  1.00  0.00    -0.000 C 
BRANCH  10  11
ATOM     11  C   UNL     1      -6.153  10.080  -7.154  1.00  0.00    -0.003 C 
ATOM     12  C   UNL     1      -6.513  11.424  -7.784  1.00  0.00     0.004 C 
ENDBRANCH  10  11
ENDBRANCH   9  10
ENDBRANCH   8   9
ENDBRANCH   7   8
ENDBRANCH   6   7
ENDBRANCH   5   6
ENDBRANCH   4   5
ENDBRANCH   3   4
ENDBRANCH   2   3
ENDBRANCH   1   2
BRANCH   1  13
ATOM     13  C   UNL     1       1.128  11.279  -8.124  1.00  0.00     0.000 C 
BRANCH  13  14
ATOM     14  C   UNL     1       0.284   9.995  -8.264  1.00  0.00     0.000 C 
BRANCH  14  15
ATOM     15  C   UNL     1      -1.212  10.301  -8.469  1.00  0.00     0.000 C 
BRANCH  15  16
ATOM     16  C   UNL     1      -1.483  11.779  -8.788  1.00  0.00     0.000 C 
BRANCH  16  17
ATOM     17  C   UNL     1      -2.816  11.993  -9.520  1.00  0.00     0.000 C 
BRANCH  17  18
ATOM     18  C   UNL     1      -3.208  10.743 -10.319  1.00  0.00     0.000 C 
BRANCH  18  19
ATOM     19  C   UNL     1      -4.613  10.842 -10.940  1.00  0.00     0.000 C 
BRANCH  19  20
ATOM     20  C   UNL     1      -5.476   9.568 -10.819  1.00  0.00     0.006 C 
BRANCH  20  21
ATOM     21  C   UNL     1      -4.678   8.256 -10.807  1.00  0.00     0.053 C 
BRANCH  21  22
ATOM     22  C   UNL     1      -5.551   7.073 -11.090  1.00  0.00     0.041 C 
ATOM     23  O   UNL     1      -5.217   6.234 -11.970  1.00  0.00    -0.550 OA
ATOM     24  O   UNL     1      -6.762   6.930 -10.422  1.00  0.00    -0.550 OA
ENDBRANCH  21  22
ENDBRANCH  20  21
ENDBRANCH  19  20
ENDBRANCH  18  19
ENDBRANCH  17  18
ENDBRANCH  16  17
ENDBRANCH  15  16
ENDBRANCH  14  15
ENDBRANCH  13  14
ENDBRANCH   1  13
TORSDOF 20
ENDMDL
MODEL 9
REMARK VINA RESULT:    -4.578      3.154      7.224
REMARK INTER + INTRA:         -13.271
REMARK INTER:                  -9.853
REMARK INTRA:                  -3.418
REMARK UNBOUND:                -3.340
REMARK SMILES CCCCCCCCCCCCCCCCCCCCCC(=O)[O-]
REMARK SMILES IDX 12 1 11 2 10 3 9 4 8 5 7 6 6 7 5 8 4 9 3 10 2 11 1 12 13 13
REMARK SMILES IDX 14 14 15 15 16 16 17 17 18 18 19 19 20 20 21 21 22 22 23 23
REMARK SMILES IDX 24 24
REMARK H PARENT
REMARK Flexibility Score: inf
ROOT
ATOM      1  C   UNL     1      -5.182  12.988  -9.492  1.00  0.00     0.000 C 
ENDROOT
BRANCH   1   2
ATOM      2  C   UNL     1      -6.068  11.794  -9.879  1.00  0.00     0.000 C 
BRANCH   2   3
ATOM      3  C   UNL     1      -5.530  11.007 -11.089  1.00  0.00     0.000 C 
BRANCH   3   4
ATOM      4  C   UNL     1      -4.737   9.730 -10.747  1.00  0.00    -0.000 C 
BRANCH   4   5
ATOM      5  C   UNL     1      -5.533   8.416 -10.857  1.00  0.00    -0.000 C 
BRANCH   5   6
ATOM      6  C   UNL     1      -6.412   8.085  -9.634  1.00  0.00    -0.000 C 
BRANCH   6   7
ATOM      7  C   UNL     1      -5.727   8.283  -8.270  1.00  0.00    -0.000 C 
BRANCH   7   8
ATOM      8  C   UNL     1      -6.513   9.215  -7.337  1.00  0.00    -0.000 C 
BRANCH   8   9
ATOM      9  C   UNL     1      -5.567   9.947  -6.371  1.00  0.00    -0.000 C 
BRANCH   9  10
ATOM     10  C   UNL     1      -4.089   9.610  -6.621  1.00  0.00    -0.000 C 
BRANCH  10  11
ATOM     11  C   UNL     1      -3.228   9.745  -5.357  1.00  0.00    -0.003 C 
ATOM     12  C   UNL     1      -3.853  10.722  -4.364  1.00  0.00     0.004 C 
ENDBRANCH  10  11
ENDBRANCH   9  10
ENDBRANCH   8   9
ENDBRANCH   7   8
ENDBRANCH   6   7
ENDBRANCH   5   6
ENDBRANCH   4   5
ENDBRANCH   3   4
ENDBRANCH   2   3
ENDBRANCH   1   2
BRANCH   1  13
ATOM     13  C   UNL     1      -4.766  12.970  -8.010  1.00  0.00     0.000 C 
BRANCH  13  14
ATOM     14  C   UNL     1      -3.254  12.756  -7.787  1.00  0.00     0.000 C 
BRANCH  14  15
ATOM     15  C   UNL     1      -2.554  12.200  -9.041  1.00  0.00     0.000 C 
BRANCH  15  16
ATOM     16  C   UNL     1      -1.095  11.793  -8.782  1.00  0.00     0.000 C 
BRANCH  16  17
ATOM     17  C   UNL     1      -0.946  10.302  -8.444  1.00  0.00     0.000 C 
BRANCH  17  18
ATOM     18  C   UNL     1       0.496   9.977  -8.033  1.00  0.00     0.000 C 
BRANCH  18  19
ATOM     19  C   UNL     1       1.385  11.228  -7.916  1.00  0.00     0.000 C 
BRANCH  19  20
ATOM     20  C   UNL     1       2.069  11.422  -6.546  1.00  0.00     0.006 C 
BRANCH  20  21
ATOM     21  C   UNL     1       1.711  12.735  -5.834  1.00  0.00     0.053 C 
BRANCH  21  22
ATOM     22  C   UNL     1       0.241  12.841  -5.574  1.00  0.00     0.041 C 
ATOM     23  O   UNL     1      -0.400  13.859  -5.956  1.00  0.00    -0.550 OA
ATOM     24  O   UNL     1      -0.410  11.843  -4.858  1.00  0.00    -0.550 OA
ENDBRANCH  21  22
ENDBRANCH  20  21
ENDBRANCH  19  20
ENDBRANCH  18  19
ENDBRANCH  17  18
ENDBRANCH  16  17
ENDBRANCH  15  16
ENDBRANCH  14  15
ENDBRANCH  13  14
ENDBRANCH   1  13
TORSDOF 20
ENDMDL
