MODEL 1
REMARK VINA RESULT:    -5.074      0.000      0.000
REMARK INTER + INTRA:          -5.967
REMARK INTER:                  -5.816
REMARK INTRA:                  -0.151
REMARK UNBOUND:                -0.151
REMARK SMILES CC=Cc1ccc(O)c(OC)c1
REMARK SMILES IDX 4 1 12 2 9 3 7 4 6 5 5 6 3 7 1 8 2 9 10 10 11 11 8 12
REMARK H PARENT 8 13
REMARK Flexibility Score: inf
ROOT
ATOM      1  C   UNL     1     135.383   3.906  95.112  1.00  0.00    -0.022 A 
ATOM      2  C   UNL     1     134.527   2.946  94.546  1.00  0.00     0.058 A 
ATOM      3  C   UNL     1     134.990   1.647  94.251  1.00  0.00     0.161 A 
ATOM      4  C   UNL     1     136.324   1.313  94.541  1.00  0.00     0.157 A 
ATOM      5  C   UNL     1     137.174   2.260  95.117  1.00  0.00     0.051 A 
ATOM      6  C   UNL     1     136.712   3.545  95.407  1.00  0.00     0.012 A 
ENDROOT
BRANCH   1   7
ATOM      7  C   UNL     1     134.840   5.255  95.410  1.00  0.00     0.003 C 
ATOM      8  C   UNL     1     133.362   7.198  95.077  1.00  0.00     0.035 C 
ATOM      9  C   UNL     1     133.864   5.840  94.705  1.00  0.00    -0.030 C 
ENDBRANCH   1   7
BRANCH   3  10
ATOM     10  O   UNL     1     134.157   0.674  93.677  1.00  0.00    -0.493 OA
ATOM     11  C   UNL     1     133.041   0.956  92.840  1.00  0.00     0.278 C 
ENDBRANCH   3  10
BRANCH   4  12
ATOM     12  O   UNL     1     136.825   0.040  94.266  1.00  0.00    -0.504 OA
ATOM     13  H   UNL     1     137.577  -0.114  93.604  1.00  0.00     0.293 HD
ENDBRANCH   4  12
TORSDOF 3
ENDMDL
MODEL 2
REMARK VINA RESULT:    -4.953      2.126      4.420
REMARK INTER + INTRA:          -5.828
REMARK INTER:                  -5.660
REMARK INTRA:                  -0.167
REMARK UNBOUND:                -0.151
REMARK SMILES CC=Cc1ccc(O)c(OC)c1
REMARK SMILES IDX 4 1 12 2 9 3 7 4 6 5 5 6 3 7 1 8 2 9 10 10 11 11 8 12
REMARK H PARENT 8 13
REMARK Flexibility Score: inf
ROOT
ATOM      1  C   UNL     1     134.937   1.046  94.633  1.00  0.00    -0.022 A 
ATOM      2  C   UNL     1     134.297   2.230  95.037  1.00  0.00     0.058 A 
ATOM      3  C   UNL     1     135.043   3.355  95.443  1.00  0.00     0.161 A 
ATOM      4  C   UNL     1     136.447   3.286  95.431  1.00  0.00     0.157 A 
ATOM      5  C   UNL     1     137.087   2.115  95.018  1.00  0.00     0.051 A 
ATOM      6  C   UNL     1     136.344   1.004  94.617  1.00  0.00     0.012 A 
ENDROOT
BRANCH   1   7
ATOM      7  C   UNL     1     134.100  -0.104  94.207  1.00  0.00     0.003 C 
ATOM      8  C   UNL     1     132.192  -1.196  93.094  1.00  0.00     0.035 C 
ATOM      9  C   UNL     1     132.972   0.015  93.496  1.00  0.00    -0.030 C 
ENDBRANCH   1   7
BRANCH   3  10
ATOM     10  O   UNL     1     134.427   4.546  95.859  1.00  0.00    -0.493 OA
ATOM     11  C   UNL     1     133.674   5.406  95.010  1.00  0.00     0.278 C 
ENDBRANCH   3  10
BRANCH   4  12
ATOM     12  O   UNL     1     137.226   4.374  95.826  1.00  0.00    -0.504 OA
ATOM     13  H   UNL     1     136.873   5.324  95.815  1.00  0.00     0.293 HD
ENDBRANCH   4  12
TORSDOF 3
ENDMDL
MODEL 3
REMARK VINA RESULT:    -4.935      2.556      4.529
REMARK INTER + INTRA:          -5.808
REMARK INTER:                  -5.657
REMARK INTRA:                  -0.151
REMARK UNBOUND:                -0.151
REMARK SMILES CC=Cc1ccc(O)c(OC)c1
REMARK SMILES IDX 4 1 12 2 9 3 7 4 6 5 5 6 3 7 1 8 2 9 10 10 11 11 8 12
REMARK H PARENT 8 13
REMARK Flexibility Score: inf
ROOT
ATOM      1  C   UNL     1     136.030   3.117  94.956  1.00  0.00    -0.022 A 
ATOM      2  C   UNL     1     134.870   3.303  94.184  1.00  0.00     0.058 A 
ATOM      3  C   UNL     1     134.242   4.563  94.112  1.00  0.00     0.161 A 
ATOM      4  C   UNL     1     134.795   5.646  94.818  1.00  0.00     0.157 A 
ATOM      5  C   UNL     1     135.955   5.469  95.575  1.00  0.00     0.051 A 
ATOM      6  C   UNL     1     136.574   4.219  95.644  1.00  0.00     0.012 A 
ENDROOT
BRANCH   1   7
ATOM      7  C   UNL     1     136.654   1.771  94.988  1.00  0.00     0.003 C 
ATOM      8  C   UNL     1     136.666  -0.692  95.060  1.00  0.00     0.035 C 
ATOM      9  C   UNL     1     135.962   0.627  95.045  1.00  0.00    -0.030 C 
ENDBRANCH   1   7
BRANCH   3  10
ATOM     10  O   UNL     1     133.078   4.772  93.356  1.00  0.00    -0.493 OA
ATOM     11  C   UNL     1     132.072   3.790  93.132  1.00  0.00     0.278 C 
ENDBRANCH   3  10
BRANCH   4  12
ATOM     12  O   UNL     1     134.206   6.910  94.776  1.00  0.00    -0.504 OA
ATOM     13  H   UNL     1     133.692   7.293  95.561  1.00  0.00     0.293 HD
ENDBRANCH   4  12
TORSDOF 3
ENDMDL
MODEL 4
REMARK VINA RESULT:    -4.729      1.773      2.045
REMARK INTER + INTRA:          -5.572
REMARK INTER:                  -5.410
REMARK INTRA:                  -0.162
REMARK UNBOUND:                -0.151
REMARK SMILES CC=Cc1ccc(O)c(OC)c1
REMARK SMILES IDX 4 1 12 2 9 3 7 4 6 5 5 6 3 7 1 8 2 9 10 10 11 11 8 12
REMARK H PARENT 8 13
REMARK Flexibility Score: inf
ROOT
ATOM      1  C   UNL     1     135.127   2.888  95.190  1.00  0.00    -0.022 A 
ATOM      2  C   UNL     1     134.421   2.642  94.000  1.00  0.00     0.058 A 
ATOM      3  C   UNL     1     133.919   1.358  93.707  1.00  0.00     0.161 A 
ATOM      4  C   UNL     1     134.123   0.316  94.629  1.00  0.00     0.157 A 
ATOM      5  C   UNL     1     134.812   0.559  95.819  1.00  0.00     0.051 A 
ATOM      6  C   UNL     1     135.307   1.832  96.105  1.00  0.00     0.012 A 
ENDROOT
BRANCH   1   7
ATOM      7  C   UNL     1     135.625   4.261  95.450  1.00  0.00     0.003 C 
ATOM      8  C   UNL     1     135.924   6.662  94.983  1.00  0.00     0.035 C 
ATOM      9  C   UNL     1     135.398   5.304  94.643  1.00  0.00    -0.030 C 
ENDBRANCH   1   7
BRANCH   3  10
ATOM     10  O   UNL     1     133.219   1.085  92.521  1.00  0.00    -0.493 OA
ATOM     11  C   UNL     1     132.109   1.839  92.046  1.00  0.00     0.278 C 
ENDBRANCH   3  10
BRANCH   4  12
ATOM     12  O   UNL     1     133.644  -0.971  94.380  1.00  0.00    -0.504 OA
ATOM     13  H   UNL     1     132.802  -1.140  93.843  1.00  0.00     0.293 HD
ENDBRANCH   4  12
TORSDOF 3
ENDMDL
MODEL 5
REMARK VINA RESULT:    -4.690      2.769      5.172
REMARK INTER + INTRA:          -5.527
REMARK INTER:                  -5.368
REMARK INTRA:                  -0.159
REMARK UNBOUND:                -0.151
REMARK SMILES CC=Cc1ccc(O)c(OC)c1
REMARK SMILES IDX 4 1 12 2 9 3 7 4 6 5 5 6 3 7 1 8 2 9 10 10 11 11 8 12
REMARK H PARENT 8 13
REMARK Flexibility Score: inf
ROOT
ATOM      1  C   UNL     1     134.250  -0.237  95.061  1.00  0.00    -0.022 A 
ATOM      2  C   UNL     1     133.413   0.121  93.990  1.00  0.00     0.058 A 
ATOM      3  C   UNL     1     133.477   1.409  93.420  1.00  0.00     0.161 A 
ATOM      4  C   UNL     1     134.401   2.338  93.929  1.00  0.00     0.157 A 
ATOM      5  C   UNL     1     135.244   1.982  94.984  1.00  0.00     0.051 A 
ATOM      6  C   UNL     1     135.177   0.706  95.545  1.00  0.00     0.012 A 
ENDROOT
BRANCH   1   7
ATOM      7  C   UNL     1     134.145  -1.609  95.615  1.00  0.00     0.003 C 
ATOM      8  C   UNL     1     133.337  -3.936  95.703  1.00  0.00     0.035 C 
ATOM      9  C   UNL     1     133.377  -2.572  95.091  1.00  0.00    -0.030 C 
ENDBRANCH   1   7
BRANCH   3  10
ATOM     10  O   UNL     1     132.646   1.793  92.356  1.00  0.00    -0.493 OA
ATOM     11  C   UNL     1     132.383   0.996  91.206  1.00  0.00     0.278 C 
ENDBRANCH   3  10
BRANCH   4  12
ATOM     12  O   UNL     1     134.498   3.624  93.396  1.00  0.00    -0.504 OA
ATOM     13  H   UNL     1     134.220   4.448  93.917  1.00  0.00     0.293 HD
ENDBRANCH   4  12
TORSDOF 3
ENDMDL
MODEL 6
REMARK VINA RESULT:    -4.645      2.623      5.386
REMARK INTER + INTRA:          -5.475
REMARK INTER:                  -5.295
REMARK INTRA:                  -0.180
REMARK UNBOUND:                -0.151
REMARK SMILES CC=Cc1ccc(O)c(OC)c1
REMARK SMILES IDX 4 1 12 2 9 3 7 4 6 5 5 6 3 7 1 8 2 9 10 10 11 11 8 12
REMARK H PARENT 8 13
REMARK Flexibility Score: inf
ROOT
ATOM      1  C   UNL     1     134.065   0.547  94.728  1.00  0.00    -0.022 A 
ATOM      2  C   UNL     1     135.036   1.502  95.074  1.00  0.00     0.058 A 
ATOM      3  C   UNL     1     135.035   2.782  94.484  1.00  0.00     0.161 A 
ATOM      4  C   UNL     1     134.038   3.104  93.546  1.00  0.00     0.157 A 
ATOM      5  C   UNL     1     133.063   2.163  93.211  1.00  0.00     0.051 A 
ATOM      6  C   UNL     1     133.068   0.896  93.797  1.00  0.00     0.012 A 
ENDROOT
BRANCH   1   7
ATOM      7  C   UNL     1     134.109  -0.782  95.387  1.00  0.00     0.003 C 
ATOM      8  C   UNL     1     133.550  -3.166  95.663  1.00  0.00     0.035 C 
ATOM      9  C   UNL     1     133.442  -1.857  94.950  1.00  0.00    -0.030 C 
ENDBRANCH   1   7
BRANCH   3  10
ATOM     10  O   UNL     1     136.000   3.750  94.805  1.00  0.00    -0.493 OA
ATOM     11  C   UNL     1     135.933   4.614  95.935  1.00  0.00     0.278 C 
ENDBRANCH   3  10
BRANCH   4  12
ATOM     12  O   UNL     1     134.000   4.359  92.938  1.00  0.00    -0.504 OA
ATOM     13  H   UNL     1     134.617   5.113  93.214  1.00  0.00     0.293 HD
ENDBRANCH   4  12
TORSDOF 3
ENDMDL
MODEL 7
REMARK VINA RESULT:    -4.464      3.102      5.415
REMARK INTER + INTRA:          -5.268
REMARK INTER:                  -5.095
REMARK INTRA:                  -0.173
REMARK UNBOUND:                -0.151
REMARK SMILES CC=Cc1ccc(O)c(OC)c1
REMARK SMILES IDX 4 1 12 2 9 3 7 4 6 5 5 6 3 7 1 8 2 9 10 10 11 11 8 12
REMARK H PARENT 8 13
REMARK Flexibility Score: inf
ROOT
ATOM      1  C   UNL     1     133.587   2.981  94.060  1.00  0.00    -0.022 A 
ATOM      2  C   UNL     1     133.674   4.384  94.082  1.00  0.00     0.058 A 
ATOM      3  C   UNL     1     132.516   5.183  93.994  1.00  0.00     0.161 A 
ATOM      4  C   UNL     1     131.259   4.559  93.893  1.00  0.00     0.157 A 
ATOM      5  C   UNL     1     131.168   3.166  93.885  1.00  0.00     0.051 A 
ATOM      6  C   UNL     1     132.318   2.379  93.972  1.00  0.00     0.012 A 
ENDROOT
BRANCH   1   7
ATOM      7  C   UNL     1     134.839   2.191  94.165  1.00  0.00     0.003 C 
ATOM      8  C   UNL     1     137.175   1.771  94.826  1.00  0.00     0.035 C 
ATOM      9  C   UNL     1     135.958   2.636  94.749  1.00  0.00    -0.030 C 
ENDBRANCH   1   7
BRANCH   3  10
ATOM     10  O   UNL     1     132.576   6.585  94.005  1.00  0.00    -0.493 OA
ATOM     11  C   UNL     1     132.807   7.376  95.166  1.00  0.00     0.278 C 
ENDBRANCH   3  10
BRANCH   4  12
ATOM     12  O   UNL     1     130.087   5.310  93.802  1.00  0.00    -0.504 OA
ATOM     13  H   UNL     1     129.334   5.221  94.475  1.00  0.00     0.293 HD
ENDBRANCH   4  12
TORSDOF 3
ENDMDL
MODEL 8
REMARK VINA RESULT:    -3.114      2.544      4.752
REMARK INTER + INTRA:          -3.720
REMARK INTER:                  -3.556
REMARK INTRA:                  -0.164
REMARK UNBOUND:                -0.151
REMARK SMILES CC=Cc1ccc(O)c(OC)c1
REMARK SMILES IDX 4 1 12 2 9 3 7 4 6 5 5 6 3 7 1 8 2 9 10 10 11 11 8 12
REMARK H PARENT 8 13
REMARK Flexibility Score: inf
ROOT
ATOM      1  C   UNL     1     135.034   1.074  94.889  1.00  0.00    -0.022 A 
ATOM      2  C   UNL     1     134.343   2.208  95.349  1.00  0.00     0.058 A 
ATOM      3  C   UNL     1     135.029   3.401  95.655  1.00  0.00     0.161 A 
ATOM      4  C   UNL     1     136.423   3.452  95.484  1.00  0.00     0.157 A 
ATOM      5  C   UNL     1     137.113   2.332  95.014  1.00  0.00     0.051 A 
ATOM      6  C   UNL     1     136.429   1.153  94.713  1.00  0.00     0.012 A 
ENDROOT
BRANCH   1   7
ATOM      7  C   UNL     1     134.259  -0.151  94.574  1.00  0.00     0.003 C 
ATOM      8  C   UNL     1     133.378  -2.414  94.992  1.00  0.00     0.035 C 
ATOM      9  C   UNL     1     134.193  -1.221  95.376  1.00  0.00    -0.030 C 
ENDBRANCH   1   7
BRANCH   3  10
ATOM     10  O   UNL     1     134.362   4.543  96.125  1.00  0.00    -0.493 OA
ATOM     11  C   UNL     1     133.759   5.528  95.291  1.00  0.00     0.278 C 
ENDBRANCH   3  10
BRANCH   4  12
ATOM     12  O   UNL     1     137.143   4.611  95.775  1.00  0.00    -0.504 OA
ATOM     13  H   UNL     1     138.021   4.590  96.281  1.00  0.00     0.293 HD
ENDBRANCH   4  12
TORSDOF 3
ENDMDL
