MODEL 1
REMARK VINA RESULT:     5.229      0.000      0.000
REMARK INTER + INTRA:           8.310
REMARK INTER:                   9.202
REMARK INTRA:                  -0.892
REMARK UNBOUND:                -0.892
REMARK SMILES CCCCCCCCCCCCCCC(=O)[O-]
REMARK SMILES IDX 9 1 10 2 11 3 12 4 13 5 14 6 15 7 16 8 17 9 8 10 7 11 6 12
REMARK SMILES IDX 5 13 4 14 3 15 2 16 1 17
REMARK H PARENT
REMARK Flexibility Score: inf
ROOT
ATOM      1  C   UNL     1      15.925  15.153 -12.834  1.00  0.00     0.000 C 
ENDROOT
BRANCH   1   2
ATOM      2  C   UNL     1      17.337  14.694 -13.226  1.00  0.00     0.000 C 
BRANCH   2   3
ATOM      3  C   UNL     1      18.316  15.874 -13.233  1.00  0.00     0.000 C 
BRANCH   3   4
ATOM      4  C   UNL     1      17.726  17.082 -12.490  1.00  0.00     0.000 C 
BRANCH   4   5
ATOM      5  C   UNL     1      18.751  17.780 -11.577  1.00  0.00     0.006 C 
BRANCH   5   6
ATOM      6  C   UNL     1      18.393  19.230 -11.217  1.00  0.00     0.053 C 
BRANCH   6   7
ATOM      7  C   UNL     1      18.774  20.189 -12.302  1.00  0.00     0.041 C 
ATOM      8  O   UNL     1      19.891  20.769 -12.272  1.00  0.00    -0.550 OA
ATOM      9  O   UNL     1      17.881  20.470 -13.329  1.00  0.00    -0.550 OA
ENDBRANCH   6   7
ENDBRANCH   5   6
ENDBRANCH   4   5
ENDBRANCH   3   4
ENDBRANCH   2   3
ENDBRANCH   1   2
BRANCH   1  10
ATOM     10  C   UNL     1      15.329  14.336 -11.673  1.00  0.00     0.000 C 
BRANCH  10  11
ATOM     11  C   UNL     1      14.625  15.169 -10.585  1.00  0.00    -0.000 C 
BRANCH  11  12
ATOM     12  C   UNL     1      15.569  15.854  -9.579  1.00  0.00    -0.000 C 
BRANCH  12  13
ATOM     13  C   UNL     1      15.279  15.491  -8.107  1.00  0.00    -0.000 C 
BRANCH  13  14
ATOM     14  C   UNL     1      14.033  16.211  -7.562  1.00  0.00    -0.000 C 
BRANCH  14  15
ATOM     15  C   UNL     1      14.377  17.267  -6.499  1.00  0.00    -0.000 C 
BRANCH  15  16
ATOM     16  C   UNL     1      13.131  17.831  -5.800  1.00  0.00    -0.003 C 
ATOM     17  C   UNL     1      12.017  16.790  -5.742  1.00  0.00     0.004 C 
ENDBRANCH  15  16
ENDBRANCH  14  15
ENDBRANCH  13  14
ENDBRANCH  12  13
ENDBRANCH  11  12
ENDBRANCH  10  11
ENDBRANCH   1  10
TORSDOF 13
ENDMDL
MODEL 2
REMARK VINA RESULT:     5.613      3.229      6.723
REMARK INTER + INTRA:           8.987
REMARK INTER:                   9.890
REMARK INTRA:                  -0.903
REMARK UNBOUND:                -0.892
REMARK SMILES CCCCCCCCCCCCCCC(=O)[O-]
REMARK SMILES IDX 9 1 10 2 11 3 12 4 13 5 14 6 15 7 16 8 17 9 8 10 7 11 6 12
REMARK SMILES IDX 5 13 4 14 3 15 2 16 1 17
REMARK H PARENT
REMARK Flexibility Score: inf
ROOT
ATOM      1  C   UNL     1      15.680  15.310 -12.435  1.00  0.00     0.000 C 
ENDROOT
BRANCH   1   2
ATOM      2  C   UNL     1      15.156  14.361 -11.347  1.00  0.00     0.000 C 
BRANCH   2   3
ATOM      3  C   UNL     1      14.474  15.144 -10.218  1.00  0.00     0.000 C 
BRANCH   3   4
ATOM      4  C   UNL     1      15.513  15.731  -9.251  1.00  0.00     0.000 C 
BRANCH   4   5
ATOM      5  C   UNL     1      15.029  15.741  -7.789  1.00  0.00     0.006 C 
BRANCH   5   6
ATOM      6  C   UNL     1      13.636  16.358  -7.589  1.00  0.00     0.053 C 
BRANCH   6   7
ATOM      7  C   UNL     1      13.565  17.194  -6.348  1.00  0.00     0.041 C 
ATOM      8  O   UNL     1      12.613  17.044  -5.537  1.00  0.00    -0.550 OA
ATOM      9  O   UNL     1      14.530  18.163  -6.105  1.00  0.00    -0.550 OA
ENDBRANCH   6   7
ENDBRANCH   5   6
ENDBRANCH   4   5
ENDBRANCH   3   4
ENDBRANCH   2   3
ENDBRANCH   1   2
BRANCH   1  10
ATOM     10  C   UNL     1      16.875  14.729 -13.213  1.00  0.00     0.000 C 
BRANCH  10  11
ATOM     11  C   UNL     1      18.155  15.585 -13.174  1.00  0.00    -0.000 C 
BRANCH  11  12
ATOM     12  C   UNL     1      17.933  17.069 -12.821  1.00  0.00    -0.000 C 
BRANCH  12  13
ATOM     13  C   UNL     1      18.440  17.456 -11.415  1.00  0.00    -0.000 C 
BRANCH  13  14
ATOM     14  C   UNL     1      18.308  18.964 -11.141  1.00  0.00    -0.000 C 
BRANCH  14  15
ATOM     15  C   UNL     1      18.448  19.812 -12.416  1.00  0.00    -0.000 C 
BRANCH  15  16
ATOM     16  C   UNL     1      19.313  21.063 -12.203  1.00  0.00    -0.003 C 
ATOM     17  C   UNL     1      20.796  20.734 -12.336  1.00  0.00     0.004 C 
ENDBRANCH  15  16
ENDBRANCH  14  15
ENDBRANCH  13  14
ENDBRANCH  12  13
ENDBRANCH  11  12
ENDBRANCH  10  11
ENDBRANCH   1  10
TORSDOF 13
ENDMDL
MODEL 3
REMARK VINA RESULT:     5.889      7.628     11.921
REMARK INTER + INTRA:           9.473
REMARK INTER:                   9.703
REMARK INTRA:                  -0.230
REMARK UNBOUND:                -0.892
REMARK SMILES CCCCCCCCCCCCCCC(=O)[O-]
REMARK SMILES IDX 9 1 10 2 11 3 12 4 13 5 14 6 15 7 16 8 17 9 8 10 7 11 6 12
REMARK SMILES IDX 5 13 4 14 3 15 2 16 1 17
REMARK H PARENT
REMARK Flexibility Score: inf
ROOT
ATOM      1  C   UNL     1      10.315  14.041  -1.825  1.00  0.00     0.000 C 
ENDROOT
BRANCH   1   2
ATOM      2  C   UNL     1      10.580  13.287  -0.514  1.00  0.00     0.000 C 
BRANCH   2   3
ATOM      3  C   UNL     1      12.086  13.160  -0.248  1.00  0.00     0.000 C 
BRANCH   3   4
ATOM      4  C   UNL     1      12.360  12.884   1.238  1.00  0.00     0.000 C 
BRANCH   4   5
ATOM      5  C   UNL     1      12.138  14.123   2.125  1.00  0.00     0.006 C 
BRANCH   5   6
ATOM      6  C   UNL     1      10.711  14.689   2.075  1.00  0.00     0.053 C 
BRANCH   6   7
ATOM      7  C   UNL     1      10.696  16.146   1.729  1.00  0.00     0.041 C 
ATOM      8  O   UNL     1      11.777  16.784   1.626  1.00  0.00    -0.550 OA
ATOM      9  O   UNL     1       9.487  16.808   1.554  1.00  0.00    -0.550 OA
ENDBRANCH   6   7
ENDBRANCH   5   6
ENDBRANCH   4   5
ENDBRANCH   3   4
ENDBRANCH   2   3
ENDBRANCH   1   2
BRANCH   1  10
ATOM     10  C   UNL     1      10.652  13.207  -3.076  1.00  0.00     0.000 C 
BRANCH  10  11
ATOM     11  C   UNL     1      11.464  13.949  -4.153  1.00  0.00    -0.000 C 
BRANCH  11  12
ATOM     12  C   UNL     1      10.821  15.251  -4.670  1.00  0.00    -0.000 C 
BRANCH  12  13
ATOM     13  C   UNL     1      11.603  15.915  -5.824  1.00  0.00    -0.000 C 
BRANCH  13  14
ATOM     14  C   UNL     1      12.429  17.123  -5.350  1.00  0.00    -0.000 C 
BRANCH  14  15
ATOM     15  C   UNL     1      13.770  17.250  -6.092  1.00  0.00    -0.000 C 
BRANCH  15  16
ATOM     16  C   UNL     1      13.788  16.478  -7.419  1.00  0.00    -0.003 C 
ATOM     17  C   UNL     1      15.063  15.650  -7.555  1.00  0.00     0.004 C 
ENDBRANCH  15  16
ENDBRANCH  14  15
ENDBRANCH  13  14
ENDBRANCH  12  13
ENDBRANCH  11  12
ENDBRANCH  10  11
ENDBRANCH   1  10
TORSDOF 13
ENDMDL
MODEL 4
REMARK VINA RESULT:     6.245      6.644     10.685
REMARK INTER + INTRA:          10.098
REMARK INTER:                  10.511
REMARK INTRA:                  -0.413
REMARK UNBOUND:                -0.892
REMARK SMILES CCCCCCCCCCCCCCC(=O)[O-]
REMARK SMILES IDX 9 1 10 2 11 3 12 4 13 5 14 6 15 7 16 8 17 9 8 10 7 11 6 12
REMARK SMILES IDX 5 13 4 14 3 15 2 16 1 17
REMARK H PARENT
REMARK Flexibility Score: inf
ROOT
ATOM      1  C   UNL     1      11.546  14.130  -1.318  1.00  0.00     0.000 C 
ENDROOT
BRANCH   1   2
ATOM      2  C   UNL     1      10.595  13.440  -2.306  1.00  0.00     0.000 C 
BRANCH   2   3
ATOM      3  C   UNL     1      11.000  13.738  -3.756  1.00  0.00     0.000 C 
BRANCH   3   4
ATOM      4  C   UNL     1      11.310  15.231  -3.944  1.00  0.00     0.000 C 
BRANCH   4   5
ATOM      5  C   UNL     1      11.859  15.554  -5.345  1.00  0.00     0.006 C 
BRANCH   5   6
ATOM      6  C   UNL     1      12.256  17.025  -5.546  1.00  0.00     0.053 C 
BRANCH   6   7
ATOM      7  C   UNL     1      13.577  17.162  -6.238  1.00  0.00     0.041 C 
ATOM      8  O   UNL     1      14.375  18.076  -5.904  1.00  0.00    -0.550 OA
ATOM      9  O   UNL     1      13.911  16.302  -7.276  1.00  0.00    -0.550 OA
ENDBRANCH   6   7
ENDBRANCH   5   6
ENDBRANCH   4   5
ENDBRANCH   3   4
ENDBRANCH   2   3
ENDBRANCH   1   2
BRANCH   1  10
ATOM     10  C   UNL     1      11.881  13.253  -0.096  1.00  0.00     0.000 C 
BRANCH  10  11
ATOM     11  C   UNL     1      11.589  13.901   1.270  1.00  0.00    -0.000 C 
BRANCH  11  12
ATOM     12  C   UNL     1      11.772  15.431   1.315  1.00  0.00    -0.000 C 
BRANCH  12  13
ATOM     13  C   UNL     1      10.471  16.220   1.047  1.00  0.00    -0.000 C 
BRANCH  13  14
ATOM     14  C   UNL     1       9.368  15.891   2.067  1.00  0.00    -0.000 C 
BRANCH  14  15
ATOM     15  C   UNL     1       8.415  14.789   1.574  1.00  0.00    -0.000 C 
BRANCH  15  16
ATOM     16  C   UNL     1       6.990  14.950   2.124  1.00  0.00    -0.003 C 
ATOM     17  C   UNL     1       6.118  13.757   1.743  1.00  0.00     0.004 C 
ENDBRANCH  15  16
ENDBRANCH  14  15
ENDBRANCH  13  14
ENDBRANCH  12  13
ENDBRANCH  11  12
ENDBRANCH  10  11
ENDBRANCH   1  10
TORSDOF 13
ENDMDL
MODEL 5
REMARK VINA RESULT:     6.356      8.551     12.934
REMARK INTER + INTRA:          10.294
REMARK INTER:                  10.460
REMARK INTRA:                  -0.166
REMARK UNBOUND:                -0.892
REMARK SMILES CCCCCCCCCCCCCCC(=O)[O-]
REMARK SMILES IDX 9 1 10 2 11 3 12 4 13 5 14 6 15 7 16 8 17 9 8 10 7 11 6 12
REMARK SMILES IDX 5 13 4 14 3 15 2 16 1 17
REMARK H PARENT
REMARK Flexibility Score: inf
ROOT
ATOM      1  C   UNL     1      11.608  14.093  -0.601  1.00  0.00     0.000 C 
ENDROOT
BRANCH   1   2
ATOM      2  C   UNL     1      12.068  12.875   0.214  1.00  0.00     0.000 C 
BRANCH   2   3
ATOM      3  C   UNL     1      12.586  13.301   1.594  1.00  0.00     0.000 C 
BRANCH   3   4
ATOM      4  C   UNL     1      12.015  14.670   1.996  1.00  0.00     0.000 C 
BRANCH   4   5
ATOM      5  C   UNL     1      10.479  14.667   2.103  1.00  0.00     0.006 C 
BRANCH   5   6
ATOM      6  C   UNL     1       9.841  16.064   2.079  1.00  0.00     0.053 C 
BRANCH   6   7
ATOM      7  C   UNL     1       8.345  15.999   2.064  1.00  0.00     0.041 C 
ATOM      8  O   UNL     1       7.665  17.058   2.028  1.00  0.00    -0.550 OA
ATOM      9  O   UNL     1       7.701  14.769   2.125  1.00  0.00    -0.550 OA
ENDBRANCH   6   7
ENDBRANCH   5   6
ENDBRANCH   4   5
ENDBRANCH   3   4
ENDBRANCH   2   3
ENDBRANCH   1   2
BRANCH   1  10
ATOM     10  C   UNL     1      10.141  13.990  -1.057  1.00  0.00     0.000 C 
BRANCH  10  11
ATOM     11  C   UNL     1       9.946  13.730  -2.563  1.00  0.00    -0.000 C 
BRANCH  11  12
ATOM     12  C   UNL     1      11.244  13.473  -3.351  1.00  0.00    -0.000 C 
BRANCH  12  13
ATOM     13  C   UNL     1      11.138  13.817  -4.853  1.00  0.00    -0.000 C 
BRANCH  13  14
ATOM     14  C   UNL     1      10.775  15.293  -5.090  1.00  0.00    -0.000 C 
BRANCH  14  15
ATOM     15  C   UNL     1      11.989  16.229  -4.971  1.00  0.00    -0.000 C 
BRANCH  15  16
ATOM     16  C   UNL     1      12.503  16.708  -6.337  1.00  0.00    -0.003 C 
ATOM     17  C   UNL     1      13.893  17.326  -6.213  1.00  0.00     0.004 C 
ENDBRANCH  15  16
ENDBRANCH  14  15
ENDBRANCH  13  14
ENDBRANCH  12  13
ENDBRANCH  11  12
ENDBRANCH  10  11
ENDBRANCH   1  10
TORSDOF 13
ENDMDL
MODEL 6
REMARK VINA RESULT:     6.454      6.381     10.291
REMARK INTER + INTRA:          10.467
REMARK INTER:                  11.103
REMARK INTRA:                  -0.636
REMARK UNBOUND:                -0.892
REMARK SMILES CCCCCCCCCCCCCCC(=O)[O-]
REMARK SMILES IDX 9 1 10 2 11 3 12 4 13 5 14 6 15 7 16 8 17 9 8 10 7 11 6 12
REMARK SMILES IDX 5 13 4 14 3 15 2 16 1 17
REMARK H PARENT
REMARK Flexibility Score: inf
ROOT
ATOM      1  C   UNL     1      10.712  14.296  -1.659  1.00  0.00     0.000 C 
ENDROOT
BRANCH   1   2
ATOM      2  C   UNL     1      10.133  13.715  -2.957  1.00  0.00     0.000 C 
BRANCH   2   3
ATOM      3  C   UNL     1      11.070  13.980  -4.143  1.00  0.00     0.000 C 
BRANCH   3   4
ATOM      4  C   UNL     1      10.756  15.333  -4.799  1.00  0.00     0.000 C 
BRANCH   4   5
ATOM      5  C   UNL     1      11.870  15.808  -5.750  1.00  0.00     0.006 C 
BRANCH   5   6
ATOM      6  C   UNL     1      12.630  17.051  -5.262  1.00  0.00     0.053 C 
BRANCH   6   7
ATOM      7  C   UNL     1      13.659  17.505  -6.251  1.00  0.00     0.041 C 
ATOM      8  O   UNL     1      14.410  16.666  -6.814  1.00  0.00    -0.550 OA
ATOM      9  O   UNL     1      13.812  18.859  -6.525  1.00  0.00    -0.550 OA
ENDBRANCH   6   7
ENDBRANCH   5   6
ENDBRANCH   4   5
ENDBRANCH   3   4
ENDBRANCH   2   3
ENDBRANCH   1   2
BRANCH   1  10
ATOM     10  C   UNL     1      10.843  13.247  -0.539  1.00  0.00     0.000 C 
BRANCH  10  11
ATOM     11  C   UNL     1      12.289  12.916  -0.123  1.00  0.00    -0.000 C 
BRANCH  11  12
ATOM     12  C   UNL     1      12.589  13.088   1.378  1.00  0.00    -0.000 C 
BRANCH  12  13
ATOM     13  C   UNL     1      11.548  13.951   2.125  1.00  0.00    -0.000 C 
BRANCH  13  14
ATOM     14  C   UNL     1      11.582  15.423   1.681  1.00  0.00    -0.000 C 
BRANCH  14  15
ATOM     15  C   UNL     1      10.301  16.185   2.057  1.00  0.00    -0.000 C 
BRANCH  15  16
ATOM     16  C   UNL     1       9.039  15.318   1.936  1.00  0.00    -0.003 C 
ATOM     17  C   UNL     1       7.778  16.156   2.124  1.00  0.00     0.004 C 
ENDBRANCH  15  16
ENDBRANCH  14  15
ENDBRANCH  13  14
ENDBRANCH  12  13
ENDBRANCH  11  12
ENDBRANCH  10  11
ENDBRANCH   1  10
TORSDOF 13
ENDMDL
MODEL 7
REMARK VINA RESULT:     7.005      4.359      7.064
REMARK INTER + INTRA:          11.436
REMARK INTER:                  12.032
REMARK INTRA:                  -0.597
REMARK UNBOUND:                -0.892
REMARK SMILES CCCCCCCCCCCCCCC(=O)[O-]
REMARK SMILES IDX 9 1 10 2 11 3 12 4 13 5 14 6 15 7 16 8 17 9 8 10 7 11 6 12
REMARK SMILES IDX 5 13 4 14 3 15 2 16 1 17
REMARK H PARENT
REMARK Flexibility Score: inf
ROOT
ATOM      1  C   UNL     1      19.948  19.967 -12.206  1.00  0.00     0.000 C 
ENDROOT
BRANCH   1   2
ATOM      2  C   UNL     1      19.856  21.500 -12.205  1.00  0.00     0.000 C 
BRANCH   2   3
ATOM      3  C   UNL     1      18.574  21.973 -12.901  1.00  0.00     0.000 C 
BRANCH   3   4
ATOM      4  C   UNL     1      18.537  23.506 -13.001  1.00  0.00     0.000 C 
BRANCH   4   5
ATOM      5  C   UNL     1      18.010  24.002 -14.361  1.00  0.00     0.006 C 
BRANCH   5   6
ATOM      6  C   UNL     1      18.298  25.484 -14.648  1.00  0.00     0.053 C 
BRANCH   6   7
ATOM      7  C   UNL     1      18.929  25.684 -15.991  1.00  0.00     0.041 C 
ATOM      8  O   UNL     1      18.316  26.318 -16.891  1.00  0.00    -0.550 OA
ATOM      9  O   UNL     1      20.178  25.139 -16.263  1.00  0.00    -0.550 OA
ENDBRANCH   6   7
ENDBRANCH   5   6
ENDBRANCH   4   5
ENDBRANCH   3   4
ENDBRANCH   2   3
ENDBRANCH   1   2
BRANCH   1  10
ATOM     10  C   UNL     1      18.618  19.286 -12.579  1.00  0.00     0.000 C 
BRANCH  10  11
ATOM     11  C   UNL     1      18.292  18.013 -11.775  1.00  0.00    -0.000 C 
BRANCH  11  12
ATOM     12  C   UNL     1      18.110  16.739 -12.623  1.00  0.00    -0.000 C 
BRANCH  12  13
ATOM     13  C   UNL     1      16.718  16.087 -12.476  1.00  0.00    -0.000 C 
BRANCH  13  14
ATOM     14  C   UNL     1      16.648  14.702 -13.141  1.00  0.00    -0.000 C 
BRANCH  14  15
ATOM     15  C   UNL     1      17.973  14.298 -13.808  1.00  0.00    -0.000 C 
BRANCH  15  16
ATOM     16  C   UNL     1      18.705  13.185 -13.043  1.00  0.00    -0.003 C 
ATOM     17  C   UNL     1      20.150  13.579 -12.752  1.00  0.00     0.004 C 
ENDBRANCH  15  16
ENDBRANCH  14  15
ENDBRANCH  13  14
ENDBRANCH  12  13
ENDBRANCH  11  12
ENDBRANCH  10  11
ENDBRANCH   1  10
TORSDOF 13
ENDMDL
MODEL 8
REMARK VINA RESULT:     7.345      5.619      9.137
REMARK INTER + INTRA:          12.034
REMARK INTER:                  12.518
REMARK INTRA:                  -0.484
REMARK UNBOUND:                -0.892
REMARK SMILES CCCCCCCCCCCCCCC(=O)[O-]
REMARK SMILES IDX 9 1 10 2 11 3 12 4 13 5 14 6 15 7 16 8 17 9 8 10 7 11 6 12
REMARK SMILES IDX 5 13 4 14 3 15 2 16 1 17
REMARK H PARENT
REMARK Flexibility Score: inf
ROOT
ATOM      1  C   UNL     1      10.875  14.351  -3.969  1.00  0.00     0.000 C 
ENDROOT
BRANCH   1   2
ATOM      2  C   UNL     1      11.856  15.525  -4.096  1.00  0.00     0.000 C 
BRANCH   2   3
ATOM      3  C   UNL     1      11.779  16.156  -5.492  1.00  0.00     0.000 C 
BRANCH   3   4
ATOM      4  C   UNL     1      12.700  17.381  -5.593  1.00  0.00     0.000 C 
BRANCH   4   5
ATOM      5  C   UNL     1      13.994  17.092  -6.376  1.00  0.00     0.006 C 
BRANCH   5   6
ATOM      6  C   UNL     1      13.769  16.461  -7.759  1.00  0.00     0.053 C 
BRANCH   6   7
ATOM      7  C   UNL     1      14.959  15.677  -8.219  1.00  0.00     0.041 C 
ATOM      8  O   UNL     1      15.722  15.132  -7.380  1.00  0.00    -0.550 OA
ATOM      9  O   UNL     1      15.246  15.579  -9.575  1.00  0.00    -0.550 OA
ENDBRANCH   6   7
ENDBRANCH   5   6
ENDBRANCH   4   5
ENDBRANCH   3   4
ENDBRANCH   2   3
ENDBRANCH   1   2
BRANCH   1  10
ATOM     10  C   UNL     1      10.505  14.034  -2.507  1.00  0.00     0.000 C 
BRANCH  10  11
ATOM     11  C   UNL     1      11.681  13.578  -1.623  1.00  0.00    -0.000 C 
BRANCH  11  12
ATOM     12  C   UNL     1      11.474  13.784  -0.111  1.00  0.00    -0.000 C 
BRANCH  12  13
ATOM     13  C   UNL     1      10.014  14.103   0.279  1.00  0.00    -0.000 C 
BRANCH  13  14
ATOM     14  C   UNL     1       9.848  14.318   1.793  1.00  0.00    -0.000 C 
BRANCH  14  15
ATOM     15  C   UNL     1       8.915  15.495   2.125  1.00  0.00    -0.000 C 
BRANCH  15  16
ATOM     16  C   UNL     1       9.641  16.849   2.108  1.00  0.00    -0.003 C 
ATOM     17  C   UNL     1      11.155  16.659   2.125  1.00  0.00     0.004 C 
ENDBRANCH  15  16
ENDBRANCH  14  15
ENDBRANCH  13  14
ENDBRANCH  12  13
ENDBRANCH  11  12
ENDBRANCH  10  11
ENDBRANCH   1  10
TORSDOF 13
ENDMDL
MODEL 9
REMARK VINA RESULT:     7.495      6.362     10.548
REMARK INTER + INTRA:          12.299
REMARK INTER:                  11.474
REMARK INTRA:                   0.825
REMARK UNBOUND:                -0.892
REMARK SMILES CCCCCCCCCCCCCCC(=O)[O-]
REMARK SMILES IDX 9 1 10 2 11 3 12 4 13 5 14 6 15 7 16 8 17 9 8 10 7 11 6 12
REMARK SMILES IDX 5 13 4 14 3 15 2 16 1 17
REMARK H PARENT
REMARK Flexibility Score: inf
ROOT
ATOM      1  C   UNL     1      10.289  14.347  -1.546  1.00  0.00     0.000 C 
ENDROOT
BRANCH   1   2
ATOM      2  C   UNL     1      10.248  13.225  -2.593  1.00  0.00     0.000 C 
BRANCH   2   3
ATOM      3  C   UNL     1      11.076  13.597  -3.830  1.00  0.00     0.000 C 
BRANCH   3   4
ATOM      4  C   UNL     1      11.275  15.118  -3.919  1.00  0.00     0.000 C 
BRANCH   4   5
ATOM      5  C   UNL     1      11.750  15.576  -5.310  1.00  0.00     0.006 C 
BRANCH   5   6
ATOM      6  C   UNL     1      12.235  17.033  -5.365  1.00  0.00     0.053 C 
BRANCH   6   7
ATOM      7  C   UNL     1      13.451  17.190  -6.225  1.00  0.00     0.041 C 
ATOM      8  O   UNL     1      14.210  18.183  -6.075  1.00  0.00    -0.550 OA
ATOM      9  O   UNL     1      13.727  16.257  -7.217  1.00  0.00    -0.550 OA
ENDBRANCH   6   7
ENDBRANCH   5   6
ENDBRANCH   4   5
ENDBRANCH   3   4
ENDBRANCH   2   3
ENDBRANCH   1   2
BRANCH   1  10
ATOM     10  C   UNL     1       9.134  14.263  -0.531  1.00  0.00     0.000 C 
BRANCH  10  11
ATOM     11  C   UNL     1       9.551  14.423   0.943  1.00  0.00    -0.000 C 
BRANCH  11  12
ATOM     12  C   UNL     1       9.502  15.867   1.479  1.00  0.00    -0.000 C 
BRANCH  12  13
ATOM     13  C   UNL     1      10.875  16.575   1.481  1.00  0.00    -0.000 C 
BRANCH  13  14
ATOM     14  C   UNL     1      12.039  15.591   1.685  1.00  0.00    -0.000 C 
BRANCH  14  15
ATOM     15  C   UNL     1      11.566  14.196   2.125  1.00  0.00    -0.000 C 
BRANCH  15  16
ATOM     16  C   UNL     1      12.575  13.091   1.777  1.00  0.00    -0.003 C 
ATOM     17  C   UNL     1      12.654  12.875   0.269  1.00  0.00     0.004 C 
ENDBRANCH  15  16
ENDBRANCH  14  15
ENDBRANCH  13  14
ENDBRANCH  12  13
ENDBRANCH  11  12
ENDBRANCH  10  11
ENDBRANCH   1  10
TORSDOF 13
ENDMDL
