MODEL 1
REMARK VINA RESULT:    -3.790      0.000      0.000
REMARK INTER + INTRA:          -6.007
REMARK INTER:                  -5.342
REMARK INTRA:                  -0.665
REMARK UNBOUND:                -0.665
REMARK SMILES CCCCCCCCC(=O)[O-]
REMARK SMILES IDX 6 1 7 2 8 3 9 4 10 5 11 6 5 7 4 8 3 9 2 10 1 11
REMARK H PARENT
REMARK Flexibility Score: inf
ROOT
ATOM      1  C   UNL     1       6.889  33.898  70.855  1.00  0.00     0.000 C 
ENDROOT
BRANCH   1   2
ATOM      2  C   UNL     1       5.379  34.124  71.030  1.00  0.00     0.006 C 
BRANCH   2   3
ATOM      3  C   UNL     1       4.963  35.491  70.480  1.00  0.00     0.053 C 
BRANCH   3   4
ATOM      4  C   UNL     1       3.543  35.792  70.840  1.00  0.00     0.041 C 
ATOM      5  O   UNL     1       3.180  35.787  72.046  1.00  0.00    -0.550 OA
ATOM      6  O   UNL     1       2.607  36.027  69.841  1.00  0.00    -0.550 OA
ENDBRANCH   3   4
ENDBRANCH   2   3
ENDBRANCH   1   2
BRANCH   1   7
ATOM      7  C   UNL     1       7.211  32.563  70.166  1.00  0.00     0.000 C 
BRANCH   7   8
ATOM      8  C   UNL     1       7.774  32.748  68.748  1.00  0.00    -0.000 C 
BRANCH   8   9
ATOM      9  C   UNL     1       7.775  34.231  68.349  1.00  0.00    -0.000 C 
BRANCH   9  10
ATOM     10  C   UNL     1       6.967  34.500  67.069  1.00  0.00    -0.003 C 
ATOM     11  C   UNL     1       5.597  33.821  67.081  1.00  0.00     0.004 C 
ENDBRANCH   9  10
ENDBRANCH   8   9
ENDBRANCH   7   8
ENDBRANCH   1   7
TORSDOF 7
ENDMDL
MODEL 2
REMARK VINA RESULT:    -3.719     13.415     14.503
REMARK INTER + INTRA:          -5.907
REMARK INTER:                  -5.676
REMARK INTRA:                  -0.231
REMARK UNBOUND:                -0.665
REMARK SMILES CCCCCCCCC(=O)[O-]
REMARK SMILES IDX 6 1 7 2 8 3 9 4 10 5 11 6 5 7 4 8 3 9 2 10 1 11
REMARK H PARENT
REMARK Flexibility Score: inf
ROOT
ATOM      1  C   UNL     1      16.626  42.965  73.808  1.00  0.00     0.000 C 
ENDROOT
BRANCH   1   2
ATOM      2  C   UNL     1      17.300  42.083  74.871  1.00  0.00     0.006 C 
BRANCH   2   3
ATOM      3  C   UNL     1      17.841  40.793  74.248  1.00  0.00     0.053 C 
BRANCH   3   4
ATOM      4  C   UNL     1      17.059  39.611  74.729  1.00  0.00     0.041 C 
ATOM      5  O   UNL     1      17.484  38.920  75.692  1.00  0.00    -0.550 OA
ATOM      6  O   UNL     1      15.887  39.242  74.082  1.00  0.00    -0.550 OA
ENDBRANCH   3   4
ENDBRANCH   2   3
ENDBRANCH   1   2
BRANCH   1   7
ATOM      7  C   UNL     1      15.116  43.126  74.043  1.00  0.00     0.000 C 
BRANCH   7   8
ATOM      8  C   UNL     1      14.789  44.234  75.056  1.00  0.00    -0.000 C 
BRANCH   8   9
ATOM      9  C   UNL     1      13.313  44.173  75.476  1.00  0.00    -0.000 C 
BRANCH   9  10
ATOM     10  C   UNL     1      12.498  45.365  74.949  1.00  0.00    -0.003 C 
ATOM     11  C   UNL     1      11.363  45.769  75.891  1.00  0.00     0.004 C 
ENDBRANCH   9  10
ENDBRANCH   8   9
ENDBRANCH   7   8
ENDBRANCH   1   7
TORSDOF 7
ENDMDL
MODEL 3
REMARK VINA RESULT:    -3.673      9.241     10.453
REMARK INTER + INTRA:          -5.841
REMARK INTER:                  -5.430
REMARK INTRA:                  -0.411
REMARK UNBOUND:                -0.665
REMARK SMILES CCCCCCCCC(=O)[O-]
REMARK SMILES IDX 6 1 7 2 8 3 9 4 10 5 11 6 5 7 4 8 3 9 2 10 1 11
REMARK H PARENT
REMARK Flexibility Score: inf
ROOT
ATOM      1  C   UNL     1       2.844  44.012  67.589  1.00  0.00     0.000 C 
ENDROOT
BRANCH   1   2
ATOM      2  C   UNL     1       2.305  43.742  69.002  1.00  0.00     0.006 C 
BRANCH   2   3
ATOM      3  C   UNL     1       3.318  42.947  69.831  1.00  0.00     0.053 C 
BRANCH   3   4
ATOM      4  C   UNL     1       3.877  43.794  70.929  1.00  0.00     0.041 C 
ATOM      5  O   UNL     1       5.072  44.187  70.880  1.00  0.00    -0.550 OA
ATOM      6  O   UNL     1       3.094  44.109  72.033  1.00  0.00    -0.550 OA
ENDBRANCH   3   4
ENDBRANCH   2   3
ENDBRANCH   1   2
BRANCH   1   7
ATOM      7  C   UNL     1       3.247  42.724  66.852  1.00  0.00     0.000 C 
BRANCH   7   8
ATOM      8  C   UNL     1       3.509  42.954  65.356  1.00  0.00    -0.000 C 
BRANCH   8   9
ATOM      9  C   UNL     1       2.784  44.213  64.860  1.00  0.00    -0.000 C 
BRANCH   9  10
ATOM     10  C   UNL     1       3.709  45.160  64.078  1.00  0.00    -0.003 C 
ATOM     11  C   UNL     1       4.156  46.365  64.906  1.00  0.00     0.004 C 
ENDBRANCH   9  10
ENDBRANCH   8   9
ENDBRANCH   7   8
ENDBRANCH   1   7
TORSDOF 7
ENDMDL
MODEL 4
REMARK VINA RESULT:    -3.656     13.598     14.397
REMARK INTER + INTRA:          -5.817
REMARK INTER:                  -5.183
REMARK INTRA:                  -0.634
REMARK UNBOUND:                -0.665
REMARK SMILES CCCCCCCCC(=O)[O-]
REMARK SMILES IDX 6 1 7 2 8 3 9 4 10 5 11 6 5 7 4 8 3 9 2 10 1 11
REMARK H PARENT
REMARK Flexibility Score: inf
ROOT
ATOM      1  C   UNL     1      17.491  42.918  74.923  1.00  0.00     0.000 C 
ENDROOT
BRANCH   1   2
ATOM      2  C   UNL     1      16.591  43.221  73.715  1.00  0.00     0.006 C 
BRANCH   2   3
ATOM      3  C   UNL     1      15.120  42.955  74.048  1.00  0.00     0.053 C 
BRANCH   3   4
ATOM      4  C   UNL     1      14.510  44.146  74.715  1.00  0.00     0.041 C 
ATOM      5  O   UNL     1      14.937  45.303  74.461  1.00  0.00    -0.550 OA
ATOM      6  O   UNL     1      13.502  43.976  75.656  1.00  0.00    -0.550 OA
ENDBRANCH   3   4
ENDBRANCH   2   3
ENDBRANCH   1   2
BRANCH   1   7
ATOM      7  C   UNL     1      18.533  41.827  74.627  1.00  0.00     0.000 C 
BRANCH   7   8
ATOM      8  C   UNL     1      18.766  40.889  75.821  1.00  0.00    -0.000 C 
BRANCH   8   9
ATOM      9  C   UNL     1      17.826  39.676  75.756  1.00  0.00    -0.000 C 
BRANCH   9  10
ATOM     10  C   UNL     1      17.401  39.333  74.319  1.00  0.00    -0.003 C 
ATOM     11  C   UNL     1      15.882  39.286  74.147  1.00  0.00     0.004 C 
ENDBRANCH   9  10
ENDBRANCH   8   9
ENDBRANCH   7   8
ENDBRANCH   1   7
TORSDOF 7
ENDMDL
MODEL 5
REMARK VINA RESULT:    -3.653      3.507      5.255
REMARK INTER + INTRA:          -5.813
REMARK INTER:                  -5.416
REMARK INTRA:                  -0.396
REMARK UNBOUND:                -0.665
REMARK SMILES CCCCCCCCC(=O)[O-]
REMARK SMILES IDX 6 1 7 2 8 3 9 4 10 5 11 6 5 7 4 8 3 9 2 10 1 11
REMARK H PARENT
REMARK Flexibility Score: inf
ROOT
ATOM      1  C   UNL     1       7.249  34.767  68.855  1.00  0.00     0.000 C 
ENDROOT
BRANCH   1   2
ATOM      2  C   UNL     1       7.636  33.991  67.586  1.00  0.00     0.006 C 
BRANCH   2   3
ATOM      3  C   UNL     1       6.696  32.804  67.363  1.00  0.00     0.053 C 
BRANCH   3   4
ATOM      4  C   UNL     1       7.478  31.563  67.068  1.00  0.00     0.041 C 
ATOM      5  O   UNL     1       6.974  30.430  67.283  1.00  0.00    -0.550 OA
ATOM      6  O   UNL     1       8.784  31.659  66.604  1.00  0.00    -0.550 OA
ENDBRANCH   3   4
ENDBRANCH   2   3
ENDBRANCH   1   2
BRANCH   1   7
ATOM      7  C   UNL     1       7.141  33.862  70.092  1.00  0.00     0.000 C 
BRANCH   7   8
ATOM      8  C   UNL     1       5.863  34.120  70.906  1.00  0.00    -0.000 C 
BRANCH   8   9
ATOM      9  C   UNL     1       5.253  35.484  70.550  1.00  0.00    -0.000 C 
BRANCH   9  10
ATOM     10  C   UNL     1       3.717  35.452  70.505  1.00  0.00    -0.003 C 
ATOM     11  C   UNL     1       3.080  35.776  71.857  1.00  0.00     0.004 C 
ENDBRANCH   9  10
ENDBRANCH   8   9
ENDBRANCH   7   8
ENDBRANCH   1   7
TORSDOF 7
ENDMDL
MODEL 6
REMARK VINA RESULT:    -3.646      1.066      2.060
REMARK INTER + INTRA:          -5.804
REMARK INTER:                  -5.346
REMARK INTRA:                  -0.457
REMARK UNBOUND:                -0.665
REMARK SMILES CCCCCCCCC(=O)[O-]
REMARK SMILES IDX 6 1 7 2 8 3 9 4 10 5 11 6 5 7 4 8 3 9 2 10 1 11
REMARK H PARENT
REMARK Flexibility Score: inf
ROOT
ATOM      1  C   UNL     1       7.029  34.413  69.787  1.00  0.00     0.000 C 
ENDROOT
BRANCH   1   2
ATOM      2  C   UNL     1       5.919  35.386  70.214  1.00  0.00     0.006 C 
BRANCH   2   3
ATOM      3  C   UNL     1       4.711  34.629  70.772  1.00  0.00     0.053 C 
BRANCH   3   4
ATOM      4  C   UNL     1       3.565  35.563  71.000  1.00  0.00     0.041 C 
ATOM      5  O   UNL     1       3.217  35.863  72.172  1.00  0.00    -0.550 OA
ATOM      6  O   UNL     1       2.849  36.062  69.919  1.00  0.00    -0.550 OA
ENDBRANCH   3   4
ENDBRANCH   2   3
ENDBRANCH   1   2
BRANCH   1   7
ATOM      7  C   UNL     1       7.698  34.821  68.465  1.00  0.00     0.000 C 
BRANCH   7   8
ATOM      8  C   UNL     1       6.930  34.322  67.232  1.00  0.00    -0.000 C 
BRANCH   8   9
ATOM      9  C   UNL     1       6.712  32.803  67.301  1.00  0.00    -0.000 C 
BRANCH   9  10
ATOM     10  C   UNL     1       8.015  32.009  67.110  1.00  0.00    -0.003 C 
ATOM     11  C   UNL     1       8.362  31.145  68.323  1.00  0.00     0.004 C 
ENDBRANCH   9  10
ENDBRANCH   8   9
ENDBRANCH   7   8
ENDBRANCH   1   7
TORSDOF 7
ENDMDL
MODEL 7
REMARK VINA RESULT:    -3.643      2.875      4.858
REMARK INTER + INTRA:          -5.799
REMARK INTER:                  -5.504
REMARK INTRA:                  -0.295
REMARK UNBOUND:                -0.665
REMARK SMILES CCCCCCCCC(=O)[O-]
REMARK SMILES IDX 6 1 7 2 8 3 9 4 10 5 11 6 5 7 4 8 3 9 2 10 1 11
REMARK H PARENT
REMARK Flexibility Score: inf
ROOT
ATOM      1  C   UNL     1       5.929  33.905  70.765  1.00  0.00     0.000 C 
ENDROOT
BRANCH   1   2
ATOM      2  C   UNL     1       7.188  33.656  69.921  1.00  0.00     0.006 C 
BRANCH   2   3
ATOM      3  C   UNL     1       7.379  34.765  68.883  1.00  0.00     0.053 C 
BRANCH   3   4
ATOM      4  C   UNL     1       7.362  34.197  67.499  1.00  0.00     0.041 C 
ATOM      5  O   UNL     1       8.068  33.194  67.217  1.00  0.00    -0.550 OA
ATOM      6  O   UNL     1       6.604  34.806  66.507  1.00  0.00    -0.550 OA
ENDBRANCH   3   4
ENDBRANCH   2   3
ENDBRANCH   1   2
BRANCH   1   7
ATOM      7  C   UNL     1       5.271  35.261  70.462  1.00  0.00     0.000 C 
BRANCH   7   8
ATOM      8  C   UNL     1       3.994  35.497  71.282  1.00  0.00    -0.000 C 
BRANCH   8   9
ATOM      9  C   UNL     1       2.747  35.088  70.484  1.00  0.00    -0.000 C 
BRANCH   9  10
ATOM     10  C   UNL     1       1.861  36.288  70.113  1.00  0.00    -0.003 C 
ATOM     11  C   UNL     1       1.445  36.283  68.642  1.00  0.00     0.004 C 
ENDBRANCH   9  10
ENDBRANCH   8   9
ENDBRANCH   7   8
ENDBRANCH   1   7
TORSDOF 7
ENDMDL
MODEL 8
REMARK VINA RESULT:    -3.601      2.585      4.359
REMARK INTER + INTRA:          -5.740
REMARK INTER:                  -5.141
REMARK INTRA:                  -0.599
REMARK UNBOUND:                -0.665
REMARK SMILES CCCCCCCCC(=O)[O-]
REMARK SMILES IDX 6 1 7 2 8 3 9 4 10 5 11 6 5 7 4 8 3 9 2 10 1 11
REMARK H PARENT
REMARK Flexibility Score: inf
ROOT
ATOM      1  C   UNL     1       6.946  31.808  69.461  1.00  0.00     0.000 C 
ENDROOT
BRANCH   1   2
ATOM      2  C   UNL     1       8.077  32.053  68.449  1.00  0.00     0.006 C 
BRANCH   2   3
ATOM      3  C   UNL     1       7.536  32.691  67.167  1.00  0.00     0.053 C 
BRANCH   3   4
ATOM      4  C   UNL     1       7.336  34.161  67.356  1.00  0.00     0.041 C 
ATOM      5  O   UNL     1       6.552  34.796  66.603  1.00  0.00    -0.550 OA
ATOM      6  O   UNL     1       8.056  34.841  68.331  1.00  0.00    -0.550 OA
ENDBRANCH   3   4
ENDBRANCH   2   3
ENDBRANCH   1   2
BRANCH   1   7
ATOM      7  C   UNL     1       7.373  32.100  70.908  1.00  0.00     0.000 C 
BRANCH   7   8
ATOM      8  C   UNL     1       6.733  33.380  71.468  1.00  0.00    -0.000 C 
BRANCH   8   9
ATOM      9  C   UNL     1       5.469  33.751  70.678  1.00  0.00    -0.000 C 
BRANCH   9  10
ATOM     10  C   UNL     1       5.319  35.268  70.481  1.00  0.00    -0.003 C 
ATOM     11  C   UNL     1       3.867  35.736  70.581  1.00  0.00     0.004 C 
ENDBRANCH   9  10
ENDBRANCH   8   9
ENDBRANCH   7   8
ENDBRANCH   1   7
TORSDOF 7
ENDMDL
MODEL 9
REMARK VINA RESULT:    -3.590      3.829      5.654
REMARK INTER + INTRA:          -5.724
REMARK INTER:                  -5.270
REMARK INTRA:                  -0.454
REMARK UNBOUND:                -0.665
REMARK SMILES CCCCCCCCC(=O)[O-]
REMARK SMILES IDX 6 1 7 2 8 3 9 4 10 5 11 6 5 7 4 8 3 9 2 10 1 11
REMARK H PARENT
REMARK Flexibility Score: inf
ROOT
ATOM      1  C   UNL     1       7.466  34.713  68.611  1.00  0.00     0.000 C 
ENDROOT
BRANCH   1   2
ATOM      2  C   UNL     1       7.353  34.005  67.252  1.00  0.00     0.006 C 
BRANCH   2   3
ATOM      3  C   UNL     1       7.138  32.500  67.434  1.00  0.00     0.053 C 
BRANCH   3   4
ATOM      4  C   UNL     1       8.449  31.801  67.610  1.00  0.00     0.041 C 
ATOM      5  O   UNL     1       9.450  32.151  66.932  1.00  0.00    -0.550 OA
ATOM      6  O   UNL     1       8.552  30.728  68.486  1.00  0.00    -0.550 OA
ENDBRANCH   3   4
ENDBRANCH   2   3
ENDBRANCH   1   2
BRANCH   1   7
ATOM      7  C   UNL     1       6.423  34.216  69.625  1.00  0.00     0.000 C 
BRANCH   7   8
ATOM      8  C   UNL     1       7.024  33.963  71.017  1.00  0.00    -0.000 C 
BRANCH   8   9
ATOM      9  C   UNL     1       7.348  32.474  71.210  1.00  0.00    -0.000 C 
BRANCH   9  10
ATOM     10  C   UNL     1       7.230  32.028  72.676  1.00  0.00    -0.003 C 
ATOM     11  C   UNL     1       8.170  32.797  73.606  1.00  0.00     0.004 C 
ENDBRANCH   9  10
ENDBRANCH   8   9
ENDBRANCH   7   8
ENDBRANCH   1   7
TORSDOF 7
ENDMDL
