MODEL 1
REMARK VINA RESULT:    -2.815      0.000      0.000
REMARK INTER + INTRA:          -6.033
REMARK INTER:                  -4.790
REMARK INTRA:                  -1.243
REMARK UNBOUND:                -1.243
REMARK SMILES CCCCCCCCCCCCCC(=O)[O-]
REMARK SMILES IDX 8 1 9 2 10 3 11 4 12 5 13 6 14 7 15 8 16 9 7 10 6 11 5 12
REMARK SMILES IDX 4 13 3 14 2 15 1 16
REMARK H PARENT
REMARK Flexibility Score: inf
ROOT
ATOM      1  C   UNL     1      -5.795  20.714  18.832  1.00  0.00     0.000 C 
ENDROOT
BRANCH   1   2
ATOM      2  C   UNL     1      -6.824  19.876  19.616  1.00  0.00     0.000 C 
BRANCH   2   3
ATOM      3  C   UNL     1      -6.759  20.026  21.146  1.00  0.00     0.000 C 
BRANCH   3   4
ATOM      4  C   UNL     1      -8.147  20.042  21.808  1.00  0.00     0.000 C 
BRANCH   4   5
ATOM      5  C   UNL     1      -9.003  21.236  21.358  1.00  0.00     0.006 C 
BRANCH   5   6
ATOM      6  C   UNL     1      -8.490  22.571  21.915  1.00  0.00     0.053 C 
BRANCH   6   7
ATOM      7  C   UNL     1      -7.938  23.418  20.813  1.00  0.00     0.041 C 
ATOM      8  O   UNL     1      -8.299  23.224  19.623  1.00  0.00    -0.550 OA
ATOM      9  O   UNL     1      -7.062  24.456  21.106  1.00  0.00    -0.550 OA
ENDBRANCH   6   7
ENDBRANCH   5   6
ENDBRANCH   4   5
ENDBRANCH   3   4
ENDBRANCH   2   3
ENDBRANCH   1   2
BRANCH   1  10
ATOM     10  C   UNL     1      -4.430  20.018  18.700  1.00  0.00     0.000 C 
BRANCH  10  11
ATOM     11  C   UNL     1      -3.913  19.981  17.250  1.00  0.00    -0.000 C 
BRANCH  11  12
ATOM     12  C   UNL     1      -4.998  19.875  16.163  1.00  0.00    -0.000 C 
BRANCH  12  13
ATOM     13  C   UNL     1      -5.092  21.132  15.282  1.00  0.00    -0.000 C 
BRANCH  13  14
ATOM     14  C   UNL     1      -6.480  21.305  14.646  1.00  0.00    -0.000 C 
BRANCH  14  15
ATOM     15  C   UNL     1      -7.537  20.380  15.268  1.00  0.00    -0.003 C 
ATOM     16  C   UNL     1      -8.380  21.125  16.298  1.00  0.00     0.004 C 
ENDBRANCH  14  15
ENDBRANCH  13  14
ENDBRANCH  12  13
ENDBRANCH  11  12
ENDBRANCH  10  11
ENDBRANCH   1  10
TORSDOF 12
ENDMDL
MODEL 2
REMARK VINA RESULT:    -2.738      2.824      6.323
REMARK INTER + INTRA:          -5.901
REMARK INTER:                  -4.411
REMARK INTRA:                  -1.490
REMARK UNBOUND:                -1.243
REMARK SMILES CCCCCCCCCCCCCC(=O)[O-]
REMARK SMILES IDX 8 1 9 2 10 3 11 4 12 5 13 6 14 7 15 8 16 9 7 10 6 11 5 12
REMARK SMILES IDX 4 13 3 14 2 15 1 16
REMARK H PARENT
REMARK Flexibility Score: inf
ROOT
ATOM      1  C   UNL     1      -7.465  22.321  20.072  1.00  0.00     0.000 C 
ENDROOT
BRANCH   1   2
ATOM      2  C   UNL     1      -8.688  22.538  19.160  1.00  0.00     0.000 C 
BRANCH   2   3
ATOM      3  C   UNL     1      -8.403  22.437  17.651  1.00  0.00     0.000 C 
BRANCH   3   4
ATOM      4  C   UNL     1      -9.125  21.254  16.982  1.00  0.00     0.000 C 
BRANCH   4   5
ATOM      5  C   UNL     1      -8.153  20.268  16.317  1.00  0.00     0.006 C 
BRANCH   5   6
ATOM      6  C   UNL     1      -6.683  20.609  16.601  1.00  0.00     0.053 C 
BRANCH   6   7
ATOM      7  C   UNL     1      -5.962  20.907  15.325  1.00  0.00     0.041 C 
ATOM      8  O   UNL     1      -4.740  20.629  15.208  1.00  0.00    -0.550 OA
ATOM      9  O   UNL     1      -6.651  21.449  14.247  1.00  0.00    -0.550 OA
ENDBRANCH   6   7
ENDBRANCH   5   6
ENDBRANCH   4   5
ENDBRANCH   3   4
ENDBRANCH   2   3
ENDBRANCH   1   2
BRANCH   1  10
ATOM     10  C   UNL     1      -7.023  20.849  20.143  1.00  0.00     0.000 C 
BRANCH  10  11
ATOM     11  C   UNL     1      -8.202  19.877  20.332  1.00  0.00    -0.000 C 
BRANCH  11  12
ATOM     12  C   UNL     1      -9.052  20.106  21.595  1.00  0.00    -0.000 C 
BRANCH  12  13
ATOM     13  C   UNL     1      -8.233  20.024  22.894  1.00  0.00    -0.000 C 
BRANCH  13  14
ATOM     14  C   UNL     1      -8.787  20.937  24.000  1.00  0.00    -0.000 C 
BRANCH  14  15
ATOM     15  C   UNL     1      -8.980  22.387  23.530  1.00  0.00    -0.003 C 
ATOM     16  C   UNL     1      -7.670  23.166  23.602  1.00  0.00     0.004 C 
ENDBRANCH  14  15
ENDBRANCH  13  14
ENDBRANCH  12  13
ENDBRANCH  11  12
ENDBRANCH  10  11
ENDBRANCH   1  10
TORSDOF 12
ENDMDL
MODEL 3
REMARK VINA RESULT:    -2.485      2.715      5.287
REMARK INTER + INTRA:          -5.471
REMARK INTER:                  -4.678
REMARK INTRA:                  -0.793
REMARK UNBOUND:                -1.243
REMARK SMILES CCCCCCCCCCCCCC(=O)[O-]
REMARK SMILES IDX 8 1 9 2 10 3 11 4 12 5 13 6 14 7 15 8 16 9 7 10 6 11 5 12
REMARK SMILES IDX 4 13 3 14 2 15 1 16
REMARK H PARENT
REMARK Flexibility Score: inf
ROOT
ATOM      1  C   UNL     1      -4.707  21.405  15.103  1.00  0.00     0.000 C 
ENDROOT
BRANCH   1   2
ATOM      2  C   UNL     1      -6.095  21.194  14.468  1.00  0.00     0.000 C 
BRANCH   2   3
ATOM      3  C   UNL     1      -7.179  20.666  15.425  1.00  0.00     0.000 C 
BRANCH   3   4
ATOM      4  C   UNL     1      -7.644  21.719  16.445  1.00  0.00     0.000 C 
BRANCH   4   5
ATOM      5  C   UNL     1      -8.586  21.137  17.509  1.00  0.00     0.006 C 
BRANCH   5   6
ATOM      6  C   UNL     1      -7.844  20.284  18.547  1.00  0.00     0.053 C 
BRANCH   6   7
ATOM      7  C   UNL     1      -7.059  21.156  19.474  1.00  0.00     0.041 C 
ATOM      8  O   UNL     1      -5.883  20.844  19.795  1.00  0.00    -0.550 OA
ATOM      9  O   UNL     1      -7.610  22.341  19.946  1.00  0.00    -0.550 OA
ENDBRANCH   6   7
ENDBRANCH   5   6
ENDBRANCH   4   5
ENDBRANCH   3   4
ENDBRANCH   2   3
ENDBRANCH   1   2
BRANCH   1  10
ATOM     10  C   UNL     1      -4.105  20.109  15.674  1.00  0.00     0.000 C 
BRANCH  10  11
ATOM     11  C   UNL     1      -3.798  20.202  17.180  1.00  0.00    -0.000 C 
BRANCH  11  12
ATOM     12  C   UNL     1      -2.348  19.875  17.580  1.00  0.00    -0.000 C 
BRANCH  12  13
ATOM     13  C   UNL     1      -1.321  20.295  16.515  1.00  0.00    -0.000 C 
BRANCH  13  14
ATOM     14  C   UNL     1       0.127  20.213  17.027  1.00  0.00    -0.000 C 
BRANCH  14  15
ATOM     15  C   UNL     1       1.152  20.682  15.983  1.00  0.00    -0.003 C 
ATOM     16  C   UNL     1       2.520  20.904  16.620  1.00  0.00     0.004 C 
ENDBRANCH  14  15
ENDBRANCH  13  14
ENDBRANCH  12  13
ENDBRANCH  11  12
ENDBRANCH  10  11
ENDBRANCH   1  10
TORSDOF 12
ENDMDL
MODEL 4
REMARK VINA RESULT:    -2.451      1.491      2.617
REMARK INTER + INTRA:          -5.412
REMARK INTER:                  -4.666
REMARK INTRA:                  -0.746
REMARK UNBOUND:                -1.243
REMARK SMILES CCCCCCCCCCCCCC(=O)[O-]
REMARK SMILES IDX 8 1 9 2 10 3 11 4 12 5 13 6 14 7 15 8 16 9 7 10 6 11 5 12
REMARK SMILES IDX 4 13 3 14 2 15 1 16
REMARK H PARENT
REMARK Flexibility Score: inf
ROOT
ATOM      1  C   UNL     1      -6.579  20.775  19.956  1.00  0.00     0.000 C 
ENDROOT
BRANCH   1   2
ATOM      2  C   UNL     1      -7.883  21.113  20.704  1.00  0.00     0.000 C 
BRANCH   2   3
ATOM      3  C   UNL     1      -8.409  20.006  21.635  1.00  0.00     0.000 C 
BRANCH   3   4
ATOM      4  C   UNL     1      -8.783  20.525  23.034  1.00  0.00     0.000 C 
BRANCH   4   5
ATOM      5  C   UNL     1      -7.681  21.395  23.656  1.00  0.00     0.006 C 
BRANCH   5   6
ATOM      6  C   UNL     1      -8.127  22.850  23.861  1.00  0.00     0.053 C 
BRANCH   6   7
ATOM      7  C   UNL     1      -7.142  23.789  23.240  1.00  0.00     0.041 C 
ATOM      8  O   UNL     1      -7.179  24.019  22.003  1.00  0.00    -0.550 OA
ATOM      9  O   UNL     1      -6.213  24.448  24.036  1.00  0.00    -0.550 OA
ENDBRANCH   6   7
ENDBRANCH   5   6
ENDBRANCH   4   5
ENDBRANCH   3   4
ENDBRANCH   2   3
ENDBRANCH   1   2
BRANCH   1  10
ATOM     10  C   UNL     1      -6.805  20.462  18.467  1.00  0.00     0.000 C 
BRANCH  10  11
ATOM     11  C   UNL     1      -7.939  21.296  17.844  1.00  0.00    -0.000 C 
BRANCH  11  12
ATOM     12  C   UNL     1      -7.750  21.668  16.362  1.00  0.00    -0.000 C 
BRANCH  12  13
ATOM     13  C   UNL     1      -7.615  20.440  15.446  1.00  0.00    -0.000 C 
BRANCH  13  14
ATOM     14  C   UNL     1      -6.627  20.671  14.291  1.00  0.00    -0.000 C 
BRANCH  14  15
ATOM     15  C   UNL     1      -5.320  21.334  14.752  1.00  0.00    -0.003 C 
ATOM     16  C   UNL     1      -4.535  20.412  15.680  1.00  0.00     0.004 C 
ENDBRANCH  14  15
ENDBRANCH  13  14
ENDBRANCH  12  13
ENDBRANCH  11  12
ENDBRANCH  10  11
ENDBRANCH   1  10
TORSDOF 12
ENDMDL
MODEL 5
REMARK VINA RESULT:    -2.396      6.555      8.995
REMARK INTER + INTRA:          -5.320
REMARK INTER:                  -4.915
REMARK INTRA:                  -0.405
REMARK UNBOUND:                -1.243
REMARK SMILES CCCCCCCCCCCCCC(=O)[O-]
REMARK SMILES IDX 8 1 9 2 10 3 11 4 12 5 13 6 14 7 15 8 16 9 7 10 6 11 5 12
REMARK SMILES IDX 4 13 3 14 2 15 1 16
REMARK H PARENT
REMARK Flexibility Score: inf
ROOT
ATOM      1  C   UNL     1      -1.951  20.871  16.399  1.00  0.00     0.000 C 
ENDROOT
BRANCH   1   2
ATOM      2  C   UNL     1      -0.724  20.201  17.048  1.00  0.00     0.000 C 
BRANCH   2   3
ATOM      3  C   UNL     1       0.470  19.970  16.103  1.00  0.00     0.000 C 
BRANCH   3   4
ATOM      4  C   UNL     1       1.584  21.016  16.275  1.00  0.00     0.000 C 
BRANCH   4   5
ATOM      5  C   UNL     1       2.917  20.394  16.717  1.00  0.00     0.006 C 
BRANCH   5   6
ATOM      6  C   UNL     1       3.775  19.937  15.529  1.00  0.00     0.053 C 
BRANCH   6   7
ATOM      7  C   UNL     1       5.136  20.553  15.601  1.00  0.00     0.041 C 
ATOM      8  O   UNL     1       5.609  20.916  16.709  1.00  0.00    -0.550 OA
ATOM      9  O   UNL     1       5.903  20.680  14.450  1.00  0.00    -0.550 OA
ENDBRANCH   6   7
ENDBRANCH   5   6
ENDBRANCH   4   5
ENDBRANCH   3   4
ENDBRANCH   2   3
ENDBRANCH   1   2
BRANCH   1  10
ATOM     10  C   UNL     1      -3.081  19.875  16.085  1.00  0.00     0.000 C 
BRANCH  10  11
ATOM     11  C   UNL     1      -4.484  20.473  16.299  1.00  0.00    -0.000 C 
BRANCH  11  12
ATOM     12  C   UNL     1      -5.287  20.751  15.016  1.00  0.00    -0.000 C 
BRANCH  12  13
ATOM     13  C   UNL     1      -6.601  21.505  15.280  1.00  0.00    -0.000 C 
BRANCH  13  14
ATOM     14  C   UNL     1      -7.811  20.563  15.389  1.00  0.00    -0.000 C 
BRANCH  14  15
ATOM     15  C   UNL     1      -8.849  21.048  16.413  1.00  0.00    -0.003 C 
ATOM     16  C   UNL     1      -8.289  22.180  17.268  1.00  0.00     0.004 C 
ENDBRANCH  14  15
ENDBRANCH  13  14
ENDBRANCH  12  13
ENDBRANCH  11  12
ENDBRANCH  10  11
ENDBRANCH   1  10
TORSDOF 12
ENDMDL
MODEL 6
REMARK VINA RESULT:    -2.354      6.068      8.584
REMARK INTER + INTRA:          -5.249
REMARK INTER:                  -4.807
REMARK INTRA:                  -0.442
REMARK UNBOUND:                -1.243
REMARK SMILES CCCCCCCCCCCCCC(=O)[O-]
REMARK SMILES IDX 8 1 9 2 10 3 11 4 12 5 13 6 14 7 15 8 16 9 7 10 6 11 5 12
REMARK SMILES IDX 4 13 3 14 2 15 1 16
REMARK H PARENT
REMARK Flexibility Score: inf
ROOT
ATOM      1  C   UNL     1      -0.494  20.460  16.290  1.00  0.00     0.000 C 
ENDROOT
BRANCH   1   2
ATOM      2  C   UNL     1      -1.158  20.290  17.670  1.00  0.00     0.000 C 
BRANCH   2   3
ATOM      3  C   UNL     1      -2.692  20.162  17.645  1.00  0.00     0.000 C 
BRANCH   3   4
ATOM      4  C   UNL     1      -3.252  19.908  16.235  1.00  0.00     0.000 C 
BRANCH   4   5
ATOM      5  C   UNL     1      -4.784  19.998  16.181  1.00  0.00     0.006 C 
BRANCH   5   6
ATOM      6  C   UNL     1      -5.280  20.912  15.053  1.00  0.00     0.053 C 
BRANCH   6   7
ATOM      7  C   UNL     1      -6.759  21.112  15.156  1.00  0.00     0.041 C 
ATOM      8  O   UNL     1      -7.535  20.528  14.355  1.00  0.00    -0.550 OA
ATOM      9  O   UNL     1      -7.284  21.907  16.168  1.00  0.00    -0.550 OA
ENDBRANCH   6   7
ENDBRANCH   5   6
ENDBRANCH   4   5
ENDBRANCH   3   4
ENDBRANCH   2   3
ENDBRANCH   1   2
BRANCH   1  10
ATOM     10  C   UNL     1       0.967  19.979  16.265  1.00  0.00     0.000 C 
BRANCH  10  11
ATOM     11  C   UNL     1       1.979  21.139  16.210  1.00  0.00    -0.000 C 
BRANCH  11  12
ATOM     12  C   UNL     1       3.364  20.837  16.811  1.00  0.00    -0.000 C 
BRANCH  12  13
ATOM     13  C   UNL     1       4.270  20.036  15.861  1.00  0.00    -0.000 C 
BRANCH  13  14
ATOM     14  C   UNL     1       5.179  20.939  15.012  1.00  0.00    -0.000 C 
BRANCH  14  15
ATOM     15  C   UNL     1       6.664  20.564  15.130  1.00  0.00    -0.003 C 
ATOM     16  C   UNL     1       7.184  20.818  16.541  1.00  0.00     0.004 C 
ENDBRANCH  14  15
ENDBRANCH  13  14
ENDBRANCH  12  13
ENDBRANCH  11  12
ENDBRANCH  10  11
ENDBRANCH   1  10
TORSDOF 12
ENDMDL
MODEL 7
REMARK VINA RESULT:    -1.843      9.113     11.585
REMARK INTER + INTRA:          -4.378
REMARK INTER:                  -4.161
REMARK INTRA:                  -0.217
REMARK UNBOUND:                -1.243
REMARK SMILES CCCCCCCCCCCCCC(=O)[O-]
REMARK SMILES IDX 8 1 9 2 10 3 11 4 12 5 13 6 14 7 15 8 16 9 7 10 6 11 5 12
REMARK SMILES IDX 4 13 3 14 2 15 1 16
REMARK H PARENT
REMARK Flexibility Score: inf
ROOT
ATOM      1  C   UNL     1       1.409  19.933  16.249  1.00  0.00     0.000 C 
ENDROOT
BRANCH   1   2
ATOM      2  C   UNL     1       2.747  20.657  16.496  1.00  0.00     0.000 C 
BRANCH   2   3
ATOM      3  C   UNL     1       4.001  19.878  16.062  1.00  0.00     0.000 C 
BRANCH   3   4
ATOM      4  C   UNL     1       5.271  20.748  16.039  1.00  0.00     0.000 C 
BRANCH   4   5
ATOM      5  C   UNL     1       6.497  19.990  15.508  1.00  0.00     0.006 C 
BRANCH   5   6
ATOM      6  C   UNL     1       7.820  20.631  15.949  1.00  0.00     0.053 C 
BRANCH   6   7
ATOM      7  C   UNL     1       8.776  20.695  14.801  1.00  0.00     0.041 C 
ATOM      8  O   UNL     1       9.907  20.149  14.887  1.00  0.00    -0.550 OA
ATOM      9  O   UNL     1       8.400  21.317  13.617  1.00  0.00    -0.550 OA
ENDBRANCH   6   7
ENDBRANCH   5   6
ENDBRANCH   4   5
ENDBRANCH   3   4
ENDBRANCH   2   3
ENDBRANCH   1   2
BRANCH   1  10
ATOM     10  C   UNL     1       0.193  20.734  16.746  1.00  0.00     0.000 C 
BRANCH  10  11
ATOM     11  C   UNL     1      -1.130  19.956  16.618  1.00  0.00    -0.000 C 
BRANCH  11  12
ATOM     12  C   UNL     1      -2.260  20.692  15.874  1.00  0.00    -0.000 C 
BRANCH  12  13
ATOM     13  C   UNL     1      -3.658  20.149  16.217  1.00  0.00    -0.000 C 
BRANCH  13  14
ATOM     14  C   UNL     1      -4.786  21.059  15.706  1.00  0.00    -0.000 C 
BRANCH  14  15
ATOM     15  C   UNL     1      -6.150  20.353  15.676  1.00  0.00    -0.003 C 
ATOM     16  C   UNL     1      -6.907  20.678  14.392  1.00  0.00     0.004 C 
ENDBRANCH  14  15
ENDBRANCH  13  14
ENDBRANCH  12  13
ENDBRANCH  11  12
ENDBRANCH  10  11
ENDBRANCH   1  10
TORSDOF 12
ENDMDL
MODEL 8
REMARK VINA RESULT:    -1.801     12.020     14.355
REMARK INTER + INTRA:          -4.308
REMARK INTER:                  -3.911
REMARK INTRA:                  -0.397
REMARK UNBOUND:                -1.243
REMARK SMILES CCCCCCCCCCCCCC(=O)[O-]
REMARK SMILES IDX 8 1 9 2 10 3 11 4 12 5 13 6 14 7 15 8 16 9 7 10 6 11 5 12
REMARK SMILES IDX 4 13 3 14 2 15 1 16
REMARK H PARENT
REMARK Flexibility Score: inf
ROOT
ATOM      1  C   UNL     1       7.199  20.720  14.327  1.00  0.00     0.000 C 
ENDROOT
BRANCH   1   2
ATOM      2  C   UNL     1       6.198  21.325  15.330  1.00  0.00     0.000 C 
BRANCH   2   3
ATOM      3  C   UNL     1       5.496  20.307  16.247  1.00  0.00     0.000 C 
BRANCH   3   4
ATOM      4  C   UNL     1       4.071  19.961  15.782  1.00  0.00     0.000 C 
BRANCH   4   5
ATOM      5  C   UNL     1       2.993  20.748  16.543  1.00  0.00     0.006 C 
BRANCH   5   6
ATOM      6  C   UNL     1       1.791  19.875  16.929  1.00  0.00     0.053 C 
BRANCH   6   7
ATOM      7  C   UNL     1       0.520  20.494  16.442  1.00  0.00     0.041 C 
ATOM      8  O   UNL     1       0.532  21.272  15.452  1.00  0.00    -0.550 OA
ATOM      9  O   UNL     1      -0.687  20.175  17.052  1.00  0.00    -0.550 OA
ENDBRANCH   6   7
ENDBRANCH   5   6
ENDBRANCH   4   5
ENDBRANCH   3   4
ENDBRANCH   2   3
ENDBRANCH   1   2
BRANCH   1  10
ATOM     10  C   UNL     1       8.489  20.216  14.996  1.00  0.00     0.000 C 
BRANCH  10  11
ATOM     11  C   UNL     1       9.753  20.924  14.474  1.00  0.00    -0.000 C 
BRANCH  11  12
ATOM     12  C   UNL     1       9.716  21.332  12.990  1.00  0.00    -0.000 C 
BRANCH  12  13
ATOM     13  C   UNL     1      10.748  22.418  12.639  1.00  0.00    -0.000 C 
BRANCH  13  14
ATOM     14  C   UNL     1      10.805  22.712  11.132  1.00  0.00    -0.000 C 
BRANCH  14  15
ATOM     15  C   UNL     1      11.113  24.186  10.827  1.00  0.00    -0.003 C 
ATOM     16  C   UNL     1      10.612  24.576   9.440  1.00  0.00     0.004 C 
ENDBRANCH  14  15
ENDBRANCH  13  14
ENDBRANCH  12  13
ENDBRANCH  11  12
ENDBRANCH  10  11
ENDBRANCH   1  10
TORSDOF 12
ENDMDL
MODEL 9
REMARK VINA RESULT:    -1.798     10.632     13.106
REMARK INTER + INTRA:          -4.302
REMARK INTER:                  -3.672
REMARK INTRA:                  -0.630
REMARK UNBOUND:                -1.243
REMARK SMILES CCCCCCCCCCCCCC(=O)[O-]
REMARK SMILES IDX 8 1 9 2 10 3 11 4 12 5 13 6 14 7 15 8 16 9 7 10 6 11 5 12
REMARK SMILES IDX 4 13 3 14 2 15 1 16
REMARK H PARENT
REMARK Flexibility Score: inf
ROOT
ATOM      1  C   UNL     1       5.749  21.219  15.029  1.00  0.00     0.000 C 
ENDROOT
BRANCH   1   2
ATOM      2  C   UNL     1       5.182  20.897  16.425  1.00  0.00     0.000 C 
BRANCH   2   3
ATOM      3  C   UNL     1       3.897  20.050  16.429  1.00  0.00     0.000 C 
BRANCH   3   4
ATOM      4  C   UNL     1       2.618  20.899  16.337  1.00  0.00     0.000 C 
BRANCH   4   5
ATOM      5  C   UNL     1       1.341  20.067  16.529  1.00  0.00     0.006 C 
BRANCH   5   6
ATOM      6  C   UNL     1       0.090  20.779  15.997  1.00  0.00     0.053 C 
BRANCH   6   7
ATOM      7  C   UNL     1      -1.124  20.333  16.748  1.00  0.00     0.041 C 
ATOM      8  O   UNL     1      -1.014  19.875  17.916  1.00  0.00    -0.550 OA
ATOM      9  O   UNL     1      -2.384  20.467  16.177  1.00  0.00    -0.550 OA
ENDBRANCH   6   7
ENDBRANCH   5   6
ENDBRANCH   4   5
ENDBRANCH   3   4
ENDBRANCH   2   3
ENDBRANCH   1   2
BRANCH   1  10
ATOM     10  C   UNL     1       6.898  20.282  14.617  1.00  0.00     0.000 C 
BRANCH  10  11
ATOM     11  C   UNL     1       8.040  20.243  15.649  1.00  0.00    -0.000 C 
BRANCH  11  12
ATOM     12  C   UNL     1       9.313  21.015  15.256  1.00  0.00    -0.000 C 
BRANCH  12  13
ATOM     13  C   UNL     1      10.175  20.268  14.225  1.00  0.00    -0.000 C 
BRANCH  13  14
ATOM     14  C   UNL     1      10.124  20.916  12.832  1.00  0.00    -0.000 C 
BRANCH  14  15
ATOM     15  C   UNL     1       9.810  22.419  12.888  1.00  0.00    -0.003 C 
ATOM     16  C   UNL     1      11.091  23.247  12.894  1.00  0.00     0.004 C 
ENDBRANCH  14  15
ENDBRANCH  13  14
ENDBRANCH  12  13
ENDBRANCH  11  12
ENDBRANCH  10  11
ENDBRANCH   1  10
TORSDOF 12
ENDMDL
