MODEL 1
REMARK VINA RESULT:    -7.405      0.000      0.000
REMARK INTER + INTRA:          -9.139
REMARK INTER:                  -8.920
REMARK INTRA:                  -0.219
REMARK UNBOUND:                -0.219
REMARK SMILES O=c1c(O)c(-c2ccc(O)c(O)c2)oc2cc(O)cc(O)c12
REMARK SMILES IDX 5 1 3 2 2 3 1 4 22 5 20 6 19 7 17 8 16 9 15 10 14 11 6 12
REMARK SMILES IDX 7 13 8 14 9 15 13 16 11 17 10 18 12 20 4 22 21 24 18 26
REMARK H PARENT 10 19 12 21 4 23 21 25 18 27
REMARK Flexibility Score: inf
ROOT
ATOM      1  C   UNL     1      10.615  96.014  27.357  1.00  0.00     0.180 A 
ATOM      2  C   UNL     1      11.698  96.910  27.364  1.00  0.00     0.208 A 
ATOM      3  C   UNL     1      11.751  97.921  26.390  1.00  0.00     0.238 A 
ATOM      4  O   UNL     1      12.749  98.686  26.367  1.00  0.00    -0.285 OA
ATOM      5  C   UNL     1      10.712  98.034  25.435  1.00  0.00     0.111 A 
ATOM      6  C   UNL     1      10.642  99.044  24.429  1.00  0.00     0.134 A 
ATOM      7  C   UNL     1       9.638  98.981  23.455  1.00  0.00     0.093 A 
ATOM      8  C   UNL     1       8.664  97.984  23.489  1.00  0.00     0.123 A 
ATOM      9  C   UNL     1       8.687  97.026  24.502  1.00  0.00     0.094 A 
ATOM     10  C   UNL     1       9.698  97.041  25.467  1.00  0.00     0.146 A 
ATOM     11  O   UNL     1       9.690  96.105  26.409  1.00  0.00    -0.452 OA
ENDROOT
BRANCH   1  12
ATOM     12  C   UNL     1      10.477  94.938  28.366  1.00  0.00     0.025 A 
ATOM     13  C   UNL     1      11.337  93.825  28.371  1.00  0.00     0.016 A 
ATOM     14  C   UNL     1      11.205  92.835  29.348  1.00  0.00     0.051 A 
ATOM     15  C   UNL     1      10.222  92.947  30.340  1.00  0.00     0.157 A 
ATOM     16  C   UNL     1       9.508  95.056  29.375  1.00  0.00     0.062 A 
ATOM     17  C   UNL     1       9.371  94.066  30.354  1.00  0.00     0.158 A 
BRANCH  15  18
ATOM     18  O   UNL     1      10.090  91.956  31.311  1.00  0.00    -0.504 OA
ATOM     19  H   UNL     1      10.350  90.994  31.126  1.00  0.00     0.293 HD
ENDBRANCH  15  18
BRANCH  17  20
ATOM     20  O   UNL     1       8.388  94.210  31.332  1.00  0.00    -0.504 OA
ATOM     21  H   UNL     1       7.419  93.967  31.161  1.00  0.00     0.293 HD
ENDBRANCH  17  20
ENDBRANCH   1  12
BRANCH   2  22
ATOM     22  O   UNL     1      12.723  96.768  28.303  1.00  0.00    -0.502 OA
ATOM     23  H   UNL     1      12.811  95.950  28.893  1.00  0.00     0.293 HD
ENDBRANCH   2  22
BRANCH   6  24
ATOM     24  O   UNL     1      11.512 100.137  24.359  1.00  0.00    -0.507 OA
ATOM     25  H   UNL     1      11.224 101.103  24.390  1.00  0.00     0.293 HD
ENDBRANCH   6  24
BRANCH   8  26
ATOM     26  O   UNL     1       7.670  97.960  22.513  1.00  0.00    -0.508 OA
ATOM     27  H   UNL     1       6.696  98.115  22.744  1.00  0.00     0.293 HD
ENDBRANCH   8  26
TORSDOF 6
ENDMDL
MODEL 2
REMARK VINA RESULT:    -7.322      3.322      5.952
REMARK INTER + INTRA:          -9.039
REMARK INTER:                  -8.711
REMARK INTRA:                  -0.328
REMARK UNBOUND:                -0.219
REMARK SMILES O=c1c(O)c(-c2ccc(O)c(O)c2)oc2cc(O)cc(O)c12
REMARK SMILES IDX 5 1 3 2 2 3 1 4 22 5 20 6 19 7 17 8 16 9 15 10 14 11 6 12
REMARK SMILES IDX 7 13 8 14 9 15 13 16 11 17 10 18 12 20 4 22 21 24 18 26
REMARK H PARENT 10 19 12 21 4 23 21 25 18 27
REMARK Flexibility Score: inf
ROOT
ATOM      1  C   UNL     1      11.710  98.966  25.671  1.00  0.00     0.180 A 
ATOM      2  C   UNL     1      11.181  97.862  26.361  1.00  0.00     0.208 A 
ATOM      3  C   UNL     1      10.055  97.207  25.837  1.00  0.00     0.238 A 
ATOM      4  O   UNL     1       9.553  96.253  26.485  1.00  0.00    -0.285 OA
ATOM      5  C   UNL     1       9.482  97.654  24.622  1.00  0.00     0.111 A 
ATOM      6  C   UNL     1       8.365  97.042  23.978  1.00  0.00     0.134 A 
ATOM      7  C   UNL     1       7.800  97.647  22.849  1.00  0.00     0.093 A 
ATOM      8  C   UNL     1       8.352  98.805  22.302  1.00  0.00     0.123 A 
ATOM      9  C   UNL     1       9.480  99.380  22.887  1.00  0.00     0.094 A 
ATOM     10  C   UNL     1      10.044  98.818  24.036  1.00  0.00     0.146 A 
ATOM     11  O   UNL     1      11.111  99.402  24.569  1.00  0.00    -0.452 OA
ENDROOT
BRANCH   1  12
ATOM     12  C   UNL     1      12.909  99.692  26.148  1.00  0.00     0.025 A 
ATOM     13  C   UNL     1      14.206  99.251  25.831  1.00  0.00     0.016 A 
ATOM     14  C   UNL     1      15.323  99.966  26.270  1.00  0.00     0.051 A 
ATOM     15  C   UNL     1      15.162 101.138  27.022  1.00  0.00     0.157 A 
ATOM     16  C   UNL     1      12.753 100.879  26.883  1.00  0.00     0.062 A 
ATOM     17  C   UNL     1      13.869 101.597  27.326  1.00  0.00     0.158 A 
BRANCH  15  18
ATOM     18  O   UNL     1      16.278 101.847  27.462  1.00  0.00    -0.504 OA
ATOM     19  H   UNL     1      17.218 101.486  27.342  1.00  0.00     0.293 HD
ENDBRANCH  15  18
BRANCH  17  20
ATOM     20  O   UNL     1      13.674 102.763  28.066  1.00  0.00    -0.504 OA
ATOM     21  H   UNL     1      12.785 103.248  28.081  1.00  0.00     0.293 HD
ENDBRANCH  17  20
ENDBRANCH   1  12
BRANCH   2  22
ATOM     22  O   UNL     1      11.749  97.449  27.569  1.00  0.00    -0.502 OA
ATOM     23  H   UNL     1      12.593  97.865  27.944  1.00  0.00     0.293 HD
ENDBRANCH   2  22
BRANCH   6  24
ATOM     24  O   UNL     1       7.794  95.834  24.390  1.00  0.00    -0.507 OA
ATOM     25  H   UNL     1       8.020  94.930  24.003  1.00  0.00     0.293 HD
ENDBRANCH   6  24
BRANCH   8  26
ATOM     26  O   UNL     1       7.774  99.373  21.168  1.00  0.00    -0.508 OA
ATOM     27  H   UNL     1       8.043 100.292  20.839  1.00  0.00     0.293 HD
ENDBRANCH   8  26
TORSDOF 6
ENDMDL
MODEL 3
REMARK VINA RESULT:    -7.264      1.395      3.078
REMARK INTER + INTRA:          -8.969
REMARK INTER:                  -8.640
REMARK INTRA:                  -0.329
REMARK UNBOUND:                -0.219
REMARK SMILES O=c1c(O)c(-c2ccc(O)c(O)c2)oc2cc(O)cc(O)c12
REMARK SMILES IDX 5 1 3 2 2 3 1 4 22 5 20 6 19 7 17 8 16 9 15 10 14 11 6 12
REMARK SMILES IDX 7 13 8 14 9 15 13 16 11 17 10 18 12 20 4 22 21 24 18 26
REMARK H PARENT 10 19 12 21 4 23 21 25 18 27
REMARK Flexibility Score: inf
ROOT
ATOM      1  C   UNL     1      10.637  96.290  27.474  1.00  0.00     0.180 A 
ATOM      2  C   UNL     1       9.977  96.325  26.233  1.00  0.00     0.208 A 
ATOM      3  C   UNL     1      10.181  97.426  25.385  1.00  0.00     0.238 A 
ATOM      4  O   UNL     1       9.547  97.479  24.300  1.00  0.00    -0.285 OA
ATOM      5  C   UNL     1      11.053  98.469  25.781  1.00  0.00     0.111 A 
ATOM      6  C   UNL     1      11.364  99.612  24.984  1.00  0.00     0.134 A 
ATOM      7  C   UNL     1      12.137 100.645  25.529  1.00  0.00     0.093 A 
ATOM      8  C   UNL     1      12.663 100.547  26.817  1.00  0.00     0.123 A 
ATOM      9  C   UNL     1      12.415  99.407  27.583  1.00  0.00     0.094 A 
ATOM     10  C   UNL     1      11.618  98.376  27.079  1.00  0.00     0.146 A 
ATOM     11  O   UNL     1      11.397  97.314  27.845  1.00  0.00    -0.452 OA
ENDROOT
BRANCH   1  12
ATOM     12  C   UNL     1      10.492  95.152  28.410  1.00  0.00     0.025 A 
ATOM     13  C   UNL     1      11.379  94.062  28.380  1.00  0.00     0.016 A 
ATOM     14  C   UNL     1      11.238  93.011  29.290  1.00  0.00     0.051 A 
ATOM     15  C   UNL     1      10.219  93.039  30.251  1.00  0.00     0.157 A 
ATOM     16  C   UNL     1       9.485  95.186  29.389  1.00  0.00     0.062 A 
ATOM     17  C   UNL     1       9.340  94.135  30.301  1.00  0.00     0.158 A 
BRANCH  15  18
ATOM     18  O   UNL     1      10.078  91.988  31.156  1.00  0.00    -0.504 OA
ATOM     19  H   UNL     1      10.565  91.108  31.026  1.00  0.00     0.293 HD
ENDBRANCH  15  18
BRANCH  17  20
ATOM     20  O   UNL     1       8.319  94.197  31.249  1.00  0.00    -0.504 OA
ATOM     21  H   UNL     1       7.965  93.369  31.714  1.00  0.00     0.293 HD
ENDBRANCH  17  20
ENDBRANCH   1  12
BRANCH   2  22
ATOM     22  O   UNL     1       9.105  95.296  25.871  1.00  0.00    -0.502 OA
ATOM     23  H   UNL     1       9.408  94.485  25.345  1.00  0.00     0.293 HD
ENDBRANCH   2  22
BRANCH   6  24
ATOM     24  O   UNL     1      10.965  99.767  23.654  1.00  0.00    -0.507 OA
ATOM     25  H   UNL     1      10.833 100.655  23.193  1.00  0.00     0.293 HD
ENDBRANCH   6  24
BRANCH   8  26
ATOM     26  O   UNL     1      13.441 101.586  27.323  1.00  0.00    -0.508 OA
ATOM     27  H   UNL     1      13.593 101.699  28.318  1.00  0.00     0.293 HD
ENDBRANCH   8  26
TORSDOF 6
ENDMDL
MODEL 4
REMARK VINA RESULT:    -7.230      1.504      6.841
REMARK INTER + INTRA:          -8.928
REMARK INTER:                  -8.738
REMARK INTRA:                  -0.190
REMARK UNBOUND:                -0.219
REMARK SMILES O=c1c(O)c(-c2ccc(O)c(O)c2)oc2cc(O)cc(O)c12
REMARK SMILES IDX 5 1 3 2 2 3 1 4 22 5 20 6 19 7 17 8 16 9 15 10 14 11 6 12
REMARK SMILES IDX 7 13 8 14 9 15 13 16 11 17 10 18 12 20 4 22 21 24 18 26
REMARK H PARENT 10 19 12 21 4 23 21 25 18 27
REMARK Flexibility Score: inf
ROOT
ATOM      1  C   UNL     1      10.554  96.309  26.168  1.00  0.00     0.180 A 
ATOM      2  C   UNL     1      11.707  95.516  26.029  1.00  0.00     0.208 A 
ATOM      3  C   UNL     1      11.973  94.527  26.990  1.00  0.00     0.238 A 
ATOM      4  O   UNL     1      13.032  93.856  26.891  1.00  0.00    -0.285 OA
ATOM      5  C   UNL     1      11.075  94.333  28.068  1.00  0.00     0.111 A 
ATOM      6  C   UNL     1      11.224  93.334  29.077  1.00  0.00     0.134 A 
ATOM      7  C   UNL     1      10.347  93.318  30.168  1.00  0.00     0.093 A 
ATOM      8  C   UNL     1       9.288  94.222  30.254  1.00  0.00     0.123 A 
ATOM      9  C   UNL     1       9.098  95.164  29.244  1.00  0.00     0.094 A 
ATOM     10  C   UNL     1       9.978  95.228  28.160  1.00  0.00     0.146 A 
ATOM     11  O   UNL     1       9.767  96.147  27.225  1.00  0.00    -0.452 OA
ENDROOT
BRANCH   1  12
ATOM     12  C   UNL     1      10.195  97.354  25.183  1.00  0.00     0.025 A 
ATOM     13  C   UNL     1      10.972  98.516  25.030  1.00  0.00     0.016 A 
ATOM     14  C   UNL     1      10.627  99.476  24.076  1.00  0.00     0.051 A 
ATOM     15  C   UNL     1       9.510  99.286  23.252  1.00  0.00     0.157 A 
ATOM     16  C   UNL     1       9.088  97.157  24.340  1.00  0.00     0.062 A 
ATOM     17  C   UNL     1       8.740  98.118  23.384  1.00  0.00     0.158 A 
BRANCH  15  18
ATOM     18  O   UNL     1       9.167 100.247  22.303  1.00  0.00    -0.504 OA
ATOM     19  H   UNL     1       8.513 100.045  21.555  1.00  0.00     0.293 HD
ENDBRANCH  15  18
BRANCH  17  20
ATOM     20  O   UNL     1       7.626  97.895  22.574  1.00  0.00    -0.504 OA
ATOM     21  H   UNL     1       7.704  97.470  21.657  1.00  0.00     0.293 HD
ENDBRANCH  17  20
ENDBRANCH   1  12
BRANCH   2  22
ATOM     22  O   UNL     1      12.590  95.738  24.969  1.00  0.00    -0.502 OA
ATOM     23  H   UNL     1      13.588  95.848  25.106  1.00  0.00     0.293 HD
ENDBRANCH   2  22
BRANCH   6  24
ATOM     24  O   UNL     1      12.193  92.326  29.040  1.00  0.00    -0.507 OA
ATOM     25  H   UNL     1      13.091  92.408  28.588  1.00  0.00     0.293 HD
ENDBRANCH   6  24
BRANCH   8  26
ATOM     26  O   UNL     1       8.425  94.168  31.347  1.00  0.00    -0.508 OA
ATOM     27  H   UNL     1       8.199  93.291  31.800  1.00  0.00     0.293 HD
ENDBRANCH   8  26
TORSDOF 6
ENDMDL
MODEL 5
REMARK VINA RESULT:    -7.150      3.838      6.214
REMARK INTER + INTRA:          -8.832
REMARK INTER:                  -8.497
REMARK INTRA:                  -0.335
REMARK UNBOUND:                -0.219
REMARK SMILES O=c1c(O)c(-c2ccc(O)c(O)c2)oc2cc(O)cc(O)c12
REMARK SMILES IDX 5 1 3 2 2 3 1 4 22 5 20 6 19 7 17 8 16 9 15 10 14 11 6 12
REMARK SMILES IDX 7 13 8 14 9 15 13 16 11 17 10 18 12 20 4 22 21 24 18 26
REMARK H PARENT 10 19 12 21 4 23 21 25 18 27
REMARK Flexibility Score: inf
ROOT
ATOM      1  C   UNL     1      11.800  98.168  25.463  1.00  0.00     0.180 A 
ATOM      2  C   UNL     1      12.942  97.447  25.073  1.00  0.00     0.208 A 
ATOM      3  C   UNL     1      14.205  97.889  25.499  1.00  0.00     0.238 A 
ATOM      4  O   UNL     1      15.227  97.272  25.103  1.00  0.00    -0.285 OA
ATOM      5  C   UNL     1      14.308  99.035  26.324  1.00  0.00     0.111 A 
ATOM      6  C   UNL     1      15.533  99.549  26.847  1.00  0.00     0.134 A 
ATOM      7  C   UNL     1      15.531 100.764  27.544  1.00  0.00     0.093 A 
ATOM      8  C   UNL     1      14.342 101.449  27.791  1.00  0.00     0.123 A 
ATOM      9  C   UNL     1      13.132 100.926  27.336  1.00  0.00     0.094 A 
ATOM     10  C   UNL     1      13.106  99.734  26.607  1.00  0.00     0.146 A 
ATOM     11  O   UNL     1      11.935  99.276  26.182  1.00  0.00    -0.452 OA
ENDROOT
BRANCH   1  12
ATOM     12  C   UNL     1      10.434  97.749  25.074  1.00  0.00     0.025 A 
ATOM     13  C   UNL     1       9.691  96.849  25.859  1.00  0.00     0.016 A 
ATOM     14  C   UNL     1       8.395  96.489  25.485  1.00  0.00     0.051 A 
ATOM     15  C   UNL     1       7.815  97.030  24.330  1.00  0.00     0.157 A 
ATOM     16  C   UNL     1       9.841  98.306  23.928  1.00  0.00     0.062 A 
ATOM     17  C   UNL     1       8.542  97.946  23.550  1.00  0.00     0.158 A 
BRANCH  15  18
ATOM     18  O   UNL     1       6.522  96.666  23.958  1.00  0.00    -0.504 OA
ATOM     19  H   UNL     1       6.021  97.160  23.227  1.00  0.00     0.293 HD
ENDBRANCH  15  18
BRANCH  17  20
ATOM     20  O   UNL     1       7.992  98.508  22.399  1.00  0.00    -0.504 OA
ATOM     21  H   UNL     1       7.059  98.274  22.078  1.00  0.00     0.293 HD
ENDBRANCH  17  20
ENDBRANCH   1  12
BRANCH   2  22
ATOM     22  O   UNL     1      12.819  96.330  24.241  1.00  0.00    -0.502 OA
ATOM     23  H   UNL     1      12.167  95.579  24.432  1.00  0.00     0.293 HD
ENDBRANCH   2  22
BRANCH   6  24
ATOM     24  O   UNL     1      16.764  98.896  26.735  1.00  0.00    -0.507 OA
ATOM     25  H   UNL     1      16.885  97.894  26.724  1.00  0.00     0.293 HD
ENDBRANCH   6  24
BRANCH   8  26
ATOM     26  O   UNL     1      14.375 102.648  28.501  1.00  0.00    -0.508 OA
ATOM     27  H   UNL     1      13.852 103.460  28.195  1.00  0.00     0.293 HD
ENDBRANCH   8  26
TORSDOF 6
ENDMDL
MODEL 6
REMARK VINA RESULT:    -7.107      3.054      6.809
REMARK INTER + INTRA:          -8.780
REMARK INTER:                  -8.458
REMARK INTRA:                  -0.322
REMARK UNBOUND:                -0.219
REMARK SMILES O=c1c(O)c(-c2ccc(O)c(O)c2)oc2cc(O)cc(O)c12
REMARK SMILES IDX 5 1 3 2 2 3 1 4 22 5 20 6 19 7 17 8 16 9 15 10 14 11 6 12
REMARK SMILES IDX 7 13 8 14 9 15 13 16 11 17 10 18 12 20 4 22 21 24 18 26
REMARK H PARENT 10 19 12 21 4 23 21 25 18 27
REMARK Flexibility Score: inf
ROOT
ATOM      1  C   UNL     1      12.094  99.335  26.497  1.00  0.00     0.180 A 
ATOM      2  C   UNL     1      11.866  99.006  27.845  1.00  0.00     0.208 A 
ATOM      3  C   UNL     1      10.887  98.048  28.156  1.00  0.00     0.238 A 
ATOM      4  O   UNL     1      10.650  97.796  29.365  1.00  0.00    -0.285 OA
ATOM      5  C   UNL     1      10.160  97.421  27.115  1.00  0.00     0.111 A 
ATOM      6  C   UNL     1       9.173  96.408  27.312  1.00  0.00     0.134 A 
ATOM      7  C   UNL     1       8.424  95.952  26.221  1.00  0.00     0.093 A 
ATOM      8  C   UNL     1       8.670  96.423  24.931  1.00  0.00     0.123 A 
ATOM      9  C   UNL     1       9.673  97.369  24.718  1.00  0.00     0.094 A 
ATOM     10  C   UNL     1      10.413  97.870  25.793  1.00  0.00     0.146 A 
ATOM     11  O   UNL     1      11.351  98.778  25.549  1.00  0.00    -0.452 OA
ENDROOT
BRANCH   1  12
ATOM     12  C   UNL     1      13.126 100.316  26.090  1.00  0.00     0.025 A 
ATOM     13  C   UNL     1      12.824 101.683  25.956  1.00  0.00     0.016 A 
ATOM     14  C   UNL     1      13.820 102.594  25.595  1.00  0.00     0.051 A 
ATOM     15  C   UNL     1      15.133 102.157  25.376  1.00  0.00     0.157 A 
ATOM     16  C   UNL     1      14.448  99.886  25.891  1.00  0.00     0.062 A 
ATOM     17  C   UNL     1      15.448 100.796  25.529  1.00  0.00     0.158 A 
BRANCH  15  18
ATOM     18  O   UNL     1      16.124 103.068  25.014  1.00  0.00    -0.504 OA
ATOM     19  H   UNL     1      17.007 103.116  25.510  1.00  0.00     0.293 HD
ENDBRANCH  15  18
BRANCH  17  20
ATOM     20  O   UNL     1      16.746 100.330  25.325  1.00  0.00    -0.504 OA
ATOM     21  H   UNL     1      17.466 100.415  26.034  1.00  0.00     0.293 HD
ENDBRANCH  17  20
ENDBRANCH   1  12
BRANCH   2  22
ATOM     22  O   UNL     1      12.580  99.652  28.857  1.00  0.00    -0.502 OA
ATOM     23  H   UNL     1      12.188  99.826  29.775  1.00  0.00     0.293 HD
ENDBRANCH   2  22
BRANCH   6  24
ATOM     24  O   UNL     1       8.912  95.803  28.545  1.00  0.00    -0.507 OA
ATOM     25  H   UNL     1       9.596  95.662  29.273  1.00  0.00     0.293 HD
ENDBRANCH   6  24
BRANCH   8  26
ATOM     26  O   UNL     1       7.916  95.936  23.866  1.00  0.00    -0.508 OA
ATOM     27  H   UNL     1       7.116  95.333  24.015  1.00  0.00     0.293 HD
ENDBRANCH   8  26
TORSDOF 6
ENDMDL
MODEL 7
REMARK VINA RESULT:    -6.853      2.489      4.342
REMARK INTER + INTRA:          -8.474
REMARK INTER:                  -8.140
REMARK INTRA:                  -0.334
REMARK UNBOUND:                -0.219
REMARK SMILES O=c1c(O)c(-c2ccc(O)c(O)c2)oc2cc(O)cc(O)c12
REMARK SMILES IDX 5 1 3 2 2 3 1 4 22 5 20 6 19 7 17 8 16 9 15 10 14 11 6 12
REMARK SMILES IDX 7 13 8 14 9 15 13 16 11 17 10 18 12 20 4 22 21 24 18 26
REMARK H PARENT 10 19 12 21 4 23 21 25 18 27
REMARK Flexibility Score: inf
ROOT
ATOM      1  C   UNL     1      11.635  97.459  27.152  1.00  0.00     0.180 A 
ATOM      2  C   UNL     1      10.634  96.486  27.317  1.00  0.00     0.208 A 
ATOM      3  C   UNL     1       9.603  96.403  26.368  1.00  0.00     0.238 A 
ATOM      4  O   UNL     1       8.681  95.566  26.549  1.00  0.00    -0.285 OA
ATOM      5  C   UNL     1       9.594  97.282  25.258  1.00  0.00     0.111 A 
ATOM      6  C   UNL     1       8.621  97.260  24.215  1.00  0.00     0.134 A 
ATOM      7  C   UNL     1       8.635  98.260  23.235  1.00  0.00     0.093 A 
ATOM      8  C   UNL     1       9.625  99.242  23.223  1.00  0.00     0.123 A 
ATOM      9  C   UNL     1      10.617  99.238  24.204  1.00  0.00     0.094 A 
ATOM     10  C   UNL     1      10.608  98.274  25.216  1.00  0.00     0.146 A 
ATOM     11  O   UNL     1      11.564  98.312  26.137  1.00  0.00    -0.452 OA
ENDROOT
BRANCH   1  12
ATOM     12  C   UNL     1      12.767  97.592  28.097  1.00  0.00     0.025 A 
ATOM     13  C   UNL     1      13.950  96.849  27.933  1.00  0.00     0.016 A 
ATOM     14  C   UNL     1      15.015  97.010  28.822  1.00  0.00     0.051 A 
ATOM     15  C   UNL     1      14.921  97.922  29.881  1.00  0.00     0.157 A 
ATOM     16  C   UNL     1      12.686  98.521  29.147  1.00  0.00     0.062 A 
ATOM     17  C   UNL     1      13.751  98.684  30.041  1.00  0.00     0.158 A 
BRANCH  15  18
ATOM     18  O   UNL     1      15.984  98.078  30.769  1.00  0.00    -0.504 OA
ATOM     19  H   UNL     1      16.601  98.881  30.722  1.00  0.00     0.293 HD
ENDBRANCH  15  18
BRANCH  17  20
ATOM     20  O   UNL     1      13.628  99.606  31.080  1.00  0.00    -0.504 OA
ATOM     21  H   UNL     1      13.830 100.591  30.953  1.00  0.00     0.293 HD
ENDBRANCH  17  20
ENDBRANCH   1  12
BRANCH   2  22
ATOM     22  O   UNL     1      10.650  95.643  28.431  1.00  0.00    -0.502 OA
ATOM     23  H   UNL     1      11.326  94.896  28.539  1.00  0.00     0.293 HD
ENDBRANCH   2  22
BRANCH   6  24
ATOM     24  O   UNL     1       7.643  96.270  24.081  1.00  0.00    -0.507 OA
ATOM     25  H   UNL     1       7.466  95.541  24.756  1.00  0.00     0.293 HD
ENDBRANCH   6  24
BRANCH   8  26
ATOM     26  O   UNL     1       9.619 100.214  22.224  1.00  0.00    -0.508 OA
ATOM     27  H   UNL     1      10.393 100.316  21.580  1.00  0.00     0.293 HD
ENDBRANCH   8  26
TORSDOF 6
ENDMDL
MODEL 8
REMARK VINA RESULT:    -6.704      2.961      6.859
REMARK INTER + INTRA:          -8.295
REMARK INTER:                  -8.008
REMARK INTRA:                  -0.287
REMARK UNBOUND:                -0.219
REMARK SMILES O=c1c(O)c(-c2ccc(O)c(O)c2)oc2cc(O)cc(O)c12
REMARK SMILES IDX 5 1 3 2 2 3 1 4 22 5 20 6 19 7 17 8 16 9 15 10 14 11 6 12
REMARK SMILES IDX 7 13 8 14 9 15 13 16 11 17 10 18 12 20 4 22 21 24 18 26
REMARK H PARENT 10 19 12 21 4 23 21 25 18 27
REMARK Flexibility Score: inf
ROOT
ATOM      1  C   UNL     1      12.057  99.107  26.772  1.00  0.00     0.180 A 
ATOM      2  C   UNL     1      11.475  98.844  25.520  1.00  0.00     0.208 A 
ATOM      3  C   UNL     1      10.454  97.883  25.433  1.00  0.00     0.238 A 
ATOM      4  O   UNL     1       9.973  97.612  24.303  1.00  0.00    -0.285 OA
ATOM      5  C   UNL     1      10.018  97.210  26.600  1.00  0.00     0.111 A 
ATOM      6  C   UNL     1       8.965  96.248  26.636  1.00  0.00     0.134 A 
ATOM      7  C   UNL     1       8.706  95.550  27.822  1.00  0.00     0.093 A 
ATOM      8  C   UNL     1       9.418  95.826  28.989  1.00  0.00     0.123 A 
ATOM      9  C   UNL     1      10.409  96.807  28.981  1.00  0.00     0.094 A 
ATOM     10  C   UNL     1      10.714  97.495  27.804  1.00  0.00     0.146 A 
ATOM     11  O   UNL     1      11.673  98.413  27.837  1.00  0.00    -0.452 OA
ENDROOT
BRANCH   1  12
ATOM     12  C   UNL     1      13.120 100.123  26.947  1.00  0.00     0.025 A 
ATOM     13  C   UNL     1      12.825 101.498  26.955  1.00  0.00     0.016 A 
ATOM     14  C   UNL     1      13.841 102.437  27.147  1.00  0.00     0.051 A 
ATOM     15  C   UNL     1      15.164 102.019  27.346  1.00  0.00     0.157 A 
ATOM     16  C   UNL     1      14.444  99.708  27.168  1.00  0.00     0.062 A 
ATOM     17  C   UNL     1      15.464 100.646  27.360  1.00  0.00     0.158 A 
BRANCH  15  18
ATOM     18  O   UNL     1      16.175 102.959  27.535  1.00  0.00    -0.504 OA
ATOM     19  H   UNL     1      16.474 103.239  28.463  1.00  0.00     0.293 HD
ENDBRANCH  15  18
BRANCH  17  20
ATOM     20  O   UNL     1      16.769 100.197  27.563  1.00  0.00    -0.504 OA
ATOM     21  H   UNL     1      17.562 100.827  27.556  1.00  0.00     0.293 HD
ENDBRANCH  17  20
ENDBRANCH   1  12
BRANCH   2  22
ATOM     22  O   UNL     1      11.934  99.504  24.377  1.00  0.00    -0.502 OA
ATOM     23  H   UNL     1      11.806 100.498  24.235  1.00  0.00     0.293 HD
ENDBRANCH   2  22
BRANCH   6  24
ATOM     24  O   UNL     1       8.132  95.962  25.550  1.00  0.00    -0.507 OA
ATOM     25  H   UNL     1       8.210  96.388  24.638  1.00  0.00     0.293 HD
ENDBRANCH   6  24
BRANCH   8  26
ATOM     26  O   UNL     1       9.123  95.123  30.156  1.00  0.00    -0.508 OA
ATOM     27  H   UNL     1       8.640  94.233  30.131  1.00  0.00     0.293 HD
ENDBRANCH   8  26
TORSDOF 6
ENDMDL
