MODEL 1
REMARK VINA RESULT:    -6.164      0.000      0.000
REMARK INTER + INTRA:          -7.318
REMARK INTER:                  -7.065
REMARK INTRA:                  -0.253
REMARK UNBOUND:                -0.253
REMARK SMILES O=C1C[C@@H](c2ccc(O)cc2)Oc2cc(O)cc(O)c21
REMARK SMILES IDX 3 1 4 2 12 3 13 4 14 5 15 6 17 7 18 8 20 9 2 10 1 11 5 12
REMARK SMILES IDX 6 13 11 14 7 15 10 16 8 17 9 18 19 20 16 22
REMARK H PARENT 9 19 19 21 16 23
REMARK Flexibility Score: inf
ROOT
ATOM      1  C   UNL     1      29.662 -92.465  37.482  1.00  0.00     0.131 C 
ATOM      2  C   UNL     1      31.064 -91.946  37.104  1.00  0.00     0.211 C 
ATOM      3  O   UNL     1      32.052 -92.597  37.911  1.00  0.00    -0.484 OA
ATOM      4  C   UNL     1      32.018 -93.972  38.171  1.00  0.00     0.138 A 
ATOM      5  C   UNL     1      33.157 -94.604  38.677  1.00  0.00     0.093 A 
ATOM      6  C   UNL     1      33.147 -95.981  38.928  1.00  0.00     0.123 A 
ATOM      7  C   UNL     1      31.991 -96.725  38.673  1.00  0.00     0.093 A 
ATOM      8  C   UNL     1      30.834 -96.099  38.184  1.00  0.00     0.133 A 
ATOM      9  C   UNL     1      30.842 -94.709  37.940  1.00  0.00     0.102 A 
ATOM     10  C   UNL     1      29.645 -93.967  37.478  1.00  0.00     0.174 C 
ATOM     11  O   UNL     1      28.592 -94.572  37.139  1.00  0.00    -0.294 OA
ENDROOT
BRANCH   2  12
ATOM     12  C   UNL     1      31.240 -90.439  37.219  1.00  0.00    -0.007 A 
ATOM     13  C   UNL     1      30.406 -89.625  38.020  1.00  0.00     0.011 A 
ATOM     14  C   UNL     1      32.238 -89.819  36.444  1.00  0.00     0.011 A 
ATOM     15  C   UNL     1      30.598 -88.241  38.065  1.00  0.00     0.046 A 
ATOM     16  C   UNL     1      32.425 -88.434  36.493  1.00  0.00     0.046 A 
ATOM     17  C   UNL     1      31.608 -87.642  37.302  1.00  0.00     0.115 A 
BRANCH  17  18
ATOM     18  O   UNL     1      31.808 -86.264  37.342  1.00  0.00    -0.508 OA
ATOM     19  H   UNL     1      31.988 -85.731  36.498  1.00  0.00     0.293 HD
ENDBRANCH  17  18
ENDBRANCH   2  12
BRANCH   8  20
ATOM     20  O   UNL     1      29.686 -96.856  37.951  1.00  0.00    -0.507 OA
ATOM     21  H   UNL     1      29.098 -96.695  37.140  1.00  0.00     0.293 HD
ENDBRANCH   8  20
BRANCH   6  22
ATOM     22  O   UNL     1      34.277 -96.620  39.434  1.00  0.00    -0.508 OA
ATOM     23  H   UNL     1      35.097 -96.780  38.859  1.00  0.00     0.293 HD
ENDBRANCH   6  22
TORSDOF 4
ENDMDL
MODEL 2
REMARK VINA RESULT:    -5.840      1.301      3.105
REMARK INTER + INTRA:          -6.947
REMARK INTER:                  -6.694
REMARK INTRA:                  -0.253
REMARK UNBOUND:                -0.253
REMARK SMILES O=C1C[C@@H](c2ccc(O)cc2)Oc2cc(O)cc(O)c21
REMARK SMILES IDX 3 1 4 2 12 3 13 4 14 5 15 6 17 7 18 8 20 9 2 10 1 11 5 12
REMARK SMILES IDX 6 13 11 14 7 15 10 16 8 17 9 18 19 20 16 22
REMARK H PARENT 9 19 19 21 16 23
REMARK Flexibility Score: inf
ROOT
ATOM      1  C   UNL     1      32.362 -92.802  38.124  1.00  0.00     0.131 C 
ATOM      2  C   UNL     1      31.055 -91.994  38.259  1.00  0.00     0.211 C 
ATOM      3  O   UNL     1      30.011 -92.641  37.523  1.00  0.00    -0.484 OA
ATOM      4  C   UNL     1      29.816 -94.027  37.561  1.00  0.00     0.138 A 
ATOM      5  C   UNL     1      28.611 -94.564  37.102  1.00  0.00     0.093 A 
ATOM      6  C   UNL     1      28.392 -95.946  37.148  1.00  0.00     0.123 A 
ATOM      7  C   UNL     1      29.385 -96.790  37.654  1.00  0.00     0.093 A 
ATOM      8  C   UNL     1      30.607 -96.265  38.102  1.00  0.00     0.133 A 
ATOM      9  C   UNL     1      30.831 -94.872  38.046  1.00  0.00     0.102 A 
ATOM     10  C   UNL     1      32.115 -94.248  38.446  1.00  0.00     0.174 C 
ATOM     11  O   UNL     1      33.026 -94.924  38.996  1.00  0.00    -0.294 OA
ENDROOT
BRANCH   2  12
ATOM     12  C   UNL     1      31.153 -90.542  37.814  1.00  0.00    -0.007 A 
ATOM     13  C   UNL     1      32.146 -90.075  36.923  1.00  0.00     0.011 A 
ATOM     14  C   UNL     1      30.253 -89.610  38.364  1.00  0.00     0.011 A 
ATOM     15  C   UNL     1      32.204 -88.722  36.571  1.00  0.00     0.046 A 
ATOM     16  C   UNL     1      30.316 -88.259  38.009  1.00  0.00     0.046 A 
ATOM     17  C   UNL     1      31.289 -87.812  37.113  1.00  0.00     0.115 A 
BRANCH  17  18
ATOM     18  O   UNL     1      31.337 -86.463  36.767  1.00  0.00    -0.508 OA
ATOM     19  H   UNL     1      32.156 -85.897  36.959  1.00  0.00     0.293 HD
ENDBRANCH  17  18
ENDBRANCH   2  12
BRANCH   8  20
ATOM     20  O   UNL     1      31.591 -97.125  38.588  1.00  0.00    -0.507 OA
ATOM     21  H   UNL     1      32.314 -96.801  39.223  1.00  0.00     0.293 HD
ENDBRANCH   8  20
BRANCH   6  22
ATOM     22  O   UNL     1      27.194 -96.491  36.690  1.00  0.00    -0.508 OA
ATOM     23  H   UNL     1      27.180 -97.217  35.981  1.00  0.00     0.293 HD
ENDBRANCH   6  22
TORSDOF 4
ENDMDL
MODEL 3
REMARK VINA RESULT:    -5.675      9.432     10.871
REMARK INTER + INTRA:          -6.757
REMARK INTER:                  -6.496
REMARK INTRA:                  -0.262
REMARK UNBOUND:                -0.253
REMARK SMILES O=C1C[C@@H](c2ccc(O)cc2)Oc2cc(O)cc(O)c21
REMARK SMILES IDX 3 1 4 2 12 3 13 4 14 5 15 6 17 7 18 8 20 9 2 10 1 11 5 12
REMARK SMILES IDX 6 13 11 14 7 15 10 16 8 17 9 18 19 20 16 22
REMARK H PARENT 9 19 19 21 16 23
REMARK Flexibility Score: inf
ROOT
ATOM      1  C   UNL     1      38.269 -95.603  29.780  1.00  0.00     0.131 C 
ATOM      2  C   UNL     1      37.423 -95.576  31.068  1.00  0.00     0.211 C 
ATOM      3  O   UNL     1      36.259 -94.767  30.864  1.00  0.00    -0.484 OA
ATOM      4  C   UNL     1      35.492 -94.842  29.695  1.00  0.00     0.138 A 
ATOM      5  C   UNL     1      34.209 -94.287  29.679  1.00  0.00     0.093 A 
ATOM      6  C   UNL     1      33.421 -94.368  28.525  1.00  0.00     0.123 A 
ATOM      7  C   UNL     1      33.923 -95.003  27.384  1.00  0.00     0.093 A 
ATOM      8  C   UNL     1      35.216 -95.547  27.382  1.00  0.00     0.133 A 
ATOM      9  C   UNL     1      36.013 -95.458  28.543  1.00  0.00     0.102 A 
ATOM     10  C   UNL     1      37.408 -95.957  28.600  1.00  0.00     0.174 C 
ATOM     11  O   UNL     1      37.903 -96.621  27.650  1.00  0.00    -0.294 OA
ENDROOT
BRANCH   2  12
ATOM     12  C   UNL     1      38.160 -95.085  32.306  1.00  0.00    -0.007 A 
ATOM     13  C   UNL     1      39.426 -94.458  32.251  1.00  0.00     0.011 A 
ATOM     14  C   UNL     1      37.584 -95.322  33.568  1.00  0.00     0.011 A 
ATOM     15  C   UNL     1      40.069 -94.052  33.424  1.00  0.00     0.046 A 
ATOM     16  C   UNL     1      38.231 -94.915  34.739  1.00  0.00     0.046 A 
ATOM     17  C   UNL     1      39.473 -94.279  34.671  1.00  0.00     0.115 A 
BRANCH  17  18
ATOM     18  O   UNL     1      40.105 -93.877  35.846  1.00  0.00    -0.508 OA
ATOM     19  H   UNL     1      39.756 -94.156  36.756  1.00  0.00     0.293 HD
ENDBRANCH  17  18
ENDBRANCH   2  12
BRANCH   8  20
ATOM     20  O   UNL     1      35.703 -96.162  26.229  1.00  0.00    -0.507 OA
ATOM     21  H   UNL     1      35.172 -96.169  25.364  1.00  0.00     0.293 HD
ENDBRANCH   8  20
BRANCH   6  22
ATOM     22  O   UNL     1      32.142 -93.815  28.498  1.00  0.00    -0.508 OA
ATOM     23  H   UNL     1      31.979 -92.872  28.162  1.00  0.00     0.293 HD
ENDBRANCH   6  22
TORSDOF 4
ENDMDL
MODEL 4
REMARK VINA RESULT:    -5.367      9.089     10.416
REMARK INTER + INTRA:          -6.405
REMARK INTER:                  -6.135
REMARK INTRA:                  -0.269
REMARK UNBOUND:                -0.253
REMARK SMILES O=C1C[C@@H](c2ccc(O)cc2)Oc2cc(O)cc(O)c21
REMARK SMILES IDX 3 1 4 2 12 3 13 4 14 5 15 6 17 7 18 8 20 9 2 10 1 11 5 12
REMARK SMILES IDX 6 13 11 14 7 15 10 16 8 17 9 18 19 20 16 22
REMARK H PARENT 9 19 19 21 16 23
REMARK Flexibility Score: inf
ROOT
ATOM      1  C   UNL     1      37.065 -95.758  29.260  1.00  0.00     0.131 C 
ATOM      2  C   UNL     1      36.152 -94.688  29.890  1.00  0.00     0.211 C 
ATOM      3  O   UNL     1      36.361 -94.649  31.306  1.00  0.00    -0.484 OA
ATOM      4  C   UNL     1      37.639 -94.697  31.875  1.00  0.00     0.138 A 
ATOM      5  C   UNL     1      37.810 -94.332  33.214  1.00  0.00     0.093 A 
ATOM      6  C   UNL     1      39.083 -94.357  33.795  1.00  0.00     0.123 A 
ATOM      7  C   UNL     1      40.186 -94.752  33.032  1.00  0.00     0.093 A 
ATOM      8  C   UNL     1      40.026 -95.139  31.693  1.00  0.00     0.133 A 
ATOM      9  C   UNL     1      38.741 -95.121  31.110  1.00  0.00     0.102 A 
ATOM     10  C   UNL     1      38.482 -95.570  29.721  1.00  0.00     0.174 C 
ATOM     11  O   UNL     1      39.429 -95.854  28.940  1.00  0.00    -0.294 OA
ENDROOT
BRANCH   2  12
ATOM     12  C   UNL     1      34.667 -94.869  29.610  1.00  0.00    -0.007 A 
ATOM     13  C   UNL     1      33.865 -95.817  30.287  1.00  0.00     0.011 A 
ATOM     14  C   UNL     1      34.078 -94.102  28.588  1.00  0.00     0.011 A 
ATOM     15  C   UNL     1      32.511 -95.959  29.968  1.00  0.00     0.046 A 
ATOM     16  C   UNL     1      32.724 -94.247  28.272  1.00  0.00     0.046 A 
ATOM     17  C   UNL     1      31.937 -95.174  28.960  1.00  0.00     0.115 A 
BRANCH  17  18
ATOM     18  O   UNL     1      30.589 -95.306  28.636  1.00  0.00    -0.508 OA
ATOM     19  H   UNL     1      30.294 -95.619  27.718  1.00  0.00     0.293 HD
ENDBRANCH  17  18
ENDBRANCH   2  12
BRANCH   8  20
ATOM     20  O   UNL     1      41.137 -95.544  30.954  1.00  0.00    -0.507 OA
ATOM     21  H   UNL     1      41.981 -94.983  30.912  1.00  0.00     0.293 HD
ENDBRANCH   8  20
BRANCH   6  22
ATOM     22  O   UNL     1      39.262 -93.998  35.129  1.00  0.00    -0.508 OA
ATOM     23  H   UNL     1      40.185 -93.964  35.549  1.00  0.00     0.293 HD
ENDBRANCH   6  22
TORSDOF 4
ENDMDL
MODEL 5
REMARK VINA RESULT:    -5.330      8.067     10.444
REMARK INTER + INTRA:          -6.362
REMARK INTER:                  -6.091
REMARK INTRA:                  -0.271
REMARK UNBOUND:                -0.253
REMARK SMILES O=C1C[C@@H](c2ccc(O)cc2)Oc2cc(O)cc(O)c21
REMARK SMILES IDX 3 1 4 2 12 3 13 4 14 5 15 6 17 7 18 8 20 9 2 10 1 11 5 12
REMARK SMILES IDX 6 13 11 14 7 15 10 16 8 17 9 18 19 20 16 22
REMARK H PARENT 9 19 19 21 16 23
REMARK Flexibility Score: inf
ROOT
ATOM      1  C   UNL     1      41.748 -94.971  35.983  1.00  0.00     0.131 C 
ATOM      2  C   UNL     1      40.438 -94.435  35.371  1.00  0.00     0.211 C 
ATOM      3  O   UNL     1      39.319 -95.090  35.978  1.00  0.00    -0.484 OA
ATOM      4  C   UNL     1      39.239 -95.312  37.358  1.00  0.00     0.138 A 
ATOM      5  C   UNL     1      38.009 -95.650  37.929  1.00  0.00     0.093 A 
ATOM      6  C   UNL     1      37.907 -95.858  39.310  1.00  0.00     0.123 A 
ATOM      7  C   UNL     1      39.041 -95.729  40.117  1.00  0.00     0.093 A 
ATOM      8  C   UNL     1      40.286 -95.408  39.553  1.00  0.00     0.133 A 
ATOM      9  C   UNL     1      40.389 -95.208  38.160  1.00  0.00     0.102 A 
ATOM     10  C   UNL     1      41.678 -94.923  37.483  1.00  0.00     0.174 C 
ATOM     11  O   UNL     1      42.727 -94.702  38.145  1.00  0.00    -0.294 OA
ENDROOT
BRANCH   2  12
ATOM     12  C   UNL     1      40.337 -94.573  33.859  1.00  0.00    -0.007 A 
ATOM     13  C   UNL     1      39.338 -93.933  33.091  1.00  0.00     0.011 A 
ATOM     14  C   UNL     1      41.243 -95.427  33.201  1.00  0.00     0.011 A 
ATOM     15  C   UNL     1      39.278 -94.118  31.707  1.00  0.00     0.046 A 
ATOM     16  C   UNL     1      41.179 -95.609  31.816  1.00  0.00     0.046 A 
ATOM     17  C   UNL     1      40.198 -94.957  31.066  1.00  0.00     0.115 A 
BRANCH  17  18
ATOM     18  O   UNL     1      40.148 -95.146  29.686  1.00  0.00    -0.508 OA
ATOM     19  H   UNL     1      39.273 -95.090  29.177  1.00  0.00     0.293 HD
ENDBRANCH  17  18
ENDBRANCH   2  12
BRANCH   8  20
ATOM     20  O   UNL     1      41.408 -95.300  40.374  1.00  0.00    -0.507 OA
ATOM     21  H   UNL     1      42.348 -95.406  40.006  1.00  0.00     0.293 HD
ENDBRANCH   8  20
BRANCH   6  22
ATOM     22  O   UNL     1      36.686 -96.198  39.889  1.00  0.00    -0.508 OA
ATOM     23  H   UNL     1      36.188 -95.553  40.493  1.00  0.00     0.293 HD
ENDBRANCH   6  22
TORSDOF 4
ENDMDL
MODEL 6
REMARK VINA RESULT:    -5.190      8.339     10.316
REMARK INTER + INTRA:          -6.202
REMARK INTER:                  -5.907
REMARK INTRA:                  -0.295
REMARK UNBOUND:                -0.253
REMARK SMILES O=C1C[C@@H](c2ccc(O)cc2)Oc2cc(O)cc(O)c21
REMARK SMILES IDX 3 1 4 2 12 3 13 4 14 5 15 6 17 7 18 8 20 9 2 10 1 11 5 12
REMARK SMILES IDX 6 13 11 14 7 15 10 16 8 17 9 18 19 20 16 22
REMARK H PARENT 9 19 19 21 16 23
REMARK Flexibility Score: inf
ROOT
ATOM      1  C   UNL     1      40.872 -94.738  33.699  1.00  0.00     0.131 C 
ATOM      2  C   UNL     1      39.392 -94.307  33.666  1.00  0.00     0.211 C 
ATOM      3  O   UNL     1      38.697 -94.887  34.775  1.00  0.00    -0.484 OA
ATOM      4  C   UNL     1      39.240 -94.920  36.065  1.00  0.00     0.138 A 
ATOM      5  C   UNL     1      38.407 -95.192  37.154  1.00  0.00     0.093 A 
ATOM      6  C   UNL     1      38.930 -95.212  38.453  1.00  0.00     0.123 A 
ATOM      7  C   UNL     1      40.290 -94.960  38.658  1.00  0.00     0.093 A 
ATOM      8  C   UNL     1      41.140 -94.704  37.572  1.00  0.00     0.133 A 
ATOM      9  C   UNL     1      40.614 -94.693  36.262  1.00  0.00     0.102 A 
ATOM     10  C   UNL     1      41.457 -94.487  35.059  1.00  0.00     0.174 C 
ATOM     11  O   UNL     1      42.671 -94.165  35.161  1.00  0.00    -0.294 OA
ENDROOT
BRANCH   2  12
ATOM     12  C   UNL     1      38.655 -94.650  32.380  1.00  0.00    -0.007 A 
ATOM     13  C   UNL     1      37.250 -94.791  32.311  1.00  0.00     0.011 A 
ATOM     14  C   UNL     1      39.412 -94.900  31.220  1.00  0.00     0.011 A 
ATOM     15  C   UNL     1      36.630 -95.135  31.106  1.00  0.00     0.046 A 
ATOM     16  C   UNL     1      38.787 -95.244  30.017  1.00  0.00     0.046 A 
ATOM     17  C   UNL     1      37.396 -95.362  29.957  1.00  0.00     0.115 A 
BRANCH  17  18
ATOM     18  O   UNL     1      36.787 -95.704  28.751  1.00  0.00    -0.508 OA
ATOM     19  H   UNL     1      36.403 -96.629  28.596  1.00  0.00     0.293 HD
ENDBRANCH  17  18
ENDBRANCH   2  12
BRANCH   8  20
ATOM     20  O   UNL     1      42.496 -94.471  37.797  1.00  0.00    -0.507 OA
ATOM     21  H   UNL     1      43.119 -95.211  38.102  1.00  0.00     0.293 HD
ENDBRANCH   8  20
BRANCH   6  22
ATOM     22  O   UNL     1      38.108 -95.485  39.545  1.00  0.00    -0.508 OA
ATOM     23  H   UNL     1      38.447 -96.010  40.344  1.00  0.00     0.293 HD
ENDBRANCH   6  22
TORSDOF 4
ENDMDL
MODEL 7
REMARK VINA RESULT:    -5.171     15.375     16.264
REMARK INTER + INTRA:          -6.180
REMARK INTER:                  -5.900
REMARK INTRA:                  -0.280
REMARK UNBOUND:                -0.253
REMARK SMILES O=C1C[C@@H](c2ccc(O)cc2)Oc2cc(O)cc(O)c21
REMARK SMILES IDX 3 1 4 2 12 3 13 4 14 5 15 6 17 7 18 8 20 9 2 10 1 11 5 12
REMARK SMILES IDX 6 13 11 14 7 15 10 16 8 17 9 18 19 20 16 22
REMARK H PARENT 9 19 19 21 16 23
REMARK Flexibility Score: inf
ROOT
ATOM      1  C   UNL     1      37.574 -77.497  36.773  1.00  0.00     0.131 C 
ATOM      2  C   UNL     1      36.546 -77.179  37.877  1.00  0.00     0.211 C 
ATOM      3  O   UNL     1      36.698 -78.106  38.958  1.00  0.00    -0.484 OA
ATOM      4  C   UNL     1      37.953 -78.478  39.455  1.00  0.00     0.138 A 
ATOM      5  C   UNL     1      38.039 -79.115  40.696  1.00  0.00     0.093 A 
ATOM      6  C   UNL     1      39.287 -79.479  41.216  1.00  0.00     0.123 A 
ATOM      7  C   UNL     1      40.449 -79.205  40.488  1.00  0.00     0.093 A 
ATOM      8  C   UNL     1      40.375 -78.583  39.233  1.00  0.00     0.133 A 
ATOM      9  C   UNL     1      39.116 -78.225  38.705  1.00  0.00     0.102 A 
ATOM     10  C   UNL     1      38.950 -77.618  37.362  1.00  0.00     0.174 C 
ATOM     11  O   UNL     1      39.948 -77.256  36.682  1.00  0.00    -0.294 OA
ENDROOT
BRANCH   2  12
ATOM     12  C   UNL     1      35.095 -77.180  37.419  1.00  0.00    -0.007 A 
ATOM     13  C   UNL     1      34.015 -76.875  38.278  1.00  0.00     0.011 A 
ATOM     14  C   UNL     1      34.810 -77.563  36.094  1.00  0.00     0.011 A 
ATOM     15  C   UNL     1      32.699 -76.919  37.808  1.00  0.00     0.046 A 
ATOM     16  C   UNL     1      33.493 -77.605  35.629  1.00  0.00     0.046 A 
ATOM     17  C   UNL     1      32.435 -77.284  36.482  1.00  0.00     0.115 A 
BRANCH  17  18
ATOM     18  O   UNL     1      31.127 -77.328  36.004  1.00  0.00    -0.508 OA
ATOM     19  H   UNL     1      30.722 -76.548  35.499  1.00  0.00     0.293 HD
ENDBRANCH  17  18
ENDBRANCH   2  12
BRANCH   8  20
ATOM     20  O   UNL     1      41.544 -78.333  38.516  1.00  0.00    -0.507 OA
ATOM     21  H   UNL     1      41.661 -78.652  37.559  1.00  0.00     0.293 HD
ENDBRANCH   8  20
BRANCH   6  22
ATOM     22  O   UNL     1      39.383 -80.117  42.451  1.00  0.00    -0.508 OA
ATOM     23  H   UNL     1      38.627 -80.688  42.812  1.00  0.00     0.293 HD
ENDBRANCH   6  22
TORSDOF 4
ENDMDL
MODEL 8
REMARK VINA RESULT:    -5.117      9.405     11.268
REMARK INTER + INTRA:          -6.118
REMARK INTER:                  -5.822
REMARK INTRA:                  -0.296
REMARK UNBOUND:                -0.253
REMARK SMILES O=C1C[C@@H](c2ccc(O)cc2)Oc2cc(O)cc(O)c21
REMARK SMILES IDX 3 1 4 2 12 3 13 4 14 5 15 6 17 7 18 8 20 9 2 10 1 11 5 12
REMARK SMILES IDX 6 13 11 14 7 15 10 16 8 17 9 18 19 20 16 22
REMARK H PARENT 9 19 19 21 16 23
REMARK Flexibility Score: inf
ROOT
ATOM      1  C   UNL     1      40.631 -95.250  31.464  1.00  0.00     0.131 C 
ATOM      2  C   UNL     1      39.834 -95.688  32.709  1.00  0.00     0.211 C 
ATOM      3  O   UNL     1      38.508 -95.152  32.645  1.00  0.00    -0.484 OA
ATOM      4  C   UNL     1      37.752 -95.162  31.467  1.00  0.00     0.138 A 
ATOM      5  C   UNL     1      36.375 -94.933  31.532  1.00  0.00     0.093 A 
ATOM      6  C   UNL     1      35.601 -94.956  30.367  1.00  0.00     0.123 A 
ATOM      7  C   UNL     1      36.210 -95.207  29.133  1.00  0.00     0.093 A 
ATOM      8  C   UNL     1      37.594 -95.419  29.052  1.00  0.00     0.133 A 
ATOM      9  C   UNL     1      38.376 -95.387  30.227  1.00  0.00     0.102 A 
ATOM     10  C   UNL     1      39.850 -95.544  30.216  1.00  0.00     0.174 C 
ATOM     11  O   UNL     1      40.464 -95.863  29.163  1.00  0.00    -0.294 OA
ENDROOT
BRANCH   2  12
ATOM     12  C   UNL     1      40.465 -95.304  34.039  1.00  0.00    -0.007 A 
ATOM     13  C   UNL     1      41.842 -95.467  34.315  1.00  0.00     0.011 A 
ATOM     14  C   UNL     1      39.628 -94.822  35.064  1.00  0.00     0.011 A 
ATOM     15  C   UNL     1      42.361 -95.121  35.567  1.00  0.00     0.046 A 
ATOM     16  C   UNL     1      40.152 -94.479  36.314  1.00  0.00     0.046 A 
ATOM     17  C   UNL     1      41.518 -94.626  36.569  1.00  0.00     0.115 A 
BRANCH  17  18
ATOM     18  O   UNL     1      42.026 -94.278  37.819  1.00  0.00    -0.508 OA
ATOM     19  H   UNL     1      42.407 -93.355  37.995  1.00  0.00     0.293 HD
ENDBRANCH  17  18
ENDBRANCH   2  12
BRANCH   8  20
ATOM     20  O   UNL     1      38.185 -95.652  27.810  1.00  0.00    -0.507 OA
ATOM     21  H   UNL     1      37.637 -95.939  27.006  1.00  0.00     0.293 HD
ENDBRANCH   8  20
BRANCH   6  22
ATOM     22  O   UNL     1      34.227 -94.726  30.421  1.00  0.00    -0.508 OA
ATOM     23  H   UNL     1      33.620 -95.283  31.013  1.00  0.00     0.293 HD
ENDBRANCH   6  22
TORSDOF 4
ENDMDL
MODEL 9
REMARK VINA RESULT:    -4.991     15.360     16.912
REMARK INTER + INTRA:          -5.974
REMARK INTER:                  -5.704
REMARK INTRA:                  -0.270
REMARK UNBOUND:                -0.253
REMARK SMILES O=C1C[C@@H](c2ccc(O)cc2)Oc2cc(O)cc(O)c21
REMARK SMILES IDX 3 1 4 2 12 3 13 4 14 5 15 6 17 7 18 8 20 9 2 10 1 11 5 12
REMARK SMILES IDX 6 13 11 14 7 15 10 16 8 17 9 18 19 20 16 22
REMARK H PARENT 9 19 19 21 16 23
REMARK Flexibility Score: inf
ROOT
ATOM      1  C   UNL     1      38.287 -77.193  36.343  1.00  0.00     0.131 C 
ATOM      2  C   UNL     1      37.839 -78.080  37.523  1.00  0.00     0.211 C 
ATOM      3  O   UNL     1      36.457 -77.838  37.810  1.00  0.00    -0.484 OA
ATOM      4  C   UNL     1      35.493 -77.722  36.802  1.00  0.00     0.138 A 
ATOM      5  C   UNL     1      34.138 -77.813  37.134  1.00  0.00     0.093 A 
ATOM      6  C   UNL     1      33.160 -77.717  36.137  1.00  0.00     0.123 A 
ATOM      7  C   UNL     1      33.542 -77.525  34.806  1.00  0.00     0.093 A 
ATOM      8  C   UNL     1      34.898 -77.413  34.462  1.00  0.00     0.133 A 
ATOM      9  C   UNL     1      35.883 -77.501  35.469  1.00  0.00     0.102 A 
ATOM     10  C   UNL     1      37.330 -77.335  35.194  1.00  0.00     0.174 C 
ATOM     11  O   UNL     1      37.765 -77.251  34.014  1.00  0.00    -0.294 OA
ENDROOT
BRANCH   2  12
ATOM     12  C   UNL     1      38.652 -77.905  38.797  1.00  0.00    -0.007 A 
ATOM     13  C   UNL     1      39.711 -76.977  38.914  1.00  0.00     0.011 A 
ATOM     14  C   UNL     1      38.377 -78.750  39.889  1.00  0.00     0.011 A 
ATOM     15  C   UNL     1      40.442 -76.880  40.103  1.00  0.00     0.046 A 
ATOM     16  C   UNL     1      39.111 -78.649  41.075  1.00  0.00     0.046 A 
ATOM     17  C   UNL     1      40.143 -77.715  41.186  1.00  0.00     0.115 A 
BRANCH  17  18
ATOM     18  O   UNL     1      40.864 -77.625  42.375  1.00  0.00    -0.508 OA
ATOM     19  H   UNL     1      40.622 -76.947  43.089  1.00  0.00     0.293 HD
ENDBRANCH  17  18
ENDBRANCH   2  12
BRANCH   8  20
ATOM     20  O   UNL     1      35.257 -77.206  33.131  1.00  0.00    -0.507 OA
ATOM     21  H   UNL     1      35.079 -76.323  32.662  1.00  0.00     0.293 HD
ENDBRANCH   8  20
BRANCH   6  22
ATOM     22  O   UNL     1      31.807 -77.804  36.459  1.00  0.00    -0.508 OA
ATOM     23  H   UNL     1      31.087 -77.534  35.797  1.00  0.00     0.293 HD
ENDBRANCH   6  22
TORSDOF 4
ENDMDL
