MODEL 1
REMARK VINA RESULT:    13.237      0.000      0.000
REMARK INTER + INTRA:          16.486
REMARK INTER:                  15.946
REMARK INTRA:                   0.541
REMARK UNBOUND:                 0.541
REMARK SMILES O=c1c(O)c(-c2ccc(O)c(O)c2)oc2cc(O)cc(O)c12
REMARK SMILES IDX 5 1 3 2 2 3 1 4 22 5 20 6 19 7 17 8 16 9 15 10 14 11 6 12
REMARK SMILES IDX 7 13 8 14 9 15 13 16 11 17 10 18 12 20 4 22 21 24 18 26
REMARK H PARENT 10 19 12 21 4 23 21 25 18 27
REMARK Flexibility Score: inf
ROOT
ATOM      1  C   UNL     1      21.076   7.094   6.540  1.00  0.00     0.180 A 
ATOM      2  C   UNL     1      22.451   6.945   6.289  1.00  0.00     0.208 A 
ATOM      3  C   UNL     1      23.033   5.673   6.417  1.00  0.00     0.238 A 
ATOM      4  O   UNL     1      24.252   5.536   6.139  1.00  0.00    -0.285 OA
ATOM      5  C   UNL     1      22.236   4.571   6.810  1.00  0.00     0.111 A 
ATOM      6  C   UNL     1      22.729   3.246   7.010  1.00  0.00     0.134 A 
ATOM      7  C   UNL     1      21.827   2.207   7.272  1.00  0.00     0.093 A 
ATOM      8  C   UNL     1      20.458   2.456   7.404  1.00  0.00     0.123 A 
ATOM      9  C   UNL     1      19.977   3.755   7.269  1.00  0.00     0.094 A 
ATOM     10  C   UNL     1      20.847   4.807   6.972  1.00  0.00     0.146 A 
ATOM     11  O   UNL     1      20.343   6.029   6.842  1.00  0.00    -0.452 OA
ENDROOT
BRANCH   1  12
ATOM     12  C   UNL     1      20.396   8.407   6.450  1.00  0.00     0.025 A 
ATOM     13  C   UNL     1      21.125   9.538   6.052  1.00  0.00     0.016 A 
ATOM     14  C   UNL     1      20.498  10.781   5.941  1.00  0.00     0.051 A 
ATOM     15  C   UNL     1      19.132  10.911   6.209  1.00  0.00     0.157 A 
ATOM     16  C   UNL     1      19.018   8.535   6.700  1.00  0.00     0.062 A 
ATOM     17  C   UNL     1      18.386   9.783   6.585  1.00  0.00     0.158 A 
BRANCH  15  18
ATOM     18  O   UNL     1      18.535  12.166   6.091  1.00  0.00    -0.504 OA
ATOM     19  H   UNL     1      18.944  12.996   6.505  1.00  0.00     0.293 HD
ENDBRANCH  15  18
BRANCH  17  20
ATOM     20  O   UNL     1      17.021   9.902   6.841  1.00  0.00    -0.504 OA
ATOM     21  H   UNL     1      16.552  10.800   6.813  1.00  0.00     0.293 HD
ENDBRANCH  17  20
ENDBRANCH   1  12
BRANCH   2  22
ATOM     22  O   UNL     1      23.215   8.042   5.881  1.00  0.00    -0.502 OA
ATOM     23  H   UNL     1      23.503   8.772   6.519  1.00  0.00     0.293 HD
ENDBRANCH   2  22
BRANCH   6  24
ATOM     24  O   UNL     1      24.084   2.906   6.991  1.00  0.00    -0.507 OA
ATOM     25  H   UNL     1      24.569   2.523   6.193  1.00  0.00     0.293 HD
ENDBRANCH   6  24
BRANCH   8  26
ATOM     26  O   UNL     1      19.571   1.419   7.680  1.00  0.00    -0.508 OA
ATOM     27  H   UNL     1      18.572   1.578   7.744  1.00  0.00     0.293 HD
ENDBRANCH   8  26
TORSDOF 6
ENDMDL
MODEL 2
REMARK VINA RESULT:    15.360     10.229     11.039
REMARK INTER + INTRA:          19.043
REMARK INTER:                  19.329
REMARK INTRA:                  -0.286
REMARK UNBOUND:                 0.541
REMARK SMILES O=c1c(O)c(-c2ccc(O)c(O)c2)oc2cc(O)cc(O)c12
REMARK SMILES IDX 5 1 3 2 2 3 1 4 22 5 20 6 19 7 17 8 16 9 15 10 14 11 6 12
REMARK SMILES IDX 7 13 8 14 9 15 13 16 11 17 10 18 12 20 4 22 21 24 18 26
REMARK H PARENT 10 19 12 21 4 23 21 25 18 27
REMARK Flexibility Score: inf
ROOT
ATOM      1  C   UNL     1      19.104   5.398  16.375  1.00  0.00     0.180 A 
ATOM      2  C   UNL     1      20.109   6.019  17.136  1.00  0.00     0.208 A 
ATOM      3  C   UNL     1      20.258   5.665  18.487  1.00  0.00     0.238 A 
ATOM      4  O   UNL     1      21.194   6.185  19.148  1.00  0.00    -0.285 OA
ATOM      5  C   UNL     1      19.390   4.707  19.063  1.00  0.00     0.111 A 
ATOM      6  C   UNL     1      19.424   4.303  20.432  1.00  0.00     0.134 A 
ATOM      7  C   UNL     1      18.604   3.252  20.862  1.00  0.00     0.093 A 
ATOM      8  C   UNL     1      17.704   2.636  19.988  1.00  0.00     0.123 A 
ATOM      9  C   UNL     1      17.622   3.064  18.666  1.00  0.00     0.094 A 
ATOM     10  C   UNL     1      18.453   4.085  18.198  1.00  0.00     0.146 A 
ATOM     11  O   UNL     1      18.349   4.456  16.927  1.00  0.00    -0.452 OA
ENDROOT
BRANCH   1  12
ATOM     12  C   UNL     1      18.869   5.736  14.952  1.00  0.00     0.025 A 
ATOM     13  C   UNL     1      19.254   4.829  13.953  1.00  0.00     0.016 A 
ATOM     14  C   UNL     1      19.024   5.120  12.606  1.00  0.00     0.051 A 
ATOM     15  C   UNL     1      18.392   6.311  12.238  1.00  0.00     0.157 A 
ATOM     16  C   UNL     1      18.216   6.926  14.581  1.00  0.00     0.062 A 
ATOM     17  C   UNL     1      17.981   7.217  13.229  1.00  0.00     0.158 A 
BRANCH  15  18
ATOM     18  O   UNL     1      18.178   6.574  10.885  1.00  0.00    -0.504 OA
ATOM     19  H   UNL     1      17.390   6.185  10.380  1.00  0.00     0.293 HD
ENDBRANCH  15  18
BRANCH  17  20
ATOM     20  O   UNL     1      17.339   8.401  12.869  1.00  0.00    -0.504 OA
ATOM     21  H   UNL     1      16.349   8.425  12.657  1.00  0.00     0.293 HD
ENDBRANCH  17  20
ENDBRANCH   1  12
BRANCH   2  22
ATOM     22  O   UNL     1      20.970   6.947  16.541  1.00  0.00    -0.502 OA
ATOM     23  H   UNL     1      20.821   7.946  16.605  1.00  0.00     0.293 HD
ENDBRANCH   2  22
BRANCH   6  24
ATOM     24  O   UNL     1      20.218   4.913  21.406  1.00  0.00    -0.507 OA
ATOM     25  H   UNL     1      20.021   4.907  22.396  1.00  0.00     0.293 HD
ENDBRANCH   6  24
BRANCH   8  26
ATOM     26  O   UNL     1      16.881   1.603  20.428  1.00  0.00    -0.508 OA
ATOM     27  H   UNL     1      16.495   0.921  19.785  1.00  0.00     0.293 HD
ENDBRANCH   8  26
TORSDOF 6
ENDMDL
