MODEL 1
REMARK VINA RESULT:    -4.760      0.000      0.000
REMARK INTER + INTRA:          -6.621
REMARK INTER:                  -6.430
REMARK INTRA:                  -0.191
REMARK UNBOUND:                -0.191
REMARK SMILES CCCCCCCC(=O)[O-]
REMARK SMILES IDX 5 1 6 2 7 3 8 4 9 5 10 6 4 7 3 8 2 9 1 10
REMARK H PARENT
REMARK Flexibility Score: inf
ROOT
ATOM      1  C   UNL     1      38.915  67.046  24.662  1.00  0.00     0.000 C 
ENDROOT
BRANCH   1   2
ATOM      2  C   UNL     1      40.279  66.969  25.361  1.00  0.00     0.006 C 
BRANCH   2   3
ATOM      3  C   UNL     1      41.416  66.885  24.338  1.00  0.00     0.053 C 
BRANCH   3   4
ATOM      4  C   UNL     1      41.453  65.529  23.705  1.00  0.00     0.041 C 
ATOM      5  O   UNL     1      41.194  65.396  22.480  1.00  0.00    -0.550 OA
ATOM      6  O   UNL     1      41.822  64.421  24.456  1.00  0.00    -0.550 OA
ENDBRANCH   3   4
ENDBRANCH   2   3
ENDBRANCH   1   2
BRANCH   1   7
ATOM      7  C   UNL     1      37.736  67.123  25.649  1.00  0.00     0.000 C 
BRANCH   7   8
ATOM      8  C   UNL     1      36.466  67.796  25.095  1.00  0.00    -0.000 C 
BRANCH   8   9
ATOM      9  C   UNL     1      35.235  67.571  25.983  1.00  0.00    -0.003 C 
ATOM     10  C   UNL     1      34.970  66.081  26.187  1.00  0.00     0.004 C 
ENDBRANCH   8   9
ENDBRANCH   7   8
ENDBRANCH   1   7
TORSDOF 6
ENDMDL
MODEL 2
REMARK VINA RESULT:    -4.752      1.549      1.940
REMARK INTER + INTRA:          -6.610
REMARK INTER:                  -6.542
REMARK INTRA:                  -0.068
REMARK UNBOUND:                -0.191
REMARK SMILES CCCCCCCC(=O)[O-]
REMARK SMILES IDX 5 1 6 2 7 3 8 4 9 5 10 6 4 7 3 8 2 9 1 10
REMARK H PARENT
REMARK Flexibility Score: inf
ROOT
ATOM      1  C   UNL     1      38.900  66.749  24.224  1.00  0.00     0.000 C 
ENDROOT
BRANCH   1   2
ATOM      2  C   UNL     1      39.961  67.016  25.300  1.00  0.00     0.006 C 
BRANCH   2   3
ATOM      3  C   UNL     1      41.370  66.752  24.759  1.00  0.00     0.053 C 
BRANCH   3   4
ATOM      4  C   UNL     1      41.722  67.751  23.702  1.00  0.00     0.041 C 
ATOM      5  O   UNL     1      42.364  68.792  24.003  1.00  0.00    -0.550 OA
ATOM      6  O   UNL     1      41.384  67.509  22.376  1.00  0.00    -0.550 OA
ENDBRANCH   3   4
ENDBRANCH   2   3
ENDBRANCH   1   2
BRANCH   1   7
ATOM      7  C   UNL     1      37.602  67.548  24.447  1.00  0.00     0.000 C 
BRANCH   7   8
ATOM      8  C   UNL     1      37.010  67.441  25.865  1.00  0.00    -0.000 C 
BRANCH   8   9
ATOM      9  C   UNL     1      35.479  67.552  25.882  1.00  0.00    -0.003 C 
ATOM     10  C   UNL     1      34.831  66.190  26.115  1.00  0.00     0.004 C 
ENDBRANCH   8   9
ENDBRANCH   7   8
ENDBRANCH   1   7
TORSDOF 6
ENDMDL
MODEL 3
REMARK VINA RESULT:    -4.748      0.255      1.054
REMARK INTER + INTRA:          -6.604
REMARK INTER:                  -6.414
REMARK INTRA:                  -0.190
REMARK UNBOUND:                -0.191
REMARK SMILES CCCCCCCC(=O)[O-]
REMARK SMILES IDX 5 1 6 2 7 3 8 4 9 5 10 6 4 7 3 8 2 9 1 10
REMARK H PARENT
REMARK Flexibility Score: inf
ROOT
ATOM      1  C   UNL     1      38.685  67.095  24.639  1.00  0.00     0.000 C 
ENDROOT
BRANCH   1   2
ATOM      2  C   UNL     1      40.085  66.925  25.246  1.00  0.00     0.006 C 
BRANCH   2   3
ATOM      3  C   UNL     1      41.165  67.005  24.164  1.00  0.00     0.053 C 
BRANCH   3   4
ATOM      4  C   UNL     1      41.388  65.661  23.544  1.00  0.00     0.041 C 
ATOM      5  O   UNL     1      41.750  64.688  24.256  1.00  0.00    -0.550 OA
ATOM      6  O   UNL     1      41.148  65.473  22.189  1.00  0.00    -0.550 OA
ENDBRANCH   3   4
ENDBRANCH   2   3
ENDBRANCH   1   2
BRANCH   1   7
ATOM      7  C   UNL     1      37.581  67.235  25.703  1.00  0.00     0.000 C 
BRANCH   7   8
ATOM      8  C   UNL     1      36.250  67.813  25.187  1.00  0.00    -0.000 C 
BRANCH   8   9
ATOM      9  C   UNL     1      35.054  67.449  26.078  1.00  0.00    -0.003 C 
ATOM     10  C   UNL     1      34.905  65.935  26.203  1.00  0.00     0.004 C 
ENDBRANCH   8   9
ENDBRANCH   7   8
ENDBRANCH   1   7
TORSDOF 6
ENDMDL
MODEL 4
REMARK VINA RESULT:    -4.547      3.385      6.020
REMARK INTER + INTRA:          -6.333
REMARK INTER:                  -6.143
REMARK INTRA:                  -0.190
REMARK UNBOUND:                -0.191
REMARK SMILES CCCCCCCC(=O)[O-]
REMARK SMILES IDX 5 1 6 2 7 3 8 4 9 5 10 6 4 7 3 8 2 9 1 10
REMARK H PARENT
REMARK Flexibility Score: inf
ROOT
ATOM      1  C   UNL     1      41.764  64.551  24.582  1.00  0.00     0.000 C 
ENDROOT
BRANCH   1   2
ATOM      2  C   UNL     1      41.374  65.972  25.010  1.00  0.00     0.006 C 
BRANCH   2   3
ATOM      3  C   UNL     1      41.182  66.880  23.791  1.00  0.00     0.053 C 
BRANCH   3   4
ATOM      4  C   UNL     1      39.832  66.663  23.182  1.00  0.00     0.041 C 
ATOM      5  O   UNL     1      39.731  66.290  21.984  1.00  0.00    -0.550 OA
ATOM      6  O   UNL     1      38.688  66.824  23.953  1.00  0.00    -0.550 OA
ENDBRANCH   3   4
ENDBRANCH   2   3
ENDBRANCH   1   2
BRANCH   1   7
ATOM      7  C   UNL     1      42.178  63.658  25.766  1.00  0.00     0.000 C 
BRANCH   7   8
ATOM      8  C   UNL     1      42.511  62.201  25.396  1.00  0.00    -0.000 C 
BRANCH   8   9
ATOM      9  C   UNL     1      43.606  61.594  26.284  1.00  0.00    -0.003 C 
ATOM     10  C   UNL     1      44.991  62.068  25.849  1.00  0.00     0.004 C 
ENDBRANCH   8   9
ENDBRANCH   7   8
ENDBRANCH   1   7
TORSDOF 6
ENDMDL
MODEL 5
REMARK VINA RESULT:    -4.460      3.905      6.904
REMARK INTER + INTRA:          -6.215
REMARK INTER:                  -6.017
REMARK INTRA:                  -0.198
REMARK UNBOUND:                -0.191
REMARK SMILES CCCCCCCC(=O)[O-]
REMARK SMILES IDX 5 1 6 2 7 3 8 4 9 5 10 6 4 7 3 8 2 9 1 10
REMARK H PARENT
REMARK Flexibility Score: inf
ROOT
ATOM      1  C   UNL     1      42.251  63.430  25.883  1.00  0.00     0.000 C 
ENDROOT
BRANCH   1   2
ATOM      2  C   UNL     1      41.837  64.088  24.559  1.00  0.00     0.006 C 
BRANCH   2   3
ATOM      3  C   UNL     1      41.422  65.546  24.778  1.00  0.00     0.053 C 
BRANCH   3   4
ATOM      4  C   UNL     1      41.301  66.260  23.468  1.00  0.00     0.041 C 
ATOM      5  O   UNL     1      41.306  67.518  23.431  1.00  0.00    -0.550 OA
ATOM      6  O   UNL     1      41.233  65.535  22.286  1.00  0.00    -0.550 OA
ENDBRANCH   3   4
ENDBRANCH   2   3
ENDBRANCH   1   2
BRANCH   1   7
ATOM      7  C   UNL     1      42.891  62.043  25.690  1.00  0.00     0.000 C 
BRANCH   7   8
ATOM      8  C   UNL     1      44.216  61.827  26.446  1.00  0.00    -0.000 C 
BRANCH   8   9
ATOM      9  C   UNL     1      45.448  62.192  25.607  1.00  0.00    -0.003 C 
ATOM     10  C   UNL     1      46.469  62.965  26.438  1.00  0.00     0.004 C 
ENDBRANCH   8   9
ENDBRANCH   7   8
ENDBRANCH   1   7
TORSDOF 6
ENDMDL
MODEL 6
REMARK VINA RESULT:    -4.425      3.363      5.888
REMARK INTER + INTRA:          -6.169
REMARK INTER:                  -6.040
REMARK INTRA:                  -0.128
REMARK UNBOUND:                -0.191
REMARK SMILES CCCCCCCC(=O)[O-]
REMARK SMILES IDX 5 1 6 2 7 3 8 4 9 5 10 6 4 7 3 8 2 9 1 10
REMARK H PARENT
REMARK Flexibility Score: inf
ROOT
ATOM      1  C   UNL     1      41.985  68.199  23.727  1.00  0.00     0.000 C 
ENDROOT
BRANCH   1   2
ATOM      2  C   UNL     1      41.560  67.616  25.081  1.00  0.00     0.006 C 
BRANCH   2   3
ATOM      3  C   UNL     1      40.691  66.368  24.894  1.00  0.00     0.053 C 
BRANCH   3   4
ATOM      4  C   UNL     1      39.389  66.727  24.250  1.00  0.00     0.041 C 
ATOM      5  O   UNL     1      39.223  66.548  23.015  1.00  0.00    -0.550 OA
ATOM      6  O   UNL     1      38.342  67.212  25.024  1.00  0.00    -0.550 OA
ENDBRANCH   3   4
ENDBRANCH   2   3
ENDBRANCH   1   2
BRANCH   1   7
ATOM      7  C   UNL     1      43.272  69.040  23.810  1.00  0.00     0.000 C 
BRANCH   7   8
ATOM      8  C   UNL     1      43.350  69.991  25.020  1.00  0.00    -0.000 C 
BRANCH   8   9
ATOM      9  C   UNL     1      44.231  71.220  24.757  1.00  0.00    -0.003 C 
ATOM     10  C   UNL     1      43.408  72.505  24.800  1.00  0.00     0.004 C 
ENDBRANCH   8   9
ENDBRANCH   7   8
ENDBRANCH   1   7
TORSDOF 6
ENDMDL
MODEL 7
REMARK VINA RESULT:    -4.420      3.233      5.876
REMARK INTER + INTRA:          -6.162
REMARK INTER:                  -5.982
REMARK INTRA:                  -0.179
REMARK UNBOUND:                -0.191
REMARK SMILES CCCCCCCC(=O)[O-]
REMARK SMILES IDX 5 1 6 2 7 3 8 4 9 5 10 6 4 7 3 8 2 9 1 10
REMARK H PARENT
REMARK Flexibility Score: inf
ROOT
ATOM      1  C   UNL     1      42.180  68.378  24.068  1.00  0.00     0.000 C 
ENDROOT
BRANCH   1   2
ATOM      2  C   UNL     1      41.406  67.322  24.868  1.00  0.00     0.006 C 
BRANCH   2   3
ATOM      3  C   UNL     1      40.154  66.868  24.110  1.00  0.00     0.053 C 
BRANCH   3   4
ATOM      4  C   UNL     1      40.528  66.260  22.795  1.00  0.00     0.041 C 
ATOM      5  O   UNL     1      41.325  65.287  22.752  1.00  0.00    -0.550 OA
ATOM      6  O   UNL     1      39.958  66.737  21.622  1.00  0.00    -0.550 OA
ENDBRANCH   3   4
ENDBRANCH   2   3
ENDBRANCH   1   2
BRANCH   1   7
ATOM      7  C   UNL     1      42.943  69.371  24.964  1.00  0.00     0.000 C 
BRANCH   7   8
ATOM      8  C   UNL     1      44.028  70.194  24.244  1.00  0.00    -0.000 C 
BRANCH   8   9
ATOM      9  C   UNL     1      44.356  71.510  24.965  1.00  0.00    -0.003 C 
ATOM     10  C   UNL     1      43.304  72.575  24.668  1.00  0.00     0.004 C 
ENDBRANCH   8   9
ENDBRANCH   7   8
ENDBRANCH   1   7
TORSDOF 6
ENDMDL
MODEL 8
REMARK VINA RESULT:    -4.357      3.362      5.556
REMARK INTER + INTRA:          -6.076
REMARK INTER:                  -5.856
REMARK INTRA:                  -0.220
REMARK UNBOUND:                -0.191
REMARK SMILES CCCCCCCC(=O)[O-]
REMARK SMILES IDX 5 1 6 2 7 3 8 4 9 5 10 6 4 7 3 8 2 9 1 10
REMARK H PARENT
REMARK Flexibility Score: inf
ROOT
ATOM      1  C   UNL     1      38.950  66.828  24.162  1.00  0.00     0.000 C 
ENDROOT
BRANCH   1   2
ATOM      2  C   UNL     1      37.625  67.543  24.459  1.00  0.00     0.006 C 
BRANCH   2   3
ATOM      3  C   UNL     1      37.129  67.215  25.870  1.00  0.00     0.053 C 
BRANCH   3   4
ATOM      4  C   UNL     1      35.643  67.040  25.877  1.00  0.00     0.041 C 
ATOM      5  O   UNL     1      34.892  67.995  25.547  1.00  0.00    -0.550 OA
ATOM      6  O   UNL     1      35.089  65.808  26.201  1.00  0.00    -0.550 OA
ENDBRANCH   3   4
ENDBRANCH   2   3
ENDBRANCH   1   2
BRANCH   1   7
ATOM      7  C   UNL     1      39.964  66.936  25.316  1.00  0.00     0.000 C 
BRANCH   7   8
ATOM      8  C   UNL     1      41.418  66.593  24.939  1.00  0.00    -0.000 C 
BRANCH   8   9
ATOM      9  C   UNL     1      41.523  65.369  24.018  1.00  0.00    -0.003 C 
ATOM     10  C   UNL     1      41.845  64.108  24.816  1.00  0.00     0.004 C 
ENDBRANCH   8   9
ENDBRANCH   7   8
ENDBRANCH   1   7
TORSDOF 6
ENDMDL
MODEL 9
REMARK VINA RESULT:    -4.339      3.338      5.611
REMARK INTER + INTRA:          -6.053
REMARK INTER:                  -5.770
REMARK INTRA:                  -0.283
REMARK UNBOUND:                -0.191
REMARK SMILES CCCCCCCC(=O)[O-]
REMARK SMILES IDX 5 1 6 2 7 3 8 4 9 5 10 6 4 7 3 8 2 9 1 10
REMARK H PARENT
REMARK Flexibility Score: inf
ROOT
ATOM      1  C   UNL     1      39.209  66.759  24.062  1.00  0.00     0.000 C 
ENDROOT
BRANCH   1   2
ATOM      2  C   UNL     1      37.882  67.481  24.329  1.00  0.00     0.006 C 
BRANCH   2   3
ATOM      3  C   UNL     1      37.392  67.218  25.757  1.00  0.00     0.053 C 
BRANCH   3   4
ATOM      4  C   UNL     1      35.903  67.072  25.783  1.00  0.00     0.041 C 
ATOM      5  O   UNL     1      35.167  68.034  25.438  1.00  0.00    -0.550 OA
ATOM      6  O   UNL     1      35.330  65.858  26.139  1.00  0.00    -0.550 OA
ENDBRANCH   3   4
ENDBRANCH   2   3
ENDBRANCH   1   2
BRANCH   1   7
ATOM      7  C   UNL     1      40.074  66.601  25.326  1.00  0.00     0.000 C 
BRANCH   7   8
ATOM      8  C   UNL     1      41.370  67.434  25.335  1.00  0.00    -0.000 C 
BRANCH   8   9
ATOM      9  C   UNL     1      41.763  67.943  23.941  1.00  0.00    -0.003 C 
ATOM     10  C   UNL     1      42.847  69.013  24.032  1.00  0.00     0.004 C 
ENDBRANCH   8   9
ENDBRANCH   7   8
ENDBRANCH   1   7
TORSDOF 6
ENDMDL
