MODEL 1
REMARK VINA RESULT:    -5.060      0.000      0.000
REMARK INTER + INTRA:          -9.500
REMARK INTER:                  -8.611
REMARK INTRA:                  -0.889
REMARK UNBOUND:                -0.889
REMARK SMILES CCCCCCCCCCCCCC(=O)[O-]
REMARK SMILES IDX 8 1 9 2 10 3 11 4 12 5 13 6 14 7 15 8 16 9 7 10 6 11 5 12
REMARK SMILES IDX 4 13 3 14 2 15 1 16
REMARK H PARENT
REMARK Flexibility Score: inf
ROOT
ATOM      1  C   UNL     1      27.219  37.139  33.870  1.00  0.00     0.000 C 
ENDROOT
BRANCH   1   2
ATOM      2  C   UNL     1      27.441  35.622  33.962  1.00  0.00     0.000 C 
BRANCH   2   3
ATOM      3  C   UNL     1      28.296  35.121  32.792  1.00  0.00     0.000 C 
BRANCH   3   4
ATOM      4  C   UNL     1      28.111  33.613  32.579  1.00  0.00     0.000 C 
BRANCH   4   5
ATOM      5  C   UNL     1      27.617  33.314  31.159  1.00  0.00     0.006 C 
BRANCH   5   6
ATOM      6  C   UNL     1      27.204  34.601  30.439  1.00  0.00     0.053 C 
BRANCH   6   7
ATOM      7  C   UNL     1      25.715  34.678  30.318  1.00  0.00     0.041 C 
ATOM      8  O   UNL     1      25.102  35.715  30.682  1.00  0.00    -0.550 OA
ATOM      9  O   UNL     1      24.999  33.584  29.848  1.00  0.00    -0.550 OA
ENDBRANCH   6   7
ENDBRANCH   5   6
ENDBRANCH   4   5
ENDBRANCH   3   4
ENDBRANCH   2   3
ENDBRANCH   1   2
BRANCH   1  10
ATOM     10  C   UNL     1      27.479  37.691  32.460  1.00  0.00     0.000 C 
BRANCH  10  11
ATOM     11  C   UNL     1      27.847  39.182  32.465  1.00  0.00    -0.000 C 
BRANCH  11  12
ATOM     12  C   UNL     1      27.888  39.732  33.897  1.00  0.00    -0.000 C 
BRANCH  12  13
ATOM     13  C   UNL     1      26.997  40.976  34.034  1.00  0.00    -0.000 C 
BRANCH  13  14
ATOM     14  C   UNL     1      27.795  42.292  33.989  1.00  0.00    -0.000 C 
BRANCH  14  15
ATOM     15  C   UNL     1      27.608  43.204  35.213  1.00  0.00    -0.003 C 
ATOM     16  C   UNL     1      26.145  43.362  35.625  1.00  0.00     0.004 C 
ENDBRANCH  14  15
ENDBRANCH  13  14
ENDBRANCH  12  13
ENDBRANCH  11  12
ENDBRANCH  10  11
ENDBRANCH   1  10
TORSDOF 12
ENDMDL
MODEL 2
REMARK VINA RESULT:    -5.020      4.476      8.694
REMARK INTER + INTRA:          -9.431
REMARK INTER:                  -8.819
REMARK INTRA:                  -0.612
REMARK UNBOUND:                -0.889
REMARK SMILES CCCCCCCCCCCCCC(=O)[O-]
REMARK SMILES IDX 8 1 9 2 10 3 11 4 12 5 13 6 14 7 15 8 16 9 7 10 6 11 5 12
REMARK SMILES IDX 4 13 3 14 2 15 1 16
REMARK H PARENT
REMARK Flexibility Score: inf
ROOT
ATOM      1  C   UNL     1      27.510  41.646  34.061  1.00  0.00     0.000 C 
ENDROOT
BRANCH   1   2
ATOM      2  C   UNL     1      27.846  43.116  34.352  1.00  0.00     0.000 C 
BRANCH   2   3
ATOM      3  C   UNL     1      26.973  43.663  35.487  1.00  0.00     0.000 C 
BRANCH   3   4
ATOM      4  C   UNL     1      25.620  42.941  35.540  1.00  0.00     0.000 C 
BRANCH   4   5
ATOM      5  C   UNL     1      24.544  43.833  36.169  1.00  0.00     0.006 C 
BRANCH   5   6
ATOM      6  C   UNL     1      23.236  43.760  35.375  1.00  0.00     0.053 C 
BRANCH   6   7
ATOM      7  C   UNL     1      22.283  44.815  35.837  1.00  0.00     0.041 C 
ATOM      8  O   UNL     1      22.696  45.789  36.519  1.00  0.00    -0.550 OA
ATOM      9  O   UNL     1      20.927  44.697  35.557  1.00  0.00    -0.550 OA
ENDBRANCH   6   7
ENDBRANCH   5   6
ENDBRANCH   4   5
ENDBRANCH   3   4
ENDBRANCH   2   3
ENDBRANCH   1   2
BRANCH   1  10
ATOM     10  C   UNL     1      27.753  41.263  32.592  1.00  0.00     0.000 C 
BRANCH  10  11
ATOM     11  C   UNL     1      28.074  39.772  32.414  1.00  0.00    -0.000 C 
BRANCH  11  12
ATOM     12  C   UNL     1      27.352  38.924  33.469  1.00  0.00    -0.000 C 
BRANCH  12  13
ATOM     13  C   UNL     1      27.569  37.425  33.213  1.00  0.00    -0.000 C 
BRANCH  13  14
ATOM     14  C   UNL     1      27.236  37.010  31.768  1.00  0.00    -0.000 C 
BRANCH  14  15
ATOM     15  C   UNL     1      28.043  35.813  31.236  1.00  0.00    -0.003 C 
ATOM     16  C   UNL     1      28.497  34.859  32.339  1.00  0.00     0.004 C 
ENDBRANCH  14  15
ENDBRANCH  13  14
ENDBRANCH  12  13
ENDBRANCH  11  12
ENDBRANCH  10  11
ENDBRANCH   1  10
TORSDOF 12
ENDMDL
MODEL 3
REMARK VINA RESULT:    -4.998      3.096      7.372
REMARK INTER + INTRA:          -9.394
REMARK INTER:                  -8.397
REMARK INTRA:                  -0.997
REMARK UNBOUND:                -0.889
REMARK SMILES CCCCCCCCCCCCCC(=O)[O-]
REMARK SMILES IDX 8 1 9 2 10 3 11 4 12 5 13 6 14 7 15 8 16 9 7 10 6 11 5 12
REMARK SMILES IDX 4 13 3 14 2 15 1 16
REMARK H PARENT
REMARK Flexibility Score: inf
ROOT
ATOM      1  C   UNL     1      28.257  34.806  33.577  1.00  0.00     0.000 C 
ENDROOT
BRANCH   1   2
ATOM      2  C   UNL     1      27.066  35.739  33.844  1.00  0.00     0.000 C 
BRANCH   2   3
ATOM      3  C   UNL     1      27.502  37.208  33.811  1.00  0.00     0.000 C 
BRANCH   3   4
ATOM      4  C   UNL     1      27.524  37.745  32.374  1.00  0.00     0.000 C 
BRANCH   4   5
ATOM      5  C   UNL     1      27.861  39.240  32.350  1.00  0.00     0.006 C 
BRANCH   5   6
ATOM      6  C   UNL     1      27.806  39.838  33.759  1.00  0.00     0.053 C 
BRANCH   6   7
ATOM      7  C   UNL     1      27.616  41.320  33.692  1.00  0.00     0.041 C 
ATOM      8  O   UNL     1      27.479  41.991  34.748  1.00  0.00    -0.550 OA
ATOM      9  O   UNL     1      27.541  41.956  32.458  1.00  0.00    -0.550 OA
ENDBRANCH   6   7
ENDBRANCH   5   6
ENDBRANCH   4   5
ENDBRANCH   3   4
ENDBRANCH   2   3
ENDBRANCH   1   2
BRANCH   1  10
ATOM     10  C   UNL     1      28.066  33.949  32.316  1.00  0.00     0.000 C 
BRANCH  10  11
ATOM     11  C   UNL     1      28.818  34.507  31.099  1.00  0.00    -0.000 C 
BRANCH  11  12
ATOM     12  C   UNL     1      27.845  34.870  29.970  1.00  0.00    -0.000 C 
BRANCH  12  13
ATOM     13  C   UNL     1      26.400  34.520  30.357  1.00  0.00    -0.000 C 
BRANCH  13  14
ATOM     14  C   UNL     1      25.870  33.271  29.629  1.00  0.00    -0.000 C 
BRANCH  14  15
ATOM     15  C   UNL     1      24.337  33.153  29.578  1.00  0.00    -0.003 C 
ATOM     16  C   UNL     1      23.836  32.393  28.352  1.00  0.00     0.004 C 
ENDBRANCH  14  15
ENDBRANCH  13  14
ENDBRANCH  12  13
ENDBRANCH  11  12
ENDBRANCH  10  11
ENDBRANCH   1  10
TORSDOF 12
ENDMDL
MODEL 4
REMARK VINA RESULT:    -4.883      3.411      8.162
REMARK INTER + INTRA:          -9.198
REMARK INTER:                  -8.509
REMARK INTRA:                  -0.689
REMARK UNBOUND:                -0.889
REMARK SMILES CCCCCCCCCCCCCC(=O)[O-]
REMARK SMILES IDX 8 1 9 2 10 3 11 4 12 5 13 6 14 7 15 8 16 9 7 10 6 11 5 12
REMARK SMILES IDX 4 13 3 14 2 15 1 16
REMARK H PARENT
REMARK Flexibility Score: inf
ROOT
ATOM      1  C   UNL     1      27.122  38.272  34.300  1.00  0.00     0.000 C 
ENDROOT
BRANCH   1   2
ATOM      2  C   UNL     1      26.915  39.793  34.359  1.00  0.00     0.000 C 
BRANCH   2   3
ATOM      3  C   UNL     1      27.690  40.496  33.240  1.00  0.00     0.000 C 
BRANCH   3   4
ATOM      4  C   UNL     1      27.689  42.017  33.440  1.00  0.00     0.000 C 
BRANCH   4   5
ATOM      5  C   UNL     1      27.600  42.377  34.928  1.00  0.00     0.006 C 
BRANCH   5   6
ATOM      6  C   UNL     1      26.681  43.582  35.147  1.00  0.00     0.053 C 
BRANCH   6   7
ATOM      7  C   UNL     1      25.412  43.157  35.815  1.00  0.00     0.041 C 
ATOM      8  O   UNL     1      24.682  42.278  35.290  1.00  0.00    -0.550 OA
ATOM      9  O   UNL     1      25.010  43.770  36.996  1.00  0.00    -0.550 OA
ENDBRANCH   6   7
ENDBRANCH   5   6
ENDBRANCH   4   5
ENDBRANCH   3   4
ENDBRANCH   2   3
ENDBRANCH   1   2
BRANCH   1  10
ATOM     10  C   UNL     1      27.491  37.780  32.891  1.00  0.00     0.000 C 
BRANCH  10  11
ATOM     11  C   UNL     1      27.521  36.248  32.787  1.00  0.00    -0.000 C 
BRANCH  11  12
ATOM     12  C   UNL     1      28.225  35.799  31.500  1.00  0.00    -0.000 C 
BRANCH  12  13
ATOM     13  C   UNL     1      28.624  34.318  31.579  1.00  0.00    -0.000 C 
BRANCH  13  14
ATOM     14  C   UNL     1      27.485  33.368  31.166  1.00  0.00    -0.000 C 
BRANCH  14  15
ATOM     15  C   UNL     1      26.664  33.832  29.950  1.00  0.00    -0.003 C 
ATOM     16  C   UNL     1      25.277  33.196  29.886  1.00  0.00     0.004 C 
ENDBRANCH  14  15
ENDBRANCH  13  14
ENDBRANCH  12  13
ENDBRANCH  11  12
ENDBRANCH  10  11
ENDBRANCH   1  10
TORSDOF 12
ENDMDL
MODEL 5
REMARK VINA RESULT:    -4.843      4.614      8.007
REMARK INTER + INTRA:          -9.131
REMARK INTER:                  -8.613
REMARK INTRA:                  -0.518
REMARK UNBOUND:                -0.889
REMARK SMILES CCCCCCCCCCCCCC(=O)[O-]
REMARK SMILES IDX 8 1 9 2 10 3 11 4 12 5 13 6 14 7 15 8 16 9 7 10 6 11 5 12
REMARK SMILES IDX 4 13 3 14 2 15 1 16
REMARK H PARENT
REMARK Flexibility Score: inf
ROOT
ATOM      1  C   UNL     1      24.492  43.894  36.261  1.00  0.00     0.000 C 
ENDROOT
BRANCH   1   2
ATOM      2  C   UNL     1      25.435  42.854  35.638  1.00  0.00     0.000 C 
BRANCH   2   3
ATOM      3  C   UNL     1      26.832  43.445  35.414  1.00  0.00     0.000 C 
BRANCH   3   4
ATOM      4  C   UNL     1      27.730  42.463  34.651  1.00  0.00     0.000 C 
BRANCH   4   5
ATOM      5  C   UNL     1      26.914  41.296  34.084  1.00  0.00     0.006 C 
BRANCH   5   6
ATOM      6  C   UNL     1      27.792  40.057  33.884  1.00  0.00     0.053 C 
BRANCH   6   7
ATOM      7  C   UNL     1      27.964  39.767  32.427  1.00  0.00     0.041 C 
ATOM      8  O   UNL     1      28.312  40.680  31.635  1.00  0.00    -0.550 OA
ATOM      9  O   UNL     1      27.691  38.496  31.935  1.00  0.00    -0.550 OA
ENDBRANCH   6   7
ENDBRANCH   5   6
ENDBRANCH   4   5
ENDBRANCH   3   4
ENDBRANCH   2   3
ENDBRANCH   1   2
BRANCH   1  10
ATOM     10  C   UNL     1      23.201  44.083  35.449  1.00  0.00     0.000 C 
BRANCH  10  11
ATOM     11  C   UNL     1      22.418  45.338  35.864  1.00  0.00    -0.000 C 
BRANCH  11  12
ATOM     12  C   UNL     1      20.909  45.065  35.876  1.00  0.00    -0.000 C 
BRANCH  12  13
ATOM     13  C   UNL     1      20.266  45.467  34.540  1.00  0.00    -0.000 C 
BRANCH  13  14
ATOM     14  C   UNL     1      20.587  46.916  34.133  1.00  0.00    -0.000 C 
BRANCH  14  15
ATOM     15  C   UNL     1      20.235  47.273  32.679  1.00  0.00    -0.003 C 
ATOM     16  C   UNL     1      18.732  47.278  32.410  1.00  0.00     0.004 C 
ENDBRANCH  14  15
ENDBRANCH  13  14
ENDBRANCH  12  13
ENDBRANCH  11  12
ENDBRANCH  10  11
ENDBRANCH   1  10
TORSDOF 12
ENDMDL
MODEL 6
REMARK VINA RESULT:    -4.742      3.901      8.709
REMARK INTER + INTRA:          -8.957
REMARK INTER:                  -8.602
REMARK INTRA:                  -0.356
REMARK UNBOUND:                -0.889
REMARK SMILES CCCCCCCCCCCCCC(=O)[O-]
REMARK SMILES IDX 8 1 9 2 10 3 11 4 12 5 13 6 14 7 15 8 16 9 7 10 6 11 5 12
REMARK SMILES IDX 4 13 3 14 2 15 1 16
REMARK H PARENT
REMARK Flexibility Score: inf
ROOT
ATOM      1  C   UNL     1      27.838  36.474  31.844  1.00  0.00     0.000 C 
ENDROOT
BRANCH   1   2
ATOM      2  C   UNL     1      27.477  37.930  32.175  1.00  0.00     0.000 C 
BRANCH   2   3
ATOM      3  C   UNL     1      27.736  38.235  33.655  1.00  0.00     0.000 C 
BRANCH   3   4
ATOM      4  C   UNL     1      26.865  39.403  34.137  1.00  0.00     0.000 C 
BRANCH   4   5
ATOM      5  C   UNL     1      27.442  40.747  33.676  1.00  0.00     0.006 C 
BRANCH   5   6
ATOM      6  C   UNL     1      26.771  41.913  34.408  1.00  0.00     0.053 C 
BRANCH   6   7
ATOM      7  C   UNL     1      27.794  42.905  34.861  1.00  0.00     0.041 C 
ATOM      8  O   UNL     1      28.706  42.559  35.654  1.00  0.00    -0.550 OA
ATOM      9  O   UNL     1      27.710  44.228  34.443  1.00  0.00    -0.550 OA
ENDBRANCH   6   7
ENDBRANCH   5   6
ENDBRANCH   4   5
ENDBRANCH   3   4
ENDBRANCH   2   3
ENDBRANCH   1   2
BRANCH   1  10
ATOM     10  C   UNL     1      26.645  35.681  31.286  1.00  0.00     0.000 C 
BRANCH  10  11
ATOM     11  C   UNL     1      27.051  34.705  30.172  1.00  0.00    -0.000 C 
BRANCH  11  12
ATOM     12  C   UNL     1      26.239  33.406  30.257  1.00  0.00    -0.000 C 
BRANCH  12  13
ATOM     13  C   UNL     1      24.766  33.654  29.900  1.00  0.00    -0.000 C 
BRANCH  13  14
ATOM     14  C   UNL     1      24.250  32.711  28.797  1.00  0.00    -0.000 C 
BRANCH  14  15
ATOM     15  C   UNL     1      23.133  31.750  29.238  1.00  0.00    -0.003 C 
ATOM     16  C   UNL     1      23.538  30.280  29.151  1.00  0.00     0.004 C 
ENDBRANCH  14  15
ENDBRANCH  13  14
ENDBRANCH  12  13
ENDBRANCH  11  12
ENDBRANCH  10  11
ENDBRANCH   1  10
TORSDOF 12
ENDMDL
MODEL 7
REMARK VINA RESULT:    -4.738      4.810      9.140
REMARK INTER + INTRA:          -8.951
REMARK INTER:                  -8.379
REMARK INTRA:                  -0.572
REMARK UNBOUND:                -0.889
REMARK SMILES CCCCCCCCCCCCCC(=O)[O-]
REMARK SMILES IDX 8 1 9 2 10 3 11 4 12 5 13 6 14 7 15 8 16 9 7 10 6 11 5 12
REMARK SMILES IDX 4 13 3 14 2 15 1 16
REMARK H PARENT
REMARK Flexibility Score: inf
ROOT
ATOM      1  C   UNL     1      25.455  40.898  34.751  1.00  0.00     0.000 C 
ENDROOT
BRANCH   1   2
ATOM      2  C   UNL     1      24.420  41.926  35.230  1.00  0.00     0.000 C 
BRANCH   2   3
ATOM      3  C   UNL     1      25.104  43.120  35.907  1.00  0.00     0.000 C 
BRANCH   3   4
ATOM      4  C   UNL     1      24.090  44.221  36.241  1.00  0.00     0.000 C 
BRANCH   4   5
ATOM      5  C   UNL     1      22.856  44.125  35.337  1.00  0.00     0.006 C 
BRANCH   5   6
ATOM      6  C   UNL     1      21.645  44.799  35.989  1.00  0.00     0.053 C 
BRANCH   6   7
ATOM      7  C   UNL     1      20.845  45.542  34.966  1.00  0.00     0.041 C 
ATOM      8  O   UNL     1      19.758  45.069  34.545  1.00  0.00    -0.550 OA
ATOM      9  O   UNL     1      21.327  46.735  34.440  1.00  0.00    -0.550 OA
ENDBRANCH   6   7
ENDBRANCH   5   6
ENDBRANCH   4   5
ENDBRANCH   3   4
ENDBRANCH   2   3
ENDBRANCH   1   2
BRANCH   1  10
ATOM     10  C   UNL     1      26.761  41.552  34.273  1.00  0.00     0.000 C 
BRANCH  10  11
ATOM     11  C   UNL     1      27.854  40.523  33.946  1.00  0.00    -0.000 C 
BRANCH  11  12
ATOM     12  C   UNL     1      27.260  39.115  33.812  1.00  0.00    -0.000 C 
BRANCH  12  13
ATOM     13  C   UNL     1      27.633  38.487  32.461  1.00  0.00    -0.000 C 
BRANCH  13  14
ATOM     14  C   UNL     1      27.481  36.956  32.449  1.00  0.00    -0.000 C 
BRANCH  14  15
ATOM     15  C   UNL     1      27.839  36.279  31.115  1.00  0.00    -0.003 C 
ATOM     16  C   UNL     1      26.714  35.405  30.565  1.00  0.00     0.004 C 
ENDBRANCH  14  15
ENDBRANCH  13  14
ENDBRANCH  12  13
ENDBRANCH  11  12
ENDBRANCH  10  11
ENDBRANCH   1  10
TORSDOF 12
ENDMDL
MODEL 8
REMARK VINA RESULT:    -4.665      4.271      8.831
REMARK INTER + INTRA:          -8.826
REMARK INTER:                  -8.071
REMARK INTRA:                  -0.755
REMARK UNBOUND:                -0.889
REMARK SMILES CCCCCCCCCCCCCC(=O)[O-]
REMARK SMILES IDX 8 1 9 2 10 3 11 4 12 5 13 6 14 7 15 8 16 9 7 10 6 11 5 12
REMARK SMILES IDX 4 13 3 14 2 15 1 16
REMARK H PARENT
REMARK Flexibility Score: inf
ROOT
ATOM      1  C   UNL     1      25.059  32.624  29.038  1.00  0.00     0.000 C 
ENDROOT
BRANCH   1   2
ATOM      2  C   UNL     1      25.323  33.677  30.124  1.00  0.00     0.000 C 
BRANCH   2   3
ATOM      3  C   UNL     1      26.813  33.733  30.483  1.00  0.00     0.000 C 
BRANCH   3   4
ATOM      4  C   UNL     1      27.421  35.089  30.102  1.00  0.00     0.000 C 
BRANCH   4   5
ATOM      5  C   UNL     1      28.241  35.669  31.260  1.00  0.00     0.006 C 
BRANCH   5   6
ATOM      6  C   UNL     1      27.328  36.178  32.379  1.00  0.00     0.053 C 
BRANCH   6   7
ATOM      7  C   UNL     1      27.534  35.380  33.627  1.00  0.00     0.041 C 
ATOM      8  O   UNL     1      28.202  34.314  33.596  1.00  0.00    -0.550 OA
ATOM      9  O   UNL     1      26.946  35.789  34.818  1.00  0.00    -0.550 OA
ENDBRANCH   6   7
ENDBRANCH   5   6
ENDBRANCH   4   5
ENDBRANCH   3   4
ENDBRANCH   2   3
ENDBRANCH   1   2
BRANCH   1  10
ATOM     10  C   UNL     1      23.565  32.303  28.875  1.00  0.00     0.000 C 
BRANCH  10  11
ATOM     11  C   UNL     1      23.288  30.795  28.792  1.00  0.00    -0.000 C 
BRANCH  11  12
ATOM     12  C   UNL     1      22.044  30.419  29.607  1.00  0.00    -0.000 C 
BRANCH  12  13
ATOM     13  C   UNL     1      21.183  31.658  29.899  1.00  0.00    -0.000 C 
BRANCH  13  14
ATOM     14  C   UNL     1      19.738  31.517  29.388  1.00  0.00    -0.000 C 
BRANCH  14  15
ATOM     15  C   UNL     1      19.203  32.735  28.616  1.00  0.00    -0.003 C 
ATOM     16  C   UNL     1      19.998  33.037  27.348  1.00  0.00     0.004 C 
ENDBRANCH  14  15
ENDBRANCH  13  14
ENDBRANCH  12  13
ENDBRANCH  11  12
ENDBRANCH  10  11
ENDBRANCH   1  10
TORSDOF 12
ENDMDL
MODEL 9
REMARK VINA RESULT:    -4.637      5.332      9.592
REMARK INTER + INTRA:          -8.780
REMARK INTER:                  -8.325
REMARK INTRA:                  -0.455
REMARK UNBOUND:                -0.889
REMARK SMILES CCCCCCCCCCCCCC(=O)[O-]
REMARK SMILES IDX 8 1 9 2 10 3 11 4 12 5 13 6 14 7 15 8 16 9 7 10 6 11 5 12
REMARK SMILES IDX 4 13 3 14 2 15 1 16
REMARK H PARENT
REMARK Flexibility Score: inf
ROOT
ATOM      1  C   UNL     1      25.473  42.552  35.494  1.00  0.00     0.000 C 
ENDROOT
BRANCH   1   2
ATOM      2  C   UNL     1      24.651  43.726  36.046  1.00  0.00     0.000 C 
BRANCH   2   3
ATOM      3  C   UNL     1      23.273  43.792  35.378  1.00  0.00     0.000 C 
BRANCH   3   4
ATOM      4  C   UNL     1      22.552  45.100  35.729  1.00  0.00     0.000 C 
BRANCH   4   5
ATOM      5  C   UNL     1      21.248  45.240  34.935  1.00  0.00     0.006 C 
BRANCH   5   6
ATOM      6  C   UNL     1      21.131  46.635  34.313  1.00  0.00     0.053 C 
BRANCH   6   7
ATOM      7  C   UNL     1      20.257  46.595  33.100  1.00  0.00     0.041 C 
ATOM      8  O   UNL     1      20.127  45.527  32.446  1.00  0.00    -0.550 OA
ATOM      9  O   UNL     1      19.625  47.752  32.661  1.00  0.00    -0.550 OA
ENDBRANCH   6   7
ENDBRANCH   5   6
ENDBRANCH   4   5
ENDBRANCH   3   4
ENDBRANCH   2   3
ENDBRANCH   1   2
BRANCH   1  10
ATOM     10  C   UNL     1      26.906  42.958  35.116  1.00  0.00     0.000 C 
BRANCH  10  11
ATOM     11  C   UNL     1      27.674  41.833  34.407  1.00  0.00    -0.000 C 
BRANCH  11  12
ATOM     12  C   UNL     1      27.571  41.973  32.883  1.00  0.00    -0.000 C 
BRANCH  12  13
ATOM     13  C   UNL     1      28.063  40.700  32.179  1.00  0.00    -0.000 C 
BRANCH  13  14
ATOM     14  C   UNL     1      28.209  39.504  33.137  1.00  0.00    -0.000 C 
BRANCH  14  15
ATOM     15  C   UNL     1      27.109  38.435  33.010  1.00  0.00    -0.003 C 
ATOM     16  C   UNL     1      27.446  37.347  31.992  1.00  0.00     0.004 C 
ENDBRANCH  14  15
ENDBRANCH  13  14
ENDBRANCH  12  13
ENDBRANCH  11  12
ENDBRANCH  10  11
ENDBRANCH   1  10
TORSDOF 12
ENDMDL
