MODEL 1
REMARK VINA RESULT:    12.999      0.000      0.000
REMARK INTER + INTRA:          18.307
REMARK INTER:                  16.419
REMARK INTRA:                   1.887
REMARK UNBOUND:                 1.887
REMARK SMILES O=C(C=Cc1ccc(O)cc1)c1ccc(O)cc1O
REMARK SMILES IDX 4 1 3 2 5 3 6 4 7 5 8 6 11 7 10 8 9 9 2 11 1 12 12 13 18 14
REMARK SMILES IDX 13 15 17 16 14 17 15 18 19 19 16 21
REMARK H PARENT 9 10 19 20 16 22
REMARK Flexibility Score: inf
ROOT
ATOM      1  C   UNL     1       2.293   0.084   2.474  1.00  0.00     0.012 C 
ATOM      2  C   UNL     1       1.076  -0.479   2.434  1.00  0.00     0.053 C 
ENDROOT
BRANCH   1   3
ATOM      3  C   UNL     1       3.527  -0.507   1.916  1.00  0.00    -0.025 A 
ATOM      4  C   UNL     1       3.877  -0.241   0.585  1.00  0.00     0.012 A 
ATOM      5  C   UNL     1       5.017  -0.827   0.024  1.00  0.00     0.047 A 
ATOM      6  C   UNL     1       5.805  -1.699   0.782  1.00  0.00     0.115 A 
ATOM      7  C   UNL     1       4.304  -1.407   2.665  1.00  0.00     0.012 A 
ATOM      8  C   UNL     1       5.444  -1.992   2.104  1.00  0.00     0.047 A 
BRANCH   6   9
ATOM      9  O   UNL     1       6.939  -2.273   0.211  1.00  0.00    -0.508 OA
ATOM     10  H   UNL     1       7.244  -2.026  -0.723  1.00  0.00     0.293 HD
ENDBRANCH   6   9
ENDBRANCH   1   3
BRANCH   2  11
ATOM     11  C   UNL     1       0.785  -1.865   1.992  1.00  0.00     0.189 C 
ATOM     12  O   UNL     1       0.955  -2.836   2.778  1.00  0.00    -0.289 OA
BRANCH  11  13
ATOM     13  C   UNL     1       0.216  -2.118   0.651  1.00  0.00     0.064 A 
ATOM     14  C   UNL     1       0.880  -1.697  -0.527  1.00  0.00     0.130 A 
ATOM     15  C   UNL     1      -0.994  -2.827   0.537  1.00  0.00     0.020 A 
ATOM     16  C   UNL     1       0.337  -2.009  -1.780  1.00  0.00     0.093 A 
ATOM     17  C   UNL     1      -1.529  -3.122  -0.719  1.00  0.00     0.047 A 
ATOM     18  C   UNL     1      -0.866  -2.718  -1.878  1.00  0.00     0.119 A 
BRANCH  14  19
ATOM     19  O   UNL     1       2.060  -0.951  -0.490  1.00  0.00    -0.507 OA
ATOM     20  H   UNL     1       2.884  -1.242   0.018  1.00  0.00     0.293 HD
ENDBRANCH  14  19
BRANCH  18  21
ATOM     21  O   UNL     1      -1.409  -3.024  -3.124  1.00  0.00    -0.508 OA
ATOM     22  H   UNL     1      -1.593  -3.982  -3.402  1.00  0.00     0.293 HD
ENDBRANCH  18  21
ENDBRANCH  11  13
ENDBRANCH   2  11
TORSDOF 6
ENDMDL
MODEL 2
REMARK VINA RESULT:    13.522      1.255      5.684
REMARK INTER + INTRA:          18.967
REMARK INTER:                  18.766
REMARK INTRA:                   0.201
REMARK UNBOUND:                 1.887
REMARK SMILES O=C(C=Cc1ccc(O)cc1)c1ccc(O)cc1O
REMARK SMILES IDX 4 1 3 2 5 3 6 4 7 5 8 6 11 7 10 8 9 9 2 11 1 12 12 13 18 14
REMARK SMILES IDX 13 15 17 16 14 17 15 18 19 19 16 21
REMARK H PARENT 9 10 19 20 16 22
REMARK Flexibility Score: inf
ROOT
ATOM      1  C   UNL     1       0.509  -1.484   2.107  1.00  0.00     0.012 C 
ATOM      2  C   UNL     1       1.599  -0.759   2.398  1.00  0.00     0.053 C 
ENDROOT
BRANCH   1   3
ATOM      3  C   UNL     1       0.130  -1.955   0.758  1.00  0.00    -0.025 A 
ATOM      4  C   UNL     1       0.882  -1.543  -0.351  1.00  0.00     0.012 A 
ATOM      5  C   UNL     1       0.513  -1.940  -1.641  1.00  0.00     0.047 A 
ATOM      6  C   UNL     1      -0.622  -2.735  -1.835  1.00  0.00     0.115 A 
ATOM      7  C   UNL     1      -1.027  -2.728   0.557  1.00  0.00     0.012 A 
ATOM      8  C   UNL     1      -1.394  -3.124  -0.733  1.00  0.00     0.047 A 
BRANCH   6   9
ATOM      9  O   UNL     1      -0.975  -3.125  -3.125  1.00  0.00    -0.508 OA
ATOM     10  H   UNL     1      -0.961  -2.470  -3.898  1.00  0.00     0.293 HD
ENDBRANCH   6   9
ENDBRANCH   1   3
BRANCH   2  11
ATOM     11  C   UNL     1       2.514  -0.146   1.403  1.00  0.00     0.189 C 
ATOM     12  O   UNL     1       2.211   0.939   0.839  1.00  0.00    -0.289 OA
BRANCH  11  13
ATOM     13  C   UNL     1       3.829  -0.759   1.121  1.00  0.00     0.064 A 
ATOM     14  C   UNL     1       4.481  -0.573  -0.123  1.00  0.00     0.130 A 
ATOM     15  C   UNL     1       4.470  -1.511   2.123  1.00  0.00     0.020 A 
ATOM     16  C   UNL     1       5.754  -1.121  -0.328  1.00  0.00     0.093 A 
ATOM     17  C   UNL     1       5.735  -2.060   1.900  1.00  0.00     0.047 A 
ATOM     18  C   UNL     1       6.381  -1.865   0.678  1.00  0.00     0.119 A 
BRANCH  14  19
ATOM     19  O   UNL     1       3.887   0.123  -1.178  1.00  0.00    -0.507 OA
ATOM     20  H   UNL     1       3.180   0.833  -1.045  1.00  0.00     0.293 HD
ENDBRANCH  14  19
BRANCH  18  21
ATOM     21  O   UNL     1       7.644  -2.414   0.472  1.00  0.00    -0.508 OA
ATOM     22  H   UNL     1       8.216  -2.735   1.245  1.00  0.00     0.293 HD
ENDBRANCH  18  21
ENDBRANCH  11  13
ENDBRANCH   2  11
TORSDOF 6
ENDMDL
MODEL 3
REMARK VINA RESULT:    14.174      0.962      1.946
REMARK INTER + INTRA:          19.790
REMARK INTER:                  20.900
REMARK INTRA:                  -1.110
REMARK UNBOUND:                 1.887
REMARK SMILES O=C(C=Cc1ccc(O)cc1)c1ccc(O)cc1O
REMARK SMILES IDX 4 1 3 2 5 3 6 4 7 5 8 6 11 7 10 8 9 9 2 11 1 12 12 13 18 14
REMARK SMILES IDX 13 15 17 16 14 17 15 18 19 19 16 21
REMARK H PARENT 9 10 19 20 16 22
REMARK Flexibility Score: inf
ROOT
ATOM      1  C   UNL     1       2.801   0.279   2.040  1.00  0.00     0.012 C 
ATOM      2  C   UNL     1       1.532  -0.150   2.119  1.00  0.00     0.053 C 
ENDROOT
BRANCH   1   3
ATOM      3  C   UNL     1       3.941  -0.510   1.529  1.00  0.00    -0.025 A 
ATOM      4  C   UNL     1       4.697  -1.284   2.421  1.00  0.00     0.012 A 
ATOM      5  C   UNL     1       5.807  -2.003   1.966  1.00  0.00     0.047 A 
ATOM      6  C   UNL     1       6.184  -1.938   0.620  1.00  0.00     0.115 A 
ATOM      7  C   UNL     1       4.341  -0.423   0.184  1.00  0.00     0.012 A 
ATOM      8  C   UNL     1       5.451  -1.142  -0.269  1.00  0.00     0.047 A 
BRANCH   6   9
ATOM      9  O   UNL     1       7.291  -2.661   0.181  1.00  0.00    -0.508 OA
ATOM     10  H   UNL     1       7.186  -3.541  -0.312  1.00  0.00     0.293 HD
ENDBRANCH   6   9
ENDBRANCH   1   3
BRANCH   2  11
ATOM     11  C   UNL     1       1.081  -1.544   1.884  1.00  0.00     0.189 C 
ATOM     12  O   UNL     1       1.160  -2.404   2.802  1.00  0.00    -0.289 OA
BRANCH  11  13
ATOM     13  C   UNL     1       0.460  -1.921   0.597  1.00  0.00     0.064 A 
ATOM     14  C   UNL     1      -0.753  -2.650   0.546  1.00  0.00     0.130 A 
ATOM     15  C   UNL     1       1.064  -1.514  -0.607  1.00  0.00     0.020 A 
ATOM     16  C   UNL     1      -1.340  -2.935  -0.693  1.00  0.00     0.093 A 
ATOM     17  C   UNL     1       0.473  -1.815  -1.836  1.00  0.00     0.047 A 
ATOM     18  C   UNL     1      -0.730  -2.522  -1.884  1.00  0.00     0.119 A 
BRANCH  14  19
ATOM     19  O   UNL     1      -1.386  -3.125   1.698  1.00  0.00    -0.507 OA
ATOM     20  H   UNL     1      -1.778  -2.518   2.404  1.00  0.00     0.293 HD
ENDBRANCH  14  19
BRANCH  18  21
ATOM     21  O   UNL     1      -1.310  -2.810  -3.116  1.00  0.00    -0.508 OA
ATOM     22  H   UNL     1      -2.201  -2.410  -3.390  1.00  0.00     0.293 HD
ENDBRANCH  18  21
ENDBRANCH  11  13
ENDBRANCH   2  11
TORSDOF 6
ENDMDL
