MODEL 1
REMARK VINA RESULT:    -4.938      0.000      0.000
REMARK INTER + INTRA:          -5.658
REMARK INTER:                  -5.515
REMARK INTRA:                  -0.143
REMARK UNBOUND:                -0.143
REMARK SMILES O=C([O-])C=Cc1ccccc1
REMARK SMILES IDX 4 1 5 2 2 3 1 4 3 5 6 6 7 7 11 8 8 9 10 10 9 11
REMARK H PARENT
REMARK Flexibility Score: inf
ROOT
ATOM      1  C   UNL     1      47.109   6.976  20.710  1.00  0.00     0.025 C 
ATOM      2  C   UNL     1      46.376   7.828  19.980  1.00  0.00     0.010 C 
ENDROOT
BRANCH   1   3
ATOM      3  C   UNL     1      47.512   7.285  22.092  1.00  0.00     0.064 C 
ATOM      4  O   UNL     1      48.223   6.465  22.730  1.00  0.00    -0.545 OA
ATOM      5  O   UNL     1      47.120   8.469  22.707  1.00  0.00    -0.545 OA
ENDBRANCH   1   3
BRANCH   2   6
ATOM      6  C   UNL     1      45.932   7.585  18.580  1.00  0.00    -0.026 A 
ATOM      7  C   UNL     1      46.747   6.787  17.755  1.00  0.00     0.008 A 
ATOM      8  C   UNL     1      44.738   8.114  18.042  1.00  0.00     0.008 A 
ATOM      9  C   UNL     1      46.382   6.523  16.432  1.00  0.00     0.001 A 
ATOM     10  C   UNL     1      44.380   7.847  16.715  1.00  0.00     0.001 A 
ATOM     11  C   UNL     1      45.200   7.053  15.913  1.00  0.00     0.000 A 
ENDBRANCH   2   6
TORSDOF 2
ENDMDL
MODEL 2
REMARK VINA RESULT:    -4.886      0.133      1.464
REMARK INTER + INTRA:          -5.600
REMARK INTER:                  -5.468
REMARK INTRA:                  -0.132
REMARK UNBOUND:                -0.143
REMARK SMILES O=C([O-])C=Cc1ccccc1
REMARK SMILES IDX 4 1 5 2 2 3 1 4 3 5 6 6 7 7 11 8 8 9 10 10 9 11
REMARK H PARENT
REMARK Flexibility Score: inf
ROOT
ATOM      1  C   UNL     1      47.106   6.996  20.658  1.00  0.00     0.025 C 
ATOM      2  C   UNL     1      46.360   7.803  19.890  1.00  0.00     0.010 C 
ENDROOT
BRANCH   1   3
ATOM      3  C   UNL     1      47.449   7.345  22.047  1.00  0.00     0.064 C 
ATOM      4  O   UNL     1      48.255   6.621  22.688  1.00  0.00    -0.545 OA
ATOM      5  O   UNL     1      46.899   8.463  22.664  1.00  0.00    -0.545 OA
ENDBRANCH   1   3
BRANCH   2   6
ATOM      6  C   UNL     1      45.973   7.518  18.482  1.00  0.00    -0.026 A 
ATOM      7  C   UNL     1      44.804   8.120  17.980  1.00  0.00     0.008 A 
ATOM      8  C   UNL     1      46.720   6.676  17.628  1.00  0.00     0.008 A 
ATOM      9  C   UNL     1      44.390   7.890  16.664  1.00  0.00     0.001 A 
ATOM     10  C   UNL     1      46.298   6.449  16.312  1.00  0.00     0.001 A 
ATOM     11  C   UNL     1      45.137   7.055  15.832  1.00  0.00     0.000 A 
ENDBRANCH   2   6
TORSDOF 2
ENDMDL
MODEL 3
REMARK VINA RESULT:    -4.876      0.570      1.103
REMARK INTER + INTRA:          -5.589
REMARK INTER:                  -5.456
REMARK INTRA:                  -0.133
REMARK UNBOUND:                -0.143
REMARK SMILES O=C([O-])C=Cc1ccccc1
REMARK SMILES IDX 4 1 5 2 2 3 1 4 3 5 6 6 7 7 11 8 8 9 10 10 9 11
REMARK H PARENT
REMARK Flexibility Score: inf
ROOT
ATOM      1  C   UNL     1      46.384   7.892  20.988  1.00  0.00     0.025 C 
ATOM      2  C   UNL     1      46.823   7.295  19.870  1.00  0.00     0.010 C 
ENDROOT
BRANCH   1   3
ATOM      3  C   UNL     1      47.122   7.800  22.258  1.00  0.00     0.064 C 
ATOM      4  O   UNL     1      46.762   8.505  23.238  1.00  0.00    -0.545 OA
ATOM      5  O   UNL     1      48.212   6.948  22.396  1.00  0.00    -0.545 OA
ENDBRANCH   1   3
BRANCH   2   6
ATOM      6  C   UNL     1      46.133   7.344  18.553  1.00  0.00    -0.026 A 
ATOM      7  C   UNL     1      46.666   6.582  17.496  1.00  0.00     0.008 A 
ATOM      8  C   UNL     1      44.974   8.114  18.312  1.00  0.00     0.008 A 
ATOM      9  C   UNL     1      46.061   6.587  16.236  1.00  0.00     0.001 A 
ATOM     10  C   UNL     1      44.374   8.115  17.047  1.00  0.00     0.001 A 
ATOM     11  C   UNL     1      44.917   7.353  16.012  1.00  0.00     0.000 A 
ENDBRANCH   2   6
TORSDOF 2
ENDMDL
MODEL 4
REMARK VINA RESULT:    -4.790      1.153      1.330
REMARK INTER + INTRA:          -5.493
REMARK INTER:                  -5.349
REMARK INTRA:                  -0.145
REMARK UNBOUND:                -0.143
REMARK SMILES O=C([O-])C=Cc1ccccc1
REMARK SMILES IDX 4 1 5 2 2 3 1 4 3 5 6 6 7 7 11 8 8 9 10 10 9 11
REMARK H PARENT
REMARK Flexibility Score: inf
ROOT
ATOM      1  C   UNL     1      46.539   7.968  21.391  1.00  0.00     0.025 C 
ATOM      2  C   UNL     1      45.698   8.404  20.442  1.00  0.00     0.010 C 
ENDROOT
BRANCH   1   3
ATOM      3  C   UNL     1      46.524   8.521  22.756  1.00  0.00     0.064 C 
ATOM      4  O   UNL     1      47.574   9.025  23.233  1.00  0.00    -0.545 OA
ATOM      5  O   UNL     1      45.368   8.498  23.527  1.00  0.00    -0.545 OA
ENDBRANCH   1   3
BRANCH   2   6
ATOM      6  C   UNL     1      45.655   7.893  19.045  1.00  0.00    -0.026 A 
ATOM      7  C   UNL     1      46.686   7.035  18.620  1.00  0.00     0.008 A 
ATOM      8  C   UNL     1      44.633   8.228  18.128  1.00  0.00     0.008 A 
ATOM      9  C   UNL     1      46.699   6.523  17.319  1.00  0.00     0.001 A 
ATOM     10  C   UNL     1      44.654   7.712  16.827  1.00  0.00     0.001 A 
ATOM     11  C   UNL     1      45.684   6.862  16.424  1.00  0.00     0.000 A 
ENDBRANCH   2   6
TORSDOF 2
ENDMDL
MODEL 5
REMARK VINA RESULT:    -4.764      3.121      5.283
REMARK INTER + INTRA:          -5.463
REMARK INTER:                  -5.325
REMARK INTRA:                  -0.138
REMARK UNBOUND:                -0.143
REMARK SMILES O=C([O-])C=Cc1ccccc1
REMARK SMILES IDX 4 1 5 2 2 3 1 4 3 5 6 6 7 7 11 8 8 9 10 10 9 11
REMARK H PARENT
REMARK Flexibility Score: inf
ROOT
ATOM      1  C   UNL     1      46.735   7.193  17.967  1.00  0.00     0.025 C 
ATOM      2  C   UNL     1      46.701   6.643  19.189  1.00  0.00     0.010 C 
ENDROOT
BRANCH   1   3
ATOM      3  C   UNL     1      46.684   6.372  16.745  1.00  0.00     0.064 C 
ATOM      4  O   UNL     1      47.577   5.510  16.539  1.00  0.00    -0.545 OA
ATOM      5  O   UNL     1      45.664   6.533  15.814  1.00  0.00    -0.545 OA
ENDBRANCH   1   3
BRANCH   2   6
ATOM      6  C   UNL     1      46.748   7.406  20.466  1.00  0.00    -0.026 A 
ATOM      7  C   UNL     1      45.945   8.556  20.581  1.00  0.00     0.008 A 
ATOM      8  C   UNL     1      47.556   7.033  21.563  1.00  0.00     0.008 A 
ATOM      9  C   UNL     1      45.947   9.313  21.757  1.00  0.00     0.001 A 
ATOM     10  C   UNL     1      47.553   7.797  22.736  1.00  0.00     0.001 A 
ATOM     11  C   UNL     1      46.751   8.934  22.832  1.00  0.00     0.000 A 
ENDBRANCH   2   6
TORSDOF 2
ENDMDL
MODEL 6
REMARK VINA RESULT:    -4.713      3.148      5.185
REMARK INTER + INTRA:          -5.407
REMARK INTER:                  -5.276
REMARK INTRA:                  -0.131
REMARK UNBOUND:                -0.143
REMARK SMILES O=C([O-])C=Cc1ccccc1
REMARK SMILES IDX 4 1 5 2 2 3 1 4 3 5 6 6 7 7 11 8 8 9 10 10 9 11
REMARK H PARENT
REMARK Flexibility Score: inf
ROOT
ATOM      1  C   UNL     1      46.450   7.221  17.858  1.00  0.00     0.025 C 
ATOM      2  C   UNL     1      46.739   6.698  19.058  1.00  0.00     0.010 C 
ENDROOT
BRANCH   1   3
ATOM      3  C   UNL     1      46.531   6.424  16.623  1.00  0.00     0.064 C 
ATOM      4  O   UNL     1      45.663   6.579  15.725  1.00  0.00    -0.545 OA
ATOM      5  O   UNL     1      47.553   5.500  16.431  1.00  0.00    -0.545 OA
ENDBRANCH   1   3
BRANCH   2   6
ATOM      6  C   UNL     1      46.678   7.440  20.346  1.00  0.00    -0.026 A 
ATOM      7  C   UNL     1      47.485   6.992  21.409  1.00  0.00     0.008 A 
ATOM      8  C   UNL     1      45.854   8.568  20.554  1.00  0.00     0.008 A 
ATOM      9  C   UNL     1      47.472   7.649  22.643  1.00  0.00     0.001 A 
ATOM     10  C   UNL     1      45.845   9.220  21.793  1.00  0.00     0.001 A 
ATOM     11  C   UNL     1      46.652   8.761  22.834  1.00  0.00     0.000 A 
ENDBRANCH   2   6
TORSDOF 2
ENDMDL
MODEL 7
REMARK VINA RESULT:    -4.711      2.038      2.894
REMARK INTER + INTRA:          -5.404
REMARK INTER:                  -5.263
REMARK INTRA:                  -0.141
REMARK UNBOUND:                -0.143
REMARK SMILES O=C([O-])C=Cc1ccccc1
REMARK SMILES IDX 4 1 5 2 2 3 1 4 3 5 6 6 7 7 11 8 8 9 10 10 9 11
REMARK H PARENT
REMARK Flexibility Score: inf
ROOT
ATOM      1  C   UNL     1      44.479   8.481  21.866  1.00  0.00     0.025 C 
ATOM      2  C   UNL     1      45.590   8.376  21.123  1.00  0.00     0.010 C 
ENDROOT
BRANCH   1   3
ATOM      3  C   UNL     1      44.528   8.863  23.287  1.00  0.00     0.064 C 
ATOM      4  O   UNL     1      43.492   9.307  23.848  1.00  0.00    -0.545 OA
ATOM      5  O   UNL     1      45.701   8.740  24.024  1.00  0.00    -0.545 OA
ENDBRANCH   1   3
BRANCH   2   6
ATOM      6  C   UNL     1      45.618   7.997  19.685  1.00  0.00    -0.026 A 
ATOM      7  C   UNL     1      44.587   8.474  18.853  1.00  0.00     0.008 A 
ATOM      8  C   UNL     1      46.625   7.186  19.115  1.00  0.00     0.008 A 
ATOM      9  C   UNL     1      44.561   8.151  17.492  1.00  0.00     0.001 A 
ATOM     10  C   UNL     1      46.590   6.866  17.753  1.00  0.00     0.001 A 
ATOM     11  C   UNL     1      45.561   7.348  16.944  1.00  0.00     0.000 A 
ENDBRANCH   2   6
TORSDOF 2
ENDMDL
MODEL 8
REMARK VINA RESULT:    -4.644      3.653      5.069
REMARK INTER + INTRA:          -5.329
REMARK INTER:                  -5.194
REMARK INTRA:                  -0.135
REMARK UNBOUND:                -0.143
REMARK SMILES O=C([O-])C=Cc1ccccc1
REMARK SMILES IDX 4 1 5 2 2 3 1 4 3 5 6 6 7 7 11 8 8 9 10 10 9 11
REMARK H PARENT
REMARK Flexibility Score: inf
ROOT
ATOM      1  C   UNL     1      46.318   6.661  16.270  1.00  0.00     0.025 C 
ATOM      2  C   UNL     1      46.745   6.608  17.540  1.00  0.00     0.010 C 
ENDROOT
BRANCH   1   3
ATOM      3  C   UNL     1      46.958   5.874  15.202  1.00  0.00     0.064 C 
ATOM      4  O   UNL     1      47.875   5.063  15.494  1.00  0.00    -0.545 OA
ATOM      5  O   UNL     1      46.566   6.012  13.875  1.00  0.00    -0.545 OA
ENDBRANCH   1   3
BRANCH   2   6
ATOM      6  C   UNL     1      46.150   7.372  18.669  1.00  0.00    -0.026 A 
ATOM      7  C   UNL     1      46.737   7.240  19.942  1.00  0.00     0.008 A 
ATOM      8  C   UNL     1      45.028   8.219  18.527  1.00  0.00     0.008 A 
ATOM      9  C   UNL     1      46.222   7.934  21.041  1.00  0.00     0.001 A 
ATOM     10  C   UNL     1      44.518   8.909  19.633  1.00  0.00     0.001 A 
ATOM     11  C   UNL     1      45.114   8.767  20.887  1.00  0.00     0.000 A 
ENDBRANCH   2   6
TORSDOF 2
ENDMDL
MODEL 9
REMARK VINA RESULT:    -4.638      3.605      5.244
REMARK INTER + INTRA:          -5.323
REMARK INTER:                  -5.190
REMARK INTRA:                  -0.133
REMARK UNBOUND:                -0.143
REMARK SMILES O=C([O-])C=Cc1ccccc1
REMARK SMILES IDX 4 1 5 2 2 3 1 4 3 5 6 6 7 7 11 8 8 9 10 10 9 11
REMARK H PARENT
REMARK Flexibility Score: inf
ROOT
ATOM      1  C   UNL     1      46.856   6.230  16.922  1.00  0.00     0.025 C 
ATOM      2  C   UNL     1      46.306   7.386  17.320  1.00  0.00     0.010 C 
ENDROOT
BRANCH   1   3
ATOM      3  C   UNL     1      47.139   5.954  15.503  1.00  0.00     0.064 C 
ATOM      4  O   UNL     1      46.668   6.713  14.617  1.00  0.00    -0.545 OA
ATOM      5  O   UNL     1      47.920   4.867  15.125  1.00  0.00    -0.545 OA
ENDBRANCH   1   3
BRANCH   2   6
ATOM      6  C   UNL     1      45.992   7.736  18.732  1.00  0.00    -0.026 A 
ATOM      7  C   UNL     1      44.869   8.547  18.981  1.00  0.00     0.008 A 
ATOM      8  C   UNL     1      46.764   7.295  19.831  1.00  0.00     0.008 A 
ATOM      9  C   UNL     1      44.524   8.908  20.287  1.00  0.00     0.001 A 
ATOM     10  C   UNL     1      46.413   7.663  21.135  1.00  0.00     0.001 A 
ATOM     11  C   UNL     1      45.295   8.467  21.362  1.00  0.00     0.000 A 
ENDBRANCH   2   6
TORSDOF 2
ENDMDL
