MODEL 1
REMARK VINA RESULT:    34.786      0.000      0.000
REMARK INTER + INTRA:          48.255
REMARK INTER:                  48.004
REMARK INTRA:                   0.251
REMARK UNBOUND:                 0.251
REMARK SMILES C[C@@H]1C(=O)O[C@H](C)[C@@H]1C[C@@H](O)[C@@](C)(O)[C@@H]1CC[C@]2(O)C3=CC(=O)[C@@H]4C[C@@H](O)[C@@H](O)C[C@@]4(C)[C@@H]3CC[C@@]12C
REMARK SMILES IDX 12 1 13 2 10 3 9 4 8 5 1 6 2 7 3 8 6 9 5 10 4 11 7 12 11 13
REMARK SMILES IDX 15 15 16 16 36 17 17 18 18 19 35 20 37 21 20 22 34 23 33 24
REMARK SMILES IDX 21 25 31 26 22 27 24 28 30 29 32 30 23 31 25 32 28 33 26 34
REMARK SMILES IDX 19 35 29 37 27 39 14 41
REMARK H PARENT 11 14 19 36 29 38 27 40 14 42
REMARK Flexibility Score: inf
ROOT
ATOM      1  C   UNL     1      17.293 -31.689  14.034  1.00  0.00     0.091 C 
ATOM      2  C   UNL     1      17.088 -33.047  13.318  1.00  0.00     0.045 C 
ENDROOT
BRANCH   1   3
ATOM      3  C   UNL     1      18.280 -30.820  13.137  1.00  0.00     0.146 C 
BRANCH   3   4
ATOM      4  C   UNL     1      18.681 -29.435  13.710  1.00  0.00     0.043 C 
BRANCH   4   5
ATOM      5  C   UNL     1      20.029 -28.914  13.145  1.00  0.00     0.046 C 
ATOM      6  C   UNL     1      21.079 -29.398  15.488  1.00  0.00     0.020 C 
ATOM      7  C   UNL     1      21.288 -29.297  13.968  1.00  0.00     0.103 C 
ATOM      8  C   UNL     1      22.190 -28.160  13.655  1.00  0.00     0.309 C 
ATOM      9  C   UNL     1      20.154 -27.381  12.875  1.00  0.00     0.177 C 
ATOM     10  O   UNL     1      21.539 -27.113  13.037  1.00  0.00    -0.462 OA
ATOM     11  O   UNL     1      23.424 -28.142  13.915  1.00  0.00    -0.252 OA
ATOM     12  C   UNL     1      19.365 -26.472  13.826  1.00  0.00     0.053 C 
ENDBRANCH   4   5
ENDBRANCH   3   4
BRANCH   3  13
ATOM     13  O   UNL     1      19.480 -31.528  12.904  1.00  0.00    -0.390 OA
ATOM     14  H   UNL     1      19.774 -31.909  13.774  1.00  0.00     0.211 HD
ENDBRANCH   3  13
ENDBRANCH   1   3
BRANCH   1  15
ATOM     15  C   UNL     1      15.867 -30.978  14.199  1.00  0.00     0.032 C 
ATOM     16  C   UNL     1      15.770 -29.914  15.336  1.00  0.00     0.010 C 
ATOM     17  C   UNL     1      14.559 -31.828  14.401  1.00  0.00     0.006 C 
ATOM     18  C   UNL     1      14.339 -29.940  15.882  1.00  0.00     0.041 C 
ATOM     19  C   UNL     1      13.554 -30.724  14.832  1.00  0.00     0.092 C 
ATOM     20  C   UNL     1      13.949 -32.506  13.137  1.00  0.00     0.011 C 
ATOM     21  C   UNL     1      14.784 -32.893  15.525  1.00  0.00     0.015 C 
ATOM     22  C   UNL     1      12.219 -31.339  15.227  1.00  0.00    -0.031 C 
ATOM     23  C   UNL     1      12.587 -33.169  13.452  1.00  0.00     0.009 C 
ATOM     24  C   UNL     1      11.560 -32.242  14.176  1.00  0.00     0.025 C 
ATOM     25  C   UNL     1      11.499 -30.825  16.241  1.00  0.00     0.050 C 
ATOM     26  C   UNL     1      10.306 -33.023  14.739  1.00  0.00    -0.013 C 
ATOM     27  C   UNL     1      10.082 -31.167  16.437  1.00  0.00     0.159 C 
ATOM     28  C   UNL     1       9.354 -31.978  15.391  1.00  0.00     0.070 C 
ATOM     29  C   UNL     1       9.561 -33.731  13.555  1.00  0.00     0.042 C 
ATOM     30  C   UNL     1      10.763 -34.077  15.799  1.00  0.00     0.013 C 
ATOM     31  O   UNL     1       9.468 -30.689  17.428  1.00  0.00    -0.295 OA
ATOM     32  C   UNL     1       8.036 -32.589  15.938  1.00  0.00     0.047 C 
ATOM     33  C   UNL     1       8.019 -33.875  13.695  1.00  0.00     0.143 C 
ATOM     34  C   UNL     1       7.513 -33.813  15.151  1.00  0.00     0.143 C 
BRANCH  19  35
ATOM     35  O   UNL     1      13.309 -29.850  13.745  1.00  0.00    -0.385 OA
ATOM     36  H   UNL     1      14.138 -29.797  13.199  1.00  0.00     0.211 HD
ENDBRANCH  19  35
BRANCH  33  37
ATOM     37  O   UNL     1       7.343 -32.953  12.875  1.00  0.00    -0.390 OA
ATOM     38  H   UNL     1       7.620 -32.039  13.133  1.00  0.00     0.211 HD
ENDBRANCH  33  37
BRANCH  34  39
ATOM     39  O   UNL     1       6.109 -33.806  15.172  1.00  0.00    -0.390 OA
ATOM     40  H   UNL     1       5.826 -34.432  15.889  1.00  0.00     0.211 HD
ENDBRANCH  34  39
ENDBRANCH   1  15
BRANCH   1  41
ATOM     41  O   UNL     1      17.886 -32.000  15.276  1.00  0.00    -0.387 OA
ATOM     42  H   UNL     1      17.721 -31.268  15.917  1.00  0.00     0.211 HD
ENDBRANCH   1  41
TORSDOF 9
ENDMDL
MODEL 2
REMARK VINA RESULT:    35.900      5.453     10.607
REMARK INTER + INTRA:          49.792
REMARK INTER:                  35.308
REMARK INTRA:                  14.484
REMARK UNBOUND:                 0.251
REMARK SMILES C[C@@H]1C(=O)O[C@H](C)[C@@H]1C[C@@H](O)[C@@](C)(O)[C@@H]1CC[C@]2(O)C3=CC(=O)[C@@H]4C[C@@H](O)[C@@H](O)C[C@@]4(C)[C@@H]3CC[C@@]12C
REMARK SMILES IDX 12 1 13 2 10 3 9 4 8 5 1 6 2 7 3 8 6 9 5 10 4 11 7 12 11 13
REMARK SMILES IDX 15 15 16 16 36 17 17 18 18 19 35 20 37 21 20 22 34 23 33 24
REMARK SMILES IDX 21 25 31 26 22 27 24 28 30 29 32 30 23 31 25 32 28 33 26 34
REMARK SMILES IDX 19 35 29 37 27 39 14 41
REMARK H PARENT 11 14 19 36 29 38 27 40 14 42
REMARK Flexibility Score: inf
ROOT
ATOM      1  C   UNL     1       6.799 -36.995  14.246  1.00  0.00     0.091 C 
ATOM      2  C   UNL     1       7.834 -38.125  14.475  1.00  0.00     0.045 C 
ENDROOT
BRANCH   1   3
ATOM      3  C   UNL     1       6.004 -36.792  15.610  1.00  0.00     0.146 C 
BRANCH   3   4
ATOM      4  C   UNL     1       6.624 -37.461  16.865  1.00  0.00     0.043 C 
BRANCH   4   5
ATOM      5  C   UNL     1       6.434 -36.618  18.155  1.00  0.00     0.046 C 
ATOM      6  C   UNL     1       8.279 -35.006  17.247  1.00  0.00     0.020 C 
ATOM      7  C   UNL     1       7.011 -35.178  18.099  1.00  0.00     0.103 C 
ATOM      8  C   UNL     1       7.326 -34.941  19.530  1.00  0.00     0.309 C 
ATOM      9  C   UNL     1       6.953 -37.226  19.497  1.00  0.00     0.177 C 
ATOM     10  O   UNL     1       7.275 -36.093  20.289  1.00  0.00    -0.462 OA
ATOM     11  O   UNL     1       7.606 -33.812  20.018  1.00  0.00    -0.252 OA
ATOM     12  C   UNL     1       8.197 -38.116  19.387  1.00  0.00     0.053 C 
ENDBRANCH   4   5
ENDBRANCH   3   4
BRANCH   3  13
ATOM     13  O   UNL     1       5.875 -35.417  15.903  1.00  0.00    -0.390 OA
ATOM     14  H   UNL     1       5.198 -35.328  16.625  1.00  0.00     0.211 HD
ENDBRANCH   3  13
ENDBRANCH   1   3
BRANCH   1  15
ATOM     15  C   UNL     1       7.581 -35.665  13.817  1.00  0.00     0.032 C 
ATOM     16  C   UNL     1       8.808 -35.875  12.876  1.00  0.00     0.010 C 
ATOM     17  C   UNL     1       8.138 -34.669  14.901  1.00  0.00     0.006 C 
ATOM     18  C   UNL     1       9.839 -34.789  13.199  1.00  0.00     0.041 C 
ATOM     19  C   UNL     1       9.060 -33.772  14.031  1.00  0.00     0.092 C 
ATOM     20  C   UNL     1       7.111 -33.712  15.581  1.00  0.00     0.011 C 
ATOM     21  C   UNL     1       8.938 -35.459  15.989  1.00  0.00     0.015 C 
ATOM     22  C   UNL     1       9.836 -32.795  14.903  1.00  0.00    -0.031 C 
ATOM     23  C   UNL     1       7.817 -32.687  16.499  1.00  0.00     0.009 C 
ATOM     24  C   UNL     1       8.993 -31.908  15.828  1.00  0.00     0.025 C 
ATOM     25  C   UNL     1      11.106 -32.466  14.604  1.00  0.00     0.050 C 
ATOM     26  C   UNL     1       9.869 -31.093  16.861  1.00  0.00    -0.013 C 
ATOM     27  C   UNL     1      11.767 -31.300  15.208  1.00  0.00     0.159 C 
ATOM     28  C   UNL     1      10.967 -30.339  16.056  1.00  0.00     0.070 C 
ATOM     29  C   UNL     1       8.963 -30.049  17.602  1.00  0.00     0.042 C 
ATOM     30  C   UNL     1      10.526 -32.067  17.893  1.00  0.00     0.013 C 
ATOM     31  O   UNL     1      12.972 -31.062  14.923  1.00  0.00    -0.295 OA
ATOM     32  C   UNL     1      11.876 -29.436  16.932  1.00  0.00     0.047 C 
ATOM     33  C   UNL     1       9.648 -28.720  18.030  1.00  0.00     0.143 C 
ATOM     34  C   UNL     1      11.181 -28.820  18.168  1.00  0.00     0.143 C 
BRANCH  19  35
ATOM     35  O   UNL     1       8.275 -33.005  13.136  1.00  0.00    -0.385 OA
ATOM     36  H   UNL     1       8.241 -33.484  12.266  1.00  0.00     0.211 HD
ENDBRANCH  19  35
BRANCH  33  37
ATOM     37  O   UNL     1       9.275 -27.658  17.185  1.00  0.00    -0.390 OA
ATOM     38  H   UNL     1       8.546 -27.968  16.592  1.00  0.00     0.211 HD
ENDBRANCH  33  37
BRANCH  34  39
ATOM     39  O   UNL     1      11.725 -27.549  18.415  1.00  0.00    -0.390 OA
ATOM     40  H   UNL     1      10.965 -26.911  18.461  1.00  0.00     0.211 HD
ENDBRANCH  34  39
ENDBRANCH   1  15
BRANCH   1  41
ATOM     41  O   UNL     1       5.941 -37.466  13.230  1.00  0.00    -0.387 OA
ATOM     42  H   UNL     1       5.406 -36.718  12.872  1.00  0.00     0.211 HD
ENDBRANCH   1  41
TORSDOF 9
ENDMDL
MODEL 3
REMARK VINA RESULT:    36.554      2.950     10.577
REMARK INTER + INTRA:          50.694
REMARK INTER:                  49.758
REMARK INTRA:                   0.936
REMARK UNBOUND:                 0.251
REMARK SMILES C[C@@H]1C(=O)O[C@H](C)[C@@H]1C[C@@H](O)[C@@](C)(O)[C@@H]1CC[C@]2(O)C3=CC(=O)[C@@H]4C[C@@H](O)[C@@H](O)C[C@@]4(C)[C@@H]3CC[C@@]12C
REMARK SMILES IDX 12 1 13 2 10 3 9 4 8 5 1 6 2 7 3 8 6 9 5 10 4 11 7 12 11 13
REMARK SMILES IDX 15 15 16 16 36 17 17 18 18 19 35 20 37 21 20 22 34 23 33 24
REMARK SMILES IDX 21 25 31 26 22 27 24 28 30 29 32 30 23 31 25 32 28 33 26 34
REMARK SMILES IDX 19 35 29 37 27 39 14 41
REMARK H PARENT 11 14 19 36 29 38 27 40 14 42
REMARK Flexibility Score: inf
ROOT
ATOM      1  C   UNL     1       7.077 -31.715  17.476  1.00  0.00     0.091 C 
ATOM      2  C   UNL     1       5.892 -30.764  17.172  1.00  0.00     0.045 C 
ENDROOT
BRANCH   1   3
ATOM      3  C   UNL     1       6.464 -33.092  17.989  1.00  0.00     0.146 C 
BRANCH   3   4
ATOM      4  C   UNL     1       7.072 -34.379  17.372  1.00  0.00     0.043 C 
BRANCH   4   5
ATOM      5  C   UNL     1       7.039 -35.589  18.344  1.00  0.00     0.046 C 
ATOM      6  C   UNL     1       9.643 -35.678  18.155  1.00  0.00     0.020 C 
ATOM      7  C   UNL     1       8.395 -35.942  19.012  1.00  0.00     0.103 C 
ATOM      8  C   UNL     1       8.233 -37.401  19.234  1.00  0.00     0.309 C 
ATOM      9  C   UNL     1       6.477 -36.940  17.797  1.00  0.00     0.177 C 
ATOM     10  O   UNL     1       7.152 -37.930  18.557  1.00  0.00    -0.462 OA
ATOM     11  O   UNL     1       8.989 -38.096  19.965  1.00  0.00    -0.252 OA
ATOM     12  C   UNL     1       6.728 -37.210  16.308  1.00  0.00     0.053 C 
ENDBRANCH   4   5
ENDBRANCH   3   4
BRANCH   3  13
ATOM     13  O   UNL     1       6.611 -33.202  19.389  1.00  0.00    -0.390 OA
ATOM     14  H   UNL     1       7.578 -33.102  19.595  1.00  0.00     0.211 HD
ENDBRANCH   3  13
ENDBRANCH   1   3
BRANCH   1  15
ATOM     15  C   UNL     1       7.931 -31.913  16.136  1.00  0.00     0.032 C 
ATOM     16  C   UNL     1       7.691 -33.252  15.373  1.00  0.00     0.010 C 
ATOM     17  C   UNL     1       9.500 -31.794  16.153  1.00  0.00     0.006 C 
ATOM     18  C   UNL     1       9.006 -33.646  14.693  1.00  0.00     0.041 C 
ATOM     19  C   UNL     1       9.854 -32.377  14.757  1.00  0.00     0.092 C 
ATOM     20  C   UNL     1      10.104 -30.357  16.194  1.00  0.00     0.011 C 
ATOM     21  C   UNL     1      10.087 -32.656  17.319  1.00  0.00     0.015 C 
ATOM     22  C   UNL     1      11.362 -32.498  14.594  1.00  0.00    -0.031 C 
ATOM     23  C   UNL     1      11.643 -30.387  16.043  1.00  0.00     0.009 C 
ATOM     24  C   UNL     1      12.166 -31.211  14.824  1.00  0.00     0.025 C 
ATOM     25  C   UNL     1      11.901 -33.534  13.926  1.00  0.00     0.050 C 
ATOM     26  C   UNL     1      13.727 -31.463  14.867  1.00  0.00    -0.013 C 
ATOM     27  C   UNL     1      13.296 -33.518  13.464  1.00  0.00     0.159 C 
ATOM     28  C   UNL     1      14.112 -32.251  13.581  1.00  0.00     0.070 C 
ATOM     29  C   UNL     1      14.475 -30.085  14.870  1.00  0.00     0.042 C 
ATOM     30  C   UNL     1      14.102 -32.286  16.141  1.00  0.00     0.013 C 
ATOM     31  O   UNL     1      13.760 -34.533  12.879  1.00  0.00    -0.295 OA
ATOM     32  C   UNL     1      15.634 -32.521  13.446  1.00  0.00     0.047 C 
ATOM     33  C   UNL     1      15.862 -30.050  14.168  1.00  0.00     0.143 C 
ATOM     34  C   UNL     1      16.543 -31.429  14.054  1.00  0.00     0.143 C 
BRANCH  19  35
ATOM     35  O   UNL     1       9.389 -31.505  13.743  1.00  0.00    -0.385 OA
ATOM     36  H   UNL     1       8.467 -31.220  13.979  1.00  0.00     0.211 HD
ENDBRANCH  19  35
BRANCH  33  37
ATOM     37  O   UNL     1      15.785 -29.408  12.918  1.00  0.00    -0.390 OA
ATOM     38  H   UNL     1      16.123 -28.483  13.017  1.00  0.00     0.211 HD
ENDBRANCH  33  37
BRANCH  34  39
ATOM     39  O   UNL     1      17.713 -31.325  13.285  1.00  0.00    -0.390 OA
ATOM     40  H   UNL     1      17.431 -31.161  12.347  1.00  0.00     0.211 HD
ENDBRANCH  34  39
ENDBRANCH   1  15
BRANCH   1  41
ATOM     41  O   UNL     1       7.817 -31.084  18.499  1.00  0.00    -0.387 OA
ATOM     42  H   UNL     1       8.669 -31.564  18.638  1.00  0.00     0.211 HD
ENDBRANCH   1  41
TORSDOF 9
ENDMDL
