MODEL 1
REMARK VINA RESULT:    16.877      0.000      0.000
REMARK INTER + INTRA:          28.989
REMARK INTER:                  29.703
REMARK INTRA:                  -0.714
REMARK UNBOUND:                -0.714
REMARK SMILES CCCCCCC=CCCCCCCCC(=O)[O-]
REMARK SMILES IDX 10 1 11 2 12 3 13 4 14 5 15 6 16 7 17 8 18 9 9 10 8 11 7 12
REMARK SMILES IDX 6 13 5 14 4 15 3 16 2 17 1 18
REMARK H PARENT
REMARK Flexibility Score: inf
ROOT
ATOM      1  C   UNL     1     -39.979  24.588 -12.653  1.00  0.00     0.004 C 
ENDROOT
BRANCH   1   2
ATOM      2  C   UNL     1     -41.378  24.076 -12.282  1.00  0.00     0.000 C 
BRANCH   2   3
ATOM      3  C   UNL     1     -41.937  24.830 -11.070  1.00  0.00     0.000 C 
BRANCH   3   4
ATOM      4  C   UNL     1     -43.390  24.421 -10.790  1.00  0.00     0.000 C 
BRANCH   4   5
ATOM      5  C   UNL     1     -43.864  24.802  -9.376  1.00  0.00     0.006 C 
BRANCH   5   6
ATOM      6  C   UNL     1     -45.280  25.403  -9.331  1.00  0.00     0.053 C 
BRANCH   6   7
ATOM      7  C   UNL     1     -45.663  25.870  -7.960  1.00  0.00     0.041 C 
ATOM      8  O   UNL     1     -46.753  26.475  -7.779  1.00  0.00    -0.550 OA
ATOM      9  O   UNL     1     -44.804  25.670  -6.887  1.00  0.00    -0.550 OA
ENDBRANCH   6   7
ENDBRANCH   5   6
ENDBRANCH   4   5
ENDBRANCH   3   4
ENDBRANCH   2   3
ENDBRANCH   1   2
BRANCH   1  10
ATOM     10  C   UNL     1     -39.556  24.149 -14.061  1.00  0.00     0.027 C 
BRANCH  10  11
ATOM     11  C   UNL     1     -40.139  25.057 -15.119  1.00  0.00    -0.031 C 
ATOM     12  C   UNL     1     -41.307  24.853 -15.757  1.00  0.00    -0.031 C 
BRANCH  12  13
ATOM     13  C   UNL     1     -42.253  23.712 -15.478  1.00  0.00     0.027 C 
BRANCH  13  14
ATOM     14  C   UNL     1     -42.335  22.759 -16.678  1.00  0.00     0.004 C 
BRANCH  14  15
ATOM     15  C   UNL     1     -41.449  23.253 -17.830  1.00  0.00     0.000 C 
BRANCH  15  16
ATOM     16  C   UNL     1     -40.469  22.179 -18.328  1.00  0.00    -0.000 C 
BRANCH  16  17
ATOM     17  C   UNL     1     -39.049  22.726 -18.537  1.00  0.00    -0.003 C 
ATOM     18  C   UNL     1     -38.092  21.618 -18.967  1.00  0.00     0.004 C 
ENDBRANCH  16  17
ENDBRANCH  15  16
ENDBRANCH  14  15
ENDBRANCH  13  14
ENDBRANCH  12  13
ENDBRANCH  10  11
ENDBRANCH   1  10
TORSDOF 13
ENDMDL
MODEL 2
REMARK VINA RESULT:    17.381      0.552      1.011
REMARK INTER + INTRA:          29.876
REMARK INTER:                  30.556
REMARK INTRA:                  -0.680
REMARK UNBOUND:                -0.714
REMARK SMILES CCCCCCC=CCCCCCCCC(=O)[O-]
REMARK SMILES IDX 10 1 11 2 12 3 13 4 14 5 15 6 16 7 17 8 18 9 9 10 8 11 7 12
REMARK SMILES IDX 6 13 5 14 4 15 3 16 2 17 1 18
REMARK H PARENT
REMARK Flexibility Score: inf
ROOT
ATOM      1  C   UNL     1     -40.304  24.237 -13.000  1.00  0.00     0.004 C 
ENDROOT
BRANCH   1   2
ATOM      2  C   UNL     1     -41.790  24.178 -12.622  1.00  0.00     0.000 C 
BRANCH   2   3
ATOM      3  C   UNL     1     -41.997  24.532 -11.144  1.00  0.00     0.000 C 
BRANCH   3   4
ATOM      4  C   UNL     1     -43.455  24.931 -10.873  1.00  0.00     0.000 C 
BRANCH   4   5
ATOM      5  C   UNL     1     -43.847  24.815  -9.389  1.00  0.00     0.006 C 
BRANCH   5   6
ATOM      6  C   UNL     1     -45.354  24.983  -9.126  1.00  0.00     0.053 C 
BRANCH   6   7
ATOM      7  C   UNL     1     -45.637  25.789  -7.895  1.00  0.00     0.041 C 
ATOM      8  O   UNL     1     -46.680  26.491  -7.824  1.00  0.00    -0.550 OA
ATOM      9  O   UNL     1     -44.734  25.793  -6.840  1.00  0.00    -0.550 OA
ENDBRANCH   6   7
ENDBRANCH   5   6
ENDBRANCH   4   5
ENDBRANCH   3   4
ENDBRANCH   2   3
ENDBRANCH   1   2
BRANCH   1  10
ATOM     10  C   UNL     1     -40.095  24.342 -14.516  1.00  0.00     0.027 C 
BRANCH  10  11
ATOM     11  C   UNL     1     -41.269  25.016 -15.188  1.00  0.00    -0.031 C 
ATOM     12  C   UNL     1     -42.058  24.450 -16.121  1.00  0.00    -0.031 C 
BRANCH  12  13
ATOM     13  C   UNL     1     -41.931  23.029 -16.608  1.00  0.00     0.027 C 
BRANCH  13  14
ATOM     14  C   UNL     1     -41.519  22.987 -18.085  1.00  0.00     0.004 C 
BRANCH  14  15
ATOM     15  C   UNL     1     -40.351  22.014 -18.299  1.00  0.00     0.000 C 
BRANCH  15  16
ATOM     16  C   UNL     1     -39.075  22.719 -18.785  1.00  0.00    -0.000 C 
BRANCH  16  17
ATOM     17  C   UNL     1     -37.982  21.729 -19.220  1.00  0.00    -0.003 C 
ATOM     18  C   UNL     1     -37.179  21.236 -18.021  1.00  0.00     0.004 C 
ENDBRANCH  16  17
ENDBRANCH  15  16
ENDBRANCH  14  15
ENDBRANCH  13  14
ENDBRANCH  12  13
ENDBRANCH  10  11
ENDBRANCH   1  10
TORSDOF 13
ENDMDL
MODEL 3
REMARK VINA RESULT:    19.120      5.001      9.381
REMARK INTER + INTRA:          32.937
REMARK INTER:                  32.565
REMARK INTRA:                   0.373
REMARK UNBOUND:                -0.714
REMARK SMILES CCCCCCC=CCCCCCCCC(=O)[O-]
REMARK SMILES IDX 10 1 11 2 12 3 13 4 14 5 15 6 16 7 17 8 18 9 9 10 8 11 7 12
REMARK SMILES IDX 6 13 5 14 4 15 3 16 2 17 1 18
REMARK H PARENT
REMARK Flexibility Score: inf
ROOT
ATOM      1  C   UNL     1     -41.802  24.418 -14.716  1.00  0.00     0.004 C 
ENDROOT
BRANCH   1   2
ATOM      2  C   UNL     1     -42.485  23.749 -15.916  1.00  0.00     0.000 C 
BRANCH   2   3
ATOM      3  C   UNL     1     -41.534  23.668 -17.116  1.00  0.00     0.000 C 
BRANCH   3   4
ATOM      4  C   UNL     1     -41.751  22.367 -17.903  1.00  0.00     0.000 C 
BRANCH   4   5
ATOM      5  C   UNL     1     -40.478  21.869 -18.610  1.00  0.00     0.006 C 
BRANCH   5   6
ATOM      6  C   UNL     1     -39.247  22.763 -18.385  1.00  0.00     0.053 C 
BRANCH   6   7
ATOM      7  C   UNL     1     -37.997  22.179 -18.970  1.00  0.00     0.041 C 
ATOM      8  O   UNL     1     -37.454  21.178 -18.432  1.00  0.00    -0.550 OA
ATOM      9  O   UNL     1     -37.410  22.760 -20.086  1.00  0.00    -0.550 OA
ENDBRANCH   6   7
ENDBRANCH   5   6
ENDBRANCH   4   5
ENDBRANCH   3   4
ENDBRANCH   2   3
ENDBRANCH   1   2
BRANCH   1  10
ATOM     10  C   UNL     1     -40.295  24.602 -14.935  1.00  0.00     0.027 C 
BRANCH  10  11
ATOM     11  C   UNL     1     -39.538  24.556 -13.628  1.00  0.00    -0.031 C 
ATOM     12  C   UNL     1     -40.099  24.430 -12.411  1.00  0.00    -0.031 C 
BRANCH  12  13
ATOM     13  C   UNL     1     -41.575  24.258 -12.158  1.00  0.00     0.027 C 
BRANCH  13  14
ATOM     14  C   UNL     1     -41.938  24.654 -10.721  1.00  0.00     0.004 C 
BRANCH  14  15
ATOM     15  C   UNL     1     -43.461  24.701 -10.535  1.00  0.00     0.000 C 
BRANCH  15  16
ATOM     16  C   UNL     1     -43.872  25.097  -9.108  1.00  0.00    -0.000 C 
BRANCH  16  17
ATOM     17  C   UNL     1     -45.397  25.133  -8.920  1.00  0.00    -0.003 C 
ATOM     18  C   UNL     1     -45.775  25.898  -7.656  1.00  0.00     0.004 C 
ENDBRANCH  16  17
ENDBRANCH  15  16
ENDBRANCH  14  15
ENDBRANCH  13  14
ENDBRANCH  12  13
ENDBRANCH  10  11
ENDBRANCH   1  10
TORSDOF 13
ENDMDL
