MODEL 1
REMARK VINA RESULT:    -4.102      0.000      0.000
REMARK INTER + INTRA:          -7.376
REMARK INTER:                  -6.979
REMARK INTRA:                  -0.397
REMARK UNBOUND:                -0.397
REMARK SMILES CCCCCCCCCCCCCC(=O)[O-]
REMARK SMILES IDX 8 1 9 2 10 3 11 4 12 5 13 6 14 7 15 8 16 9 7 10 6 11 5 12
REMARK SMILES IDX 4 13 3 14 2 15 1 16
REMARK H PARENT
REMARK Flexibility Score: inf
ROOT
ATOM      1  C   UNL     1       8.954   6.915   8.511  1.00  0.00     0.000 C 
ENDROOT
BRANCH   1   2
ATOM      2  C   UNL     1       9.044   5.495   9.091  1.00  0.00     0.000 C 
BRANCH   2   3
ATOM      3  C   UNL     1       7.711   5.023   9.699  1.00  0.00     0.000 C 
BRANCH   3   4
ATOM      4  C   UNL     1       7.449   3.528   9.458  1.00  0.00     0.000 C 
BRANCH   4   5
ATOM      5  C   UNL     1       6.050   3.259   8.875  1.00  0.00     0.006 C 
BRANCH   5   6
ATOM      6  C   UNL     1       5.779   1.761   8.688  1.00  0.00     0.053 C 
BRANCH   6   7
ATOM      7  C   UNL     1       4.909   1.498   7.497  1.00  0.00     0.041 C 
ATOM      8  O   UNL     1       5.342   0.808   6.537  1.00  0.00    -0.550 OA
ATOM      9  O   UNL     1       3.609   1.987   7.463  1.00  0.00    -0.550 OA
ENDBRANCH   6   7
ENDBRANCH   5   6
ENDBRANCH   4   5
ENDBRANCH   3   4
ENDBRANCH   2   3
ENDBRANCH   1   2
BRANCH   1  10
ATOM     10  C   UNL     1       8.471   7.945   9.546  1.00  0.00     0.000 C 
BRANCH  10  11
ATOM     11  C   UNL     1       7.998   9.263   8.904  1.00  0.00    -0.000 C 
BRANCH  11  12
ATOM     12  C   UNL     1       7.086  10.130   9.791  1.00  0.00    -0.000 C 
BRANCH  12  13
ATOM     13  C   UNL     1       6.646  11.434   9.103  1.00  0.00    -0.000 C 
BRANCH  13  14
ATOM     14  C   UNL     1       6.108  11.200   7.683  1.00  0.00    -0.000 C 
BRANCH  14  15
ATOM     15  C   UNL     1       4.768  11.907   7.433  1.00  0.00    -0.003 C 
ATOM     16  C   UNL     1       4.075  11.348   6.195  1.00  0.00     0.004 C 
ENDBRANCH  14  15
ENDBRANCH  13  14
ENDBRANCH  12  13
ENDBRANCH  11  12
ENDBRANCH  10  11
ENDBRANCH   1  10
TORSDOF 12
ENDMDL
MODEL 2
REMARK VINA RESULT:    -3.983      4.318      7.816
REMARK INTER + INTRA:          -7.175
REMARK INTER:                  -6.126
REMARK INTRA:                  -1.048
REMARK UNBOUND:                -0.397
REMARK SMILES CCCCCCCCCCCCCC(=O)[O-]
REMARK SMILES IDX 8 1 9 2 10 3 11 4 12 5 13 6 14 7 15 8 16 9 7 10 6 11 5 12
REMARK SMILES IDX 4 13 3 14 2 15 1 16
REMARK H PARENT
REMARK Flexibility Score: inf
ROOT
ATOM      1  C   UNL     1       8.853   8.808   8.197  1.00  0.00     0.000 C 
ENDROOT
BRANCH   1   2
ATOM      2  C   UNL     1       8.080   8.985   9.513  1.00  0.00     0.000 C 
BRANCH   2   3
ATOM      3  C   UNL     1       7.122  10.189   9.476  1.00  0.00     0.000 C 
BRANCH   3   4
ATOM      4  C   UNL     1       6.926  10.742   8.056  1.00  0.00     0.000 C 
BRANCH   4   5
ATOM      5  C   UNL     1       6.176  12.086   8.044  1.00  0.00     0.006 C 
BRANCH   5   6
ATOM      6  C   UNL     1       4.653  11.899   8.073  1.00  0.00     0.053 C 
BRANCH   6   7
ATOM      7  C   UNL     1       4.042  12.109   6.721  1.00  0.00     0.041 C 
ATOM      8  O   UNL     1       4.018  11.168   5.885  1.00  0.00    -0.550 OA
ATOM      9  O   UNL     1       3.468  13.332   6.399  1.00  0.00    -0.550 OA
ENDBRANCH   6   7
ENDBRANCH   5   6
ENDBRANCH   4   5
ENDBRANCH   3   4
ENDBRANCH   2   3
ENDBRANCH   1   2
BRANCH   1  10
ATOM     10  C   UNL     1       9.153   7.332   7.883  1.00  0.00     0.000 C 
BRANCH  10  11
ATOM     11  C   UNL     1       8.642   6.372   8.974  1.00  0.00    -0.000 C 
BRANCH  11  12
ATOM     12  C   UNL     1       9.638   5.277   9.396  1.00  0.00    -0.000 C 
BRANCH  12  13
ATOM     13  C   UNL     1      10.987   5.844   9.870  1.00  0.00    -0.000 C 
BRANCH  13  14
ATOM     14  C   UNL     1      12.088   5.717   8.805  1.00  0.00    -0.000 C 
BRANCH  14  15
ATOM     15  C   UNL     1      12.828   7.039   8.557  1.00  0.00    -0.003 C 
ATOM     16  C   UNL     1      12.450   8.083   9.603  1.00  0.00     0.004 C 
ENDBRANCH  14  15
ENDBRANCH  13  14
ENDBRANCH  12  13
ENDBRANCH  11  12
ENDBRANCH  10  11
ENDBRANCH   1  10
TORSDOF 12
ENDMDL
MODEL 3
REMARK VINA RESULT:    -3.713      3.879      6.244
REMARK INTER + INTRA:          -6.716
REMARK INTER:                  -6.231
REMARK INTRA:                  -0.485
REMARK UNBOUND:                -0.397
REMARK SMILES CCCCCCCCCCCCCC(=O)[O-]
REMARK SMILES IDX 8 1 9 2 10 3 11 4 12 5 13 6 14 7 15 8 16 9 7 10 6 11 5 12
REMARK SMILES IDX 4 13 3 14 2 15 1 16
REMARK H PARENT
REMARK Flexibility Score: inf
ROOT
ATOM      1  C   UNL     1       4.928   3.238   8.346  1.00  0.00     0.000 C 
ENDROOT
BRANCH   1   2
ATOM      2  C   UNL     1       4.031   2.056   7.950  1.00  0.00     0.000 C 
BRANCH   2   3
ATOM      3  C   UNL     1       3.007   1.702   9.044  1.00  0.00     0.000 C 
BRANCH   3   4
ATOM      4  C   UNL     1       2.367   2.948   9.676  1.00  0.00     0.000 C 
BRANCH   4   5
ATOM      5  C   UNL     1       0.833   2.845   9.761  1.00  0.00     0.006 C 
BRANCH   5   6
ATOM      6  C   UNL     1       0.144   4.170   9.409  1.00  0.00     0.053 C 
BRANCH   6   7
ATOM      7  C   UNL     1      -1.241   3.952   8.880  1.00  0.00     0.041 C 
ATOM      8  O   UNL     1      -1.791   2.826   8.992  1.00  0.00    -0.550 OA
ATOM      9  O   UNL     1      -1.936   5.003   8.295  1.00  0.00    -0.550 OA
ENDBRANCH   6   7
ENDBRANCH   5   6
ENDBRANCH   4   5
ENDBRANCH   3   4
ENDBRANCH   2   3
ENDBRANCH   1   2
BRANCH   1  10
ATOM     10  C   UNL     1       6.235   2.786   9.021  1.00  0.00     0.000 C 
BRANCH  10  11
ATOM     11  C   UNL     1       6.828   3.858   9.956  1.00  0.00    -0.000 C 
BRANCH  11  12
ATOM     12  C   UNL     1       8.329   4.136   9.758  1.00  0.00    -0.000 C 
BRANCH  12  13
ATOM     13  C   UNL     1       8.607   5.528   9.165  1.00  0.00    -0.000 C 
BRANCH  13  14
ATOM     14  C   UNL     1      10.109   5.820   9.023  1.00  0.00    -0.000 C 
BRANCH  14  15
ATOM     15  C   UNL     1      10.395   7.273   8.615  1.00  0.00    -0.003 C 
ATOM     16  C   UNL     1       9.223   7.864   7.837  1.00  0.00     0.004 C 
ENDBRANCH  14  15
ENDBRANCH  13  14
ENDBRANCH  12  13
ENDBRANCH  11  12
ENDBRANCH  10  11
ENDBRANCH   1  10
TORSDOF 12
ENDMDL
MODEL 4
REMARK VINA RESULT:    -3.610      4.487      7.146
REMARK INTER + INTRA:          -6.540
REMARK INTER:                  -5.992
REMARK INTRA:                  -0.548
REMARK UNBOUND:                -0.397
REMARK SMILES CCCCCCCCCCCCCC(=O)[O-]
REMARK SMILES IDX 8 1 9 2 10 3 11 4 12 5 13 6 14 7 15 8 16 9 7 10 6 11 5 12
REMARK SMILES IDX 4 13 3 14 2 15 1 16
REMARK H PARENT
REMARK Flexibility Score: inf
ROOT
ATOM      1  C   UNL     1       4.134   2.292   7.958  1.00  0.00     0.000 C 
ENDROOT
BRANCH   1   2
ATOM      2  C   UNL     1       3.072   2.082   9.049  1.00  0.00     0.000 C 
BRANCH   2   3
ATOM      3  C   UNL     1       2.251   3.354   9.324  1.00  0.00     0.000 C 
BRANCH   3   4
ATOM      4  C   UNL     1       0.780   3.049   9.644  1.00  0.00     0.000 C 
BRANCH   4   5
ATOM      5  C   UNL     1      -0.089   4.318   9.697  1.00  0.00     0.006 C 
BRANCH   5   6
ATOM      6  C   UNL     1      -1.474   4.097   9.075  1.00  0.00     0.053 C 
BRANCH   6   7
ATOM      7  C   UNL     1      -2.227   5.385   8.924  1.00  0.00     0.041 C 
ATOM      8  O   UNL     1      -2.171   6.028   7.843  1.00  0.00    -0.550 OA
ATOM      9  O   UNL     1      -3.017   5.855   9.965  1.00  0.00    -0.550 OA
ENDBRANCH   6   7
ENDBRANCH   5   6
ENDBRANCH   4   5
ENDBRANCH   3   4
ENDBRANCH   2   3
ENDBRANCH   1   2
BRANCH   1  10
ATOM     10  C   UNL     1       5.560   2.014   8.463  1.00  0.00     0.000 C 
BRANCH  10  11
ATOM     11  C   UNL     1       5.776   2.454   9.923  1.00  0.00    -0.000 C 
BRANCH  11  12
ATOM     12  C   UNL     1       6.335   3.878  10.099  1.00  0.00    -0.000 C 
BRANCH  12  13
ATOM     13  C   UNL     1       7.469   4.202   9.111  1.00  0.00    -0.000 C 
BRANCH  13  14
ATOM     14  C   UNL     1       8.537   5.124   9.721  1.00  0.00    -0.000 C 
BRANCH  14  15
ATOM     15  C   UNL     1       8.964   6.249   8.766  1.00  0.00    -0.003 C 
ATOM     16  C   UNL     1       8.469   7.605   9.260  1.00  0.00     0.004 C 
ENDBRANCH  14  15
ENDBRANCH  13  14
ENDBRANCH  12  13
ENDBRANCH  11  12
ENDBRANCH  10  11
ENDBRANCH   1  10
TORSDOF 12
ENDMDL
MODEL 5
REMARK VINA RESULT:    -3.577      4.854      7.308
REMARK INTER + INTRA:          -6.484
REMARK INTER:                  -5.651
REMARK INTRA:                  -0.833
REMARK UNBOUND:                -0.397
REMARK SMILES CCCCCCCCCCCCCC(=O)[O-]
REMARK SMILES IDX 8 1 9 2 10 3 11 4 12 5 13 6 14 7 15 8 16 9 7 10 6 11 5 12
REMARK SMILES IDX 4 13 3 14 2 15 1 16
REMARK H PARENT
REMARK Flexibility Score: inf
ROOT
ATOM      1  C   UNL     1       3.991   2.135   7.888  1.00  0.00     0.000 C 
ENDROOT
BRANCH   1   2
ATOM      2  C   UNL     1       5.505   1.884   7.959  1.00  0.00     0.000 C 
BRANCH   2   3
ATOM      3  C   UNL     1       6.062   2.047   9.385  1.00  0.00     0.000 C 
BRANCH   3   4
ATOM      4  C   UNL     1       6.378   3.511   9.731  1.00  0.00     0.000 C 
BRANCH   4   5
ATOM      5  C   UNL     1       7.889   3.800   9.754  1.00  0.00     0.006 C 
BRANCH   5   6
ATOM      6  C   UNL     1       8.195   5.297   9.609  1.00  0.00     0.053 C 
BRANCH   6   7
ATOM      7  C   UNL     1       9.645   5.542   9.320  1.00  0.00     0.041 C 
ATOM      8  O   UNL     1      10.522   4.767   9.783  1.00  0.00    -0.550 OA
ATOM      9  O   UNL     1      10.023   6.607   8.513  1.00  0.00    -0.550 OA
ENDBRANCH   6   7
ENDBRANCH   5   6
ENDBRANCH   4   5
ENDBRANCH   3   4
ENDBRANCH   2   3
ENDBRANCH   1   2
BRANCH   1  10
ATOM     10  C   UNL     1       3.223   1.431   9.020  1.00  0.00     0.000 C 
BRANCH  10  11
ATOM     11  C   UNL     1       2.396   2.406   9.879  1.00  0.00    -0.000 C 
BRANCH  11  12
ATOM     12  C   UNL     1       2.311   3.844   9.336  1.00  0.00    -0.000 C 
BRANCH  12  13
ATOM     13  C   UNL     1       0.989   4.543   9.696  1.00  0.00    -0.000 C 
BRANCH  13  14
ATOM     14  C   UNL     1      -0.174   3.552   9.869  1.00  0.00    -0.000 C 
BRANCH  14  15
ATOM     15  C   UNL     1      -1.250   3.707   8.785  1.00  0.00    -0.003 C 
ATOM     16  C   UNL     1      -2.004   5.023   8.944  1.00  0.00     0.004 C 
ENDBRANCH  14  15
ENDBRANCH  13  14
ENDBRANCH  12  13
ENDBRANCH  11  12
ENDBRANCH  10  11
ENDBRANCH   1  10
TORSDOF 12
ENDMDL
MODEL 6
REMARK VINA RESULT:    -3.539      3.902      7.897
REMARK INTER + INTRA:          -6.419
REMARK INTER:                  -5.695
REMARK INTRA:                  -0.724
REMARK UNBOUND:                -0.397
REMARK SMILES CCCCCCCCCCCCCC(=O)[O-]
REMARK SMILES IDX 8 1 9 2 10 3 11 4 12 5 13 6 14 7 15 8 16 9 7 10 6 11 5 12
REMARK SMILES IDX 4 13 3 14 2 15 1 16
REMARK H PARENT
REMARK Flexibility Score: inf
ROOT
ATOM      1  C   UNL     1       6.971  10.488   9.492  1.00  0.00     0.000 C 
ENDROOT
BRANCH   1   2
ATOM      2  C   UNL     1       6.681  11.114   8.119  1.00  0.00     0.000 C 
BRANCH   2   3
ATOM      3  C   UNL     1       6.064  12.520   8.233  1.00  0.00     0.000 C 
BRANCH   3   4
ATOM      4  C   UNL     1       4.702  12.625   7.530  1.00  0.00     0.000 C 
BRANCH   4   5
ATOM      5  C   UNL     1       3.544  12.853   8.517  1.00  0.00     0.006 C 
BRANCH   5   6
ATOM      6  C   UNL     1       3.135  11.562   9.238  1.00  0.00     0.053 C 
BRANCH   6   7
ATOM      7  C   UNL     1       1.661  11.311   9.135  1.00  0.00     0.041 C 
ATOM      8  O   UNL     1       0.851  12.273   9.177  1.00  0.00    -0.550 OA
ATOM      9  O   UNL     1       1.186  10.018   8.960  1.00  0.00    -0.550 OA
ENDBRANCH   6   7
ENDBRANCH   5   6
ENDBRANCH   4   5
ENDBRANCH   3   4
ENDBRANCH   2   3
ENDBRANCH   1   2
BRANCH   1  10
ATOM     10  C   UNL     1       8.015   9.361   9.417  1.00  0.00     0.000 C 
BRANCH  10  11
ATOM     11  C   UNL     1       8.433   9.027   7.973  1.00  0.00    -0.000 C 
BRANCH  11  12
ATOM     12  C   UNL     1       9.405   7.841   7.833  1.00  0.00    -0.000 C 
BRANCH  12  13
ATOM     13  C   UNL     1       9.938   7.341   9.186  1.00  0.00    -0.000 C 
BRANCH  13  14
ATOM     14  C   UNL     1      10.454   5.894   9.119  1.00  0.00    -0.000 C 
BRANCH  14  15
ATOM     15  C   UNL     1       9.642   4.935  10.002  1.00  0.00    -0.003 C 
ATOM     16  C   UNL     1       8.210   4.801   9.493  1.00  0.00     0.004 C 
ENDBRANCH  14  15
ENDBRANCH  13  14
ENDBRANCH  12  13
ENDBRANCH  11  12
ENDBRANCH  10  11
ENDBRANCH   1  10
TORSDOF 12
ENDMDL
MODEL 7
REMARK VINA RESULT:    -3.515      4.544      7.444
REMARK INTER + INTRA:          -6.379
REMARK INTER:                  -5.847
REMARK INTRA:                  -0.532
REMARK UNBOUND:                -0.397
REMARK SMILES CCCCCCCCCCCCCC(=O)[O-]
REMARK SMILES IDX 8 1 9 2 10 3 11 4 12 5 13 6 14 7 15 8 16 9 7 10 6 11 5 12
REMARK SMILES IDX 4 13 3 14 2 15 1 16
REMARK H PARENT
REMARK Flexibility Score: inf
ROOT
ATOM      1  C   UNL     1       5.410   3.154   8.650  1.00  0.00     0.000 C 
ENDROOT
BRANCH   1   2
ATOM      2  C   UNL     1       6.743   2.934   9.381  1.00  0.00     0.000 C 
BRANCH   2   3
ATOM      3  C   UNL     1       7.458   4.256   9.713  1.00  0.00     0.000 C 
BRANCH   3   4
ATOM      4  C   UNL     1       8.975   4.080   9.882  1.00  0.00     0.000 C 
BRANCH   4   5
ATOM      5  C   UNL     1       9.769   5.308   9.400  1.00  0.00     0.006 C 
BRANCH   5   6
ATOM      6  C   UNL     1       8.884   6.312   8.650  1.00  0.00     0.053 C 
BRANCH   6   7
ATOM      7  C   UNL     1       9.700   7.350   7.940  1.00  0.00     0.041 C 
ATOM      8  O   UNL     1      10.849   7.066   7.511  1.00  0.00    -0.550 OA
ATOM      9  O   UNL     1       9.177   8.618   7.725  1.00  0.00    -0.550 OA
ENDBRANCH   6   7
ENDBRANCH   5   6
ENDBRANCH   4   5
ENDBRANCH   3   4
ENDBRANCH   2   3
ENDBRANCH   1   2
BRANCH   1  10
ATOM     10  C   UNL     1       4.824   1.848   8.086  1.00  0.00     0.000 C 
BRANCH  10  11
ATOM     11  C   UNL     1       3.389   1.575   8.575  1.00  0.00    -0.000 C 
BRANCH  11  12
ATOM     12  C   UNL     1       2.963   2.372   9.821  1.00  0.00    -0.000 C 
BRANCH  12  13
ATOM     13  C   UNL     1       1.437   2.532   9.936  1.00  0.00    -0.000 C 
BRANCH  13  14
ATOM     14  C   UNL     1       0.945   3.888   9.403  1.00  0.00    -0.000 C 
BRANCH  14  15
ATOM     15  C   UNL     1      -0.489   4.213   9.847  1.00  0.00    -0.003 C 
ATOM     16  C   UNL     1      -1.511   3.529   8.944  1.00  0.00     0.004 C 
ENDBRANCH  14  15
ENDBRANCH  13  14
ENDBRANCH  12  13
ENDBRANCH  11  12
ENDBRANCH  10  11
ENDBRANCH   1  10
TORSDOF 12
ENDMDL
MODEL 8
REMARK VINA RESULT:    -3.487      3.697      5.419
REMARK INTER + INTRA:          -6.331
REMARK INTER:                  -5.597
REMARK INTRA:                  -0.734
REMARK UNBOUND:                -0.397
REMARK SMILES CCCCCCCCCCCCCC(=O)[O-]
REMARK SMILES IDX 8 1 9 2 10 3 11 4 12 5 13 6 14 7 15 8 16 9 7 10 6 11 5 12
REMARK SMILES IDX 4 13 3 14 2 15 1 16
REMARK H PARENT
REMARK Flexibility Score: inf
ROOT
ATOM      1  C   UNL     1       6.790  10.748   8.155  1.00  0.00     0.000 C 
ENDROOT
BRANCH   1   2
ATOM      2  C   UNL     1       7.223  10.265   9.548  1.00  0.00     0.000 C 
BRANCH   2   3
ATOM      3  C   UNL     1       7.865   8.867   9.512  1.00  0.00     0.000 C 
BRANCH   3   4
ATOM      4  C   UNL     1       9.117   8.816   8.623  1.00  0.00     0.000 C 
BRANCH   4   5
ATOM      5  C   UNL     1       9.237   7.493   7.846  1.00  0.00     0.006 C 
BRANCH   5   6
ATOM      6  C   UNL     1       8.967   6.272   8.736  1.00  0.00     0.053 C 
BRANCH   6   7
ATOM      7  C   UNL     1      10.239   5.605   9.164  1.00  0.00     0.041 C 
ATOM      8  O   UNL     1      10.214   4.688  10.025  1.00  0.00    -0.550 OA
ATOM      9  O   UNL     1      11.447   5.973   8.585  1.00  0.00    -0.550 OA
ENDBRANCH   6   7
ENDBRANCH   5   6
ENDBRANCH   4   5
ENDBRANCH   3   4
ENDBRANCH   2   3
ENDBRANCH   1   2
BRANCH   1  10
ATOM     10  C   UNL     1       5.761  11.890   8.221  1.00  0.00     0.000 C 
BRANCH  10  11
ATOM     11  C   UNL     1       4.692  11.798   7.116  1.00  0.00    -0.000 C 
BRANCH  11  12
ATOM     12  C   UNL     1       3.535  12.806   7.243  1.00  0.00    -0.000 C 
BRANCH  12  13
ATOM     13  C   UNL     1       2.985  12.911   8.676  1.00  0.00    -0.000 C 
BRANCH  13  14
ATOM     14  C   UNL     1       1.790  11.975   8.918  1.00  0.00    -0.000 C 
BRANCH  14  15
ATOM     15  C   UNL     1       2.180  10.701   9.682  1.00  0.00    -0.003 C 
ATOM     16  C   UNL     1       1.409   9.492   9.161  1.00  0.00     0.004 C 
ENDBRANCH  14  15
ENDBRANCH  13  14
ENDBRANCH  12  13
ENDBRANCH  11  12
ENDBRANCH  10  11
ENDBRANCH   1  10
TORSDOF 12
ENDMDL
MODEL 9
REMARK VINA RESULT:    -3.109      3.726      5.068
REMARK INTER + INTRA:          -5.687
REMARK INTER:                  -5.141
REMARK INTRA:                  -0.546
REMARK UNBOUND:                -0.397
REMARK SMILES CCCCCCCCCCCCCC(=O)[O-]
REMARK SMILES IDX 8 1 9 2 10 3 11 4 12 5 13 6 14 7 15 8 16 9 7 10 6 11 5 12
REMARK SMILES IDX 4 13 3 14 2 15 1 16
REMARK H PARENT
REMARK Flexibility Score: inf
ROOT
ATOM      1  C   UNL     1       6.692   3.884   9.116  1.00  0.00     0.000 C 
ENDROOT
BRANCH   1   2
ATOM      2  C   UNL     1       5.471   3.921  10.050  1.00  0.00     0.000 C 
BRANCH   2   3
ATOM      3  C   UNL     1       4.140   3.862   9.280  1.00  0.00     0.000 C 
BRANCH   3   4
ATOM      4  C   UNL     1       3.114   2.934   9.948  1.00  0.00     0.000 C 
BRANCH   4   5
ATOM      5  C   UNL     1       2.948   1.600   9.198  1.00  0.00     0.006 C 
BRANCH   5   6
ATOM      6  C   UNL     1       4.299   0.968   8.838  1.00  0.00     0.053 C 
BRANCH   6   7
ATOM      7  C   UNL     1       4.681   1.246   7.415  1.00  0.00     0.041 C 
ATOM      8  O   UNL     1       3.791   1.363   6.533  1.00  0.00    -0.550 OA
ATOM      9  O   UNL     1       6.017   1.409   7.073  1.00  0.00    -0.550 OA
ENDBRANCH   6   7
ENDBRANCH   5   6
ENDBRANCH   4   5
ENDBRANCH   3   4
ENDBRANCH   2   3
ENDBRANCH   1   2
BRANCH   1  10
ATOM     10  C   UNL     1       8.002   3.602   9.871  1.00  0.00     0.000 C 
BRANCH  10  11
ATOM     11  C   UNL     1       8.832   4.874  10.125  1.00  0.00    -0.000 C 
BRANCH  11  12
ATOM     12  C   UNL     1       8.598   6.017   9.120  1.00  0.00    -0.000 C 
BRANCH  12  13
ATOM     13  C   UNL     1       9.894   6.490   8.439  1.00  0.00    -0.000 C 
BRANCH  13  14
ATOM     14  C   UNL     1      11.142   5.777   8.984  1.00  0.00    -0.000 C 
BRANCH  14  15
ATOM     15  C   UNL     1      12.303   6.744   9.259  1.00  0.00    -0.003 C 
ATOM     16  C   UNL     1      11.791   8.080   9.788  1.00  0.00     0.004 C 
ENDBRANCH  14  15
ENDBRANCH  13  14
ENDBRANCH  12  13
ENDBRANCH  11  12
ENDBRANCH  10  11
ENDBRANCH   1  10
TORSDOF 12
ENDMDL
