MODEL 1
REMARK VINA RESULT:    -4.770      0.000      0.000
REMARK INTER + INTRA:          -6.532
REMARK INTER:                  -6.443
REMARK INTRA:                  -0.089
REMARK UNBOUND:                -0.089
REMARK SMILES [NH3+]CCCC[C@H]([NH3+])C(=O)[O-]
REMARK SMILES IDX 4 1 3 2 2 3 1 4 5 8 6 9 7 10 8 14 9 15 10 16
REMARK H PARENT 1 5 1 6 1 7 7 11 7 12 7 13
REMARK Flexibility Score: inf
ROOT
ATOM      1  C   UNL     1     182.770 169.533 173.956  1.00  0.00     0.012 C 
ENDROOT
BRANCH   1   2
ATOM      2  C   UNL     1     183.729 169.749 175.135  1.00  0.00     0.061 C 
BRANCH   2   3
ATOM      3  C   UNL     1     183.077 170.527 176.292  1.00  0.00     0.258 C 
BRANCH   3   4
ATOM      4  N   UNL     1     182.837 169.679 177.462  1.00  0.00    -0.358 N 
ATOM      5  H   UNL     1     183.460 168.840 177.437  1.00  0.00     0.344 HD
ATOM      6  H   UNL     1     181.844 169.350 177.443  1.00  0.00     0.344 HD
ATOM      7  H   UNL     1     182.997 170.218 178.343  1.00  0.00     0.344 HD
ENDBRANCH   3   4
ENDBRANCH   2   3
ENDBRANCH   1   2
BRANCH   1   8
ATOM      8  C   UNL     1     183.054 168.196 173.254  1.00  0.00     0.072 C 
BRANCH   8   9
ATOM      9  C   UNL     1     182.040 167.883 172.131  1.00  0.00     0.227 C 
BRANCH   9  10
ATOM     10  N   UNL     1     181.541 166.503 172.217  1.00  0.00    -0.350 N 
ATOM     11  H   UNL     1     180.500 166.501 172.300  1.00  0.00     0.345 HD
ATOM     12  H   UNL     1     181.787 165.981 171.345  1.00  0.00     0.345 HD
ATOM     13  H   UNL     1     181.956 166.009 173.040  1.00  0.00     0.345 HD
ENDBRANCH   9  10
BRANCH   9  14
ATOM     14  C   UNL     1     182.689 168.113 170.791  1.00  0.00     0.099 C 
ATOM     15  O   UNL     1     183.894 167.798 170.610  1.00  0.00    -0.544 OA
ATOM     16  O   UNL     1     181.956 168.654 169.742  1.00  0.00    -0.544 OA
ENDBRANCH   9  14
ENDBRANCH   8   9
ENDBRANCH   1   8
TORSDOF 7
ENDMDL
MODEL 2
REMARK VINA RESULT:    -4.685     17.196     18.126
REMARK INTER + INTRA:          -6.417
REMARK INTER:                  -6.294
REMARK INTRA:                  -0.122
REMARK UNBOUND:                -0.089
REMARK SMILES [NH3+]CCCC[C@H]([NH3+])C(=O)[O-]
REMARK SMILES IDX 4 1 3 2 2 3 1 4 5 8 6 9 7 10 8 14 9 15 10 16
REMARK H PARENT 1 5 1 6 1 7 7 11 7 12 7 13
REMARK Flexibility Score: inf
ROOT
ATOM      1  C   UNL     1     165.533 169.189 174.268  1.00  0.00     0.012 C 
ENDROOT
BRANCH   1   2
ATOM      2  C   UNL     1     164.373 169.476 173.304  1.00  0.00     0.061 C 
BRANCH   2   3
ATOM      3  C   UNL     1     164.758 170.472 172.196  1.00  0.00     0.258 C 
BRANCH   3   4
ATOM      4  N   UNL     1     165.047 169.801 170.926  1.00  0.00    -0.358 N 
ATOM      5  H   UNL     1     165.910 170.200 170.493  1.00  0.00     0.344 HD
ATOM      6  H   UNL     1     164.247 169.959 170.271  1.00  0.00     0.344 HD
ATOM      7  H   UNL     1     165.163 168.773 171.073  1.00  0.00     0.344 HD
ENDBRANCH   3   4
ENDBRANCH   2   3
ENDBRANCH   1   2
BRANCH   1   8
ATOM      8  C   UNL     1     165.476 167.741 174.781  1.00  0.00     0.072 C 
BRANCH   8   9
ATOM      9  C   UNL     1     166.318 167.527 176.059  1.00  0.00     0.227 C 
BRANCH   9  10
ATOM     10  N   UNL     1     166.719 166.122 176.218  1.00  0.00    -0.350 N 
ATOM     11  H   UNL     1     167.625 166.061 176.734  1.00  0.00     0.345 HD
ATOM     12  H   UNL     1     166.002 165.609 176.781  1.00  0.00     0.345 HD
ATOM     13  H   UNL     1     166.817 165.657 175.286  1.00  0.00     0.345 HD
ENDBRANCH   9  10
BRANCH   9  14
ATOM     14  C   UNL     1     165.527 167.975 177.260  1.00  0.00     0.099 C 
ATOM     15  O   UNL     1     164.319 167.640 177.383  1.00  0.00    -0.544 OA
ATOM     16  O   UNL     1     166.130 168.742 178.249  1.00  0.00    -0.544 OA
ENDBRANCH   9  14
ENDBRANCH   8   9
ENDBRANCH   1   8
TORSDOF 7
ENDMDL
MODEL 3
REMARK VINA RESULT:    -4.662     20.196     20.669
REMARK INTER + INTRA:          -6.387
REMARK INTER:                  -6.252
REMARK INTRA:                  -0.135
REMARK UNBOUND:                -0.089
REMARK SMILES [NH3+]CCCC[C@H]([NH3+])C(=O)[O-]
REMARK SMILES IDX 4 1 3 2 2 3 1 4 5 8 6 9 7 10 8 14 9 15 10 16
REMARK H PARENT 1 5 1 6 1 7 7 11 7 12 7 13
REMARK Flexibility Score: inf
ROOT
ATOM      1  C   UNL     1     165.392 178.827 173.626  1.00  0.00     0.012 C 
ENDROOT
BRANCH   1   2
ATOM      2  C   UNL     1     164.325 178.648 174.715  1.00  0.00     0.061 C 
BRANCH   2   3
ATOM      3  C   UNL     1     164.741 177.626 175.787  1.00  0.00     0.258 C 
BRANCH   3   4
ATOM      4  N   UNL     1     165.030 178.262 177.074  1.00  0.00    -0.358 N 
ATOM      5  H   UNL     1     164.173 178.283 177.671  1.00  0.00     0.344 HD
ATOM      6  H   UNL     1     165.334 179.248 176.903  1.00  0.00     0.344 HD
ATOM      7  H   UNL     1     165.798 177.755 177.569  1.00  0.00     0.344 HD
ENDBRANCH   3   4
ENDBRANCH   2   3
ENDBRANCH   1   2
BRANCH   1   8
ATOM      8  C   UNL     1     165.516 180.302 173.215  1.00  0.00     0.072 C 
BRANCH   8   9
ATOM      9  C   UNL     1     166.347 180.495 171.926  1.00  0.00     0.227 C 
BRANCH   9  10
ATOM     10  N   UNL     1     166.712 181.905 171.720  1.00  0.00    -0.350 N 
ATOM     11  H   UNL     1     166.001 182.377 171.118  1.00  0.00     0.345 HD
ATOM     12  H   UNL     1     166.727 182.406 172.638  1.00  0.00     0.345 HD
ATOM     13  H   UNL     1     167.654 181.983 171.273  1.00  0.00     0.345 HD
ENDBRANCH   9  10
BRANCH   9  14
ATOM     14  C   UNL     1     165.564 179.988 170.744  1.00  0.00     0.099 C 
ATOM     15  O   UNL     1     166.122 179.260 169.881  1.00  0.00    -0.544 OA
ATOM     16  O   UNL     1     164.218 180.303 170.609  1.00  0.00    -0.544 OA
ENDBRANCH   9  14
ENDBRANCH   8   9
ENDBRANCH   1   8
TORSDOF 7
ENDMDL
MODEL 4
REMARK VINA RESULT:    -4.654     10.743     12.233
REMARK INTER + INTRA:          -6.375
REMARK INTER:                  -6.227
REMARK INTRA:                  -0.148
REMARK UNBOUND:                -0.089
REMARK SMILES [NH3+]CCCC[C@H]([NH3+])C(=O)[O-]
REMARK SMILES IDX 4 1 3 2 2 3 1 4 5 8 6 9 7 10 8 14 9 15 10 16
REMARK H PARENT 1 5 1 6 1 7 7 11 7 12 7 13
REMARK Flexibility Score: inf
ROOT
ATOM      1  C   UNL     1     182.507 179.066 174.064  1.00  0.00     0.012 C 
ENDROOT
BRANCH   1   2
ATOM      2  C   UNL     1     183.902 178.552 173.680  1.00  0.00     0.061 C 
BRANCH   2   3
ATOM      3  C   UNL     1     183.869 177.593 172.478  1.00  0.00     0.258 C 
BRANCH   3   4
ATOM      4  N   UNL     1     183.154 178.165 171.335  1.00  0.00    -0.358 N 
ATOM      5  H   UNL     1     183.232 177.535 170.505  1.00  0.00     0.344 HD
ATOM      6  H   UNL     1     183.589 179.085 171.090  1.00  0.00     0.344 HD
ATOM      7  H   UNL     1     182.149 178.321 171.573  1.00  0.00     0.344 HD
ENDBRANCH   3   4
ENDBRANCH   2   3
ENDBRANCH   1   2
BRANCH   1   8
ATOM      8  C   UNL     1     182.597 180.426 174.773  1.00  0.00     0.072 C 
BRANCH   8   9
ATOM      9  C   UNL     1     181.699 180.506 176.029  1.00  0.00     0.227 C 
BRANCH   9  10
ATOM     10  N   UNL     1     181.196 181.869 176.252  1.00  0.00    -0.350 N 
ATOM     11  H   UNL     1     181.898 182.429 176.785  1.00  0.00     0.345 HD
ATOM     12  H   UNL     1     181.046 182.347 175.334  1.00  0.00     0.345 HD
ATOM     13  H   UNL     1     180.293 181.850 176.778  1.00  0.00     0.345 HD
ENDBRANCH   9  10
BRANCH   9  14
ATOM     14  C   UNL     1     182.478 180.041 177.231  1.00  0.00     0.099 C 
ATOM     15  O   UNL     1     183.686 180.368 177.367  1.00  0.00    -0.544 OA
ATOM     16  O   UNL     1     181.863 179.266 178.207  1.00  0.00    -0.544 OA
ENDBRANCH   9  14
ENDBRANCH   8   9
ENDBRANCH   1   8
TORSDOF 7
ENDMDL
MODEL 5
REMARK VINA RESULT:    -4.622      1.392      1.632
REMARK INTER + INTRA:          -6.332
REMARK INTER:                  -6.241
REMARK INTRA:                  -0.091
REMARK UNBOUND:                -0.089
REMARK SMILES [NH3+]CCCC[C@H]([NH3+])C(=O)[O-]
REMARK SMILES IDX 4 1 3 2 2 3 1 4 5 8 6 9 7 10 8 14 9 15 10 16
REMARK H PARENT 1 5 1 6 1 7 7 11 7 12 7 13
REMARK Flexibility Score: inf
ROOT
ATOM      1  C   UNL     1     181.751 169.441 174.301  1.00  0.00     0.012 C 
ENDROOT
BRANCH   1   2
ATOM      2  C   UNL     1     183.041 170.194 174.653  1.00  0.00     0.061 C 
BRANCH   2   3
ATOM      3  C   UNL     1     183.011 170.786 176.073  1.00  0.00     0.258 C 
BRANCH   3   4
ATOM      4  N   UNL     1     182.941 169.748 177.103  1.00  0.00    -0.358 N 
ATOM      5  H   UNL     1     182.540 170.137 177.986  1.00  0.00     0.344 HD
ATOM      6  H   UNL     1     183.909 169.407 177.306  1.00  0.00     0.344 HD
ATOM      7  H   UNL     1     182.364 168.942 176.772  1.00  0.00     0.344 HD
ENDBRANCH   3   4
ENDBRANCH   2   3
ENDBRANCH   1   2
BRANCH   1   8
ATOM      8  C   UNL     1     181.812 168.884 172.870  1.00  0.00     0.072 C 
BRANCH   8   9
ATOM      9  C   UNL     1     181.712 167.342 172.825  1.00  0.00     0.227 C 
BRANCH   9  10
ATOM     10  N   UNL     1     182.702 166.707 173.707  1.00  0.00    -0.350 N 
ATOM     11  H   UNL     1     182.706 167.175 174.641  1.00  0.00     0.345 HD
ATOM     12  H   UNL     1     182.448 165.703 173.862  1.00  0.00     0.345 HD
ATOM     13  H   UNL     1     183.658 166.756 173.288  1.00  0.00     0.345 HD
ENDBRANCH   9  10
BRANCH   9  14
ATOM     14  C   UNL     1     181.906 166.869 171.409  1.00  0.00     0.099 C 
ATOM     15  O   UNL     1     181.025 166.160 170.853  1.00  0.00    -0.544 OA
ATOM     16  O   UNL     1     183.046 167.227 170.701  1.00  0.00    -0.544 OA
ENDBRANCH   9  14
ENDBRANCH   8   9
ENDBRANCH   1   8
TORSDOF 7
ENDMDL
MODEL 6
REMARK VINA RESULT:    -4.391     10.381     11.715
REMARK INTER + INTRA:          -6.020
REMARK INTER:                  -5.531
REMARK INTRA:                  -0.489
REMARK UNBOUND:                -0.089
REMARK SMILES [NH3+]CCCC[C@H]([NH3+])C(=O)[O-]
REMARK SMILES IDX 4 1 3 2 2 3 1 4 5 8 6 9 7 10 8 14 9 15 10 16
REMARK H PARENT 1 5 1 6 1 7 7 11 7 12 7 13
REMARK Flexibility Score: inf
ROOT
ATOM      1  C   UNL     1     182.896 177.940 173.468  1.00  0.00     0.012 C 
ENDROOT
BRANCH   1   2
ATOM      2  C   UNL     1     181.407 177.835 173.111  1.00  0.00     0.061 C 
BRANCH   2   3
ATOM      3  C   UNL     1     180.601 177.050 174.160  1.00  0.00     0.258 C 
BRANCH   3   4
ATOM      4  N   UNL     1     179.355 177.730 174.522  1.00  0.00    -0.358 N 
ATOM      5  H   UNL     1     179.288 177.841 175.558  1.00  0.00     0.344 HD
ATOM      6  H   UNL     1     178.547 177.147 174.201  1.00  0.00     0.344 HD
ATOM      7  H   UNL     1     179.300 178.664 174.057  1.00  0.00     0.344 HD
ENDBRANCH   3   4
ENDBRANCH   2   3
ENDBRANCH   1   2
BRANCH   1   8
ATOM      8  C   UNL     1     183.122 178.961 174.593  1.00  0.00     0.072 C 
BRANCH   8   9
ATOM      9  C   UNL     1     182.273 180.240 174.418  1.00  0.00     0.227 C 
BRANCH   9  10
ATOM     10  N   UNL     1     183.081 181.366 173.927  1.00  0.00    -0.350 N 
ATOM     11  H   UNL     1     183.346 181.992 174.720  1.00  0.00     0.345 HD
ATOM     12  H   UNL     1     183.967 181.008 173.501  1.00  0.00     0.345 HD
ATOM     13  H   UNL     1     182.556 181.916 173.210  1.00  0.00     0.345 HD
ENDBRANCH   9  10
BRANCH   9  14
ATOM     14  C   UNL     1     181.633 180.601 175.733  1.00  0.00     0.099 C 
ATOM     15  O   UNL     1     180.427 180.312 175.949  1.00  0.00    -0.544 OA
ATOM     16  O   UNL     1     182.374 181.236 176.721  1.00  0.00    -0.544 OA
ENDBRANCH   9  14
ENDBRANCH   8   9
ENDBRANCH   1   8
TORSDOF 7
ENDMDL
MODEL 7
REMARK VINA RESULT:    -4.312      2.918      3.671
REMARK INTER + INTRA:          -5.914
REMARK INTER:                  -5.821
REMARK INTRA:                  -0.093
REMARK UNBOUND:                -0.089
REMARK SMILES [NH3+]CCCC[C@H]([NH3+])C(=O)[O-]
REMARK SMILES IDX 4 1 3 2 2 3 1 4 5 8 6 9 7 10 8 14 9 15 10 16
REMARK H PARENT 1 5 1 6 1 7 7 11 7 12 7 13
REMARK Flexibility Score: inf
ROOT
ATOM      1  C   UNL     1     180.721 169.562 173.603  1.00  0.00     0.012 C 
ENDROOT
BRANCH   1   2
ATOM      2  C   UNL     1     180.243 170.973 173.229  1.00  0.00     0.061 C 
BRANCH   2   3
ATOM      3  C   UNL     1     179.553 171.019 171.855  1.00  0.00     0.258 C 
BRANCH   3   4
ATOM      4  N   UNL     1     179.555 172.366 171.281  1.00  0.00    -0.358 N 
ATOM      5  H   UNL     1     178.812 172.452 170.552  1.00  0.00     0.344 HD
ATOM      6  H   UNL     1     180.482 172.539 170.827  1.00  0.00     0.344 HD
ATOM      7  H   UNL     1     179.408 173.083 172.028  1.00  0.00     0.344 HD
ENDBRANCH   3   4
ENDBRANCH   2   3
ENDBRANCH   1   2
BRANCH   1   8
ATOM      8  C   UNL     1     181.501 168.921 172.444  1.00  0.00     0.072 C 
BRANCH   8   9
ATOM      9  C   UNL     1     181.538 167.378 172.531  1.00  0.00     0.227 C 
BRANCH   9  10
ATOM     10  N   UNL     1     182.496 166.914 173.545  1.00  0.00    -0.350 N 
ATOM     11  H   UNL     1     181.987 166.531 174.373  1.00  0.00     0.345 HD
ATOM     12  H   UNL     1     183.082 166.141 173.152  1.00  0.00     0.345 HD
ATOM     13  H   UNL     1     183.121 167.694 173.851  1.00  0.00     0.345 HD
ENDBRANCH   9  10
BRANCH   9  14
ATOM     14  C   UNL     1     181.897 166.809 171.184  1.00  0.00     0.099 C 
ATOM     15  O   UNL     1     181.117 166.005 170.609  1.00  0.00    -0.544 OA
ATOM     16  O   UNL     1     183.080 167.183 170.559  1.00  0.00    -0.544 OA
ENDBRANCH   9  14
ENDBRANCH   8   9
ENDBRANCH   1   8
TORSDOF 7
ENDMDL
MODEL 8
REMARK VINA RESULT:    -4.297      2.235      2.672
REMARK INTER + INTRA:          -5.893
REMARK INTER:                  -5.434
REMARK INTRA:                  -0.459
REMARK UNBOUND:                -0.089
REMARK SMILES [NH3+]CCCC[C@H]([NH3+])C(=O)[O-]
REMARK SMILES IDX 4 1 3 2 2 3 1 4 5 8 6 9 7 10 8 14 9 15 10 16
REMARK H PARENT 1 5 1 6 1 7 7 11 7 12 7 13
REMARK Flexibility Score: inf
ROOT
ATOM      1  C   UNL     1     183.176 169.787 174.820  1.00  0.00     0.012 C 
ENDROOT
BRANCH   1   2
ATOM      2  C   UNL     1     181.757 170.231 175.201  1.00  0.00     0.061 C 
BRANCH   2   3
ATOM      3  C   UNL     1     181.051 170.994 174.067  1.00  0.00     0.258 C 
BRANCH   3   4
ATOM      4  N   UNL     1     179.747 170.415 173.739  1.00  0.00    -0.358 N 
ATOM      5  H   UNL     1     179.081 171.162 173.441  1.00  0.00     0.344 HD
ATOM      6  H   UNL     1     179.358 169.952 174.593  1.00  0.00     0.344 HD
ATOM      7  H   UNL     1     179.843 169.699 172.984  1.00  0.00     0.344 HD
ENDBRANCH   3   4
ENDBRANCH   2   3
ENDBRANCH   1   2
BRANCH   1   8
ATOM      8  C   UNL     1     183.165 168.962 173.524  1.00  0.00     0.072 C 
BRANCH   8   9
ATOM      9  C   UNL     1     182.297 167.688 173.634  1.00  0.00     0.227 C 
BRANCH   9  10
ATOM     10  N   UNL     1     183.098 166.515 174.016  1.00  0.00    -0.350 N 
ATOM     11  H   UNL     1     184.093 166.651 173.731  1.00  0.00     0.345 HD
ATOM     12  H   UNL     1     183.082 166.397 175.055  1.00  0.00     0.345 HD
ATOM     13  H   UNL     1     182.723 165.648 173.568  1.00  0.00     0.345 HD
ENDBRANCH   9  10
BRANCH   9  14
ATOM     14  C   UNL     1     181.608 167.435 172.319  1.00  0.00     0.099 C 
ATOM     15  O   UNL     1     180.439 167.862 172.125  1.00  0.00    -0.544 OA
ATOM     16  O   UNL     1     182.264 166.747 171.306  1.00  0.00    -0.544 OA
ENDBRANCH   9  14
ENDBRANCH   8   9
ENDBRANCH   1   8
TORSDOF 7
ENDMDL
MODEL 9
REMARK VINA RESULT:    -4.235     20.196     20.788
REMARK INTER + INTRA:          -5.809
REMARK INTER:                  -5.591
REMARK INTRA:                  -0.218
REMARK UNBOUND:                -0.089
REMARK SMILES [NH3+]CCCC[C@H]([NH3+])C(=O)[O-]
REMARK SMILES IDX 4 1 3 2 2 3 1 4 5 8 6 9 7 10 8 14 9 15 10 16
REMARK H PARENT 1 5 1 6 1 7 7 11 7 12 7 13
REMARK Flexibility Score: inf
ROOT
ATOM      1  C   UNL     1     164.251 179.388 172.406  1.00  0.00     0.012 C 
ENDROOT
BRANCH   1   2
ATOM      2  C   UNL     1     165.308 180.075 171.528  1.00  0.00     0.061 C 
BRANCH   2   3
ATOM      3  C   UNL     1     166.420 180.742 172.355  1.00  0.00     0.258 C 
BRANCH   3   4
ATOM      4  N   UNL     1     166.936 181.953 171.712  1.00  0.00    -0.358 N 
ATOM      5  H   UNL     1     167.816 182.266 172.178  1.00  0.00     0.344 HD
ATOM      6  H   UNL     1     166.225 182.715 171.808  1.00  0.00     0.344 HD
ATOM      7  H   UNL     1     167.109 181.782 170.696  1.00  0.00     0.344 HD
ENDBRANCH   3   4
ENDBRANCH   2   3
ENDBRANCH   1   2
BRANCH   1   8
ATOM      8  C   UNL     1     164.483 179.702 173.892  1.00  0.00     0.072 C 
BRANCH   8   9
ATOM      9  C   UNL     1     164.173 178.499 174.811  1.00  0.00     0.227 C 
BRANCH   9  10
ATOM     10  N   UNL     1     164.200 178.879 176.231  1.00  0.00    -0.350 N 
ATOM     11  H   UNL     1     165.183 178.888 176.583  1.00  0.00     0.345 HD
ATOM     12  H   UNL     1     163.815 179.845 176.349  1.00  0.00     0.345 HD
ATOM     13  H   UNL     1     163.631 178.214 176.804  1.00  0.00     0.345 HD
ENDBRANCH   9  10
BRANCH   9  14
ATOM     14  C   UNL     1     165.170 177.401 174.553  1.00  0.00     0.099 C 
ATOM     15  O   UNL     1     166.391 177.676 174.414  1.00  0.00    -0.544 OA
ATOM     16  O   UNL     1     164.754 176.077 174.488  1.00  0.00    -0.544 OA
ENDBRANCH   9  14
ENDBRANCH   8   9
ENDBRANCH   1   8
TORSDOF 7
ENDMDL
