MODEL 1
REMARK VINA RESULT:    -3.570      0.000      0.000
REMARK INTER + INTRA:          -4.592
REMARK INTER:                  -4.509
REMARK INTRA:                  -0.083
REMARK UNBOUND:                -0.083
REMARK SMILES CCCCCCO
REMARK SMILES IDX 4 1 3 2 2 3 1 4 5 5 6 6 7 7
REMARK H PARENT 7 8
REMARK Flexibility Score: inf
ROOT
ATOM      1  C   UNL     1       2.803  -2.886 -22.599  1.00  0.00     0.002 C 
ENDROOT
BRANCH   1   2
ATOM      2  C   UNL     1       1.677  -2.168 -21.834  1.00  0.00    -0.000 C 
BRANCH   2   3
ATOM      3  C   UNL     1       1.552  -0.684 -22.207  1.00  0.00    -0.003 C 
ATOM      4  C   UNL     1       2.580  -0.295 -23.264  1.00  0.00     0.004 C 
ENDBRANCH   2   3
ENDBRANCH   1   2
BRANCH   1   5
ATOM      5  C   UNL     1       3.629  -3.876 -21.760  1.00  0.00     0.028 C 
BRANCH   5   6
ATOM      6  C   UNL     1       4.132  -5.077 -22.572  1.00  0.00     0.156 C 
BRANCH   6   7
ATOM      7  O   UNL     1       4.820  -5.969 -21.738  1.00  0.00    -0.396 OA
ATOM      8  H   UNL     1       5.789  -5.812 -21.892  1.00  0.00     0.210 HD
ENDBRANCH   6   7
ENDBRANCH   5   6
ENDBRANCH   1   5
TORSDOF 5
ENDMDL
MODEL 2
REMARK VINA RESULT:    -3.524      3.203      4.077
REMARK INTER + INTRA:          -4.534
REMARK INTER:                  -4.452
REMARK INTRA:                  -0.081
REMARK UNBOUND:                -0.083
REMARK SMILES CCCCCCO
REMARK SMILES IDX 4 1 3 2 2 3 1 4 5 5 6 6 7 7
REMARK H PARENT 7 8
REMARK Flexibility Score: inf
ROOT
ATOM      1  C   UNL     1       2.608  -0.154 -22.857  1.00  0.00     0.002 C 
ENDROOT
BRANCH   1   2
ATOM      2  C   UNL     1       2.360   0.425 -24.262  1.00  0.00    -0.000 C 
BRANCH   2   3
ATOM      3  C   UNL     1       3.644   0.549 -25.093  1.00  0.00    -0.003 C 
ATOM      4  C   UNL     1       4.414   1.815 -24.730  1.00  0.00     0.004 C 
ENDBRANCH   2   3
ENDBRANCH   1   2
BRANCH   1   5
ATOM      5  C   UNL     1       2.304  -1.655 -22.711  1.00  0.00     0.028 C 
BRANCH   5   6
ATOM      6  C   UNL     1       1.293  -1.958 -21.598  1.00  0.00     0.156 C 
BRANCH   6   7
ATOM      7  O   UNL     1       0.198  -1.088 -21.691  1.00  0.00    -0.396 OA
ATOM      8  H   UNL     1       0.266  -0.640 -22.575  1.00  0.00     0.210 HD
ENDBRANCH   6   7
ENDBRANCH   5   6
ENDBRANCH   1   5
TORSDOF 5
ENDMDL
MODEL 3
REMARK VINA RESULT:    -3.490      2.465      4.555
REMARK INTER + INTRA:          -4.490
REMARK INTER:                  -4.424
REMARK INTRA:                  -0.066
REMARK UNBOUND:                -0.083
REMARK SMILES CCCCCCO
REMARK SMILES IDX 4 1 3 2 2 3 1 4 5 5 6 6 7 7
REMARK H PARENT 7 8
REMARK Flexibility Score: inf
ROOT
ATOM      1  C   UNL     1       3.690  -3.329 -21.749  1.00  0.00     0.002 C 
ENDROOT
BRANCH   1   2
ATOM      2  C   UNL     1       3.986  -4.836 -21.844  1.00  0.00    -0.000 C 
BRANCH   2   3
ATOM      3  C   UNL     1       4.262  -5.301 -23.281  1.00  0.00    -0.003 C 
ATOM      4  C   UNL     1       3.941  -6.783 -23.450  1.00  0.00     0.004 C 
ENDBRANCH   2   3
ENDBRANCH   1   2
BRANCH   1   5
ATOM      5  C   UNL     1       2.379  -2.881 -22.418  1.00  0.00     0.028 C 
BRANCH   5   6
ATOM      6  C   UNL     1       1.861  -1.538 -21.887  1.00  0.00     0.156 C 
BRANCH   6   7
ATOM      7  O   UNL     1       0.604  -1.708 -21.290  1.00  0.00    -0.396 OA
ATOM      8  H   UNL     1       0.288  -0.802 -21.033  1.00  0.00     0.210 HD
ENDBRANCH   6   7
ENDBRANCH   5   6
ENDBRANCH   1   5
TORSDOF 5
ENDMDL
MODEL 4
REMARK VINA RESULT:    -3.340     10.015     11.169
REMARK INTER + INTRA:          -4.302
REMARK INTER:                  -4.266
REMARK INTRA:                  -0.035
REMARK UNBOUND:                -0.083
REMARK SMILES CCCCCCO
REMARK SMILES IDX 4 1 3 2 2 3 1 4 5 5 6 6 7 7
REMARK H PARENT 7 8
REMARK Flexibility Score: inf
ROOT
ATOM      1  C   UNL     1      -6.283   2.853 -22.322  1.00  0.00     0.002 C 
ENDROOT
BRANCH   1   2
ATOM      2  C   UNL     1      -7.547   2.189 -22.897  1.00  0.00    -0.000 C 
BRANCH   2   3
ATOM      3  C   UNL     1      -7.702   2.406 -24.409  1.00  0.00    -0.003 C 
ATOM      4  C   UNL     1      -8.751   1.466 -24.995  1.00  0.00     0.004 C 
ENDBRANCH   2   3
ENDBRANCH   1   2
BRANCH   1   5
ATOM      5  C   UNL     1      -5.426   1.947 -21.422  1.00  0.00     0.028 C 
BRANCH   5   6
ATOM      6  C   UNL     1      -4.859   2.678 -20.199  1.00  0.00     0.156 C 
BRANCH   6   7
ATOM      7  O   UNL     1      -3.573   3.161 -20.478  1.00  0.00    -0.396 OA
ATOM      8  H   UNL     1      -3.215   3.524 -19.625  1.00  0.00     0.210 HD
ENDBRANCH   6   7
ENDBRANCH   5   6
ENDBRANCH   1   5
TORSDOF 5
ENDMDL
MODEL 5
REMARK VINA RESULT:    -3.258     10.001     11.284
REMARK INTER + INTRA:          -4.197
REMARK INTER:                  -4.120
REMARK INTRA:                  -0.077
REMARK UNBOUND:                -0.083
REMARK SMILES CCCCCCO
REMARK SMILES IDX 4 1 3 2 2 3 1 4 5 5 6 6 7 7
REMARK H PARENT 7 8
REMARK Flexibility Score: inf
ROOT
ATOM      1  C   UNL     1      -6.158   2.784 -22.292  1.00  0.00     0.002 C 
ENDROOT
BRANCH   1   2
ATOM      2  C   UNL     1      -7.408   2.148 -22.925  1.00  0.00    -0.000 C 
BRANCH   2   3
ATOM      3  C   UNL     1      -8.458   3.184 -23.347  1.00  0.00    -0.003 C 
ATOM      4  C   UNL     1      -8.274   4.494 -22.588  1.00  0.00     0.004 C 
ENDBRANCH   2   3
ENDBRANCH   1   2
BRANCH   1   5
ATOM      5  C   UNL     1      -5.395   1.879 -21.309  1.00  0.00     0.028 C 
BRANCH   5   6
ATOM      6  C   UNL     1      -4.800   2.648 -20.122  1.00  0.00     0.156 C 
BRANCH   6   7
ATOM      7  O   UNL     1      -3.620   3.295 -20.509  1.00  0.00    -0.396 OA
ATOM      8  H   UNL     1      -3.855   3.879 -21.278  1.00  0.00     0.210 HD
ENDBRANCH   6   7
ENDBRANCH   5   6
ENDBRANCH   1   5
TORSDOF 5
ENDMDL
MODEL 6
REMARK VINA RESULT:    -3.189      4.335      5.881
REMARK INTER + INTRA:          -4.110
REMARK INTER:                  -4.056
REMARK INTRA:                  -0.054
REMARK UNBOUND:                -0.083
REMARK SMILES CCCCCCO
REMARK SMILES IDX 4 1 3 2 2 3 1 4 5 5 6 6 7 7
REMARK H PARENT 7 8
REMARK Flexibility Score: inf
ROOT
ATOM      1  C   UNL     1       1.181   0.311 -23.101  1.00  0.00     0.002 C 
ENDROOT
BRANCH   1   2
ATOM      2  C   UNL     1       2.040  -0.461 -22.084  1.00  0.00    -0.000 C 
BRANCH   2   3
ATOM      3  C   UNL     1       1.574  -1.910 -21.885  1.00  0.00    -0.003 C 
ATOM      4  C   UNL     1       2.727  -2.890 -22.077  1.00  0.00     0.004 C 
ENDBRANCH   2   3
ENDBRANCH   1   2
BRANCH   1   5
ATOM      5  C   UNL     1      -0.323   0.353 -22.781  1.00  0.00     0.028 C 
BRANCH   5   6
ATOM      6  C   UNL     1      -1.065   1.468 -23.529  1.00  0.00     0.156 C 
BRANCH   6   7
ATOM      7  O   UNL     1      -1.265   2.567 -22.682  1.00  0.00    -0.396 OA
ATOM      8  H   UNL     1      -0.687   2.421 -21.887  1.00  0.00     0.210 HD
ENDBRANCH   6   7
ENDBRANCH   5   6
ENDBRANCH   1   5
TORSDOF 5
ENDMDL
MODEL 7
REMARK VINA RESULT:    -3.180      9.253      9.909
REMARK INTER + INTRA:          -4.099
REMARK INTER:                  -4.064
REMARK INTRA:                  -0.035
REMARK UNBOUND:                -0.083
REMARK SMILES CCCCCCO
REMARK SMILES IDX 4 1 3 2 2 3 1 4 5 5 6 6 7 7
REMARK H PARENT 7 8
REMARK Flexibility Score: inf
ROOT
ATOM      1  C   UNL     1      -2.791   4.186 -23.552  1.00  0.00     0.002 C 
ENDROOT
BRANCH   1   2
ATOM      2  C   UNL     1      -3.157   3.167 -22.458  1.00  0.00    -0.000 C 
BRANCH   2   3
ATOM      3  C   UNL     1      -4.557   3.396 -21.873  1.00  0.00    -0.003 C 
ATOM      4  C   UNL     1      -5.157   2.091 -21.357  1.00  0.00     0.004 C 
ENDBRANCH   2   3
ENDBRANCH   1   2
BRANCH   1   5
ATOM      5  C   UNL     1      -1.282   4.393 -23.769  1.00  0.00     0.028 C 
BRANCH   5   6
ATOM      6  C   UNL     1      -0.902   5.862 -23.995  1.00  0.00     0.156 C 
BRANCH   6   7
ATOM      7  O   UNL     1      -0.643   6.488 -22.768  1.00  0.00    -0.396 OA
ATOM      8  H   UNL     1      -1.251   7.271 -22.715  1.00  0.00     0.210 HD
ENDBRANCH   6   7
ENDBRANCH   5   6
ENDBRANCH   1   5
TORSDOF 5
ENDMDL
MODEL 8
REMARK VINA RESULT:    -3.109      3.534      4.923
REMARK INTER + INTRA:          -4.010
REMARK INTER:                  -3.960
REMARK INTRA:                  -0.050
REMARK UNBOUND:                -0.083
REMARK SMILES CCCCCCO
REMARK SMILES IDX 4 1 3 2 2 3 1 4 5 5 6 6 7 7
REMARK H PARENT 7 8
REMARK Flexibility Score: inf
ROOT
ATOM      1  C   UNL     1       2.503   0.340 -22.912  1.00  0.00     0.002 C 
ENDROOT
BRANCH   1   2
ATOM      2  C   UNL     1       1.238  -0.488 -22.622  1.00  0.00    -0.000 C 
BRANCH   2   3
ATOM      3  C   UNL     1       1.488  -1.636 -21.635  1.00  0.00    -0.003 C 
ATOM      4  C   UNL     1       2.425  -2.681 -22.233  1.00  0.00     0.004 C 
ENDBRANCH   2   3
ENDBRANCH   1   2
BRANCH   1   5
ATOM      5  C   UNL     1       3.078   0.173 -24.329  1.00  0.00     0.028 C 
BRANCH   5   6
ATOM      6  C   UNL     1       3.353   1.511 -25.027  1.00  0.00     0.156 C 
BRANCH   6   7
ATOM      7  O   UNL     1       4.348   2.219 -24.339  1.00  0.00    -0.396 OA
ATOM      8  H   UNL     1       4.977   2.565 -25.026  1.00  0.00     0.210 HD
ENDBRANCH   6   7
ENDBRANCH   5   6
ENDBRANCH   1   5
TORSDOF 5
ENDMDL
