MODEL 1
REMARK VINA RESULT:    -2.941      0.000      0.000
REMARK INTER + INTRA:          -4.727
REMARK INTER:                  -4.488
REMARK INTRA:                  -0.239
REMARK UNBOUND:                -0.239
REMARK SMILES CC1=CCC[C@H](C)C(=O)C[C@H](C(C)C)C(=O)C1
REMARK SMILES IDX 8 1 9 2 6 3 7 4 5 5 4 6 3 7 2 8 1 9 10 11 11 12 15 13 16 14
REMARK SMILES IDX 17 15 12 17 13 18 14 19
REMARK H PARENT
REMARK Flexibility Score: 70.00
ROOT
ATOM      1  C   UNL     1       5.886   1.095  -6.480  1.00  0.00     0.136 C 
ATOM      2  O   UNL     1       5.272   1.451  -5.482  1.00  0.00    -0.299 OA
ENDROOT
BRANCH   1   3
ATOM      3  C   UNL     1       6.529  -0.296  -6.512  1.00  0.00     0.053 C 
ATOM      4  C   UNL     1       6.905  -0.759  -5.093  1.00  0.00     0.016 C 
BRANCH   3   5
ATOM      5  C   UNL     1       5.625  -1.372  -7.181  1.00  0.00     0.015 C 
BRANCH   5   6
ATOM      6  C   UNL     1       5.892  -1.653  -8.676  1.00  0.00     0.028 C 
BRANCH   6   7
ATOM      7  C   UNL     1       7.358  -1.561  -9.033  1.00  0.00    -0.028 C 
ATOM      8  C   UNL     1       7.954  -0.482  -9.592  1.00  0.00    -0.070 CG0
ATOM      9  C   UNL     1       9.442  -0.535  -9.823  1.00  0.00     0.039 C 
ATOM     10  G   UNL     1       7.192   0.770  -9.998  1.00  0.00     0.000 G0
ENDBRANCH   6   7
ENDBRANCH   5   6
ENDBRANCH   3   5
ENDBRANCH   1   3
BRANCH   1  11
ATOM     11  C   UNL     1       5.916   2.049  -7.656  1.00  0.00     0.087 C 
BRANCH  11  12
ATOM     12  C   UNL     1       7.333   2.594  -8.005  1.00  0.00     0.066 C 
BRANCH  12  13
ATOM     13  C   UNL     1       7.716   2.094  -9.392  1.00  0.00     0.140 C 
ATOM     14  O   UNL     1       8.472   2.775 -10.069  1.00  0.00    -0.299 OA
BRANCH  13  15
ATOM     15  C   UNL     1       7.199   0.802  -9.999  1.00  0.00     0.106 CG0
ATOM     16  G   UNL     1       7.953  -0.457  -9.597  1.00  0.00     0.000 G0
ENDBRANCH  13  15
ENDBRANCH  12  13
BRANCH  12  17
ATOM     17  C   UNL     1       7.414   4.150  -7.924  1.00  0.00    -0.006 C 
ATOM     18  C   UNL     1       8.371   4.601  -6.805  1.00  0.00     0.008 C 
ATOM     19  C   UNL     1       6.030   4.774  -7.677  1.00  0.00     0.008 C 
ENDBRANCH  12  17
ENDBRANCH  11  12
ENDBRANCH   1  11
TORSDOF 1
ENDMDL
MODEL 2
REMARK VINA RESULT:    -2.805      2.170      3.159
REMARK INTER + INTRA:          -4.519
REMARK INTER:                  -4.295
REMARK INTRA:                  -0.224
REMARK UNBOUND:                -0.239
REMARK SMILES CC1=CCC[C@H](C)C(=O)C[C@H](C(C)C)C(=O)C1
REMARK SMILES IDX 8 1 9 2 6 3 7 4 5 5 4 6 3 7 2 8 1 9 10 11 11 12 15 13 16 14
REMARK SMILES IDX 17 15 12 17 13 18 14 19
REMARK H PARENT
REMARK Flexibility Score: 70.00
ROOT
ATOM      1  C   UNL     1       6.294   0.069  -7.441  1.00  0.00     0.136 C 
ATOM      2  O   UNL     1       6.175  -0.901  -8.178  1.00  0.00    -0.299 OA
ENDROOT
BRANCH   1   3
ATOM      3  C   UNL     1       7.184  -0.033  -6.198  1.00  0.00     0.053 C 
ATOM      4  C   UNL     1       6.515  -0.899  -5.115  1.00  0.00     0.016 C 
BRANCH   3   5
ATOM      5  C   UNL     1       8.601  -0.601  -6.505  1.00  0.00     0.015 C 
BRANCH   5   6
ATOM      6  C   UNL     1       9.543   0.318  -7.312  1.00  0.00     0.028 C 
BRANCH   6   7
ATOM      7  C   UNL     1       9.772   1.652  -6.639  1.00  0.00    -0.028 C 
ATOM      8  C   UNL     1       9.366   2.848  -7.126  1.00  0.00    -0.070 CG0
ATOM      9  C   UNL     1       9.619   4.077  -6.293  1.00  0.00     0.039 C 
ATOM     10  G   UNL     1       8.673   3.003  -8.472  1.00  0.00     0.000 G0
ENDBRANCH   6   7
ENDBRANCH   5   6
ENDBRANCH   3   5
ENDBRANCH   1   3
BRANCH   1  11
ATOM     11  C   UNL     1       5.587   1.345  -7.851  1.00  0.00     0.087 C 
BRANCH  11  12
ATOM     12  C   UNL     1       6.263   2.649  -7.330  1.00  0.00     0.066 C 
BRANCH  12  13
ATOM     13  C   UNL     1       7.166   3.197  -8.427  1.00  0.00     0.140 C 
ATOM     14  O   UNL     1       6.656   3.832  -9.339  1.00  0.00    -0.299 OA
BRANCH  13  15
ATOM     15  C   UNL     1       8.669   2.988  -8.471  1.00  0.00     0.106 CG0
ATOM     16  G   UNL     1       9.351   2.858  -7.118  1.00  0.00     0.000 G0
ENDBRANCH  13  15
ENDBRANCH  12  13
BRANCH  12  17
ATOM     17  C   UNL     1       5.226   3.718  -6.865  1.00  0.00    -0.006 C 
ATOM     18  C   UNL     1       5.924   4.931  -6.224  1.00  0.00     0.008 C 
ATOM     19  C   UNL     1       4.224   3.129  -5.857  1.00  0.00     0.008 C 
ENDBRANCH  12  17
ENDBRANCH  11  12
ENDBRANCH   1  11
TORSDOF 1
ENDMDL
MODEL 3
REMARK VINA RESULT:    -2.798      2.079      4.467
REMARK INTER + INTRA:          -4.509
REMARK INTER:                  -4.370
REMARK INTRA:                  -0.139
REMARK UNBOUND:                -0.239
REMARK SMILES CC1=CCC[C@H](C)C(=O)C[C@H](C(C)C)C(=O)C1
REMARK SMILES IDX 8 1 9 2 6 3 7 4 5 5 4 6 3 7 2 8 1 9 10 11 11 12 15 13 16 14
REMARK SMILES IDX 17 15 12 17 13 18 14 19
REMARK H PARENT
REMARK Flexibility Score: 70.00
ROOT
ATOM      1  C   UNL     1       5.278   2.211  -6.377  1.00  0.00     0.136 C 
ATOM      2  O   UNL     1       4.376   2.573  -5.633  1.00  0.00    -0.299 OA
ENDROOT
BRANCH   1   3
ATOM      3  C   UNL     1       5.698   3.110  -7.545  1.00  0.00     0.053 C 
ATOM      4  C   UNL     1       4.514   3.363  -8.495  1.00  0.00     0.016 C 
BRANCH   3   5
ATOM      5  C   UNL     1       6.287   4.475  -7.085  1.00  0.00     0.015 C 
BRANCH   5   6
ATOM      6  C   UNL     1       7.827   4.592  -7.100  1.00  0.00     0.028 C 
BRANCH   6   7
ATOM      7  C   UNL     1       8.460   3.805  -8.224  1.00  0.00    -0.028 C 
ATOM      8  C   UNL     1       9.066   2.602  -8.084  1.00  0.00    -0.070 CG0
ATOM      9  C   UNL     1       9.588   1.923  -9.323  1.00  0.00     0.039 C 
ATOM     10  G   UNL     1       9.245   1.915  -6.739  1.00  0.00     0.000 G0
ENDBRANCH   6   7
ENDBRANCH   5   6
ENDBRANCH   3   5
ENDBRANCH   1   3
BRANCH   1  11
ATOM     11  C   UNL     1       5.969   0.903  -6.049  1.00  0.00     0.087 C 
BRANCH  11  12
ATOM     12  C   UNL     1       7.032   0.457  -7.097  1.00  0.00     0.066 C 
BRANCH  12  13
ATOM     13  C   UNL     1       8.418   0.671  -6.504  1.00  0.00     0.140 C 
ATOM     14  O   UNL     1       8.887  -0.203  -5.789  1.00  0.00    -0.299 OA
BRANCH  13  15
ATOM     15  C   UNL     1       9.252   1.918  -6.729  1.00  0.00     0.106 CG0
ATOM     16  G   UNL     1       9.058   2.601  -8.075  1.00  0.00     0.000 G0
ENDBRANCH  13  15
ENDBRANCH  12  13
BRANCH  12  17
ATOM     17  C   UNL     1       6.836  -1.021  -7.558  1.00  0.00    -0.006 C 
ATOM     18  C   UNL     1       7.576  -1.297  -8.880  1.00  0.00     0.008 C 
ATOM     19  C   UNL     1       5.346  -1.362  -7.739  1.00  0.00     0.008 C 
ENDBRANCH  12  17
ENDBRANCH  11  12
ENDBRANCH   1  11
TORSDOF 1
ENDMDL
MODEL 4
REMARK VINA RESULT:    -2.737      2.006      3.399
REMARK INTER + INTRA:          -4.415
REMARK INTER:                  -4.426
REMARK INTRA:                   0.011
REMARK UNBOUND:                -0.239
REMARK SMILES CC1=CCC[C@H](C)C(=O)C[C@H](C(C)C)C(=O)C1
REMARK SMILES IDX 8 1 9 2 6 3 7 4 5 5 4 6 3 7 2 8 1 9 10 11 11 12 15 13 16 14
REMARK SMILES IDX 17 15 12 17 13 18 14 19
REMARK H PARENT
REMARK Flexibility Score: 70.00
ROOT
ATOM      1  C   UNL     1       6.793   0.040  -5.999  1.00  0.00     0.136 C 
ATOM      2  O   UNL     1       6.380  -0.111  -4.857  1.00  0.00    -0.299 OA
ENDROOT
BRANCH   1   3
ATOM      3  C   UNL     1       8.175  -0.502  -6.379  1.00  0.00     0.053 C 
ATOM      4  C   UNL     1       8.241  -0.832  -7.881  1.00  0.00     0.016 C 
BRANCH   3   5
ATOM      5  C   UNL     1       9.335   0.471  -6.016  1.00  0.00     0.015 C 
BRANCH   5   6
ATOM      6  C   UNL     1       9.952   1.263  -7.191  1.00  0.00     0.028 C 
BRANCH   6   7
ATOM      7  C   UNL     1       9.730   2.753  -7.068  1.00  0.00    -0.028 C 
ATOM      8  C   UNL     1       8.901   3.481  -7.852  1.00  0.00    -0.070 CG0
ATOM      9  C   UNL     1       8.747   4.950  -7.551  1.00  0.00     0.039 C 
ATOM     10  G   UNL     1       8.126   2.886  -9.019  1.00  0.00     0.000 G0
ENDBRANCH   6   7
ENDBRANCH   5   6
ENDBRANCH   3   5
ENDBRANCH   1   3
BRANCH   1  11
ATOM     11  C   UNL     1       5.866   0.713  -6.991  1.00  0.00     0.087 C 
BRANCH  11  12
ATOM     12  C   UNL     1       6.195   2.212  -7.264  1.00  0.00     0.066 C 
BRANCH  12  13
ATOM     13  C   UNL     1       6.745   2.337  -8.678  1.00  0.00     0.140 C 
ATOM     14  O   UNL     1       6.051   1.954  -9.609  1.00  0.00    -0.299 OA
BRANCH  13  15
ATOM     15  C   UNL     1       8.118   2.893  -9.007  1.00  0.00     0.106 CG0
ATOM     16  G   UNL     1       8.879   3.494  -7.834  1.00  0.00     0.000 G0
ENDBRANCH  13  15
ENDBRANCH  12  13
BRANCH  12  17
ATOM     17  C   UNL     1       4.963   3.144  -7.052  1.00  0.00    -0.006 C 
ATOM     18  C   UNL     1       5.334   4.621  -7.282  1.00  0.00     0.008 C 
ATOM     19  C   UNL     1       4.378   2.992  -5.636  1.00  0.00     0.008 C 
ENDBRANCH  12  17
ENDBRANCH  11  12
ENDBRANCH   1  11
TORSDOF 1
ENDMDL
MODEL 5
REMARK VINA RESULT:    -2.718      1.651      2.005
REMARK INTER + INTRA:          -4.387
REMARK INTER:                  -4.601
REMARK INTRA:                   0.214
REMARK UNBOUND:                -0.239
REMARK SMILES CC1=CCC[C@H](C)C(=O)C[C@H](C(C)C)C(=O)C1
REMARK SMILES IDX 8 1 9 2 6 3 7 4 5 5 4 6 3 7 2 8 1 9 10 11 11 12 15 13 16 14
REMARK SMILES IDX 17 15 12 17 13 18 14 19
REMARK H PARENT
REMARK Flexibility Score: 70.00
ROOT
ATOM      1  C   UNL     1       5.908   0.233  -6.587  1.00  0.00     0.136 C 
ATOM      2  O   UNL     1       5.282  -0.528  -7.313  1.00  0.00    -0.299 OA
ENDROOT
BRANCH   1   3
ATOM      3  C   UNL     1       6.913  -0.341  -5.582  1.00  0.00     0.053 C 
ATOM      4  C   UNL     1       6.758  -1.868  -5.463  1.00  0.00     0.016 C 
BRANCH   3   5
ATOM      5  C   UNL     1       8.391  -0.001  -5.933  1.00  0.00     0.015 C 
BRANCH   5   6
ATOM      6  C   UNL     1       8.919  -0.562  -7.272  1.00  0.00     0.028 C 
BRANCH   6   7
ATOM      7  C   UNL     1       9.667   0.473  -8.081  1.00  0.00    -0.028 C 
ATOM      8  C   UNL     1       9.158   1.151  -9.136  1.00  0.00    -0.070 CG0
ATOM      9  C   UNL     1      10.021   2.197  -9.791  1.00  0.00     0.039 C 
ATOM     10  G   UNL     1       7.762   0.899  -9.688  1.00  0.00     0.000 G0
ENDBRANCH   6   7
ENDBRANCH   5   6
ENDBRANCH   3   5
ENDBRANCH   1   3
BRANCH   1  11
ATOM     11  C   UNL     1       5.686   1.719  -6.779  1.00  0.00     0.087 C 
BRANCH  11  12
ATOM     12  C   UNL     1       6.713   2.405  -7.729  1.00  0.00     0.066 C 
BRANCH  12  13
ATOM     13  C   UNL     1       6.631   1.736  -9.095  1.00  0.00     0.140 C 
ATOM     14  O   UNL     1       5.599   1.854  -9.740  1.00  0.00    -0.299 OA
BRANCH  13  15
ATOM     15  C   UNL     1       7.749   0.910  -9.703  1.00  0.00     0.106 CG0
ATOM     16  G   UNL     1       9.135   1.162  -9.129  1.00  0.00     0.000 G0
ENDBRANCH  13  15
ENDBRANCH  12  13
BRANCH  12  17
ATOM     17  C   UNL     1       6.492   3.945  -7.840  1.00  0.00    -0.006 C 
ATOM     18  C   UNL     1       7.474   4.716  -6.938  1.00  0.00     0.008 C 
ATOM     19  C   UNL     1       5.053   4.337  -7.460  1.00  0.00     0.008 C 
ENDBRANCH  12  17
ENDBRANCH  11  12
ENDBRANCH   1  11
TORSDOF 1
ENDMDL
MODEL 6
REMARK VINA RESULT:    -2.683      2.425      5.250
REMARK INTER + INTRA:          -4.333
REMARK INTER:                  -4.414
REMARK INTRA:                   0.081
REMARK UNBOUND:                -0.239
REMARK SMILES CC1=CCC[C@H](C)C(=O)C[C@H](C(C)C)C(=O)C1
REMARK SMILES IDX 8 1 9 2 6 3 7 4 5 5 4 6 3 7 2 8 1 9 10 11 11 12 15 13 16 14
REMARK SMILES IDX 17 15 12 17 13 18 14 19
REMARK H PARENT
REMARK Flexibility Score: 70.00
ROOT
ATOM      1  C   UNL     1       8.928   3.057  -7.031  1.00  0.00     0.136 C 
ATOM      2  O   UNL     1      10.040   2.787  -6.595  1.00  0.00    -0.299 OA
ENDROOT
BRANCH   1   3
ATOM      3  C   UNL     1       8.337   4.449  -6.778  1.00  0.00     0.053 C 
ATOM      4  C   UNL     1       9.380   5.378  -6.132  1.00  0.00     0.016 C 
BRANCH   3   5
ATOM      5  C   UNL     1       7.782   5.120  -8.068  1.00  0.00     0.015 C 
BRANCH   5   6
ATOM      6  C   UNL     1       6.281   5.485  -8.055  1.00  0.00     0.028 C 
BRANCH   6   7
ATOM      7  C   UNL     1       5.541   4.859  -6.895  1.00  0.00    -0.028 C 
ATOM      8  C   UNL     1       4.984   3.625  -6.905  1.00  0.00    -0.070 CG0
ATOM      9  C   UNL     1       4.337   3.129  -5.638  1.00  0.00     0.039 C 
ATOM     10  G   UNL     1       4.978   2.727  -8.133  1.00  0.00     0.000 G0
ENDBRANCH   6   7
ENDBRANCH   5   6
ENDBRANCH   3   5
ENDBRANCH   1   3
BRANCH   1  11
ATOM     11  C   UNL     1       8.227   1.997  -7.855  1.00  0.00     0.087 C 
BRANCH  11  12
ATOM     12  C   UNL     1       7.035   1.303  -7.130  1.00  0.00     0.066 C 
BRANCH  12  13
ATOM     13  C   UNL     1       5.793   1.441  -8.000  1.00  0.00     0.140 C 
ATOM     14  O   UNL     1       5.428   0.475  -8.654  1.00  0.00    -0.299 OA
BRANCH  13  15
ATOM     15  C   UNL     1       4.982   2.719  -8.123  1.00  0.00     0.106 CG0
ATOM     16  G   UNL     1       5.003   3.626  -6.902  1.00  0.00     0.000 G0
ENDBRANCH  13  15
ENDBRANCH  12  13
BRANCH  12  17
ATOM     17  C   UNL     1       7.326  -0.193  -6.795  1.00  0.00    -0.006 C 
ATOM     18  C   UNL     1       6.650  -0.611  -5.476  1.00  0.00     0.008 C 
ATOM     19  C   UNL     1       8.838  -0.462  -6.687  1.00  0.00     0.008 C 
ENDBRANCH  12  17
ENDBRANCH  11  12
ENDBRANCH   1  11
TORSDOF 1
ENDMDL
MODEL 7
REMARK VINA RESULT:    -2.674      2.169      3.038
REMARK INTER + INTRA:          -4.319
REMARK INTER:                  -4.128
REMARK INTRA:                  -0.191
REMARK UNBOUND:                -0.239
REMARK SMILES CC1=CCC[C@H](C)C(=O)C[C@H](C(C)C)C(=O)C1
REMARK SMILES IDX 8 1 9 2 6 3 7 4 5 5 4 6 3 7 2 8 1 9 10 11 11 12 15 13 16 14
REMARK SMILES IDX 17 15 12 17 13 18 14 19
REMARK H PARENT
REMARK Flexibility Score: 70.00
ROOT
ATOM      1  C   UNL     1       5.784  -0.375  -9.462  1.00  0.00     0.136 C 
ATOM      2  O   UNL     1       6.754  -0.929  -9.964  1.00  0.00    -0.299 OA
ENDROOT
BRANCH   1   3
ATOM      3  C   UNL     1       4.876  -1.161  -8.510  1.00  0.00     0.053 C 
ATOM      4  C   UNL     1       4.199  -2.333  -9.242  1.00  0.00     0.016 C 
BRANCH   3   5
ATOM      5  C   UNL     1       5.625  -1.703  -7.258  1.00  0.00     0.015 C 
BRANCH   5   6
ATOM      6  C   UNL     1       6.306  -0.645  -6.361  1.00  0.00     0.028 C 
BRANCH   6   7
ATOM      7  C   UNL     1       7.813  -0.656  -6.490  1.00  0.00    -0.028 C 
ATOM      8  C   UNL     1       8.580   0.435  -6.719  1.00  0.00    -0.070 CG0
ATOM      9  C   UNL     1      10.076   0.256  -6.754  1.00  0.00     0.039 C 
ATOM     10  G   UNL     1       8.001   1.823  -6.945  1.00  0.00     0.000 G0
ENDBRANCH   6   7
ENDBRANCH   5   6
ENDBRANCH   3   5
ENDBRANCH   1   3
BRANCH   1  11
ATOM     11  C   UNL     1       5.582   1.093  -9.776  1.00  0.00     0.087 C 
BRANCH  11  12
ATOM     12  C   UNL     1       5.869   2.052  -8.581  1.00  0.00     0.066 C 
BRANCH  12  13
ATOM     13  C   UNL     1       7.368   2.054  -8.312  1.00  0.00     0.140 C 
ATOM     14  O   UNL     1       8.129   2.229  -9.253  1.00  0.00    -0.299 OA
BRANCH  13  15
ATOM     15  C   UNL     1       7.984   1.830  -6.943  1.00  0.00     0.106 CG0
ATOM     16  G   UNL     1       8.594   0.455  -6.716  1.00  0.00     0.000 G0
ENDBRANCH  13  15
ENDBRANCH  12  13
BRANCH  12  17
ATOM     17  C   UNL     1       5.338   3.497  -8.830  1.00  0.00    -0.006 C 
ATOM     18  C   UNL     1       5.217   4.283  -7.512  1.00  0.00     0.008 C 
ATOM     19  C   UNL     1       3.967   3.481  -9.528  1.00  0.00     0.008 C 
ENDBRANCH  12  17
ENDBRANCH  11  12
ENDBRANCH   1  11
TORSDOF 1
ENDMDL
MODEL 8
REMARK VINA RESULT:    -2.672      1.926      2.572
REMARK INTER + INTRA:          -4.316
REMARK INTER:                  -3.822
REMARK INTRA:                  -0.493
REMARK UNBOUND:                -0.239
REMARK SMILES CC1=CCC[C@H](C)C(=O)C[C@H](C(C)C)C(=O)C1
REMARK SMILES IDX 8 1 9 2 6 3 7 4 5 5 4 6 3 7 2 8 1 9 10 11 11 12 15 13 16 14
REMARK SMILES IDX 17 15 12 17 13 18 14 19
REMARK H PARENT
REMARK Flexibility Score: 70.00
ROOT
ATOM      1  C   UNL     1       5.728   2.541  -7.853  1.00  0.00     0.136 C 
ATOM      2  O   UNL     1       4.744   2.383  -8.565  1.00  0.00    -0.299 OA
ENDROOT
BRANCH   1   3
ATOM      3  C   UNL     1       5.660   2.146  -6.374  1.00  0.00     0.053 C 
ATOM      4  C   UNL     1       4.435   2.782  -5.693  1.00  0.00     0.016 C 
BRANCH   3   5
ATOM      5  C   UNL     1       5.626   0.605  -6.154  1.00  0.00     0.015 C 
BRANCH   5   6
ATOM      6  C   UNL     1       6.973  -0.063  -5.805  1.00  0.00     0.028 C 
BRANCH   6   7
ATOM      7  C   UNL     1       7.692  -0.595  -7.024  1.00  0.00    -0.028 C 
ATOM      8  C   UNL     1       8.833  -0.079  -7.539  1.00  0.00    -0.070 CG0
ATOM      9  C   UNL     1       9.454  -0.773  -8.723  1.00  0.00     0.039 C 
ATOM     10  G   UNL     1       9.506   1.166  -6.981  1.00  0.00     0.000 G0
ENDBRANCH   6   7
ENDBRANCH   5   6
ENDBRANCH   3   5
ENDBRANCH   1   3
BRANCH   1  11
ATOM     11  C   UNL     1       6.985   3.071  -8.512  1.00  0.00     0.087 C 
BRANCH  11  12
ATOM     12  C   UNL     1       8.140   3.402  -7.519  1.00  0.00     0.066 C 
BRANCH  12  13
ATOM     13  C   UNL     1       9.295   2.446  -7.783  1.00  0.00     0.140 C 
ATOM     14  O   UNL     1      10.074   2.709  -8.689  1.00  0.00    -0.299 OA
BRANCH  13  15
ATOM     15  C   UNL     1       9.533   1.167  -7.002  1.00  0.00     0.106 CG0
ATOM     16  G   UNL     1       8.814  -0.066  -7.530  1.00  0.00     0.000 G0
ENDBRANCH  13  15
ENDBRANCH  12  13
BRANCH  12  17
ATOM     17  C   UNL     1       8.604   4.888  -7.612  1.00  0.00    -0.006 C 
ATOM     18  C   UNL     1       8.438   5.611  -6.263  1.00  0.00     0.008 C 
ATOM     19  C   UNL     1       7.817   5.657  -8.689  1.00  0.00     0.008 C 
ENDBRANCH  12  17
ENDBRANCH  11  12
ENDBRANCH   1  11
TORSDOF 1
ENDMDL
MODEL 9
REMARK VINA RESULT:    -2.457      1.753      2.533
REMARK INTER + INTRA:          -3.988
REMARK INTER:                  -3.766
REMARK INTRA:                  -0.222
REMARK UNBOUND:                -0.239
REMARK SMILES CC1=CCC[C@H](C)C(=O)C[C@H](C(C)C)C(=O)C1
REMARK SMILES IDX 8 1 9 2 6 3 7 4 5 5 4 6 3 7 2 8 1 9 10 11 11 12 15 13 16 14
REMARK SMILES IDX 17 15 12 17 13 18 14 19
REMARK H PARENT
REMARK Flexibility Score: 70.00
ROOT
ATOM      1  C   UNL     1       5.561   1.419  -6.885  1.00  0.00     0.136 C 
ATOM      2  O   UNL     1       5.277   2.149  -5.944  1.00  0.00    -0.299 OA
ENDROOT
BRANCH   1   3
ATOM      3  C   UNL     1       5.660  -0.094  -6.660  1.00  0.00     0.053 C 
ATOM      4  C   UNL     1       5.936  -0.828  -7.985  1.00  0.00     0.016 C 
BRANCH   3   5
ATOM      5  C   UNL     1       6.750  -0.488  -5.620  1.00  0.00     0.015 C 
BRANCH   5   6
ATOM      6  C   UNL     1       8.188  -0.633  -6.162  1.00  0.00     0.028 C 
BRANCH   6   7
ATOM      7  C   UNL     1       9.027   0.601  -5.924  1.00  0.00    -0.028 C 
ATOM      8  C   UNL     1       9.290   1.552  -6.851  1.00  0.00    -0.070 CG0
ATOM      9  C   UNL     1      10.093   2.754  -6.427  1.00  0.00     0.039 C 
ATOM     10  G   UNL     1       8.817   1.456  -8.294  1.00  0.00     0.000 G0
ENDBRANCH   6   7
ENDBRANCH   5   6
ENDBRANCH   3   5
ENDBRANCH   1   3
BRANCH   1  11
ATOM     11  C   UNL     1       5.740   2.068  -8.241  1.00  0.00     0.087 C 
BRANCH  11  12
ATOM     12  C   UNL     1       6.780   3.229  -8.267  1.00  0.00     0.066 C 
BRANCH  12  13
ATOM     13  C   UNL     1       8.086   2.697  -8.842  1.00  0.00     0.140 C 
ATOM     14  O   UNL     1       8.578   3.274  -9.801  1.00  0.00    -0.299 OA
BRANCH  13  15
ATOM     15  C   UNL     1       8.811   1.474  -8.309  1.00  0.00     0.106 CG0
ATOM     16  G   UNL     1       9.287   1.573  -6.868  1.00  0.00     0.000 G0
ENDBRANCH  13  15
ENDBRANCH  12  13
BRANCH  12  17
ATOM     17  C   UNL     1       6.275   4.469  -9.065  1.00  0.00    -0.006 C 
ATOM     18  C   UNL     1       6.882   5.773  -8.514  1.00  0.00     0.008 C 
ATOM     19  C   UNL     1       4.740   4.578  -9.026  1.00  0.00     0.008 C 
ENDBRANCH  12  17
ENDBRANCH  11  12
ENDBRANCH   1  11
TORSDOF 1
ENDMDL
