MODEL 1
REMARK VINA RESULT:    -2.884      0.000      0.000
REMARK INTER + INTRA:          -4.321
REMARK INTER:                  -3.559
REMARK INTRA:                  -0.762
REMARK UNBOUND:                -0.762
REMARK SMILES CC(C)=CCC[C@H](C)c1ccc(C)cc1
REMARK SMILES IDX 6 1 7 2 8 3 9 4 13 5 12 6 11 7 14 8 10 9 15 10 5 11 4 12
REMARK SMILES IDX 2 13 1 14 3 15
REMARK H PARENT
REMARK Flexibility Score: inf
ROOT
ATOM      1  C   UNL     1     111.110 111.209 107.580  1.00  0.00     0.012 C 
ENDROOT
BRANCH   1   2
ATOM      2  C   UNL     1     109.593 110.954 107.765  1.00  0.00     0.016 C 
ATOM      3  C   UNL     1     108.750 112.209 107.490  1.00  0.00     0.013 C 
BRANCH   2   4
ATOM      4  C   UNL     1     109.318 110.425 109.161  1.00  0.00    -0.045 A 
ATOM      5  C   UNL     1     108.549 108.889 113.125  1.00  0.00     0.044 C 
ATOM      6  C   UNL     1     108.844 109.432 111.758  1.00  0.00    -0.051 A 
ATOM      7  C   UNL     1     108.469 110.741 111.422  1.00  0.00     0.004 A 
ATOM      8  C   UNL     1     109.435 108.615 110.785  1.00  0.00     0.004 A 
ATOM      9  C   UNL     1     108.712 111.237 110.138  1.00  0.00     0.004 A 
ATOM     10  C   UNL     1     109.678 109.109 109.500  1.00  0.00     0.004 A 
ENDBRANCH   2   4
ENDBRANCH   1   2
BRANCH   1  11
ATOM     11  C   UNL     1     111.948 110.990 108.852  1.00  0.00     0.028 C 
BRANCH  11  12
ATOM     12  C   UNL     1     111.983 112.214 109.736  1.00  0.00    -0.028 C 
ATOM     13  C   UNL     1     112.060 112.187 111.085  1.00  0.00    -0.080 C 
ATOM     14  C   UNL     1     112.062 110.892 111.862  1.00  0.00     0.039 C 
ATOM     15  C   UNL     1     112.124 113.497 111.826  1.00  0.00     0.039 C 
ENDBRANCH  11  12
ENDBRANCH   1  11
TORSDOF 4
ENDMDL
MODEL 2
REMARK VINA RESULT:    -2.703      1.120      3.863
REMARK INTER + INTRA:          -4.097
REMARK INTER:                  -2.556
REMARK INTRA:                  -1.541
REMARK UNBOUND:                -0.762
REMARK SMILES CC(C)=CCC[C@H](C)c1ccc(C)cc1
REMARK SMILES IDX 6 1 7 2 8 3 9 4 13 5 12 6 11 7 14 8 10 9 15 10 5 11 4 12
REMARK SMILES IDX 2 13 1 14 3 15
REMARK H PARENT
REMARK Flexibility Score: inf
ROOT
ATOM      1  C   UNL     1     108.092 110.478 111.948  1.00  0.00     0.012 C 
ENDROOT
BRANCH   1   2
ATOM      2  C   UNL     1     108.492 109.376 110.935  1.00  0.00     0.016 C 
ATOM      3  C   UNL     1     109.343 108.270 111.579  1.00  0.00     0.013 C 
BRANCH   2   4
ATOM      4  C   UNL     1     109.223 109.991 109.756  1.00  0.00    -0.045 A 
ATOM      5  C   UNL     1     111.329 111.715 106.401  1.00  0.00     0.044 C 
ATOM      6  C   UNL     1     110.580 111.100 107.546  1.00  0.00    -0.051 A 
ATOM      7  C   UNL     1     109.446 111.736 108.071  1.00  0.00     0.004 A 
ATOM      8  C   UNL     1     111.046 109.921 108.144  1.00  0.00     0.004 A 
ATOM      9  C   UNL     1     108.768 111.182 109.160  1.00  0.00     0.004 A 
ATOM     10  C   UNL     1     110.370 109.367 109.234  1.00  0.00     0.004 A 
ENDBRANCH   2   4
ENDBRANCH   1   2
BRANCH   1  11
ATOM     11  C   UNL     1     109.197 110.843 112.956  1.00  0.00     0.028 C 
BRANCH  11  12
ATOM     12  C   UNL     1     110.083 111.961 112.459  1.00  0.00    -0.028 C 
ATOM     13  C   UNL     1     111.383 111.818 112.120  1.00  0.00    -0.080 C 
ATOM     14  C   UNL     1     112.111 110.503 112.264  1.00  0.00     0.039 C 
ATOM     15  C   UNL     1     112.125 113.023 111.604  1.00  0.00     0.039 C 
ENDBRANCH  11  12
ENDBRANCH   1  11
TORSDOF 4
ENDMDL
MODEL 3
REMARK VINA RESULT:    -2.135     19.209     21.064
REMARK INTER + INTRA:          -3.396
REMARK INTER:                  -2.869
REMARK INTRA:                  -0.527
REMARK UNBOUND:                -0.762
REMARK SMILES CC(C)=CCC[C@H](C)c1ccc(C)cc1
REMARK SMILES IDX 6 1 7 2 8 3 9 4 13 5 12 6 11 7 14 8 10 9 15 10 5 11 4 12
REMARK SMILES IDX 2 13 1 14 3 15
REMARK H PARENT
REMARK Flexibility Score: inf
ROOT
ATOM      1  C   UNL     1      94.859 104.708 100.358  1.00  0.00     0.012 C 
ENDROOT
BRANCH   1   2
ATOM      2  C   UNL     1      93.361 104.314 100.375  1.00  0.00     0.016 C 
ATOM      3  C   UNL     1      92.751 104.392 101.783  1.00  0.00     0.013 C 
BRANCH   2   4
ATOM      4  C   UNL     1      93.180 102.924  99.793  1.00  0.00    -0.045 A 
ATOM      5  C   UNL     1      92.634  98.963  98.157  1.00  0.00     0.044 C 
ATOM      6  C   UNL     1      92.808 100.350  98.701  1.00  0.00    -0.051 A 
ATOM      7  C   UNL     1      93.939 101.106  98.360  1.00  0.00     0.004 A 
ATOM      8  C   UNL     1      91.876 100.876  99.606  1.00  0.00     0.004 A 
ATOM      9  C   UNL     1      94.120 102.385  98.895  1.00  0.00     0.004 A 
ATOM     10  C   UNL     1      92.055 102.155 100.142  1.00  0.00     0.004 A 
ENDBRANCH   2   4
ENDBRANCH   1   2
BRANCH   1  11
ATOM     11  C   UNL     1      95.228 105.747  99.284  1.00  0.00     0.028 C 
BRANCH  11  12
ATOM     12  C   UNL     1      94.872 107.155  99.700  1.00  0.00    -0.028 C 
ATOM     13  C   UNL     1      94.835 108.217  98.865  1.00  0.00    -0.080 C 
ATOM     14  C   UNL     1      95.214 108.105  97.407  1.00  0.00     0.039 C 
ATOM     15  C   UNL     1      94.424 109.554  99.424  1.00  0.00     0.039 C 
ENDBRANCH  11  12
ENDBRANCH   1  11
TORSDOF 4
ENDMDL
MODEL 4
REMARK VINA RESULT:    -2.082      1.587      4.642
REMARK INTER + INTRA:          -3.331
REMARK INTER:                  -3.043
REMARK INTRA:                  -0.288
REMARK UNBOUND:                -0.762
REMARK SMILES CC(C)=CCC[C@H](C)c1ccc(C)cc1
REMARK SMILES IDX 6 1 7 2 8 3 9 4 13 5 12 6 11 7 14 8 10 9 15 10 5 11 4 12
REMARK SMILES IDX 2 13 1 14 3 15
REMARK H PARENT
REMARK Flexibility Score: inf
ROOT
ATOM      1  C   UNL     1     111.936 111.251 111.812  1.00  0.00     0.012 C 
ENDROOT
BRANCH   1   2
ATOM      2  C   UNL     1     111.032 111.978 110.785  1.00  0.00     0.016 C 
ATOM      3  C   UNL     1     109.569 112.060 111.247  1.00  0.00     0.013 C 
BRANCH   2   4
ATOM      4  C   UNL     1     111.125 111.297 109.432  1.00  0.00    -0.045 A 
ATOM      5  C   UNL     1     111.366 109.334 105.592  1.00  0.00     0.044 C 
ATOM      6  C   UNL     1     111.261 110.035 106.914  1.00  0.00    -0.051 A 
ATOM      7  C   UNL     1     112.124 111.098 107.219  1.00  0.00     0.004 A 
ATOM      8  C   UNL     1     110.347 109.591 107.879  1.00  0.00     0.004 A 
ATOM      9  C   UNL     1     112.051 111.729 108.464  1.00  0.00     0.004 A 
ATOM     10  C   UNL     1     110.274 110.221 109.125  1.00  0.00     0.004 A 
ENDBRANCH   2   4
ENDBRANCH   1   2
BRANCH   1  11
ATOM     11  C   UNL     1     111.225 110.873 113.124  1.00  0.00     0.028 C 
BRANCH  11  12
ATOM     12  C   UNL     1     110.744 109.441 113.124  1.00  0.00    -0.028 C 
ATOM     13  C   UNL     1     109.447 109.066 113.091  1.00  0.00    -0.080 C 
ATOM     14  C   UNL     1     108.320 110.071 113.109  1.00  0.00     0.039 C 
ATOM     15  C   UNL     1     109.127 107.594 113.058  1.00  0.00     0.039 C 
ENDBRANCH  11  12
ENDBRANCH   1  11
TORSDOF 4
ENDMDL
MODEL 5
REMARK VINA RESULT:    -1.633      1.468      4.698
REMARK INTER + INTRA:          -2.777
REMARK INTER:                  -2.497
REMARK INTRA:                  -0.279
REMARK UNBOUND:                -0.762
REMARK SMILES CC(C)=CCC[C@H](C)c1ccc(C)cc1
REMARK SMILES IDX 6 1 7 2 8 3 9 4 13 5 12 6 11 7 14 8 10 9 15 10 5 11 4 12
REMARK SMILES IDX 2 13 1 14 3 15
REMARK H PARENT
REMARK Flexibility Score: inf
ROOT
ATOM      1  C   UNL     1     110.445 110.235 112.566  1.00  0.00     0.012 C 
ENDROOT
BRANCH   1   2
ATOM      2  C   UNL     1     111.749 110.877 112.031  1.00  0.00     0.016 C 
ATOM      3  C   UNL     1     111.989 112.282 112.605  1.00  0.00     0.013 C 
BRANCH   2   4
ATOM      4  C   UNL     1     111.727 110.920 110.513  1.00  0.00    -0.045 A 
ATOM      5  C   UNL     1     111.654 111.008 106.195  1.00  0.00     0.044 C 
ATOM      6  C   UNL     1     111.650 110.987 107.695  1.00  0.00    -0.051 A 
ATOM      7  C   UNL     1     112.090 112.106 108.417  1.00  0.00     0.004 A 
ATOM      8  C   UNL     1     111.271 109.828 108.386  1.00  0.00     0.004 A 
ATOM      9  C   UNL     1     112.120 112.077 109.814  1.00  0.00     0.004 A 
ATOM     10  C   UNL     1     111.301 109.796 109.783  1.00  0.00     0.004 A 
ENDBRANCH   2   4
ENDBRANCH   1   2
BRANCH   1  11
ATOM     11  C   UNL     1     109.207 111.145 112.470  1.00  0.00     0.028 C 
BRANCH  11  12
ATOM     12  C   UNL     1     109.011 111.705 111.081  1.00  0.00    -0.028 C 
ATOM     13  C   UNL     1     108.318 111.093 110.096  1.00  0.00    -0.080 C 
ATOM     14  C   UNL     1     107.706 109.724 110.275  1.00  0.00     0.039 C 
ATOM     15  C   UNL     1     108.180 111.799 108.772  1.00  0.00     0.039 C 
ENDBRANCH  11  12
ENDBRANCH   1  11
TORSDOF 4
ENDMDL
MODEL 6
REMARK VINA RESULT:    -1.429      1.315      4.048
REMARK INTER + INTRA:          -2.525
REMARK INTER:                  -1.387
REMARK INTRA:                  -1.138
REMARK UNBOUND:                -0.762
REMARK SMILES CC(C)=CCC[C@H](C)c1ccc(C)cc1
REMARK SMILES IDX 6 1 7 2 8 3 9 4 13 5 12 6 11 7 14 8 10 9 15 10 5 11 4 12
REMARK SMILES IDX 2 13 1 14 3 15
REMARK H PARENT
REMARK Flexibility Score: inf
ROOT
ATOM      1  C   UNL     1     108.601 109.575 111.414  1.00  0.00     0.012 C 
ENDROOT
BRANCH   1   2
ATOM      2  C   UNL     1     108.508 110.877 110.581  1.00  0.00     0.016 C 
ATOM      3  C   UNL     1     107.074 111.169 110.108  1.00  0.00     0.013 C 
BRANCH   2   4
ATOM      4  C   UNL     1     109.454 110.808 109.396  1.00  0.00    -0.045 A 
ATOM      5  C   UNL     1     112.125 110.632 106.005  1.00  0.00     0.044 C 
ATOM      6  C   UNL     1     111.213 110.717 107.193  1.00  0.00    -0.051 A 
ATOM      7  C   UNL     1     111.501 109.992 108.358  1.00  0.00     0.004 A 
ATOM      8  C   UNL     1     110.032 111.470 107.125  1.00  0.00     0.004 A 
ATOM      9  C   UNL     1     110.634 110.043 109.453  1.00  0.00     0.004 A 
ATOM     10  C   UNL     1     109.164 111.521 108.219  1.00  0.00     0.004 A 
ENDBRANCH   2   4
ENDBRANCH   1   2
BRANCH   1  11
ATOM     11  C   UNL     1     109.079 109.784 112.863  1.00  0.00     0.028 C 
BRANCH  11  12
ATOM     12  C   UNL     1     109.933 111.020 113.014  1.00  0.00    -0.028 C 
ATOM     13  C   UNL     1     111.284 111.028 112.999  1.00  0.00    -0.080 C 
ATOM     14  C   UNL     1     112.093 109.758 112.886  1.00  0.00     0.039 C 
ATOM     15  C   UNL     1     111.994 112.351 113.124  1.00  0.00     0.039 C 
ENDBRANCH  11  12
ENDBRANCH   1  11
TORSDOF 4
ENDMDL
MODEL 7
REMARK VINA RESULT:    -1.382      1.505      4.117
REMARK INTER + INTRA:          -2.468
REMARK INTER:                  -2.198
REMARK INTRA:                  -0.270
REMARK UNBOUND:                -0.762
REMARK SMILES CC(C)=CCC[C@H](C)c1ccc(C)cc1
REMARK SMILES IDX 6 1 7 2 8 3 9 4 13 5 12 6 11 7 14 8 10 9 15 10 5 11 4 12
REMARK SMILES IDX 2 13 1 14 3 15
REMARK H PARENT
REMARK Flexibility Score: inf
ROOT
ATOM      1  C   UNL     1     111.298 112.224 111.212  1.00  0.00     0.012 C 
ENDROOT
BRANCH   1   2
ATOM      2  C   UNL     1     112.077 112.171 109.875  1.00  0.00     0.016 C 
ATOM      3  C   UNL     1     112.124 113.536 109.170  1.00  0.00     0.013 C 
BRANCH   2   4
ATOM      4  C   UNL     1     111.474 111.121 108.959  1.00  0.00    -0.045 A 
ATOM      5  C   UNL     1     109.735 108.125 106.379  1.00  0.00     0.044 C 
ATOM      6  C   UNL     1     110.322 109.187 107.262  1.00  0.00    -0.051 A 
ATOM      7  C   UNL     1     111.493 109.856 106.878  1.00  0.00     0.004 A 
ATOM      8  C   UNL     1     109.742 109.472 108.505  1.00  0.00     0.004 A 
ATOM      9  C   UNL     1     112.060 110.820 107.715  1.00  0.00     0.004 A 
ATOM     10  C   UNL     1     110.308 110.436 109.344  1.00  0.00     0.004 A 
ENDBRANCH   2   4
ENDBRANCH   1   2
BRANCH   1  11
ATOM     11  C   UNL     1     111.987 111.489 112.376  1.00  0.00     0.028 C 
BRANCH  11  12
ATOM     12  C   UNL     1     111.317 110.176 112.705  1.00  0.00    -0.028 C 
ATOM     13  C   UNL     1     109.982 109.999 112.808  1.00  0.00    -0.080 C 
ATOM     14  C   UNL     1     109.006 111.142 112.657  1.00  0.00     0.039 C 
ATOM     15  C   UNL     1     109.463 108.616 113.105  1.00  0.00     0.039 C 
ENDBRANCH  11  12
ENDBRANCH   1  11
TORSDOF 4
ENDMDL
MODEL 8
REMARK VINA RESULT:    -0.895      1.416      4.917
REMARK INTER + INTRA:          -1.866
REMARK INTER:                  -1.442
REMARK INTRA:                  -0.425
REMARK UNBOUND:                -0.762
REMARK SMILES CC(C)=CCC[C@H](C)c1ccc(C)cc1
REMARK SMILES IDX 6 1 7 2 8 3 9 4 13 5 12 6 11 7 14 8 10 9 15 10 5 11 4 12
REMARK SMILES IDX 2 13 1 14 3 15
REMARK H PARENT
REMARK Flexibility Score: inf
ROOT
ATOM      1  C   UNL     1     109.606 112.285 111.272  1.00  0.00     0.012 C 
ENDROOT
BRANCH   1   2
ATOM      2  C   UNL     1     111.035 111.721 111.081  1.00  0.00     0.016 C 
ATOM      3  C   UNL     1     112.120 112.699 111.559  1.00  0.00     0.013 C 
BRANCH   2   4
ATOM      4  C   UNL     1     111.260 111.347 109.627  1.00  0.00    -0.045 A 
ATOM      5  C   UNL     1     111.912 110.316 105.483  1.00  0.00     0.044 C 
ATOM      6  C   UNL     1     111.713 110.662 106.929  1.00  0.00    -0.051 A 
ATOM      7  C   UNL     1     111.053 109.768 107.784  1.00  0.00     0.004 A 
ATOM      8  C   UNL     1     112.125 111.908 107.421  1.00  0.00     0.004 A 
ATOM      9  C   UNL     1     110.836 110.103 109.123  1.00  0.00     0.004 A 
ATOM     10  C   UNL     1     111.908 112.245 108.760  1.00  0.00     0.004 A 
ENDBRANCH   2   4
ENDBRANCH   1   2
BRANCH   1  11
ATOM     11  C   UNL     1     108.493 111.223 111.220  1.00  0.00     0.028 C 
BRANCH  11  12
ATOM     12  C   UNL     1     108.682 110.141 112.257  1.00  0.00    -0.028 C 
ATOM     13  C   UNL     1     108.898 108.837 111.977  1.00  0.00    -0.080 C 
ATOM     14  C   UNL     1     108.914 108.312 110.560  1.00  0.00     0.039 C 
ATOM     15  C   UNL     1     109.106 107.882 113.124  1.00  0.00     0.039 C 
ENDBRANCH  11  12
ENDBRANCH   1  11
TORSDOF 4
ENDMDL
MODEL 9
REMARK VINA RESULT:    -0.382     18.762     21.097
REMARK INTER + INTRA:          -1.234
REMARK INTER:                  -0.624
REMARK INTRA:                  -0.610
REMARK UNBOUND:                -0.762
REMARK SMILES CC(C)=CCC[C@H](C)c1ccc(C)cc1
REMARK SMILES IDX 6 1 7 2 8 3 9 4 13 5 12 6 11 7 14 8 10 9 15 10 5 11 4 12
REMARK SMILES IDX 2 13 1 14 3 15
REMARK H PARENT
REMARK Flexibility Score: inf
ROOT
ATOM      1  C   UNL     1      92.958 103.733 100.029  1.00  0.00     0.012 C 
ENDROOT
BRANCH   1   2
ATOM      2  C   UNL     1      94.475 104.037 100.110  1.00  0.00     0.016 C 
ATOM      3  C   UNL     1      95.058 103.743 101.501  1.00  0.00     0.013 C 
BRANCH   2   4
ATOM      4  C   UNL     1      94.741 105.479  99.716  1.00  0.00    -0.045 A 
ATOM      5  C   UNL     1      95.521 109.570  98.572  1.00  0.00     0.044 C 
ATOM      6  C   UNL     1      95.227 108.149  98.949  1.00  0.00    -0.051 A 
ATOM      7  C   UNL     1      94.358 107.866 100.013  1.00  0.00     0.004 A 
ATOM      8  C   UNL     1      95.868 107.094  98.286  1.00  0.00     0.004 A 
ATOM      9  C   UNL     1      94.110 106.543 100.388  1.00  0.00     0.004 A 
ATOM     10  C   UNL     1      95.622 105.770  98.660  1.00  0.00     0.004 A 
ENDBRANCH   2   4
ENDBRANCH   1   2
BRANCH   1  11
ATOM     11  C   UNL     1      92.566 102.331 100.529  1.00  0.00     0.028 C 
BRANCH  11  12
ATOM     12  C   UNL     1      91.945 101.486  99.442  1.00  0.00    -0.028 C 
ATOM     13  C   UNL     1      92.641 100.755  98.544  1.00  0.00    -0.080 C 
ATOM     14  C   UNL     1      94.151 100.760  98.503  1.00  0.00     0.039 C 
ATOM     15  C   UNL     1      91.875  99.932  97.541  1.00  0.00     0.039 C 
ENDBRANCH  11  12
ENDBRANCH   1  11
TORSDOF 4
ENDMDL
