MODEL 1
REMARK VINA RESULT:    -4.828      0.000      0.000
REMARK INTER + INTRA:          -6.389
REMARK INTER:                  -6.239
REMARK INTRA:                  -0.150
REMARK UNBOUND:                -0.150
REMARK SMILES CCCCCCC(=O)[O-]
REMARK SMILES IDX 5 1 6 2 7 3 8 4 9 5 4 6 3 7 2 8 1 9
REMARK H PARENT
REMARK Flexibility Score: inf
ROOT
ATOM      1  C   UNL     1      -0.603  -1.275  -1.081  1.00  0.00     0.006 C 
ENDROOT
BRANCH   1   2
ATOM      2  C   UNL     1      -2.002  -1.206  -1.706  1.00  0.00     0.053 C 
BRANCH   2   3
ATOM      3  C   UNL     1      -2.980  -2.079  -0.981  1.00  0.00     0.041 C 
ATOM      4  O   UNL     1      -3.925  -1.565  -0.327  1.00  0.00    -0.550 OA
ATOM      5  O   UNL     1      -2.827  -3.459  -0.997  1.00  0.00    -0.550 OA
ENDBRANCH   2   3
ENDBRANCH   1   2
BRANCH   1   6
ATOM      6  C   UNL     1      -0.300  -0.053  -0.194  1.00  0.00     0.000 C 
BRANCH   6   7
ATOM      7  C   UNL     1       0.340   1.101  -0.993  1.00  0.00    -0.000 C 
BRANCH   7   8
ATOM      8  C   UNL     1       1.760   0.791  -1.493  1.00  0.00    -0.003 C 
ATOM      9  C   UNL     1       2.775   1.870  -1.121  1.00  0.00     0.004 C 
ENDBRANCH   7   8
ENDBRANCH   6   7
ENDBRANCH   1   6
TORSDOF 5
ENDMDL
MODEL 2
REMARK VINA RESULT:    -4.783      3.810      5.650
REMARK INTER + INTRA:          -6.331
REMARK INTER:                  -6.193
REMARK INTRA:                  -0.138
REMARK UNBOUND:                -0.150
REMARK SMILES CCCCCCC(=O)[O-]
REMARK SMILES IDX 5 1 6 2 7 3 8 4 9 5 4 6 3 7 2 8 1 9
REMARK H PARENT
REMARK Flexibility Score: inf
ROOT
ATOM      1  C   UNL     1       0.385   0.988  -1.100  1.00  0.00     0.006 C 
ENDROOT
BRANCH   1   2
ATOM      2  C   UNL     1       1.810   0.858  -1.653  1.00  0.00     0.053 C 
BRANCH   2   3
ATOM      3  C   UNL     1       2.773   1.745  -0.926  1.00  0.00     0.041 C 
ATOM      4  O   UNL     1       3.752   1.248  -0.311  1.00  0.00    -0.550 OA
ATOM      5  O   UNL     1       2.569   3.119  -0.898  1.00  0.00    -0.550 OA
ENDBRANCH   2   3
ENDBRANCH   1   2
BRANCH   1   6
ATOM      6  C   UNL     1      -0.023  -0.228  -0.249  1.00  0.00     0.000 C 
BRANCH   6   7
ATOM      7  C   UNL     1      -0.605  -1.370  -1.109  1.00  0.00    -0.000 C 
BRANCH   7   8
ATOM      8  C   UNL     1      -2.040  -1.106  -1.594  1.00  0.00    -0.003 C 
ATOM      9  C   UNL     1      -3.016  -2.215  -1.207  1.00  0.00     0.004 C 
ENDBRANCH   7   8
ENDBRANCH   6   7
ENDBRANCH   1   6
TORSDOF 5
ENDMDL
MODEL 3
REMARK VINA RESULT:    -4.225      1.384      2.110
REMARK INTER + INTRA:          -5.611
REMARK INTER:                  -5.468
REMARK INTRA:                  -0.143
REMARK UNBOUND:                -0.150
REMARK SMILES CCCCCCC(=O)[O-]
REMARK SMILES IDX 5 1 6 2 7 3 8 4 9 5 4 6 3 7 2 8 1 9
REMARK H PARENT
REMARK Flexibility Score: inf
ROOT
ATOM      1  C   UNL     1       0.361   0.093  -0.572  1.00  0.00     0.006 C 
ENDROOT
BRANCH   1   2
ATOM      2  C   UNL     1      -0.270  -1.244  -0.979  1.00  0.00     0.053 C 
BRANCH   2   3
ATOM      3  C   UNL     1      -1.688  -1.076  -1.433  1.00  0.00     0.041 C 
ATOM      4  O   UNL     1      -2.029  -0.050  -2.078  1.00  0.00    -0.550 OA
ATOM      5  O   UNL     1      -2.640  -2.036  -1.113  1.00  0.00    -0.550 OA
ENDBRANCH   2   3
ENDBRANCH   1   2
BRANCH   1   6
ATOM      6  C   UNL     1       1.492   0.518  -1.527  1.00  0.00     0.000 C 
BRANCH   6   7
ATOM      7  C   UNL     1       2.669   1.177  -0.777  1.00  0.00    -0.000 C 
BRANCH   7   8
ATOM      8  C   UNL     1       3.034   2.572  -1.309  1.00  0.00    -0.003 C 
ATOM      9  C   UNL     1       2.576   3.702  -0.389  1.00  0.00     0.004 C 
ENDBRANCH   7   8
ENDBRANCH   6   7
ENDBRANCH   1   6
TORSDOF 5
ENDMDL
MODEL 4
REMARK VINA RESULT:    -4.137      3.266      5.222
REMARK INTER + INTRA:          -5.497
REMARK INTER:                  -5.485
REMARK INTRA:                  -0.012
REMARK UNBOUND:                -0.150
REMARK SMILES CCCCCCC(=O)[O-]
REMARK SMILES IDX 5 1 6 2 7 3 8 4 9 5 4 6 3 7 2 8 1 9
REMARK H PARENT
REMARK Flexibility Score: inf
ROOT
ATOM      1  C   UNL     1      -0.012  -0.213  -0.075  1.00  0.00     0.006 C 
ENDROOT
BRANCH   1   2
ATOM      2  C   UNL     1       0.279   1.123  -0.769  1.00  0.00     0.053 C 
BRANCH   2   3
ATOM      3  C   UNL     1       1.634   1.136  -1.408  1.00  0.00     0.041 C 
ATOM      4  O   UNL     1       1.946   0.255  -2.251  1.00  0.00    -0.550 OA
ATOM      5  O   UNL     1       2.565   2.102  -1.046  1.00  0.00    -0.550 OA
ENDBRANCH   2   3
ENDBRANCH   1   2
BRANCH   1   6
ATOM      6  C   UNL     1      -0.503  -1.288  -1.062  1.00  0.00     0.000 C 
BRANCH   6   7
ATOM      7  C   UNL     1      -1.855  -0.913  -1.704  1.00  0.00    -0.000 C 
BRANCH   7   8
ATOM      8  C   UNL     1      -3.058  -1.631  -1.071  1.00  0.00    -0.003 C 
ATOM      9  C   UNL     1      -2.881  -3.146  -1.000  1.00  0.00     0.004 C 
ENDBRANCH   7   8
ENDBRANCH   6   7
ENDBRANCH   1   6
TORSDOF 5
ENDMDL
MODEL 5
REMARK VINA RESULT:    -3.990      2.948      5.362
REMARK INTER + INTRA:          -5.307
REMARK INTER:                  -5.168
REMARK INTRA:                  -0.139
REMARK UNBOUND:                -0.150
REMARK SMILES CCCCCCC(=O)[O-]
REMARK SMILES IDX 5 1 6 2 7 3 8 4 9 5 4 6 3 7 2 8 1 9
REMARK H PARENT
REMARK Flexibility Score: inf
ROOT
ATOM      1  C   UNL     1      -1.654  -0.691  -1.620  1.00  0.00     0.006 C 
ENDROOT
BRANCH   1   2
ATOM      2  C   UNL     1      -0.302  -0.773  -0.900  1.00  0.00     0.053 C 
BRANCH   2   3
ATOM      3  C   UNL     1       0.521   0.460  -1.118  1.00  0.00     0.041 C 
ATOM      4  O   UNL     1       1.596   0.397  -1.770  1.00  0.00    -0.550 OA
ATOM      5  O   UNL     1       0.118   1.672  -0.570  1.00  0.00    -0.550 OA
ENDBRANCH   2   3
ENDBRANCH   1   2
BRANCH   1   6
ATOM      6  C   UNL     1      -2.787  -1.343  -0.807  1.00  0.00     0.000 C 
BRANCH   6   7
ATOM      7  C   UNL     1      -3.120  -2.764  -1.309  1.00  0.00    -0.000 C 
BRANCH   7   8
ATOM      8  C   UNL     1      -2.544  -3.881  -0.423  1.00  0.00    -0.003 C 
ATOM      9  C   UNL     1      -3.185  -5.243  -0.685  1.00  0.00     0.004 C 
ENDBRANCH   7   8
ENDBRANCH   6   7
ENDBRANCH   1   6
TORSDOF 5
ENDMDL
MODEL 6
REMARK VINA RESULT:    -3.957      4.123      6.004
REMARK INTER + INTRA:          -5.264
REMARK INTER:                  -5.102
REMARK INTRA:                  -0.162
REMARK UNBOUND:                -0.150
REMARK SMILES CCCCCCC(=O)[O-]
REMARK SMILES IDX 5 1 6 2 7 3 8 4 9 5 4 6 3 7 2 8 1 9
REMARK H PARENT
REMARK Flexibility Score: inf
ROOT
ATOM      1  C   UNL     1       2.153   1.583  -1.848  1.00  0.00     0.006 C 
ENDROOT
BRANCH   1   2
ATOM      2  C   UNL     1       3.014   2.149  -0.712  1.00  0.00     0.053 C 
BRANCH   2   3
ATOM      3  C   UNL     1       2.608   3.544  -0.346  1.00  0.00     0.041 C 
ATOM      4  O   UNL     1       3.479   4.392  -0.020  1.00  0.00    -0.550 OA
ATOM      5  O   UNL     1       1.265   3.897  -0.332  1.00  0.00    -0.550 OA
ENDBRANCH   2   3
ENDBRANCH   1   2
BRANCH   1   6
ATOM      6  C   UNL     1       1.503   0.239  -1.473  1.00  0.00     0.000 C 
BRANCH   6   7
ATOM      7  C   UNL     1       0.052   0.413  -0.976  1.00  0.00    -0.000 C 
BRANCH   7   8
ATOM      8  C   UNL     1      -0.732  -0.907  -0.891  1.00  0.00    -0.003 C 
ATOM      9  C   UNL     1      -1.972  -0.924  -1.783  1.00  0.00     0.004 C 
ENDBRANCH   7   8
ENDBRANCH   6   7
ENDBRANCH   1   6
TORSDOF 5
ENDMDL
MODEL 7
REMARK VINA RESULT:    -3.231     13.282     14.016
REMARK INTER + INTRA:          -4.326
REMARK INTER:                  -4.235
REMARK INTRA:                  -0.092
REMARK UNBOUND:                -0.150
REMARK SMILES CCCCCCC(=O)[O-]
REMARK SMILES IDX 5 1 6 2 7 3 8 4 9 5 4 6 3 7 2 8 1 9
REMARK H PARENT
REMARK Flexibility Score: inf
ROOT
ATOM      1  C   UNL     1      -9.006  -5.518   8.381  1.00  0.00     0.006 C 
ENDROOT
BRANCH   1   2
ATOM      2  C   UNL     1      -9.766  -6.830   8.618  1.00  0.00     0.053 C 
BRANCH   2   3
ATOM      3  C   UNL     1      -8.898  -7.868   9.261  1.00  0.00     0.041 C 
ATOM      4  O   UNL     1      -8.010  -7.529  10.087  1.00  0.00    -0.550 OA
ATOM      5  O   UNL     1      -9.046  -9.207   8.921  1.00  0.00    -0.550 OA
ENDBRANCH   2   3
ENDBRANCH   1   2
BRANCH   1   6
ATOM      6  C   UNL     1      -9.884  -4.281   8.646  1.00  0.00     0.000 C 
BRANCH   6   7
ATOM      7  C   UNL     1      -9.300  -3.006   8.002  1.00  0.00    -0.000 C 
BRANCH   7   8
ATOM      8  C   UNL     1     -10.037  -1.719   8.407  1.00  0.00    -0.003 C 
ATOM      9  C   UNL     1      -9.286  -0.905   9.459  1.00  0.00     0.004 C 
ENDBRANCH   7   8
ENDBRANCH   6   7
ENDBRANCH   1   6
TORSDOF 5
ENDMDL
MODEL 8
REMARK VINA RESULT:    -3.038      2.309      3.532
REMARK INTER + INTRA:          -4.076
REMARK INTER:                  -3.909
REMARK INTRA:                  -0.167
REMARK UNBOUND:                -0.150
REMARK SMILES CCCCCCC(=O)[O-]
REMARK SMILES IDX 5 1 6 2 7 3 8 4 9 5 4 6 3 7 2 8 1 9
REMARK H PARENT
REMARK Flexibility Score: inf
ROOT
ATOM      1  C   UNL     1       1.801   0.705  -1.852  1.00  0.00     0.006 C 
ENDROOT
BRANCH   1   2
ATOM      2  C   UNL     1       0.959  -0.031  -0.803  1.00  0.00     0.053 C 
BRANCH   2   3
ATOM      3  C   UNL     1      -0.502   0.006  -1.135  1.00  0.00     0.041 C 
ATOM      4  O   UNL     1      -1.136  -1.065  -1.324  1.00  0.00    -0.550 OA
ATOM      5  O   UNL     1      -1.155   1.225  -1.269  1.00  0.00    -0.550 OA
ENDBRANCH   2   3
ENDBRANCH   1   2
BRANCH   1   6
ATOM      6  C   UNL     1       2.816   1.670  -1.212  1.00  0.00     0.000 C 
BRANCH   6   7
ATOM      7  C   UNL     1       2.126   2.827  -0.461  1.00  0.00    -0.000 C 
BRANCH   7   8
ATOM      8  C   UNL     1       3.010   4.075  -0.307  1.00  0.00    -0.003 C 
ATOM      9  C   UNL     1       2.277   5.373  -0.639  1.00  0.00     0.004 C 
ENDBRANCH   7   8
ENDBRANCH   6   7
ENDBRANCH   1   6
TORSDOF 5
ENDMDL
