MODEL 1
REMARK VINA RESULT:    -4.640      0.000      0.000
REMARK INTER + INTRA:          -7.539
REMARK INTER:                  -7.082
REMARK INTRA:                  -0.457
REMARK UNBOUND:                -0.457
REMARK SMILES CCCCCCCCCC=CC(=O)[O-]
REMARK SMILES IDX 7 1 8 2 9 3 10 4 11 5 12 6 13 7 14 8 6 9 5 10 4 11 3 12 2 13
REMARK SMILES IDX 1 14
REMARK H PARENT
REMARK Flexibility Score: inf
ROOT
ATOM      1  C   UNL     1     -29.255  -6.463  23.296  1.00  0.00     0.000 C 
ENDROOT
BRANCH   1   2
ATOM      2  C   UNL     1     -28.404  -7.626  22.752  1.00  0.00     0.004 C 
BRANCH   2   3
ATOM      3  C   UNL     1     -29.203  -8.927  22.586  1.00  0.00     0.027 C 
BRANCH   3   4
ATOM      4  C   UNL     1     -29.453  -9.231  21.137  1.00  0.00    -0.025 C 
ATOM      5  C   UNL     1     -28.748  -8.639  20.168  1.00  0.00     0.020 C 
BRANCH   5   6
ATOM      6  C   UNL     1     -28.992  -8.915  18.745  1.00  0.00     0.064 C 
ATOM      7  O   UNL     1     -29.183  -7.958  17.950  1.00  0.00    -0.545 OA
ATOM      8  O   UNL     1     -29.016 -10.218  18.261  1.00  0.00    -0.545 OA
ENDBRANCH   5   6
ENDBRANCH   3   4
ENDBRANCH   2   3
ENDBRANCH   1   2
BRANCH   1   9
ATOM      9  C   UNL     1     -28.621  -5.067  23.159  1.00  0.00     0.000 C 
BRANCH   9  10
ATOM     10  C   UNL     1     -27.672  -4.722  24.319  1.00  0.00     0.000 C 
BRANCH  10  11
ATOM     11  C   UNL     1     -27.491  -5.892  25.300  1.00  0.00    -0.000 C 
BRANCH  11  12
ATOM     12  C   UNL     1     -27.316  -5.425  26.757  1.00  0.00    -0.000 C 
BRANCH  12  13
ATOM     13  C   UNL     1     -28.370  -6.028  27.698  1.00  0.00    -0.003 C 
ATOM     14  C   UNL     1     -29.293  -7.021  26.991  1.00  0.00     0.004 C 
ENDBRANCH  12  13
ENDBRANCH  11  12
ENDBRANCH  10  11
ENDBRANCH   9  10
ENDBRANCH   1   9
TORSDOF 9
ENDMDL
MODEL 2
REMARK VINA RESULT:    -4.617     11.633     13.606
REMARK INTER + INTRA:          -7.503
REMARK INTER:                  -6.029
REMARK INTRA:                  -1.474
REMARK UNBOUND:                -0.457
REMARK SMILES CCCCCCCCCC=CC(=O)[O-]
REMARK SMILES IDX 7 1 8 2 9 3 10 4 11 5 12 6 13 7 14 8 6 9 5 10 4 11 3 12 2 13
REMARK SMILES IDX 1 14
REMARK H PARENT
REMARK Flexibility Score: inf
ROOT
ATOM      1  C   UNL     1     -33.234   2.142  18.026  1.00  0.00     0.000 C 
ENDROOT
BRANCH   1   2
ATOM      2  C   UNL     1     -33.740   2.435  19.451  1.00  0.00     0.004 C 
BRANCH   2   3
ATOM      3  C   UNL     1     -35.183   2.964  19.477  1.00  0.00     0.027 C 
BRANCH   3   4
ATOM      4  C   UNL     1     -36.143   1.899  19.924  1.00  0.00    -0.025 C 
ATOM      5  C   UNL     1     -37.399   1.857  19.471  1.00  0.00     0.020 C 
BRANCH   5   6
ATOM      6  C   UNL     1     -38.354   0.829  19.912  1.00  0.00     0.064 C 
ATOM      7  O   UNL     1     -39.239   1.126  20.756  1.00  0.00    -0.545 OA
ATOM      8  O   UNL     1     -38.296  -0.466  19.412  1.00  0.00    -0.545 OA
ENDBRANCH   5   6
ENDBRANCH   3   4
ENDBRANCH   2   3
ENDBRANCH   1   2
BRANCH   1   9
ATOM      9  C   UNL     1     -33.194   0.652  17.638  1.00  0.00     0.000 C 
BRANCH   9  10
ATOM     10  C   UNL     1     -34.510   0.161  17.012  1.00  0.00     0.000 C 
BRANCH  10  11
ATOM     11  C   UNL     1     -34.876   0.928  15.730  1.00  0.00    -0.000 C 
BRANCH  11  12
ATOM     12  C   UNL     1     -36.181   1.734  15.873  1.00  0.00    -0.000 C 
BRANCH  12  13
ATOM     13  C   UNL     1     -35.944   3.251  15.811  1.00  0.00    -0.003 C 
ATOM     14  C   UNL     1     -37.154   4.057  16.282  1.00  0.00     0.004 C 
ENDBRANCH  12  13
ENDBRANCH  11  12
ENDBRANCH  10  11
ENDBRANCH   9  10
ENDBRANCH   1   9
TORSDOF 9
ENDMDL
MODEL 3
REMARK VINA RESULT:    -4.538      3.756      5.893
REMARK INTER + INTRA:          -7.382
REMARK INTER:                  -6.310
REMARK INTRA:                  -1.073
REMARK UNBOUND:                -0.457
REMARK SMILES CCCCCCCCCC=CC(=O)[O-]
REMARK SMILES IDX 7 1 8 2 9 3 10 4 11 5 12 6 13 7 14 8 6 9 5 10 4 11 3 12 2 13
REMARK SMILES IDX 1 14
REMARK H PARENT
REMARK Flexibility Score: inf
ROOT
ATOM      1  C   UNL     1     -27.603  -5.322  24.888  1.00  0.00     0.000 C 
ENDROOT
BRANCH   1   2
ATOM      2  C   UNL     1     -28.398  -6.539  25.400  1.00  0.00     0.004 C 
BRANCH   2   3
ATOM      3  C   UNL     1     -28.694  -6.471  26.906  1.00  0.00     0.027 C 
BRANCH   3   4
ATOM      4  C   UNL     1     -29.915  -7.272  27.255  1.00  0.00    -0.025 C 
ATOM      5  C   UNL     1     -30.639  -7.888  26.315  1.00  0.00     0.020 C 
BRANCH   5   6
ATOM      6  C   UNL     1     -31.846  -8.663  26.643  1.00  0.00     0.064 C 
ATOM      7  O   UNL     1     -32.652  -8.973  25.727  1.00  0.00    -0.545 OA
ATOM      8  O   UNL     1     -32.110  -9.061  27.948  1.00  0.00    -0.545 OA
ENDBRANCH   5   6
ENDBRANCH   3   4
ENDBRANCH   2   3
ENDBRANCH   1   2
BRANCH   1   9
ATOM      9  C   UNL     1     -28.081  -4.746  23.543  1.00  0.00     0.000 C 
BRANCH   9  10
ATOM     10  C   UNL     1     -29.417  -5.346  23.075  1.00  0.00     0.000 C 
BRANCH  10  11
ATOM     11  C   UNL     1     -29.233  -6.441  22.011  1.00  0.00    -0.000 C 
BRANCH  11  12
ATOM     12  C   UNL     1     -30.027  -7.720  22.331  1.00  0.00    -0.000 C 
BRANCH  12  13
ATOM     13  C   UNL     1     -29.115  -8.928  22.593  1.00  0.00    -0.003 C 
ATOM     14  C   UNL     1     -27.643  -8.629  22.310  1.00  0.00     0.004 C 
ENDBRANCH  12  13
ENDBRANCH  11  12
ENDBRANCH  10  11
ENDBRANCH   9  10
ENDBRANCH   1   9
TORSDOF 9
ENDMDL
MODEL 4
REMARK VINA RESULT:    -4.493     11.621     13.637
REMARK INTER + INTRA:          -7.313
REMARK INTER:                  -5.962
REMARK INTRA:                  -1.351
REMARK UNBOUND:                -0.457
REMARK SMILES CCCCCCCCCC=CC(=O)[O-]
REMARK SMILES IDX 7 1 8 2 9 3 10 4 11 5 12 6 13 7 14 8 6 9 5 10 4 11 3 12 2 13
REMARK SMILES IDX 1 14
REMARK H PARENT
REMARK Flexibility Score: inf
ROOT
ATOM      1  C   UNL     1     -33.171   1.005  17.205  1.00  0.00     0.000 C 
ENDROOT
BRANCH   1   2
ATOM      2  C   UNL     1     -33.254   2.400  17.852  1.00  0.00     0.004 C 
BRANCH   2   3
ATOM      3  C   UNL     1     -33.282   2.348  19.388  1.00  0.00     0.027 C 
BRANCH   3   4
ATOM      4  C   UNL     1     -34.691   2.309  19.904  1.00  0.00    -0.025 C 
ATOM      5  C   UNL     1     -35.269   1.161  20.273  1.00  0.00     0.020 C 
BRANCH   5   6
ATOM      6  C   UNL     1     -36.653   1.108  20.765  1.00  0.00     0.064 C 
ATOM      7  O   UNL     1     -37.603   1.039  19.942  1.00  0.00    -0.545 OA
ATOM      8  O   UNL     1     -36.932   1.129  22.127  1.00  0.00    -0.545 OA
ENDBRANCH   5   6
ENDBRANCH   3   4
ENDBRANCH   2   3
ENDBRANCH   1   2
BRANCH   1   9
ATOM      9  C   UNL     1     -34.236   0.718  16.130  1.00  0.00     0.000 C 
BRANCH   9  10
ATOM     10  C   UNL     1     -35.652   0.579  16.712  1.00  0.00     0.000 C 
BRANCH  10  11
ATOM     11  C   UNL     1     -36.647   1.570  16.086  1.00  0.00    -0.000 C 
BRANCH  11  12
ATOM     12  C   UNL     1     -36.861   2.825  16.953  1.00  0.00    -0.000 C 
BRANCH  12  13
ATOM     13  C   UNL     1     -37.038   4.097  16.110  1.00  0.00    -0.003 C 
ATOM     14  C   UNL     1     -35.827   4.394  15.227  1.00  0.00     0.004 C 
ENDBRANCH  12  13
ENDBRANCH  11  12
ENDBRANCH  10  11
ENDBRANCH   9  10
ENDBRANCH   1   9
TORSDOF 9
ENDMDL
MODEL 5
REMARK VINA RESULT:    -4.464     11.042     12.796
REMARK INTER + INTRA:          -7.269
REMARK INTER:                  -5.650
REMARK INTRA:                  -1.620
REMARK UNBOUND:                -0.457
REMARK SMILES CCCCCCCCCC=CC(=O)[O-]
REMARK SMILES IDX 7 1 8 2 9 3 10 4 11 5 12 6 13 7 14 8 6 9 5 10 4 11 3 12 2 13
REMARK SMILES IDX 1 14
REMARK H PARENT
REMARK Flexibility Score: inf
ROOT
ATOM      1  C   UNL     1     -35.111   0.557  20.076  1.00  0.00     0.000 C 
ENDROOT
BRANCH   1   2
ATOM      2  C   UNL     1     -36.040   1.728  20.447  1.00  0.00     0.004 C 
BRANCH   2   3
ATOM      3  C   UNL     1     -37.363   1.714  19.667  1.00  0.00     0.027 C 
BRANCH   3   4
ATOM      4  C   UNL     1     -37.120   1.638  18.187  1.00  0.00    -0.025 C 
ATOM      5  C   UNL     1     -36.841   2.730  17.469  1.00  0.00     0.020 C 
BRANCH   5   6
ATOM      6  C   UNL     1     -36.616   2.672  16.017  1.00  0.00     0.064 C 
ATOM      7  O   UNL     1     -35.845   3.506  15.474  1.00  0.00    -0.545 OA
ATOM      8  O   UNL     1     -37.240   1.710  15.232  1.00  0.00    -0.545 OA
ENDBRANCH   5   6
ENDBRANCH   3   4
ENDBRANCH   2   3
ENDBRANCH   1   2
BRANCH   1   9
ATOM      9  C   UNL     1     -33.611   0.901  20.029  1.00  0.00     0.000 C 
BRANCH   9  10
ATOM     10  C   UNL     1     -33.334   2.301  19.456  1.00  0.00     0.000 C 
BRANCH  10  11
ATOM     11  C   UNL     1     -33.295   2.312  17.919  1.00  0.00    -0.000 C 
BRANCH  11  12
ATOM     12  C   UNL     1     -32.756   0.997  17.328  1.00  0.00    -0.000 C 
BRANCH  12  13
ATOM     13  C   UNL     1     -33.624   0.471  16.175  1.00  0.00    -0.003 C 
ATOM     14  C   UNL     1     -34.622  -0.595  16.626  1.00  0.00     0.004 C 
ENDBRANCH  12  13
ENDBRANCH  11  12
ENDBRANCH  10  11
ENDBRANCH   9  10
ENDBRANCH   1   9
TORSDOF 9
ENDMDL
MODEL 6
REMARK VINA RESULT:    -4.423     11.791     13.011
REMARK INTER + INTRA:          -7.207
REMARK INTER:                  -5.835
REMARK INTRA:                  -1.372
REMARK UNBOUND:                -0.457
REMARK SMILES CCCCCCCCCC=CC(=O)[O-]
REMARK SMILES IDX 7 1 8 2 9 3 10 4 11 5 12 6 13 7 14 8 6 9 5 10 4 11 3 12 2 13
REMARK SMILES IDX 1 14
REMARK H PARENT
REMARK Flexibility Score: inf
ROOT
ATOM      1  C   UNL     1     -32.830   0.990  17.657  1.00  0.00     0.000 C 
ENDROOT
BRANCH   1   2
ATOM      2  C   UNL     1     -34.050   0.182  17.177  1.00  0.00     0.004 C 
BRANCH   2   3
ATOM      3  C   UNL     1     -34.473   0.531  15.741  1.00  0.00     0.027 C 
BRANCH   3   4
ATOM      4  C   UNL     1     -35.762   1.300  15.727  1.00  0.00    -0.025 C 
ATOM      5  C   UNL     1     -35.780   2.636  15.771  1.00  0.00     0.020 C 
BRANCH   5   6
ATOM      6  C   UNL     1     -37.036   3.400  15.773  1.00  0.00     0.064 C 
ATOM      7  O   UNL     1     -38.102   2.843  15.404  1.00  0.00    -0.545 OA
ATOM      8  O   UNL     1     -37.066   4.729  16.177  1.00  0.00    -0.545 OA
ENDBRANCH   5   6
ENDBRANCH   3   4
ENDBRANCH   2   3
ENDBRANCH   1   2
BRANCH   1   9
ATOM      9  C   UNL     1     -33.150   2.384  18.225  1.00  0.00     0.000 C 
BRANCH   9  10
ATOM     10  C   UNL     1     -33.945   2.327  19.541  1.00  0.00     0.000 C 
BRANCH  10  11
ATOM     11  C   UNL     1     -35.331   2.982  19.422  1.00  0.00    -0.000 C 
BRANCH  11  12
ATOM     12  C   UNL     1     -36.477   1.954  19.436  1.00  0.00    -0.000 C 
BRANCH  12  13
ATOM     13  C   UNL     1     -36.158   0.731  20.310  1.00  0.00    -0.003 C 
ATOM     14  C   UNL     1     -36.778   0.825  21.704  1.00  0.00     0.004 C 
ENDBRANCH  12  13
ENDBRANCH  11  12
ENDBRANCH  10  11
ENDBRANCH   9  10
ENDBRANCH   1   9
TORSDOF 9
ENDMDL
MODEL 7
REMARK VINA RESULT:    -4.401      1.716      3.497
REMARK INTER + INTRA:          -7.174
REMARK INTER:                  -6.570
REMARK INTRA:                  -0.604
REMARK UNBOUND:                -0.457
REMARK SMILES CCCCCCCCCC=CC(=O)[O-]
REMARK SMILES IDX 7 1 8 2 9 3 10 4 11 5 12 6 13 7 14 8 6 9 5 10 4 11 3 12 2 13
REMARK SMILES IDX 1 14
REMARK H PARENT
REMARK Flexibility Score: inf
ROOT
ATOM      1  C   UNL     1     -28.216  -8.550  20.597  1.00  0.00     0.000 C 
ENDROOT
BRANCH   1   2
ATOM      2  C   UNL     1     -29.452  -9.387  20.216  1.00  0.00     0.004 C 
BRANCH   2   3
ATOM      3  C   UNL     1     -29.389  -9.930  18.781  1.00  0.00     0.027 C 
BRANCH   3   4
ATOM      4  C   UNL     1     -28.971  -8.861  17.813  1.00  0.00    -0.025 C 
ATOM      5  C   UNL     1     -29.868  -8.077  17.207  1.00  0.00     0.020 C 
BRANCH   5   6
ATOM      6  C   UNL     1     -29.472  -7.037  16.246  1.00  0.00     0.064 C 
ATOM      7  O   UNL     1     -29.092  -7.369  15.093  1.00  0.00    -0.545 OA
ATOM      8  O   UNL     1     -29.512  -5.691  16.589  1.00  0.00    -0.545 OA
ENDBRANCH   5   6
ENDBRANCH   3   4
ENDBRANCH   2   3
ENDBRANCH   1   2
BRANCH   1   9
ATOM      9  C   UNL     1     -27.862  -8.547  22.095  1.00  0.00     0.000 C 
BRANCH   9  10
ATOM     10  C   UNL     1     -29.095  -8.704  23.002  1.00  0.00     0.000 C 
BRANCH  10  11
ATOM     11  C   UNL     1     -29.302  -7.495  23.930  1.00  0.00    -0.000 C 
BRANCH  11  12
ATOM     12  C   UNL     1     -28.549  -6.241  23.449  1.00  0.00    -0.000 C 
BRANCH  12  13
ATOM     13  C   UNL     1     -27.630  -5.657  24.533  1.00  0.00    -0.003 C 
ATOM     14  C   UNL     1     -28.067  -6.039  25.947  1.00  0.00     0.004 C 
ENDBRANCH  12  13
ENDBRANCH  11  12
ENDBRANCH  10  11
ENDBRANCH   9  10
ENDBRANCH   1   9
TORSDOF 9
ENDMDL
MODEL 8
REMARK VINA RESULT:    -4.401     10.182     11.965
REMARK INTER + INTRA:          -7.174
REMARK INTER:                  -6.227
REMARK INTRA:                  -0.947
REMARK UNBOUND:                -0.457
REMARK SMILES CCCCCCCCCC=CC(=O)[O-]
REMARK SMILES IDX 7 1 8 2 9 3 10 4 11 5 12 6 13 7 14 8 6 9 5 10 4 11 3 12 2 13
REMARK SMILES IDX 1 14
REMARK H PARENT
REMARK Flexibility Score: inf
ROOT
ATOM      1  C   UNL     1     -33.568   2.672  18.429  1.00  0.00     0.000 C 
ENDROOT
BRANCH   1   2
ATOM      2  C   UNL     1     -32.896   1.290  18.317  1.00  0.00     0.004 C 
BRANCH   2   3
ATOM      3  C   UNL     1     -32.977   0.697  16.902  1.00  0.00     0.027 C 
BRANCH   3   4
ATOM      4  C   UNL     1     -32.392  -0.685  16.858  1.00  0.00    -0.025 C 
ATOM      5  C   UNL     1     -31.141  -0.901  16.440  1.00  0.00     0.020 C 
BRANCH   5   6
ATOM      6  C   UNL     1     -30.562  -2.251  16.378  1.00  0.00     0.064 C 
ATOM      7  O   UNL     1     -30.616  -2.901  15.301  1.00  0.00    -0.545 OA
ATOM      8  O   UNL     1     -29.953  -2.823  17.489  1.00  0.00    -0.545 OA
ENDBRANCH   5   6
ENDBRANCH   3   4
ENDBRANCH   2   3
ENDBRANCH   1   2
BRANCH   1   9
ATOM      9  C   UNL     1     -34.761   2.743  19.401  1.00  0.00     0.000 C 
BRANCH   9  10
ATOM     10  C   UNL     1     -35.932   1.840  18.979  1.00  0.00     0.000 C 
BRANCH  10  11
ATOM     11  C   UNL     1     -36.769   2.451  17.843  1.00  0.00    -0.000 C 
BRANCH  11  12
ATOM     12  C   UNL     1     -36.523   1.763  16.487  1.00  0.00    -0.000 C 
BRANCH  12  13
ATOM     13  C   UNL     1     -35.997   2.736  15.421  1.00  0.00    -0.003 C 
ATOM     14  C   UNL     1     -36.480   4.169  15.640  1.00  0.00     0.004 C 
ENDBRANCH  12  13
ENDBRANCH  11  12
ENDBRANCH  10  11
ENDBRANCH   9  10
ENDBRANCH   1   9
TORSDOF 9
ENDMDL
MODEL 9
REMARK VINA RESULT:    -4.397     11.291     13.230
REMARK INTER + INTRA:          -7.167
REMARK INTER:                  -6.150
REMARK INTRA:                  -1.017
REMARK UNBOUND:                -0.457
REMARK SMILES CCCCCCCCCC=CC(=O)[O-]
REMARK SMILES IDX 7 1 8 2 9 3 10 4 11 5 12 6 13 7 14 8 6 9 5 10 4 11 3 12 2 13
REMARK SMILES IDX 1 14
REMARK H PARENT
REMARK Flexibility Score: inf
ROOT
ATOM      1  C   UNL     1     -36.144   1.914  19.740  1.00  0.00     0.000 C 
ENDROOT
BRANCH   1   2
ATOM      2  C   UNL     1     -35.180   3.080  19.450  1.00  0.00     0.004 C 
BRANCH   2   3
ATOM      3  C   UNL     1     -33.706   2.644  19.418  1.00  0.00     0.027 C 
BRANCH   3   4
ATOM      4  C   UNL     1     -33.399   1.860  18.175  1.00  0.00    -0.025 C 
ATOM      5  C   UNL     1     -33.177   0.543  18.217  1.00  0.00     0.020 C 
BRANCH   5   6
ATOM      6  C   UNL     1     -32.859  -0.233  17.009  1.00  0.00     0.064 C 
ATOM      7  O   UNL     1     -32.093   0.257  16.139  1.00  0.00    -0.545 OA
ATOM      8  O   UNL     1     -33.391  -1.502  16.812  1.00  0.00    -0.545 OA
ENDBRANCH   5   6
ENDBRANCH   3   4
ENDBRANCH   2   3
ENDBRANCH   1   2
BRANCH   1   9
ATOM      9  C   UNL     1     -37.393   1.858  18.840  1.00  0.00     0.000 C 
BRANCH   9  10
ATOM     10  C   UNL     1     -37.199   0.968  17.602  1.00  0.00     0.000 C 
BRANCH  10  11
ATOM     11  C   UNL     1     -36.535   1.716  16.434  1.00  0.00    -0.000 C 
BRANCH  11  12
ATOM     12  C   UNL     1     -37.459   2.774  15.803  1.00  0.00    -0.000 C 
BRANCH  12  13
ATOM     13  C   UNL     1     -36.989   4.209  16.087  1.00  0.00    -0.003 C 
ATOM     14  C   UNL     1     -35.999   4.723  15.042  1.00  0.00     0.004 C 
ENDBRANCH  12  13
ENDBRANCH  11  12
ENDBRANCH  10  11
ENDBRANCH   9  10
ENDBRANCH   1   9
TORSDOF 9
ENDMDL
