MODEL 1
REMARK VINA RESULT:     0.375      0.000      0.000
REMARK INTER + INTRA:          -0.089
REMARK INTER:                   0.856
REMARK INTRA:                  -0.945
REMARK UNBOUND:                -0.945
REMARK SMILES CCCCCCCCCCCCCCCCCCCCCCCC(=O)[O-]
REMARK SMILES IDX 13 1 14 2 15 3 16 4 17 5 18 6 19 7 20 8 21 9 22 10 23 11
REMARK SMILES IDX 24 12 25 13 26 14 12 15 11 16 10 17 9 18 8 19 7 20 6 21 5 22
REMARK SMILES IDX 4 23 3 24 2 25 1 26
REMARK H PARENT
REMARK Flexibility Score: inf
ROOT
ATOM      1  C   UNL     1      46.943  11.877 -29.919  1.00  0.00     0.000 C 
ENDROOT
BRANCH   1   2
ATOM      2  C   UNL     1      45.606  11.949 -30.674  1.00  0.00     0.000 C 
BRANCH   2   3
ATOM      3  C   UNL     1      45.783  12.304 -32.162  1.00  0.00     0.000 C 
BRANCH   3   4
ATOM      4  C   UNL     1      44.462  12.226 -32.944  1.00  0.00     0.000 C 
BRANCH   4   5
ATOM      5  C   UNL     1      44.567  12.843 -34.349  1.00  0.00     0.000 C 
BRANCH   5   6
ATOM      6  C   UNL     1      44.501  11.787 -35.467  1.00  0.00     0.000 C 
BRANCH   6   7
ATOM      7  C   UNL     1      43.109  11.610 -36.106  1.00  0.00     0.000 C 
BRANCH   7   8
ATOM      8  C   UNL     1      42.019  12.567 -35.581  1.00  0.00     0.000 C 
BRANCH   8   9
ATOM      9  C   UNL     1      41.574  13.652 -36.578  1.00  0.00     0.000 C 
BRANCH   9  10
ATOM     10  C   UNL     1      40.331  14.423 -36.101  1.00  0.00     0.006 C 
BRANCH  10  11
ATOM     11  C   UNL     1      39.330  13.513 -35.376  1.00  0.00     0.053 C 
BRANCH  11  12
ATOM     12  C   UNL     1      37.940  14.070 -35.425  1.00  0.00     0.041 C 
ATOM     13  O   UNL     1      37.034  13.460 -36.053  1.00  0.00    -0.550 OA
ATOM     14  O   UNL     1      37.643  15.257 -34.769  1.00  0.00    -0.550 OA
ENDBRANCH  11  12
ENDBRANCH  10  11
ENDBRANCH   9  10
ENDBRANCH   8   9
ENDBRANCH   7   8
ENDBRANCH   6   7
ENDBRANCH   5   6
ENDBRANCH   4   5
ENDBRANCH   3   4
ENDBRANCH   2   3
ENDBRANCH   1   2
BRANCH   1  15
ATOM     15  C   UNL     1      46.887  10.928 -28.709  1.00  0.00     0.000 C 
BRANCH  15  16
ATOM     16  C   UNL     1      45.557  11.022 -27.934  1.00  0.00     0.000 C 
BRANCH  16  17
ATOM     17  C   UNL     1      45.657  11.682 -26.547  1.00  0.00     0.000 C 
BRANCH  17  18
ATOM     18  C   UNL     1      44.407  11.450 -25.682  1.00  0.00    -0.000 C 
BRANCH  18  19
ATOM     19  C   UNL     1      44.143  12.603 -24.701  1.00  0.00    -0.000 C 
BRANCH  19  20
ATOM     20  C   UNL     1      45.393  12.983 -23.892  1.00  0.00    -0.000 C 
BRANCH  20  21
ATOM     21  C   UNL     1      45.611  12.014 -22.724  1.00  0.00    -0.000 C 
BRANCH  21  22
ATOM     22  C   UNL     1      47.047  12.120 -22.189  1.00  0.00    -0.000 C 
BRANCH  22  23
ATOM     23  C   UNL     1      47.482  10.877 -21.394  1.00  0.00    -0.000 C 
BRANCH  23  24
ATOM     24  C   UNL     1      48.032  11.171 -19.986  1.00  0.00    -0.000 C 
BRANCH  24  25
ATOM     25  C   UNL     1      49.573  11.146 -19.904  1.00  0.00    -0.003 C 
ATOM     26  C   UNL     1      50.121  12.177 -18.917  1.00  0.00     0.004 C 
ENDBRANCH  24  25
ENDBRANCH  23  24
ENDBRANCH  22  23
ENDBRANCH  21  22
ENDBRANCH  20  21
ENDBRANCH  19  20
ENDBRANCH  18  19
ENDBRANCH  17  18
ENDBRANCH  16  17
ENDBRANCH  15  16
ENDBRANCH   1  15
TORSDOF 22
ENDMDL
MODEL 2
REMARK VINA RESULT:     0.670      4.456     11.356
REMARK INTER + INTRA:           0.586
REMARK INTER:                   1.938
REMARK INTRA:                  -1.352
REMARK UNBOUND:                -0.945
REMARK SMILES CCCCCCCCCCCCCCCCCCCCCCCC(=O)[O-]
REMARK SMILES IDX 13 1 14 2 15 3 16 4 17 5 18 6 19 7 20 8 21 9 22 10 23 11
REMARK SMILES IDX 24 12 25 13 26 14 12 15 11 16 10 17 9 18 8 19 7 20 6 21 5 22
REMARK SMILES IDX 4 23 3 24 2 25 1 26
REMARK H PARENT
REMARK Flexibility Score: inf
ROOT
ATOM      1  C   UNL     1      42.827  11.602 -34.283  1.00  0.00     0.000 C 
ENDROOT
BRANCH   1   2
ATOM      2  C   UNL     1      43.662  12.285 -33.187  1.00  0.00     0.000 C 
BRANCH   2   3
ATOM      3  C   UNL     1      45.066  12.688 -33.674  1.00  0.00     0.000 C 
BRANCH   3   4
ATOM      4  C   UNL     1      45.998  13.078 -32.517  1.00  0.00     0.000 C 
BRANCH   4   5
ATOM      5  C   UNL     1      47.004  11.969 -32.164  1.00  0.00     0.000 C 
BRANCH   5   6
ATOM      6  C   UNL     1      46.391  10.875 -31.272  1.00  0.00     0.000 C 
BRANCH   6   7
ATOM      7  C   UNL     1      46.737  10.995 -29.774  1.00  0.00     0.000 C 
BRANCH   7   8
ATOM      8  C   UNL     1      45.554  11.352 -28.853  1.00  0.00     0.000 C 
BRANCH   8   9
ATOM      9  C   UNL     1      45.854  11.254 -27.345  1.00  0.00     0.000 C 
BRANCH   9  10
ATOM     10  C   UNL     1      44.606  11.488 -26.475  1.00  0.00     0.006 C 
BRANCH  10  11
ATOM     11  C   UNL     1      44.944  11.527 -24.979  1.00  0.00     0.053 C 
BRANCH  11  12
ATOM     12  C   UNL     1      44.521  12.818 -24.349  1.00  0.00     0.041 C 
ATOM     13  O   UNL     1      43.302  13.136 -24.311  1.00  0.00    -0.550 OA
ATOM     14  O   UNL     1      45.471  13.666 -23.795  1.00  0.00    -0.550 OA
ENDBRANCH  11  12
ENDBRANCH  10  11
ENDBRANCH   9  10
ENDBRANCH   8   9
ENDBRANCH   7   8
ENDBRANCH   6   7
ENDBRANCH   5   6
ENDBRANCH   4   5
ENDBRANCH   3   4
ENDBRANCH   2   3
ENDBRANCH   1   2
BRANCH   1  15
ATOM     15  C   UNL     1      43.264  12.013 -35.700  1.00  0.00     0.000 C 
BRANCH  15  16
ATOM     16  C   UNL     1      42.260  12.960 -36.387  1.00  0.00     0.000 C 
BRANCH  16  17
ATOM     17  C   UNL     1      42.046  14.308 -35.675  1.00  0.00     0.000 C 
BRANCH  17  18
ATOM     18  C   UNL     1      40.593  14.806 -35.762  1.00  0.00    -0.000 C 
BRANCH  18  19
ATOM     19  C   UNL     1      39.571  13.713 -35.413  1.00  0.00    -0.000 C 
BRANCH  19  20
ATOM     20  C   UNL     1      38.253  13.872 -36.188  1.00  0.00    -0.000 C 
BRANCH  20  21
ATOM     21  C   UNL     1      37.049  13.855 -35.239  1.00  0.00    -0.000 C 
BRANCH  21  22
ATOM     22  C   UNL     1      37.343  12.997 -34.000  1.00  0.00    -0.000 C 
BRANCH  22  23
ATOM     23  C   UNL     1      36.875  13.656 -32.692  1.00  0.00    -0.000 C 
BRANCH  23  24
ATOM     24  C   UNL     1      37.149  12.832 -31.419  1.00  0.00    -0.000 C 
BRANCH  24  25
ATOM     25  C   UNL     1      36.893  13.608 -30.110  1.00  0.00    -0.003 C 
ATOM     26  C   UNL     1      37.476  15.020 -30.146  1.00  0.00     0.004 C 
ENDBRANCH  24  25
ENDBRANCH  23  24
ENDBRANCH  22  23
ENDBRANCH  21  22
ENDBRANCH  20  21
ENDBRANCH  19  20
ENDBRANCH  18  19
ENDBRANCH  17  18
ENDBRANCH  16  17
ENDBRANCH  15  16
ENDBRANCH   1  15
TORSDOF 22
ENDMDL
MODEL 3
REMARK VINA RESULT:     1.048      1.894      4.278
REMARK INTER + INTRA:           1.450
REMARK INTER:                   2.021
REMARK INTRA:                  -0.571
REMARK UNBOUND:                -0.945
REMARK SMILES CCCCCCCCCCCCCCCCCCCCCCCC(=O)[O-]
REMARK SMILES IDX 13 1 14 2 15 3 16 4 17 5 18 6 19 7 20 8 21 9 22 10 23 11
REMARK SMILES IDX 24 12 25 13 26 14 12 15 11 16 10 17 9 18 8 19 7 20 6 21 5 22
REMARK SMILES IDX 4 23 3 24 2 25 1 26
REMARK H PARENT
REMARK Flexibility Score: inf
ROOT
ATOM      1  C   UNL     1      44.649  12.693 -32.836  1.00  0.00     0.000 C 
ENDROOT
BRANCH   1   2
ATOM      2  C   UNL     1      43.762  11.846 -33.764  1.00  0.00     0.000 C 
BRANCH   2   3
ATOM      3  C   UNL     1      43.573  12.486 -35.151  1.00  0.00     0.000 C 
BRANCH   3   4
ATOM      4  C   UNL     1      42.092  12.607 -35.544  1.00  0.00     0.000 C 
BRANCH   4   5
ATOM      5  C   UNL     1      41.801  13.863 -36.384  1.00  0.00     0.000 C 
BRANCH   5   6
ATOM      6  C   UNL     1      40.329  13.952 -36.825  1.00  0.00     0.000 C 
BRANCH   6   7
ATOM      7  C   UNL     1      39.303  13.739 -35.694  1.00  0.00     0.000 C 
BRANCH   7   8
ATOM      8  C   UNL     1      38.030  12.968 -36.098  1.00  0.00     0.000 C 
BRANCH   8   9
ATOM      9  C   UNL     1      36.875  13.046 -35.083  1.00  0.00     0.000 C 
BRANCH   9  10
ATOM     10  C   UNL     1      37.309  13.648 -33.735  1.00  0.00     0.006 C 
BRANCH  10  11
ATOM     11  C   UNL     1      36.936  12.745 -32.552  1.00  0.00     0.053 C 
BRANCH  11  12
ATOM     12  C   UNL     1      37.022  13.478 -31.248  1.00  0.00     0.041 C 
ATOM     13  O   UNL     1      37.120  14.734 -31.231  1.00  0.00    -0.550 OA
ATOM     14  O   UNL     1      36.984  12.774 -30.051  1.00  0.00    -0.550 OA
ENDBRANCH  11  12
ENDBRANCH  10  11
ENDBRANCH   9  10
ENDBRANCH   8   9
ENDBRANCH   7   8
ENDBRANCH   6   7
ENDBRANCH   5   6
ENDBRANCH   4   5
ENDBRANCH   3   4
ENDBRANCH   2   3
ENDBRANCH   1   2
BRANCH   1  15
ATOM     15  C   UNL     1      46.149  12.511 -33.126  1.00  0.00     0.000 C 
BRANCH  15  16
ATOM     16  C   UNL     1      46.999  12.400 -31.845  1.00  0.00     0.000 C 
BRANCH  16  17
ATOM     17  C   UNL     1      46.757  11.129 -31.011  1.00  0.00     0.000 C 
BRANCH  17  18
ATOM     18  C   UNL     1      45.642  11.302 -29.966  1.00  0.00    -0.000 C 
BRANCH  18  19
ATOM     19  C   UNL     1      46.110  10.966 -28.540  1.00  0.00    -0.000 C 
BRANCH  19  20
ATOM     20  C   UNL     1      44.985  11.109 -27.504  1.00  0.00    -0.000 C 
BRANCH  20  21
ATOM     21  C   UNL     1      45.552  11.373 -26.105  1.00  0.00    -0.000 C 
BRANCH  21  22
ATOM     22  C   UNL     1      44.421  11.611 -25.094  1.00  0.00    -0.000 C 
BRANCH  22  23
ATOM     23  C   UNL     1      44.672  12.832 -24.192  1.00  0.00    -0.000 C 
BRANCH  23  24
ATOM     24  C   UNL     1      45.949  12.749 -23.335  1.00  0.00    -0.000 C 
BRANCH  24  25
ATOM     25  C   UNL     1      46.393  11.304 -23.020  1.00  0.00    -0.003 C 
ATOM     26  C   UNL     1      47.516  11.253 -21.985  1.00  0.00     0.004 C 
ENDBRANCH  24  25
ENDBRANCH  23  24
ENDBRANCH  22  23
ENDBRANCH  21  22
ENDBRANCH  20  21
ENDBRANCH  19  20
ENDBRANCH  18  19
ENDBRANCH  17  18
ENDBRANCH  16  17
ENDBRANCH  15  16
ENDBRANCH   1  15
TORSDOF 22
ENDMDL
MODEL 4
REMARK VINA RESULT:     1.276      3.238      6.091
REMARK INTER + INTRA:           1.972
REMARK INTER:                   3.292
REMARK INTRA:                  -1.320
REMARK UNBOUND:                -0.945
REMARK SMILES CCCCCCCCCCCCCCCCCCCCCCCC(=O)[O-]
REMARK SMILES IDX 13 1 14 2 15 3 16 4 17 5 18 6 19 7 20 8 21 9 22 10 23 11
REMARK SMILES IDX 24 12 25 13 26 14 12 15 11 16 10 17 9 18 8 19 7 20 6 21 5 22
REMARK SMILES IDX 4 23 3 24 2 25 1 26
REMARK H PARENT
REMARK Flexibility Score: inf
ROOT
ATOM      1  C   UNL     1      43.585  11.503 -34.660  1.00  0.00     0.000 C 
ENDROOT
BRANCH   1   2
ATOM      2  C   UNL     1      42.539  12.065 -35.637  1.00  0.00     0.000 C 
BRANCH   2   3
ATOM      3  C   UNL     1      42.082  13.487 -35.266  1.00  0.00     0.000 C 
BRANCH   3   4
ATOM      4  C   UNL     1      41.465  14.235 -36.458  1.00  0.00     0.000 C 
BRANCH   4   5
ATOM      5  C   UNL     1      40.068  14.800 -36.145  1.00  0.00     0.000 C 
BRANCH   5   6
ATOM      6  C   UNL     1      39.228  13.853 -35.270  1.00  0.00     0.000 C 
BRANCH   6   7
ATOM      7  C   UNL     1      37.729  14.203 -35.196  1.00  0.00     0.000 C 
BRANCH   7   8
ATOM      8  C   UNL     1      36.875  13.257 -34.328  1.00  0.00     0.000 C 
BRANCH   8   9
ATOM      9  C   UNL     1      37.616  12.627 -33.134  1.00  0.00     0.000 C 
BRANCH   9  10
ATOM     10  C   UNL     1      36.994  13.009 -31.780  1.00  0.00     0.006 C 
BRANCH  10  11
ATOM     11  C   UNL     1      37.050  14.521 -31.525  1.00  0.00     0.053 C 
BRANCH  11  12
ATOM     12  C   UNL     1      37.470  14.830 -30.120  1.00  0.00     0.041 C 
ATOM     13  O   UNL     1      38.344  15.710 -29.898  1.00  0.00    -0.550 OA
ATOM     14  O   UNL     1      36.889  14.153 -29.056  1.00  0.00    -0.550 OA
ENDBRANCH  11  12
ENDBRANCH  10  11
ENDBRANCH   9  10
ENDBRANCH   8   9
ENDBRANCH   7   8
ENDBRANCH   6   7
ENDBRANCH   5   6
ENDBRANCH   4   5
ENDBRANCH   3   4
ENDBRANCH   2   3
ENDBRANCH   1   2
BRANCH   1  15
ATOM     15  C   UNL     1      43.211  11.750 -33.188  1.00  0.00     0.000 C 
BRANCH  15  16
ATOM     16  C   UNL     1      44.324  12.466 -32.398  1.00  0.00     0.000 C 
BRANCH  16  17
ATOM     17  C   UNL     1      45.627  12.708 -33.182  1.00  0.00     0.000 C 
BRANCH  17  18
ATOM     18  C   UNL     1      46.833  11.970 -32.580  1.00  0.00    -0.000 C 
BRANCH  18  19
ATOM     19  C   UNL     1      46.469  11.171 -31.318  1.00  0.00    -0.000 C 
BRANCH  19  20
ATOM     20  C   UNL     1      46.764  11.949 -30.025  1.00  0.00    -0.000 C 
BRANCH  20  21
ATOM     21  C   UNL     1      46.833  11.007 -28.818  1.00  0.00    -0.000 C 
BRANCH  21  22
ATOM     22  C   UNL     1      45.458  10.878 -28.146  1.00  0.00    -0.000 C 
BRANCH  22  23
ATOM     23  C   UNL     1      45.519  11.057 -26.620  1.00  0.00    -0.000 C 
BRANCH  23  24
ATOM     24  C   UNL     1      44.196  11.503 -25.969  1.00  0.00    -0.000 C 
BRANCH  24  25
ATOM     25  C   UNL     1      44.380  12.201 -24.605  1.00  0.00    -0.003 C 
ATOM     26  C   UNL     1      43.948  13.667 -24.638  1.00  0.00     0.004 C 
ENDBRANCH  24  25
ENDBRANCH  23  24
ENDBRANCH  22  23
ENDBRANCH  21  22
ENDBRANCH  20  21
ENDBRANCH  19  20
ENDBRANCH  18  19
ENDBRANCH  17  18
ENDBRANCH  16  17
ENDBRANCH  15  16
ENDBRANCH   1  15
TORSDOF 22
ENDMDL
MODEL 5
REMARK VINA RESULT:     1.685      4.681     12.014
REMARK INTER + INTRA:           2.907
REMARK INTER:                   4.072
REMARK INTRA:                  -1.165
REMARK UNBOUND:                -0.945
REMARK SMILES CCCCCCCCCCCCCCCCCCCCCCCC(=O)[O-]
REMARK SMILES IDX 13 1 14 2 15 3 16 4 17 5 18 6 19 7 20 8 21 9 22 10 23 11
REMARK SMILES IDX 24 12 25 13 26 14 12 15 11 16 10 17 9 18 8 19 7 20 6 21 5 22
REMARK SMILES IDX 4 23 3 24 2 25 1 26
REMARK H PARENT
REMARK Flexibility Score: inf
ROOT
ATOM      1  C   UNL     1      43.804  11.909 -32.684  1.00  0.00     0.000 C 
ENDROOT
BRANCH   1   2
ATOM      2  C   UNL     1      45.215  12.178 -33.232  1.00  0.00     0.000 C 
BRANCH   2   3
ATOM      3  C   UNL     1      46.163  12.765 -32.171  1.00  0.00     0.000 C 
BRANCH   3   4
ATOM      4  C   UNL     1      45.760  12.371 -30.742  1.00  0.00     0.000 C 
BRANCH   4   5
ATOM      5  C   UNL     1      46.372  11.030 -30.300  1.00  0.00     0.000 C 
BRANCH   5   6
ATOM      6  C   UNL     1      47.339  11.184 -29.112  1.00  0.00     0.000 C 
BRANCH   6   7
ATOM      7  C   UNL     1      46.721  10.876 -27.734  1.00  0.00     0.000 C 
BRANCH   7   8
ATOM      8  C   UNL     1      45.264  11.346 -27.548  1.00  0.00     0.000 C 
BRANCH   8   9
ATOM      9  C   UNL     1      44.692  11.140 -26.133  1.00  0.00     0.000 C 
BRANCH   9  10
ATOM     10  C   UNL     1      44.285  12.462 -25.460  1.00  0.00     0.006 C 
BRANCH  10  11
ATOM     11  C   UNL     1      44.298  12.359 -23.929  1.00  0.00     0.053 C 
BRANCH  11  12
ATOM     12  C   UNL     1      45.669  12.589 -23.371  1.00  0.00     0.041 C 
ATOM     13  O   UNL     1      46.116  13.761 -23.249  1.00  0.00    -0.550 OA
ATOM     14  O   UNL     1      46.449  11.510 -22.974  1.00  0.00    -0.550 OA
ENDBRANCH  11  12
ENDBRANCH  10  11
ENDBRANCH   9  10
ENDBRANCH   8   9
ENDBRANCH   7   8
ENDBRANCH   6   7
ENDBRANCH   5   6
ENDBRANCH   4   5
ENDBRANCH   3   4
ENDBRANCH   2   3
ENDBRANCH   1   2
BRANCH   1  15
ATOM     15  C   UNL     1      42.702  12.223 -33.710  1.00  0.00     0.000 C 
BRANCH  15  16
ATOM     16  C   UNL     1      43.170  12.045 -35.167  1.00  0.00     0.000 C 
BRANCH  16  17
ATOM     17  C   UNL     1      42.077  12.250 -36.233  1.00  0.00     0.000 C 
BRANCH  17  18
ATOM     18  C   UNL     1      41.622  13.714 -36.348  1.00  0.00    -0.000 C 
BRANCH  18  19
ATOM     19  C   UNL     1      40.206  13.939 -35.793  1.00  0.00    -0.000 C 
BRANCH  19  20
ATOM     20  C   UNL     1      39.140  13.144 -36.564  1.00  0.00    -0.000 C 
BRANCH  20  21
ATOM     21  C   UNL     1      37.757  13.790 -36.419  1.00  0.00    -0.000 C 
BRANCH  21  22
ATOM     22  C   UNL     1      37.792  14.927 -35.388  1.00  0.00    -0.000 C 
BRANCH  22  23
ATOM     23  C   UNL     1      37.001  14.599 -34.110  1.00  0.00    -0.000 C 
BRANCH  23  24
ATOM     24  C   UNL     1      37.735  13.682 -33.114  1.00  0.00    -0.000 C 
BRANCH  24  25
ATOM     25  C   UNL     1      36.876  13.270 -31.899  1.00  0.00    -0.003 C 
ATOM     26  C   UNL     1      37.387  11.994 -31.230  1.00  0.00     0.004 C 
ENDBRANCH  24  25
ENDBRANCH  23  24
ENDBRANCH  22  23
ENDBRANCH  21  22
ENDBRANCH  20  21
ENDBRANCH  19  20
ENDBRANCH  18  19
ENDBRANCH  17  18
ENDBRANCH  16  17
ENDBRANCH  15  16
ENDBRANCH   1  15
TORSDOF 22
ENDMDL
MODEL 6
REMARK VINA RESULT:     1.780      1.231      2.360
REMARK INTER + INTRA:           3.124
REMARK INTER:                   3.403
REMARK INTRA:                  -0.279
REMARK UNBOUND:                -0.945
REMARK SMILES CCCCCCCCCCCCCCCCCCCCCCCC(=O)[O-]
REMARK SMILES IDX 13 1 14 2 15 3 16 4 17 5 18 6 19 7 20 8 21 9 22 10 23 11
REMARK SMILES IDX 24 12 25 13 26 14 12 15 11 16 10 17 9 18 8 19 7 20 6 21 5 22
REMARK SMILES IDX 4 23 3 24 2 25 1 26
REMARK H PARENT
REMARK Flexibility Score: inf
ROOT
ATOM      1  C   UNL     1      46.838  12.430 -32.246  1.00  0.00     0.000 C 
ENDROOT
BRANCH   1   2
ATOM      2  C   UNL     1      45.889  12.907 -33.358  1.00  0.00     0.000 C 
BRANCH   2   3
ATOM      3  C   UNL     1      44.455  12.377 -33.184  1.00  0.00     0.000 C 
BRANCH   3   4
ATOM      4  C   UNL     1      43.970  11.583 -34.407  1.00  0.00     0.000 C 
BRANCH   4   5
ATOM      5  C   UNL     1      43.835  12.456 -35.667  1.00  0.00     0.000 C 
BRANCH   5   6
ATOM      6  C   UNL     1      42.587  12.107 -36.498  1.00  0.00     0.000 C 
BRANCH   6   7
ATOM      7  C   UNL     1      41.270  12.066 -35.697  1.00  0.00     0.000 C 
BRANCH   7   8
ATOM      8  C   UNL     1      40.774  13.431 -35.180  1.00  0.00     0.000 C 
BRANCH   8   9
ATOM      9  C   UNL     1      40.095  14.318 -36.240  1.00  0.00     0.000 C 
BRANCH   9  10
ATOM     10  C   UNL     1      38.988  13.579 -37.012  1.00  0.00     0.006 C 
BRANCH  10  11
ATOM     11  C   UNL     1      37.622  13.703 -36.325  1.00  0.00     0.053 C 
BRANCH  11  12
ATOM     12  C   UNL     1      37.754  14.205 -34.919  1.00  0.00     0.041 C 
ATOM     13  O   UNL     1      38.087  13.419 -33.993  1.00  0.00    -0.550 OA
ATOM     14  O   UNL     1      37.518  15.544 -34.634  1.00  0.00    -0.550 OA
ENDBRANCH  11  12
ENDBRANCH  10  11
ENDBRANCH   9  10
ENDBRANCH   8   9
ENDBRANCH   7   8
ENDBRANCH   6   7
ENDBRANCH   5   6
ENDBRANCH   4   5
ENDBRANCH   3   4
ENDBRANCH   2   3
ENDBRANCH   1   2
BRANCH   1  15
ATOM     15  C   UNL     1      46.382  11.105 -31.610  1.00  0.00     0.000 C 
BRANCH  15  16
ATOM     16  C   UNL     1      46.980  10.875 -30.208  1.00  0.00     0.000 C 
BRANCH  16  17
ATOM     17  C   UNL     1      46.449  11.816 -29.111  1.00  0.00     0.000 C 
BRANCH  17  18
ATOM     18  C   UNL     1      45.661  11.076 -28.018  1.00  0.00    -0.000 C 
BRANCH  18  19
ATOM     19  C   UNL     1      44.888  12.032 -27.095  1.00  0.00    -0.000 C 
BRANCH  19  20
ATOM     20  C   UNL     1      44.590  11.410 -25.722  1.00  0.00    -0.000 C 
BRANCH  20  21
ATOM     21  C   UNL     1      43.902  12.419 -24.796  1.00  0.00    -0.000 C 
BRANCH  21  22
ATOM     22  C   UNL     1      44.810  12.780 -23.611  1.00  0.00    -0.000 C 
BRANCH  22  23
ATOM     23  C   UNL     1      46.229  12.203 -23.749  1.00  0.00    -0.000 C 
BRANCH  23  24
ATOM     24  C   UNL     1      46.512  10.968 -22.872  1.00  0.00    -0.000 C 
BRANCH  24  25
ATOM     25  C   UNL     1      47.967  10.888 -22.363  1.00  0.00    -0.003 C 
ATOM     26  C   UNL     1      48.053  10.907 -20.838  1.00  0.00     0.004 C 
ENDBRANCH  24  25
ENDBRANCH  23  24
ENDBRANCH  22  23
ENDBRANCH  21  22
ENDBRANCH  20  21
ENDBRANCH  19  20
ENDBRANCH  18  19
ENDBRANCH  17  18
ENDBRANCH  16  17
ENDBRANCH  15  16
ENDBRANCH   1  15
TORSDOF 22
ENDMDL
MODEL 7
REMARK VINA RESULT:     2.063      4.216      8.158
REMARK INTER + INTRA:           3.771
REMARK INTER:                   3.892
REMARK INTRA:                  -0.121
REMARK UNBOUND:                -0.945
REMARK SMILES CCCCCCCCCCCCCCCCCCCCCCCC(=O)[O-]
REMARK SMILES IDX 13 1 14 2 15 3 16 4 17 5 18 6 19 7 20 8 21 9 22 10 23 11
REMARK SMILES IDX 24 12 25 13 26 14 12 15 11 16 10 17 9 18 8 19 7 20 6 21 5 22
REMARK SMILES IDX 4 23 3 24 2 25 1 26
REMARK H PARENT
REMARK Flexibility Score: inf
ROOT
ATOM      1  C   UNL     1      41.825  14.322 -35.514  1.00  0.00     0.000 C 
ENDROOT
BRANCH   1   2
ATOM      2  C   UNL     1      40.296  14.192 -35.413  1.00  0.00     0.000 C 
BRANCH   2   3
ATOM      3  C   UNL     1      39.681  13.451 -36.614  1.00  0.00     0.000 C 
BRANCH   3   4
ATOM      4  C   UNL     1      38.161  13.271 -36.477  1.00  0.00     0.000 C 
BRANCH   4   5
ATOM      5  C   UNL     1      37.564  14.110 -35.334  1.00  0.00     0.000 C 
BRANCH   5   6
ATOM      6  C   UNL     1      36.875  13.245 -34.263  1.00  0.00     0.000 C 
BRANCH   6   7
ATOM      7  C   UNL     1      37.697  13.040 -32.974  1.00  0.00     0.000 C 
BRANCH   7   8
ATOM      8  C   UNL     1      36.990  12.233 -31.866  1.00  0.00     0.000 C 
BRANCH   8   9
ATOM      9  C   UNL     1      37.649  12.324 -30.478  1.00  0.00     0.000 C 
BRANCH   9  10
ATOM     10  C   UNL     1      37.192  13.560 -29.683  1.00  0.00     0.006 C 
BRANCH  10  11
ATOM     11  C   UNL     1      36.909  14.761 -30.595  1.00  0.00     0.053 C 
BRANCH  11  12
ATOM     12  C   UNL     1      38.024  15.760 -30.556  1.00  0.00     0.041 C 
ATOM     13  O   UNL     1      38.471  16.254 -31.625  1.00  0.00    -0.550 OA
ATOM     14  O   UNL     1      38.563  16.154 -29.338  1.00  0.00    -0.550 OA
ENDBRANCH  11  12
ENDBRANCH  10  11
ENDBRANCH   9  10
ENDBRANCH   8   9
ENDBRANCH   7   8
ENDBRANCH   6   7
ENDBRANCH   5   6
ENDBRANCH   4   5
ENDBRANCH   3   4
ENDBRANCH   2   3
ENDBRANCH   1   2
BRANCH   1  15
ATOM     15  C   UNL     1      42.429  13.373 -36.564  1.00  0.00     0.000 C 
BRANCH  15  16
ATOM     16  C   UNL     1      43.033  12.098 -35.943  1.00  0.00     0.000 C 
BRANCH  16  17
ATOM     17  C   UNL     1      44.545  11.916 -36.169  1.00  0.00     0.000 C 
BRANCH  17  18
ATOM     18  C   UNL     1      45.339  11.822 -34.856  1.00  0.00    -0.000 C 
BRANCH  18  19
ATOM     19  C   UNL     1      44.551  12.353 -33.648  1.00  0.00    -0.000 C 
BRANCH  19  20
ATOM     20  C   UNL     1      45.448  13.090 -32.640  1.00  0.00    -0.000 C 
BRANCH  20  21
ATOM     21  C   UNL     1      46.872  12.522 -32.649  1.00  0.00    -0.000 C 
BRANCH  21  22
ATOM     22  C   UNL     1      46.895  11.099 -32.071  1.00  0.00    -0.000 C 
BRANCH  22  23
ATOM     23  C   UNL     1      46.025  10.951 -30.812  1.00  0.00    -0.000 C 
BRANCH  23  24
ATOM     24  C   UNL     1      45.705  12.274 -30.089  1.00  0.00    -0.000 C 
BRANCH  24  25
ATOM     25  C   UNL     1      46.117  12.284 -28.602  1.00  0.00    -0.003 C 
ATOM     26  C   UNL     1      46.304  10.875 -28.040  1.00  0.00     0.004 C 
ENDBRANCH  24  25
ENDBRANCH  23  24
ENDBRANCH  22  23
ENDBRANCH  21  22
ENDBRANCH  20  21
ENDBRANCH  19  20
ENDBRANCH  18  19
ENDBRANCH  17  18
ENDBRANCH  16  17
ENDBRANCH  15  16
ENDBRANCH   1  15
TORSDOF 22
ENDMDL
MODEL 8
REMARK VINA RESULT:     2.952      5.474     10.136
REMARK INTER + INTRA:           5.804
REMARK INTER:                   5.906
REMARK INTRA:                  -0.102
REMARK UNBOUND:                -0.945
REMARK SMILES CCCCCCCCCCCCCCCCCCCCCCCC(=O)[O-]
REMARK SMILES IDX 13 1 14 2 15 3 16 4 17 5 18 6 19 7 20 8 21 9 22 10 23 11
REMARK SMILES IDX 24 12 25 13 26 14 12 15 11 16 10 17 9 18 8 19 7 20 6 21 5 22
REMARK SMILES IDX 4 23 3 24 2 25 1 26
REMARK H PARENT
REMARK Flexibility Score: inf
ROOT
ATOM      1  C   UNL     1      40.543  14.653 -35.527  1.00  0.00     0.000 C 
ENDROOT
BRANCH   1   2
ATOM      2  C   UNL     1      40.738  13.668 -36.692  1.00  0.00     0.000 C 
BRANCH   2   3
ATOM      3  C   UNL     1      42.160  13.081 -36.743  1.00  0.00     0.000 C 
BRANCH   3   4
ATOM      4  C   UNL     1      42.254  11.711 -36.054  1.00  0.00     0.000 C 
BRANCH   4   5
ATOM      5  C   UNL     1      43.616  11.477 -35.379  1.00  0.00     0.000 C 
BRANCH   5   6
ATOM      6  C   UNL     1      44.467  12.758 -35.303  1.00  0.00     0.000 C 
BRANCH   6   7
ATOM      7  C   UNL     1      45.958  12.524 -34.991  1.00  0.00     0.000 C 
BRANCH   7   8
ATOM      8  C   UNL     1      46.306  12.407 -33.494  1.00  0.00     0.000 C 
BRANCH   8   9
ATOM      9  C   UNL     1      45.114  12.589 -32.535  1.00  0.00     0.000 C 
BRANCH   9  10
ATOM     10  C   UNL     1      45.548  13.008 -31.120  1.00  0.00     0.006 C 
BRANCH  10  11
ATOM     11  C   UNL     1      46.681  12.125 -30.579  1.00  0.00     0.053 C 
BRANCH  11  12
ATOM     12  C   UNL     1      46.433  11.715 -29.159  1.00  0.00     0.041 C 
ATOM     13  O   UNL     1      47.401  11.485 -28.386  1.00  0.00    -0.550 OA
ATOM     14  O   UNL     1      45.132  11.598 -28.686  1.00  0.00    -0.550 OA
ENDBRANCH  11  12
ENDBRANCH  10  11
ENDBRANCH   9  10
ENDBRANCH   8   9
ENDBRANCH   7   8
ENDBRANCH   6   7
ENDBRANCH   5   6
ENDBRANCH   4   5
ENDBRANCH   3   4
ENDBRANCH   2   3
ENDBRANCH   1   2
BRANCH   1  15
ATOM     15  C   UNL     1      39.062  14.982 -35.273  1.00  0.00     0.000 C 
BRANCH  15  16
ATOM     16  C   UNL     1      38.104  14.157 -36.156  1.00  0.00     0.000 C 
BRANCH  16  17
ATOM     17  C   UNL     1      37.676  12.802 -35.563  1.00  0.00     0.000 C 
BRANCH  17  18
ATOM     18  C   UNL     1      36.910  12.945 -34.237  1.00  0.00    -0.000 C 
BRANCH  18  19
ATOM     19  C   UNL     1      37.545  13.980 -33.295  1.00  0.00    -0.000 C 
BRANCH  19  20
ATOM     20  C   UNL     1      37.309  13.647 -31.813  1.00  0.00    -0.000 C 
BRANCH  20  21
ATOM     21  C   UNL     1      38.176  12.464 -31.367  1.00  0.00    -0.000 C 
BRANCH  21  22
ATOM     22  C   UNL     1      37.300  11.300 -30.880  1.00  0.00    -0.000 C 
BRANCH  22  23
ATOM     23  C   UNL     1      37.018  11.356 -29.369  1.00  0.00    -0.000 C 
BRANCH  23  24
ATOM     24  C   UNL     1      36.888  12.777 -28.789  1.00  0.00    -0.000 C 
BRANCH  24  25
ATOM     25  C   UNL     1      37.450  12.918 -27.358  1.00  0.00    -0.003 C 
ATOM     26  C   UNL     1      37.421  11.598 -26.589  1.00  0.00     0.004 C 
ENDBRANCH  24  25
ENDBRANCH  23  24
ENDBRANCH  22  23
ENDBRANCH  21  22
ENDBRANCH  20  21
ENDBRANCH  19  20
ENDBRANCH  18  19
ENDBRANCH  17  18
ENDBRANCH  16  17
ENDBRANCH  15  16
ENDBRANCH   1  15
TORSDOF 22
ENDMDL
