MODEL 1
REMARK VINA RESULT:    -5.970      0.000      0.000
REMARK INTER + INTRA:          -7.152
REMARK INTER:                  -7.017
REMARK INTRA:                  -0.135
REMARK UNBOUND:                -0.135
REMARK SMILES O=C([O-])C=Cc1ccc(O)c(O)c1
REMARK SMILES IDX 6 1 13 2 7 3 11 4 8 5 9 6 5 7 4 8 2 9 1 10 3 11 12 12 10 14
REMARK H PARENT 12 13 10 15
REMARK Flexibility Score: inf
ROOT
ATOM      1  C   UNL     1     203.952 206.251 277.398  1.00  0.00    -0.022 A 
ATOM      2  C   UNL     1     204.594 207.496 277.285  1.00  0.00     0.058 A 
ATOM      3  C   UNL     1     204.078 205.322 276.345  1.00  0.00     0.012 A 
ATOM      4  C   UNL     1     205.369 207.802 276.157  1.00  0.00     0.157 A 
ATOM      5  C   UNL     1     204.850 205.629 275.221  1.00  0.00     0.051 A 
ATOM      6  C   UNL     1     205.499 206.866 275.124  1.00  0.00     0.157 A 
ENDROOT
BRANCH   1   7
ATOM      7  C   UNL     1     203.135 205.980 278.607  1.00  0.00     0.010 C 
ATOM      8  C   UNL     1     203.096 206.787 279.677  1.00  0.00     0.025 C 
BRANCH   8   9
ATOM      9  C   UNL     1     202.265 206.490 280.855  1.00  0.00     0.064 C 
ATOM     10  O   UNL     1     201.915 205.311 281.127  1.00  0.00    -0.545 OA
ATOM     11  O   UNL     1     201.859 207.530 281.682  1.00  0.00    -0.545 OA
ENDBRANCH   8   9
ENDBRANCH   1   7
BRANCH   4  12
ATOM     12  O   UNL     1     206.012 209.034 276.056  1.00  0.00    -0.504 OA
ATOM     13  H   UNL     1     207.013 209.100 275.914  1.00  0.00     0.293 HD
ENDBRANCH   4  12
BRANCH   6  14
ATOM     14  O   UNL     1     206.271 207.172 274.005  1.00  0.00    -0.504 OA
ATOM     15  H   UNL     1     206.789 208.040 273.940  1.00  0.00     0.293 HD
ENDBRANCH   6  14
TORSDOF 4
ENDMDL
MODEL 2
REMARK VINA RESULT:    -5.850      1.548      1.955
REMARK INTER + INTRA:          -7.010
REMARK INTER:                  -6.878
REMARK INTRA:                  -0.132
REMARK UNBOUND:                -0.135
REMARK SMILES O=C([O-])C=Cc1ccc(O)c(O)c1
REMARK SMILES IDX 6 1 13 2 7 3 11 4 8 5 9 6 5 7 4 8 2 9 1 10 3 11 12 12 10 14
REMARK H PARENT 12 13 10 15
REMARK Flexibility Score: inf
ROOT
ATOM      1  C   UNL     1     202.543 205.902 277.005  1.00  0.00    -0.022 A 
ATOM      2  C   UNL     1     203.935 205.803 276.841  1.00  0.00     0.058 A 
ATOM      3  C   UNL     1     201.728 205.994 275.858  1.00  0.00     0.012 A 
ATOM      4  C   UNL     1     204.505 205.771 275.560  1.00  0.00     0.157 A 
ATOM      5  C   UNL     1     202.297 205.962 274.582  1.00  0.00     0.051 A 
ATOM      6  C   UNL     1     203.684 205.848 274.428  1.00  0.00     0.157 A 
ENDROOT
BRANCH   1   7
ATOM      7  C   UNL     1     201.990 205.943 278.381  1.00  0.00     0.010 C 
ATOM      8  C   UNL     1     202.730 206.176 279.475  1.00  0.00     0.025 C 
BRANCH   8   9
ATOM      9  C   UNL     1     202.144 206.220 280.824  1.00  0.00     0.064 C 
ATOM     10  O   UNL     1     201.744 205.171 281.398  1.00  0.00    -0.545 OA
ATOM     11  O   UNL     1     202.030 207.441 281.479  1.00  0.00    -0.545 OA
ENDBRANCH   8   9
ENDBRANCH   1   7
BRANCH   4  12
ATOM     12  O   UNL     1     205.886 205.662 275.405  1.00  0.00    -0.504 OA
ATOM     13  H   UNL     1     206.526 205.961 276.131  1.00  0.00     0.293 HD
ENDBRANCH   4  12
BRANCH   6  14
ATOM     14  O   UNL     1     204.253 205.813 273.157  1.00  0.00    -0.504 OA
ATOM     15  H   UNL     1     204.542 206.660 272.682  1.00  0.00     0.293 HD
ENDBRANCH   6  14
TORSDOF 4
ENDMDL
MODEL 3
REMARK VINA RESULT:    -5.790      1.694      5.793
REMARK INTER + INTRA:          -6.939
REMARK INTER:                  -6.809
REMARK INTRA:                  -0.130
REMARK UNBOUND:                -0.135
REMARK SMILES O=C([O-])C=Cc1ccc(O)c(O)c1
REMARK SMILES IDX 6 1 13 2 7 3 11 4 8 5 9 6 5 7 4 8 2 9 1 10 3 11 12 12 10 14
REMARK H PARENT 12 13 10 15
REMARK Flexibility Score: inf
ROOT
ATOM      1  C   UNL     1     202.788 207.149 278.436  1.00  0.00    -0.022 A 
ATOM      2  C   UNL     1     202.319 208.452 278.674  1.00  0.00     0.058 A 
ATOM      3  C   UNL     1     202.865 206.246 279.517  1.00  0.00     0.012 A 
ATOM      4  C   UNL     1     201.911 208.843 279.957  1.00  0.00     0.157 A 
ATOM      5  C   UNL     1     202.459 206.638 280.795  1.00  0.00     0.051 A 
ATOM      6  C   UNL     1     201.979 207.933 281.019  1.00  0.00     0.157 A 
ENDROOT
BRANCH   1   7
ATOM      7  C   UNL     1     203.218 206.788 277.063  1.00  0.00     0.010 C 
ATOM      8  C   UNL     1     204.451 206.358 276.756  1.00  0.00     0.025 C 
BRANCH   8   9
ATOM      9  C   UNL     1     204.838 205.998 275.382  1.00  0.00     0.064 C 
ATOM     10  O   UNL     1     205.622 206.723 274.713  1.00  0.00    -0.545 OA
ATOM     11  O   UNL     1     204.330 204.837 274.813  1.00  0.00    -0.545 OA
ENDBRANCH   8   9
ENDBRANCH   1   7
BRANCH   4  12
ATOM     12  O   UNL     1     201.438 210.134 280.184  1.00  0.00    -0.504 OA
ATOM     13  H   UNL     1     200.871 210.357 280.993  1.00  0.00     0.293 HD
ENDBRANCH   4  12
BRANCH   6  14
ATOM     14  O   UNL     1     201.570 208.325 282.292  1.00  0.00    -0.504 OA
ATOM     15  H   UNL     1     200.606 208.567 282.490  1.00  0.00     0.293 HD
ENDBRANCH   6  14
TORSDOF 4
ENDMDL
MODEL 4
REMARK VINA RESULT:    -5.774      2.717      5.747
REMARK INTER + INTRA:          -6.921
REMARK INTER:                  -6.793
REMARK INTRA:                  -0.128
REMARK UNBOUND:                -0.135
REMARK SMILES O=C([O-])C=Cc1ccc(O)c(O)c1
REMARK SMILES IDX 6 1 13 2 7 3 11 4 8 5 9 6 5 7 4 8 2 9 1 10 3 11 12 12 10 14
REMARK H PARENT 12 13 10 15
REMARK Flexibility Score: inf
ROOT
ATOM      1  C   UNL     1     202.294 206.729 278.421  1.00  0.00    -0.022 A 
ATOM      2  C   UNL     1     202.399 208.106 278.680  1.00  0.00     0.058 A 
ATOM      3  C   UNL     1     202.030 205.854 279.494  1.00  0.00     0.012 A 
ATOM      4  C   UNL     1     202.220 208.607 279.977  1.00  0.00     0.157 A 
ATOM      5  C   UNL     1     201.852 206.354 280.786  1.00  0.00     0.051 A 
ATOM      6  C   UNL     1     201.944 207.729 281.033  1.00  0.00     0.157 A 
ENDROOT
BRANCH   1   7
ATOM      7  C   UNL     1     202.502 206.249 277.032  1.00  0.00     0.010 C 
ATOM      8  C   UNL     1     201.509 206.064 276.150  1.00  0.00     0.025 C 
BRANCH   8   9
ATOM      9  C   UNL     1     201.756 205.596 274.777  1.00  0.00     0.064 C 
ATOM     10  O   UNL     1     200.832 205.097 274.081  1.00  0.00    -0.545 OA
ATOM     11  O   UNL     1     203.032 205.709 274.237  1.00  0.00    -0.545 OA
ENDBRANCH   8   9
ENDBRANCH   1   7
BRANCH   4  12
ATOM     12  O   UNL     1     202.316 209.975 280.225  1.00  0.00    -0.504 OA
ATOM     13  H   UNL     1     201.556 210.608 280.007  1.00  0.00     0.293 HD
ENDBRANCH   4  12
BRANCH   6  14
ATOM     14  O   UNL     1     201.765 208.230 282.320  1.00  0.00    -0.504 OA
ATOM     15  H   UNL     1     201.891 207.646 283.139  1.00  0.00     0.293 HD
ENDBRANCH   6  14
TORSDOF 4
ENDMDL
MODEL 5
REMARK VINA RESULT:    -5.586     14.095     15.284
REMARK INTER + INTRA:          -6.701
REMARK INTER:                  -6.576
REMARK INTRA:                  -0.125
REMARK UNBOUND:                -0.135
REMARK SMILES O=C([O-])C=Cc1ccc(O)c(O)c1
REMARK SMILES IDX 6 1 13 2 7 3 11 4 8 5 9 6 5 7 4 8 2 9 1 10 3 11 12 12 10 14
REMARK H PARENT 12 13 10 15
REMARK Flexibility Score: inf
ROOT
ATOM      1  C   UNL     1     214.344 203.122 287.380  1.00  0.00    -0.022 A 
ATOM      2  C   UNL     1     213.546 203.248 288.530  1.00  0.00     0.058 A 
ATOM      3  C   UNL     1     215.646 202.598 287.510  1.00  0.00     0.012 A 
ATOM      4  C   UNL     1     214.025 202.837 289.782  1.00  0.00     0.157 A 
ATOM      5  C   UNL     1     216.122 202.190 288.759  1.00  0.00     0.051 A 
ATOM      6  C   UNL     1     215.315 202.305 289.897  1.00  0.00     0.157 A 
ENDROOT
BRANCH   1   7
ATOM      7  C   UNL     1     213.795 203.580 286.080  1.00  0.00     0.010 C 
ATOM      8  C   UNL     1     212.752 203.003 285.466  1.00  0.00     0.025 C 
BRANCH   8   9
ATOM      9  C   UNL     1     212.228 203.494 284.181  1.00  0.00     0.064 C 
ATOM     10  O   UNL     1     212.750 203.147 283.088  1.00  0.00    -0.545 OA
ATOM     11  O   UNL     1     211.136 204.354 284.174  1.00  0.00    -0.545 OA
ENDBRANCH   8   9
ENDBRANCH   1   7
BRANCH   4  12
ATOM     12  O   UNL     1     213.225 202.956 290.918  1.00  0.00    -0.504 OA
ATOM     13  H   UNL     1     213.000 203.860 291.315  1.00  0.00     0.293 HD
ENDBRANCH   4  12
BRANCH   6  14
ATOM     14  O   UNL     1     215.787 201.897 291.142  1.00  0.00    -0.504 OA
ATOM     15  H   UNL     1     215.693 200.938 291.457  1.00  0.00     0.293 HD
ENDBRANCH   6  14
TORSDOF 4
ENDMDL
MODEL 6
REMARK VINA RESULT:    -5.574      1.071      2.093
REMARK INTER + INTRA:          -6.686
REMARK INTER:                  -6.556
REMARK INTRA:                  -0.130
REMARK UNBOUND:                -0.135
REMARK SMILES O=C([O-])C=Cc1ccc(O)c(O)c1
REMARK SMILES IDX 6 1 13 2 7 3 11 4 8 5 9 6 5 7 4 8 2 9 1 10 3 11 12 12 10 14
REMARK H PARENT 12 13 10 15
REMARK Flexibility Score: inf
ROOT
ATOM      1  C   UNL     1     203.590 207.524 277.681  1.00  0.00    -0.022 A 
ATOM      2  C   UNL     1     204.247 206.407 277.137  1.00  0.00     0.058 A 
ATOM      3  C   UNL     1     203.795 208.787 277.090  1.00  0.00     0.012 A 
ATOM      4  C   UNL     1     205.073 206.540 276.012  1.00  0.00     0.157 A 
ATOM      5  C   UNL     1     204.619 208.918 275.970  1.00  0.00     0.051 A 
ATOM      6  C   UNL     1     205.258 207.798 275.426  1.00  0.00     0.157 A 
ENDROOT
BRANCH   1   7
ATOM      7  C   UNL     1     202.735 207.332 278.878  1.00  0.00     0.010 C 
ATOM      8  C   UNL     1     203.035 206.496 279.883  1.00  0.00     0.025 C 
BRANCH   8   9
ATOM      9  C   UNL     1     202.167 206.341 281.061  1.00  0.00     0.064 C 
ATOM     10  O   UNL     1     201.703 207.344 281.668  1.00  0.00    -0.545 OA
ATOM     11  O   UNL     1     201.852 205.065 281.513  1.00  0.00    -0.545 OA
ENDBRANCH   8   9
ENDBRANCH   1   7
BRANCH   4  12
ATOM     12  O   UNL     1     205.714 205.426 275.472  1.00  0.00    -0.504 OA
ATOM     13  H   UNL     1     206.629 205.133 275.793  1.00  0.00     0.293 HD
ENDBRANCH   4  12
BRANCH   6  14
ATOM     14  O   UNL     1     206.078 207.926 274.307  1.00  0.00    -0.504 OA
ATOM     15  H   UNL     1     205.692 208.039 273.376  1.00  0.00     0.293 HD
ENDBRANCH   6  14
TORSDOF 4
ENDMDL
MODEL 7
REMARK VINA RESULT:    -5.561      2.280      3.566
REMARK INTER + INTRA:          -6.671
REMARK INTER:                  -6.537
REMARK INTRA:                  -0.134
REMARK UNBOUND:                -0.135
REMARK SMILES O=C([O-])C=Cc1ccc(O)c(O)c1
REMARK SMILES IDX 6 1 13 2 7 3 11 4 8 5 9 6 5 7 4 8 2 9 1 10 3 11 12 12 10 14
REMARK H PARENT 12 13 10 15
REMARK Flexibility Score: inf
ROOT
ATOM      1  C   UNL     1     203.666 209.108 278.883  1.00  0.00    -0.022 A 
ATOM      2  C   UNL     1     204.472 208.664 277.821  1.00  0.00     0.058 A 
ATOM      3  C   UNL     1     203.676 210.478 279.218  1.00  0.00     0.012 A 
ATOM      4  C   UNL     1     205.256 209.569 277.091  1.00  0.00     0.157 A 
ATOM      5  C   UNL     1     204.458 211.377 278.490  1.00  0.00     0.051 A 
ATOM      6  C   UNL     1     205.248 210.928 277.424  1.00  0.00     0.157 A 
ENDROOT
BRANCH   1   7
ATOM      7  C   UNL     1     202.863 208.110 279.631  1.00  0.00     0.010 C 
ATOM      8  C   UNL     1     202.940 206.787 279.427  1.00  0.00     0.025 C 
BRANCH   8   9
ATOM      9  C   UNL     1     202.135 205.825 280.198  1.00  0.00     0.064 C 
ATOM     10  O   UNL     1     201.991 205.944 281.444  1.00  0.00    -0.545 OA
ATOM     11  O   UNL     1     201.521 204.767 279.539  1.00  0.00    -0.545 OA
ENDBRANCH   8   9
ENDBRANCH   1   7
BRANCH   4  12
ATOM     12  O   UNL     1     206.047 209.123 276.032  1.00  0.00    -0.504 OA
ATOM     13  H   UNL     1     206.269 208.142 275.914  1.00  0.00     0.293 HD
ENDBRANCH   4  12
BRANCH   6  14
ATOM     14  O   UNL     1     206.026 211.825 276.695  1.00  0.00    -0.504 OA
ATOM     15  H   UNL     1     206.702 212.429 277.146  1.00  0.00     0.293 HD
ENDBRANCH   6  14
TORSDOF 4
ENDMDL
MODEL 8
REMARK VINA RESULT:    -5.509     12.307     12.836
REMARK INTER + INTRA:          -6.609
REMARK INTER:                  -6.477
REMARK INTRA:                  -0.132
REMARK UNBOUND:                -0.135
REMARK SMILES O=C([O-])C=Cc1ccc(O)c(O)c1
REMARK SMILES IDX 6 1 13 2 7 3 11 4 8 5 9 6 5 7 4 8 2 9 1 10 3 11 12 12 10 14
REMARK H PARENT 12 13 10 15
REMARK Flexibility Score: inf
ROOT
ATOM      1  C   UNL     1     212.920 203.568 285.999  1.00  0.00    -0.022 A 
ATOM      2  C   UNL     1     211.934 204.567 285.955  1.00  0.00     0.058 A 
ATOM      3  C   UNL     1     213.091 202.730 284.877  1.00  0.00     0.012 A 
ATOM      4  C   UNL     1     211.148 204.747 284.808  1.00  0.00     0.157 A 
ATOM      5  C   UNL     1     212.306 202.911 283.736  1.00  0.00     0.051 A 
ATOM      6  C   UNL     1     211.336 203.919 283.695  1.00  0.00     0.157 A 
ENDROOT
BRANCH   1   7
ATOM      7  C   UNL     1     213.718 203.411 287.240  1.00  0.00     0.010 C 
ATOM      8  C   UNL     1     213.485 204.097 288.368  1.00  0.00     0.025 C 
BRANCH   8   9
ATOM      9  C   UNL     1     214.292 203.906 289.585  1.00  0.00     0.064 C 
ATOM     10  O   UNL     1     213.857 203.233 290.557  1.00  0.00    -0.545 OA
ATOM     11  O   UNL     1     215.556 204.478 289.661  1.00  0.00    -0.545 OA
ENDBRANCH   8   9
ENDBRANCH   1   7
BRANCH   4  12
ATOM     12  O   UNL     1     210.177 205.747 284.767  1.00  0.00    -0.504 OA
ATOM     13  H   UNL     1     210.328 206.611 284.261  1.00  0.00     0.293 HD
ENDBRANCH   4  12
BRANCH   6  14
ATOM     14  O   UNL     1     210.555 204.102 282.556  1.00  0.00    -0.504 OA
ATOM     15  H   UNL     1     210.561 204.975 282.042  1.00  0.00     0.293 HD
ENDBRANCH   6  14
TORSDOF 4
ENDMDL
MODEL 9
REMARK VINA RESULT:    -5.426      2.492      6.056
REMARK INTER + INTRA:          -6.512
REMARK INTER:                  -6.384
REMARK INTRA:                  -0.129
REMARK UNBOUND:                -0.135
REMARK SMILES O=C([O-])C=Cc1ccc(O)c(O)c1
REMARK SMILES IDX 6 1 13 2 7 3 11 4 8 5 9 6 5 7 4 8 2 9 1 10 3 11 12 12 10 14
REMARK H PARENT 12 13 10 15
REMARK Flexibility Score: inf
ROOT
ATOM      1  C   UNL     1     202.413 206.866 278.175  1.00  0.00    -0.022 A 
ATOM      2  C   UNL     1     202.220 205.907 279.185  1.00  0.00     0.058 A 
ATOM      3  C   UNL     1     202.374 208.233 278.519  1.00  0.00     0.012 A 
ATOM      4  C   UNL     1     202.017 206.300 280.515  1.00  0.00     0.157 A 
ATOM      5  C   UNL     1     202.171 208.622 279.845  1.00  0.00     0.051 A 
ATOM      6  C   UNL     1     201.995 207.660 280.847  1.00  0.00     0.157 A 
ENDROOT
BRANCH   1   7
ATOM      7  C   UNL     1     202.614 206.399 276.781  1.00  0.00     0.010 C 
ATOM      8  C   UNL     1     201.611 206.083 275.949  1.00  0.00     0.025 C 
BRANCH   8   9
ATOM      9  C   UNL     1     201.849 205.634 274.568  1.00  0.00     0.064 C 
ATOM     10  O   UNL     1     202.943 205.863 273.986  1.00  0.00    -0.545 OA
ATOM     11  O   UNL     1     200.849 204.945 273.893  1.00  0.00    -0.545 OA
ENDBRANCH   8   9
ENDBRANCH   1   7
BRANCH   4  12
ATOM     12  O   UNL     1     201.836 205.343 281.513  1.00  0.00    -0.504 OA
ATOM     13  H   UNL     1     202.618 204.832 281.905  1.00  0.00     0.293 HD
ENDBRANCH   4  12
BRANCH   6  14
ATOM     14  O   UNL     1     201.795 208.046 282.170  1.00  0.00    -0.504 OA
ATOM     15  H   UNL     1     201.504 208.986 282.411  1.00  0.00     0.293 HD
ENDBRANCH   6  14
TORSDOF 4
ENDMDL
