MODEL 1
REMARK VINA RESULT:    -5.432      0.000      0.000
REMARK INTER + INTRA:          -6.172
REMARK INTER:                  -5.909
REMARK INTRA:                  -0.263
REMARK UNBOUND:                -0.263
REMARK SMILES CC1=CCC[C@]2(C)CC[C@H](C(C)(C)O)C[C@H]12
REMARK SMILES IDX 11 1 12 2 13 3 10 4 1 5 2 6 3 7 16 8 4 9 6 10 15 11 5 12
REMARK SMILES IDX 7 13 8 14 9 15 14 16
REMARK H PARENT 14 17
REMARK Flexibility Score: inf
ROOT
ATOM      1  C   UNL     1     148.992 141.404 140.390  1.00  0.00     0.062 C 
ATOM      2  C   UNL     1     147.538 141.197 139.900  1.00  0.00     0.042 C 
ATOM      3  C   UNL     1     148.998 141.492 141.933  1.00  0.00     0.042 C 
ENDROOT
BRANCH   1   4
ATOM      4  C   UNL     1     150.004 140.305 139.872  1.00  0.00     0.021 C 
ATOM      5  C   UNL     1     147.930 140.540 136.054  1.00  0.00     0.039 C 
ATOM      6  C   UNL     1     147.802 139.367 137.007  1.00  0.00    -0.074 C 
ATOM      7  C   UNL     1     146.724 138.580 136.836  1.00  0.00    -0.028 C 
ATOM      8  C   UNL     1     148.997 138.880 137.851  1.00  0.00     0.021 C 
ATOM      9  C   UNL     1     146.669 137.198 137.396  1.00  0.00     0.028 C 
ATOM     10  C   UNL     1     148.678 137.710 138.906  1.00  0.00    -0.026 C 
ATOM     11  C   UNL     1     149.945 140.030 138.356  1.00  0.00     0.015 C 
ATOM     12  C   UNL     1     147.199 137.215 138.818  1.00  0.00     0.011 C 
ATOM     13  C   UNL     1     149.607 136.504 138.590  1.00  0.00     0.012 C 
ATOM     14  C   UNL     1     148.905 138.096 140.404  1.00  0.00     0.008 C 
ATOM     15  C   UNL     1     150.112 138.980 140.639  1.00  0.00     0.007 C 
ENDBRANCH   1   4
BRANCH   1  16
ATOM     16  O   UNL     1     149.445 142.642 139.883  1.00  0.00    -0.390 OA
ATOM     17  H   UNL     1     148.682 143.108 139.450  1.00  0.00     0.211 HD
ENDBRANCH   1  16
TORSDOF 2
ENDMDL
MODEL 2
REMARK VINA RESULT:    -5.355      2.180      4.410
REMARK INTER + INTRA:          -6.087
REMARK INTER:                  -5.821
REMARK INTRA:                  -0.266
REMARK UNBOUND:                -0.263
REMARK SMILES CC1=CCC[C@]2(C)CC[C@H](C(C)(C)O)C[C@H]12
REMARK SMILES IDX 11 1 12 2 13 3 10 4 1 5 2 6 3 7 16 8 4 9 6 10 15 11 5 12
REMARK SMILES IDX 7 13 8 14 9 15 14 16
REMARK H PARENT 14 17
REMARK Flexibility Score: inf
ROOT
ATOM      1  C   UNL     1     149.231 137.549 138.931  1.00  0.00     0.062 C 
ATOM      2  C   UNL     1     150.125 138.810 138.857  1.00  0.00     0.042 C 
ATOM      3  C   UNL     1     150.086 136.348 139.393  1.00  0.00     0.042 C 
ENDROOT
BRANCH   1   4
ATOM      4  C   UNL     1     147.949 137.726 139.841  1.00  0.00     0.021 C 
ATOM      5  C   UNL     1     147.301 141.501 137.775  1.00  0.00     0.039 C 
ATOM      6  C   UNL     1     147.785 141.402 139.209  1.00  0.00    -0.074 C 
ATOM      7  C   UNL     1     148.395 142.495 139.704  1.00  0.00    -0.028 C 
ATOM      8  C   UNL     1     147.283 140.293 140.155  1.00  0.00     0.021 C 
ATOM      9  C   UNL     1     148.552 142.703 141.173  1.00  0.00     0.028 C 
ATOM     10  C   UNL     1     147.979 140.240 141.603  1.00  0.00    -0.026 C 
ATOM     11  C   UNL     1     147.035 138.907 139.454  1.00  0.00     0.015 C 
ATOM     12  C   UNL     1     149.000 141.404 141.816  1.00  0.00     0.011 C 
ATOM     13  C   UNL     1     146.867 140.374 142.682  1.00  0.00     0.012 C 
ATOM     14  C   UNL     1     148.769 138.926 141.906  1.00  0.00     0.008 C 
ATOM     15  C   UNL     1     148.113 137.672 141.367  1.00  0.00     0.007 C 
ENDBRANCH   1   4
BRANCH   1  16
ATOM     16  O   UNL     1     148.765 137.274 137.627  1.00  0.00    -0.390 OA
ATOM     17  H   UNL     1     147.802 137.512 137.575  1.00  0.00     0.211 HD
ENDBRANCH   1  16
TORSDOF 2
ENDMDL
MODEL 3
REMARK VINA RESULT:    -5.297     13.165     14.834
REMARK INTER + INTRA:          -6.025
REMARK INTER:                  -5.756
REMARK INTRA:                  -0.268
REMARK UNBOUND:                -0.263
REMARK SMILES CC1=CCC[C@]2(C)CC[C@H](C(C)(C)O)C[C@H]12
REMARK SMILES IDX 11 1 12 2 13 3 10 4 1 5 2 6 3 7 16 8 4 9 6 10 15 11 5 12
REMARK SMILES IDX 7 13 8 14 9 15 14 16
REMARK H PARENT 14 17
REMARK Flexibility Score: inf
ROOT
ATOM      1  C   UNL     1     136.323 135.347 140.958  1.00  0.00     0.062 C 
ATOM      2  C   UNL     1     136.789 136.820 141.057  1.00  0.00     0.042 C 
ATOM      3  C   UNL     1     137.547 134.416 141.113  1.00  0.00     0.042 C 
ENDROOT
BRANCH   1   4
ATOM      4  C   UNL     1     135.179 134.968 141.983  1.00  0.00     0.021 C 
ATOM      5  C   UNL     1     133.271 138.716 140.867  1.00  0.00     0.039 C 
ATOM      6  C   UNL     1     133.957 138.489 142.200  1.00  0.00    -0.074 C 
ATOM      7  C   UNL     1     134.317 139.596 142.876  1.00  0.00    -0.028 C 
ATOM      8  C   UNL     1     133.904 137.122 142.912  1.00  0.00     0.021 C 
ATOM      9  C   UNL     1     134.615 139.555 144.338  1.00  0.00     0.028 C 
ATOM     10  C   UNL     1     134.783 136.997 144.252  1.00  0.00    -0.026 C 
ATOM     11  C   UNL     1     133.939 135.885 141.942  1.00  0.00     0.015 C 
ATOM     12  C   UNL     1     135.477 138.343 144.638  1.00  0.00     0.011 C 
ATOM     13  C   UNL     1     133.835 136.594 145.418  1.00  0.00     0.012 C 
ATOM     14  C   UNL     1     135.928 135.935 144.191  1.00  0.00     0.008 C 
ATOM     15  C   UNL     1     135.561 134.672 143.440  1.00  0.00     0.007 C 
ENDBRANCH   1   4
BRANCH   1  16
ATOM     16  O   UNL     1     135.788 135.150 139.666  1.00  0.00    -0.390 OA
ATOM     17  H   UNL     1     135.043 135.792 139.527  1.00  0.00     0.211 HD
ENDBRANCH   1  16
TORSDOF 2
ENDMDL
MODEL 4
REMARK VINA RESULT:    -5.214      1.149      3.298
REMARK INTER + INTRA:          -5.934
REMARK INTER:                  -5.740
REMARK INTRA:                  -0.194
REMARK UNBOUND:                -0.263
REMARK SMILES CC1=CCC[C@]2(C)CC[C@H](C(C)(C)O)C[C@H]12
REMARK SMILES IDX 11 1 12 2 13 3 10 4 1 5 2 6 3 7 16 8 4 9 6 10 15 11 5 12
REMARK SMILES IDX 7 13 8 14 9 15 14 16
REMARK H PARENT 14 17
REMARK Flexibility Score: inf
ROOT
ATOM      1  C   UNL     1     148.881 142.112 140.139  1.00  0.00     0.062 C 
ATOM      2  C   UNL     1     148.746 142.319 141.667  1.00  0.00     0.042 C 
ATOM      3  C   UNL     1     150.123 141.237 139.854  1.00  0.00     0.042 C 
ENDROOT
BRANCH   1   4
ATOM      4  C   UNL     1     147.585 141.511 139.459  1.00  0.00     0.021 C 
ATOM      5  C   UNL     1     148.257 137.956 141.877  1.00  0.00     0.039 C 
ATOM      6  C   UNL     1     148.503 138.012 140.381  1.00  0.00    -0.074 C 
ATOM      7  C   UNL     1     149.314 137.062 139.879  1.00  0.00    -0.028 C 
ATOM      8  C   UNL     1     147.600 138.841 139.446  1.00  0.00     0.021 C 
ATOM      9  C   UNL     1     149.325 136.735 138.423  1.00  0.00     0.028 C 
ATOM     10  C   UNL     1     148.058 138.904 137.907  1.00  0.00    -0.026 C 
ATOM     11  C   UNL     1     147.083 140.188 140.072  1.00  0.00     0.015 C 
ATOM     12  C   UNL     1     149.317 138.024 137.622  1.00  0.00     0.011 C 
ATOM     13  C   UNL     1     146.890 138.369 137.030  1.00  0.00     0.012 C 
ATOM     14  C   UNL     1     148.417 140.334 137.386  1.00  0.00     0.008 C 
ATOM     15  C   UNL     1     147.525 141.432 137.927  1.00  0.00     0.007 C 
ENDBRANCH   1   4
BRANCH   1  16
ATOM     16  O   UNL     1     149.096 143.377 139.550  1.00  0.00    -0.390 OA
ATOM     17  H   UNL     1     149.644 143.258 138.730  1.00  0.00     0.211 HD
ENDBRANCH   1  16
TORSDOF 2
ENDMDL
MODEL 5
REMARK VINA RESULT:    -5.199      1.442      1.689
REMARK INTER + INTRA:          -5.918
REMARK INTER:                  -5.918
REMARK INTRA:                  -0.000
REMARK UNBOUND:                -0.263
REMARK SMILES CC1=CCC[C@]2(C)CC[C@H](C(C)(C)O)C[C@H]12
REMARK SMILES IDX 11 1 12 2 13 3 10 4 1 5 2 6 3 7 16 8 4 9 6 10 15 11 5 12
REMARK SMILES IDX 7 13 8 14 9 15 14 16
REMARK H PARENT 14 17
REMARK Flexibility Score: inf
ROOT
ATOM      1  C   UNL     1     148.866 142.572 140.497  1.00  0.00     0.062 C 
ATOM      2  C   UNL     1     147.456 142.634 141.132  1.00  0.00     0.042 C 
ATOM      3  C   UNL     1     149.732 143.714 141.075  1.00  0.00     0.042 C 
ENDROOT
BRANCH   1   4
ATOM      4  C   UNL     1     149.580 141.170 140.659  1.00  0.00     0.021 C 
ATOM      5  C   UNL     1     148.329 140.331 136.577  1.00  0.00     0.039 C 
ATOM      6  C   UNL     1     147.704 139.679 137.796  1.00  0.00    -0.074 C 
ATOM      7  C   UNL     1     146.486 139.137 137.618  1.00  0.00    -0.028 C 
ATOM      8  C   UNL     1     148.546 139.319 139.037  1.00  0.00     0.021 C 
ATOM      9  C   UNL     1     145.933 138.129 138.571  1.00  0.00     0.028 C 
ATOM     10  C   UNL     1     147.725 138.751 140.297  1.00  0.00    -0.026 C 
ATOM     11  C   UNL     1     149.694 140.344 139.362  1.00  0.00     0.015 C 
ATOM     12  C   UNL     1     146.202 138.587 139.993  1.00  0.00     0.011 C 
ATOM     13  C   UNL     1     148.296 137.349 140.656  1.00  0.00     0.012 C 
ATOM     14  C   UNL     1     147.805 139.632 141.586  1.00  0.00     0.008 C 
ATOM     15  C   UNL     1     149.163 140.260 141.823  1.00  0.00     0.007 C 
ENDBRANCH   1   4
BRANCH   1  16
ATOM     16  O   UNL     1     148.724 142.795 139.110  1.00  0.00    -0.390 OA
ATOM     17  H   UNL     1     148.158 142.075 138.727  1.00  0.00     0.211 HD
ENDBRANCH   1  16
TORSDOF 2
ENDMDL
MODEL 6
REMARK VINA RESULT:    -5.134      1.636      3.425
REMARK INTER + INTRA:          -5.847
REMARK INTER:                  -5.599
REMARK INTRA:                  -0.249
REMARK UNBOUND:                -0.263
REMARK SMILES CC1=CCC[C@]2(C)CC[C@H](C(C)(C)O)C[C@H]12
REMARK SMILES IDX 11 1 12 2 13 3 10 4 1 5 2 6 3 7 16 8 4 9 6 10 15 11 5 12
REMARK SMILES IDX 7 13 8 14 9 15 14 16
REMARK H PARENT 14 17
REMARK Flexibility Score: inf
ROOT
ATOM      1  C   UNL     1     148.401 141.282 141.837  1.00  0.00     0.062 C 
ATOM      2  C   UNL     1     149.291 140.069 142.203  1.00  0.00     0.042 C 
ATOM      3  C   UNL     1     149.273 142.558 141.803  1.00  0.00     0.042 C 
ENDROOT
BRANCH   1   4
ATOM      4  C   UNL     1     147.596 141.100 140.488  1.00  0.00     0.021 C 
ATOM      5  C   UNL     1     147.218 136.900 141.562  1.00  0.00     0.039 C 
ATOM      6  C   UNL     1     148.126 137.405 140.458  1.00  0.00    -0.074 C 
ATOM      7  C   UNL     1     149.116 136.575 140.080  1.00  0.00    -0.028 C 
ATOM      8  C   UNL     1     147.726 138.598 139.567  1.00  0.00     0.021 C 
ATOM      9  C   UNL     1     149.815 136.737 138.771  1.00  0.00     0.028 C 
ATOM     10  C   UNL     1     148.842 139.097 138.524  1.00  0.00    -0.026 C 
ATOM     11  C   UNL     1     146.921 139.724 140.314  1.00  0.00     0.015 C 
ATOM     12  C   UNL     1     150.125 138.206 138.550  1.00  0.00     0.011 C 
ATOM     13  C   UNL     1     148.237 139.024 137.093  1.00  0.00     0.012 C 
ATOM     14  C   UNL     1     149.342 140.562 138.746  1.00  0.00     0.008 C 
ATOM     15  C   UNL     1     148.255 141.528 139.170  1.00  0.00     0.007 C 
ENDBRANCH   1   4
BRANCH   1  16
ATOM     16  O   UNL     1     147.443 141.438 142.862  1.00  0.00    -0.390 OA
ATOM     17  H   UNL     1     146.540 141.485 142.451  1.00  0.00     0.211 HD
ENDBRANCH   1  16
TORSDOF 2
ENDMDL
MODEL 7
REMARK VINA RESULT:    -5.103      1.725      3.809
REMARK INTER + INTRA:          -5.813
REMARK INTER:                  -5.550
REMARK INTRA:                  -0.263
REMARK UNBOUND:                -0.263
REMARK SMILES CC1=CCC[C@]2(C)CC[C@H](C(C)(C)O)C[C@H]12
REMARK SMILES IDX 11 1 12 2 13 3 10 4 1 5 2 6 3 7 16 8 4 9 6 10 15 11 5 12
REMARK SMILES IDX 7 13 8 14 9 15 14 16
REMARK H PARENT 14 17
REMARK Flexibility Score: inf
ROOT
ATOM      1  C   UNL     1     148.122 140.551 137.392  1.00  0.00     0.062 C 
ATOM      2  C   UNL     1     147.113 139.432 137.747  1.00  0.00     0.042 C 
ATOM      3  C   UNL     1     147.351 141.780 136.860  1.00  0.00     0.042 C 
ENDROOT
BRANCH   1   4
ATOM      4  C   UNL     1     149.083 140.946 138.585  1.00  0.00     0.021 C 
ATOM      5  C   UNL     1     149.922 136.697 139.001  1.00  0.00     0.039 C 
ATOM      6  C   UNL     1     149.074 137.484 139.981  1.00  0.00    -0.074 C 
ATOM      7  C   UNL     1     148.253 136.762 140.767  1.00  0.00    -0.028 C 
ATOM      8  C   UNL     1     149.398 138.951 140.330  1.00  0.00     0.021 C 
ATOM      9  C   UNL     1     147.681 137.326 142.024  1.00  0.00     0.028 C 
ATOM     10  C   UNL     1     148.339 139.692 141.286  1.00  0.00    -0.026 C 
ATOM     11  C   UNL     1     149.955 139.796 139.127  1.00  0.00     0.015 C 
ATOM     12  C   UNL     1     147.196 138.739 141.762  1.00  0.00     0.011 C 
ATOM     13  C   UNL     1     149.095 140.201 142.546  1.00  0.00     0.012 C 
ATOM     14  C   UNL     1     147.621 140.923 140.643  1.00  0.00     0.008 C 
ATOM     15  C   UNL     1     148.513 141.763 139.753  1.00  0.00     0.007 C 
ENDBRANCH   1   4
BRANCH   1  16
ATOM     16  O   UNL     1     148.947 140.072 136.351  1.00  0.00    -0.390 OA
ATOM     17  H   UNL     1     149.560 139.383 136.720  1.00  0.00     0.211 HD
ENDBRANCH   1  16
TORSDOF 2
ENDMDL
MODEL 8
REMARK VINA RESULT:    -5.072     12.307     13.784
REMARK INTER + INTRA:          -5.779
REMARK INTER:                  -5.743
REMARK INTRA:                  -0.036
REMARK UNBOUND:                -0.263
REMARK SMILES CC1=CCC[C@]2(C)CC[C@H](C(C)(C)O)C[C@H]12
REMARK SMILES IDX 11 1 12 2 13 3 10 4 1 5 2 6 3 7 16 8 4 9 6 10 15 11 5 12
REMARK SMILES IDX 7 13 8 14 9 15 14 16
REMARK H PARENT 14 17
REMARK Flexibility Score: inf
ROOT
ATOM      1  C   UNL     1     138.522 137.310 143.227  1.00  0.00     0.062 C 
ATOM      2  C   UNL     1     139.668 136.272 143.149  1.00  0.00     0.042 C 
ATOM      3  C   UNL     1     137.937 137.526 141.813  1.00  0.00     0.042 C 
ENDROOT
BRANCH   1   4
ATOM      4  C   UNL     1     137.390 136.936 144.267  1.00  0.00     0.021 C 
ATOM      5  C   UNL     1     135.207 135.228 140.913  1.00  0.00     0.039 C 
ATOM      6  C   UNL     1     134.817 136.525 141.594  1.00  0.00    -0.074 C 
ATOM      7  C   UNL     1     134.018 137.347 140.889  1.00  0.00    -0.028 C 
ATOM      8  C   UNL     1     134.992 136.722 143.114  1.00  0.00     0.021 C 
ATOM      9  C   UNL     1     133.232 138.430 141.551  1.00  0.00     0.028 C 
ATOM     10  C   UNL     1     134.652 138.191 143.672  1.00  0.00    -0.026 C 
ATOM     11  C   UNL     1     136.271 136.031 143.713  1.00  0.00     0.015 C 
ATOM     12  C   UNL     1     134.115 139.143 142.557  1.00  0.00     0.011 C 
ATOM     13  C   UNL     1     133.549 138.054 144.760  1.00  0.00     0.012 C 
ATOM     14  C   UNL     1     135.859 138.942 144.323  1.00  0.00     0.008 C 
ATOM     15  C   UNL     1     136.781 138.051 145.129  1.00  0.00     0.007 C 
ENDBRANCH   1   4
BRANCH   1  16
ATOM     16  O   UNL     1     139.078 138.534 143.659  1.00  0.00    -0.390 OA
ATOM     17  H   UNL     1     139.936 138.681 143.180  1.00  0.00     0.211 HD
ENDBRANCH   1  16
TORSDOF 2
ENDMDL
MODEL 9
REMARK VINA RESULT:    -5.064      2.087      4.313
REMARK INTER + INTRA:          -5.771
REMARK INTER:                  -5.518
REMARK INTRA:                  -0.253
REMARK UNBOUND:                -0.263
REMARK SMILES CC1=CCC[C@]2(C)CC[C@H](C(C)(C)O)C[C@H]12
REMARK SMILES IDX 11 1 12 2 13 3 10 4 1 5 2 6 3 7 16 8 4 9 6 10 15 11 5 12
REMARK SMILES IDX 7 13 8 14 9 15 14 16
REMARK H PARENT 14 17
REMARK Flexibility Score: inf
ROOT
ATOM      1  C   UNL     1     146.259 139.782 136.557  1.00  0.00     0.062 C 
ATOM      2  C   UNL     1     146.193 138.595 137.547  1.00  0.00     0.042 C 
ATOM      3  C   UNL     1     144.951 140.599 136.659  1.00  0.00     0.042 C 
ENDROOT
BRANCH   1   4
ATOM      4  C   UNL     1     147.529 140.705 136.748  1.00  0.00     0.021 C 
ATOM      5  C   UNL     1     149.748 137.061 137.603  1.00  0.00     0.039 C 
ATOM      6  C   UNL     1     149.372 138.081 138.660  1.00  0.00    -0.074 C 
ATOM      7  C   UNL     1     149.388 137.647 139.934  1.00  0.00    -0.028 C 
ATOM      8  C   UNL     1     149.352 139.592 138.350  1.00  0.00     0.021 C 
ATOM      9  C   UNL     1     149.449 138.599 141.082  1.00  0.00     0.028 C 
ATOM     10  C   UNL     1     148.814 140.540 139.531  1.00  0.00    -0.026 C 
ATOM     11  C   UNL     1     148.865 139.949 136.898  1.00  0.00     0.015 C 
ATOM     12  C   UNL     1     148.483 139.743 140.833  1.00  0.00     0.011 C 
ATOM     13  C   UNL     1     149.926 141.572 139.870  1.00  0.00     0.012 C 
ATOM     14  C   UNL     1     147.518 141.345 139.190  1.00  0.00     0.008 C 
ATOM     15  C   UNL     1     147.463 141.853 137.764  1.00  0.00     0.007 C 
ENDBRANCH   1   4
BRANCH   1  16
ATOM     16  O   UNL     1     146.338 139.251 135.251  1.00  0.00    -0.390 OA
ATOM     17  H   UNL     1     146.527 138.278 135.313  1.00  0.00     0.211 HD
ENDBRANCH   1  16
TORSDOF 2
ENDMDL
