MODEL 1
REMARK VINA RESULT:    -2.313      0.000      0.000
REMARK INTER + INTRA:          -5.173
REMARK INTER:                  -3.733
REMARK INTRA:                  -1.440
REMARK UNBOUND:                -1.440
REMARK SMILES CCCCCCCCCCCCO
REMARK SMILES IDX 7 1 6 2 5 3 4 4 3 5 2 6 1 7 8 8 9 9 10 10 11 11 12 12 13 13
REMARK H PARENT 13 14
REMARK Flexibility Score: inf
ROOT
ATOM      1  C   UNL     1     131.196 145.946 137.877  1.00  0.00     0.000 C 
ENDROOT
BRANCH   1   2
ATOM      2  C   UNL     1     129.759 146.114 138.404  1.00  0.00    -0.000 C 
BRANCH   2   3
ATOM      3  C   UNL     1     129.377 145.031 139.425  1.00  0.00    -0.000 C 
BRANCH   3   4
ATOM      4  C   UNL     1     128.380 144.003 138.857  1.00  0.00    -0.000 C 
BRANCH   4   5
ATOM      5  C   UNL     1     129.011 142.615 138.662  1.00  0.00    -0.000 C 
BRANCH   5   6
ATOM      6  C   UNL     1     129.971 142.239 139.801  1.00  0.00    -0.003 C 
ATOM      7  C   UNL     1     130.668 140.912 139.514  1.00  0.00     0.004 C 
ENDBRANCH   5   6
ENDBRANCH   4   5
ENDBRANCH   3   4
ENDBRANCH   2   3
ENDBRANCH   1   2
BRANCH   1   8
ATOM      8  C   UNL     1     132.160 145.422 138.953  1.00  0.00     0.000 C 
BRANCH   8   9
ATOM      9  C   UNL     1     132.906 144.152 138.515  1.00  0.00     0.000 C 
BRANCH   9  10
ATOM     10  C   UNL     1     132.283 143.563 137.240  1.00  0.00     0.002 C 
BRANCH  10  11
ATOM     11  C   UNL     1     133.080 142.375 136.674  1.00  0.00     0.028 C 
BRANCH  11  12
ATOM     12  C   UNL     1     132.195 141.255 136.115  1.00  0.00     0.156 C 
BRANCH  12  13
ATOM     13  O   UNL     1     131.046 141.792 135.522  1.00  0.00    -0.396 OA
ATOM     14  H   UNL     1     131.275 141.950 134.569  1.00  0.00     0.210 HD
ENDBRANCH  12  13
ENDBRANCH  11  12
ENDBRANCH  10  11
ENDBRANCH   9  10
ENDBRANCH   8   9
ENDBRANCH   1   8
TORSDOF 11
ENDMDL
MODEL 2
REMARK VINA RESULT:    -2.227      1.237      2.154
REMARK INTER + INTRA:          -5.034
REMARK INTER:                  -3.878
REMARK INTRA:                  -1.155
REMARK UNBOUND:                -1.440
REMARK SMILES CCCCCCCCCCCCO
REMARK SMILES IDX 7 1 6 2 5 3 4 4 3 5 2 6 1 7 8 8 9 9 10 10 11 11 12 12 13 13
REMARK H PARENT 13 14
REMARK Flexibility Score: inf
ROOT
ATOM      1  C   UNL     1     133.126 145.793 139.657  1.00  0.00     0.000 C 
ENDROOT
BRANCH   1   2
ATOM      2  C   UNL     1     131.976 146.725 139.236  1.00  0.00    -0.000 C 
BRANCH   2   3
ATOM      3  C   UNL     1     131.198 146.190 138.022  1.00  0.00    -0.000 C 
BRANCH   3   4
ATOM      4  C   UNL     1     129.685 146.086 138.285  1.00  0.00    -0.000 C 
BRANCH   4   5
ATOM      5  C   UNL     1     129.362 145.732 139.745  1.00  0.00    -0.000 C 
BRANCH   5   6
ATOM      6  C   UNL     1     129.314 144.216 139.987  1.00  0.00    -0.003 C 
ATOM      7  C   UNL     1     128.735 143.484 138.780  1.00  0.00     0.004 C 
ENDBRANCH   5   6
ENDBRANCH   4   5
ENDBRANCH   3   4
ENDBRANCH   2   3
ENDBRANCH   1   2
BRANCH   1   8
ATOM      8  C   UNL     1     132.879 144.332 139.250  1.00  0.00     0.000 C 
BRANCH   8   9
ATOM      9  C   UNL     1     134.126 143.663 138.651  1.00  0.00     0.000 C 
BRANCH   9  10
ATOM     10  C   UNL     1     133.764 142.847 137.401  1.00  0.00     0.002 C 
BRANCH  10  11
ATOM     11  C   UNL     1     132.271 142.933 137.039  1.00  0.00     0.028 C 
BRANCH  11  12
ATOM     12  C   UNL     1     131.647 141.577 136.688  1.00  0.00     0.156 C 
BRANCH  12  13
ATOM     13  O   UNL     1     131.015 141.641 135.440  1.00  0.00    -0.396 OA
ATOM     14  H   UNL     1     131.737 141.767 134.771  1.00  0.00     0.210 HD
ENDBRANCH  12  13
ENDBRANCH  11  12
ENDBRANCH  10  11
ENDBRANCH   9  10
ENDBRANCH   8   9
ENDBRANCH   1   8
TORSDOF 11
ENDMDL
MODEL 3
REMARK VINA RESULT:    -2.221      1.593      4.011
REMARK INTER + INTRA:          -5.024
REMARK INTER:                  -3.925
REMARK INTRA:                  -1.099
REMARK UNBOUND:                -1.440
REMARK SMILES CCCCCCCCCCCCO
REMARK SMILES IDX 7 1 6 2 5 3 4 4 3 5 2 6 1 7 8 8 9 9 10 10 11 11 12 12 13 13
REMARK H PARENT 13 14
REMARK Flexibility Score: inf
ROOT
ATOM      1  C   UNL     1     129.504 144.964 139.425  1.00  0.00     0.000 C 
ENDROOT
BRANCH   1   2
ATOM      2  C   UNL     1     129.696 145.934 138.246  1.00  0.00    -0.000 C 
BRANCH   2   3
ATOM      3  C   UNL     1     131.177 146.152 137.897  1.00  0.00    -0.000 C 
BRANCH   3   4
ATOM      4  C   UNL     1     132.108 145.951 139.107  1.00  0.00    -0.000 C 
BRANCH   4   5
ATOM      5  C   UNL     1     132.878 147.228 139.478  1.00  0.00    -0.000 C 
BRANCH   5   6
ATOM      6  C   UNL     1     132.146 148.072 140.532  1.00  0.00    -0.003 C 
ATOM      7  C   UNL     1     131.594 147.195 141.652  1.00  0.00     0.004 C 
ENDBRANCH   5   6
ENDBRANCH   4   5
ENDBRANCH   3   4
ENDBRANCH   2   3
ENDBRANCH   1   2
BRANCH   1   8
ATOM      8  C   UNL     1     128.300 144.029 139.229  1.00  0.00     0.000 C 
BRANCH   8   9
ATOM      9  C   UNL     1     128.676 142.714 138.527  1.00  0.00     0.000 C 
BRANCH   9  10
ATOM     10  C   UNL     1     130.111 142.294 138.885  1.00  0.00     0.002 C 
BRANCH  10  11
ATOM     11  C   UNL     1     130.867 141.669 137.700  1.00  0.00     0.028 C 
BRANCH  11  12
ATOM     12  C   UNL     1     132.058 142.508 137.224  1.00  0.00     0.156 C 
BRANCH  12  13
ATOM     13  O   UNL     1     131.879 142.895 135.889  1.00  0.00    -0.396 OA
ATOM     14  H   UNL     1     132.773 142.836 135.462  1.00  0.00     0.210 HD
ENDBRANCH  12  13
ENDBRANCH  11  12
ENDBRANCH  10  11
ENDBRANCH   9  10
ENDBRANCH   8   9
ENDBRANCH   1   8
TORSDOF 11
ENDMDL
MODEL 4
REMARK VINA RESULT:    -2.158      1.807      3.405
REMARK INTER + INTRA:          -4.923
REMARK INTER:                  -3.553
REMARK INTRA:                  -1.369
REMARK UNBOUND:                -1.440
REMARK SMILES CCCCCCCCCCCCO
REMARK SMILES IDX 7 1 6 2 5 3 4 4 3 5 2 6 1 7 8 8 9 9 10 10 11 11 12 12 13 13
REMARK H PARENT 13 14
REMARK Flexibility Score: inf
ROOT
ATOM      1  C   UNL     1     131.416 145.928 138.334  1.00  0.00     0.000 C 
ENDROOT
BRANCH   1   2
ATOM      2  C   UNL     1     131.666 147.040 139.368  1.00  0.00    -0.000 C 
BRANCH   2   3
ATOM      3  C   UNL     1     133.161 147.256 139.651  1.00  0.00    -0.000 C 
BRANCH   3   4
ATOM      4  C   UNL     1     133.702 146.310 140.739  1.00  0.00    -0.000 C 
BRANCH   4   5
ATOM      5  C   UNL     1     134.686 145.270 140.182  1.00  0.00    -0.000 C 
BRANCH   5   6
ATOM      6  C   UNL     1     134.211 143.827 140.410  1.00  0.00    -0.003 C 
ATOM      7  C   UNL     1     133.227 143.751 141.574  1.00  0.00     0.004 C 
ENDBRANCH   5   6
ENDBRANCH   4   5
ENDBRANCH   3   4
ENDBRANCH   2   3
ENDBRANCH   1   2
BRANCH   1   8
ATOM      8  C   UNL     1     130.724 144.699 138.947  1.00  0.00     0.000 C 
BRANCH   8   9
ATOM      9  C   UNL     1     131.207 143.377 138.332  1.00  0.00     0.000 C 
BRANCH   9  10
ATOM     10  C   UNL     1     132.316 143.626 137.298  1.00  0.00     0.002 C 
BRANCH  10  11
ATOM     11  C   UNL     1     132.619 142.391 136.432  1.00  0.00     0.028 C 
BRANCH  11  12
ATOM     12  C   UNL     1     131.481 141.365 136.410  1.00  0.00     0.156 C 
BRANCH  12  13
ATOM     13  O   UNL     1     130.740 141.485 135.227  1.00  0.00    -0.396 OA
ATOM     14  H   UNL     1     130.416 142.423 135.198  1.00  0.00     0.210 HD
ENDBRANCH  12  13
ENDBRANCH  11  12
ENDBRANCH  10  11
ENDBRANCH   9  10
ENDBRANCH   8   9
ENDBRANCH   1   8
TORSDOF 11
ENDMDL
MODEL 5
REMARK VINA RESULT:    -2.153      1.174      3.652
REMARK INTER + INTRA:          -4.914
REMARK INTER:                  -3.857
REMARK INTRA:                  -1.057
REMARK UNBOUND:                -1.440
REMARK SMILES CCCCCCCCCCCCO
REMARK SMILES IDX 7 1 6 2 5 3 4 4 3 5 2 6 1 7 8 8 9 9 10 10 11 11 12 12 13 13
REMARK H PARENT 13 14
REMARK Flexibility Score: inf
ROOT
ATOM      1  C   UNL     1     129.051 144.032 140.142  1.00  0.00     0.000 C 
ENDROOT
BRANCH   1   2
ATOM      2  C   UNL     1     129.431 145.502 139.891  1.00  0.00    -0.000 C 
BRANCH   2   3
ATOM      3  C   UNL     1     129.474 145.852 138.395  1.00  0.00    -0.000 C 
BRANCH   3   4
ATOM      4  C   UNL     1     130.881 146.261 137.920  1.00  0.00    -0.000 C 
BRANCH   4   5
ATOM      5  C   UNL     1     131.985 145.806 138.887  1.00  0.00    -0.000 C 
BRANCH   5   6
ATOM      6  C   UNL     1     132.782 146.984 139.468  1.00  0.00    -0.003 C 
ATOM      7  C   UNL     1     133.998 146.493 140.248  1.00  0.00     0.004 C 
ENDBRANCH   5   6
ENDBRANCH   4   5
ENDBRANCH   3   4
ENDBRANCH   2   3
ENDBRANCH   1   2
BRANCH   1   8
ATOM      8  C   UNL     1     128.325 143.398 138.944  1.00  0.00     0.000 C 
BRANCH   8   9
ATOM      9  C   UNL     1     129.073 142.186 138.369  1.00  0.00     0.000 C 
BRANCH   9  10
ATOM     10  C   UNL     1     130.487 142.083 138.961  1.00  0.00     0.002 C 
BRANCH  10  11
ATOM     11  C   UNL     1     131.591 142.110 137.890  1.00  0.00     0.028 C 
BRANCH  11  12
ATOM     12  C   UNL     1     131.261 141.269 136.651  1.00  0.00     0.156 C 
BRANCH  12  13
ATOM     13  O   UNL     1     131.445 142.025 135.486  1.00  0.00    -0.396 OA
ATOM     14  H   UNL     1     131.408 142.977 135.767  1.00  0.00     0.210 HD
ENDBRANCH  12  13
ENDBRANCH  11  12
ENDBRANCH  10  11
ENDBRANCH   9  10
ENDBRANCH   8   9
ENDBRANCH   1   8
TORSDOF 11
ENDMDL
MODEL 6
REMARK VINA RESULT:    -2.120      1.870      3.989
REMARK INTER + INTRA:          -4.861
REMARK INTER:                  -3.665
REMARK INTRA:                  -1.196
REMARK UNBOUND:                -1.440
REMARK SMILES CCCCCCCCCCCCO
REMARK SMILES IDX 7 1 6 2 5 3 4 4 3 5 2 6 1 7 8 8 9 9 10 10 11 11 12 12 13 13
REMARK H PARENT 13 14
REMARK Flexibility Score: inf
ROOT
ATOM      1  C   UNL     1     133.391 142.835 139.583  1.00  0.00     0.000 C 
ENDROOT
BRANCH   1   2
ATOM      2  C   UNL     1     133.827 143.877 140.628  1.00  0.00    -0.000 C 
BRANCH   2   3
ATOM      3  C   UNL     1     134.300 145.192 139.986  1.00  0.00    -0.000 C 
BRANCH   3   4
ATOM      4  C   UNL     1     133.515 146.416 140.493  1.00  0.00    -0.000 C 
BRANCH   4   5
ATOM      5  C   UNL     1     132.598 147.016 139.416  1.00  0.00    -0.000 C 
BRANCH   5   6
ATOM      6  C   UNL     1     131.359 146.148 139.146  1.00  0.00    -0.003 C 
ATOM      7  C   UNL     1     130.880 146.308 137.707  1.00  0.00     0.004 C 
ENDBRANCH   5   6
ENDBRANCH   4   5
ENDBRANCH   3   4
ENDBRANCH   2   3
ENDBRANCH   1   2
BRANCH   1   8
ATOM      8  C   UNL     1     133.780 143.237 138.151  1.00  0.00     0.000 C 
BRANCH   8   9
ATOM      9  C   UNL     1     132.597 143.171 137.173  1.00  0.00     0.000 C 
BRANCH   9  10
ATOM     10  C   UNL     1     131.455 142.321 137.751  1.00  0.00     0.002 C 
BRANCH  10  11
ATOM     11  C   UNL     1     131.392 140.907 137.147  1.00  0.00     0.028 C 
BRANCH  11  12
ATOM     12  C   UNL     1     131.489 140.891 135.616  1.00  0.00     0.156 C 
BRANCH  12  13
ATOM     13  O   UNL     1     130.270 141.283 135.048  1.00  0.00    -0.396 OA
ATOM     14  H   UNL     1     129.801 140.445 134.796  1.00  0.00     0.210 HD
ENDBRANCH  12  13
ENDBRANCH  11  12
ENDBRANCH  10  11
ENDBRANCH   9  10
ENDBRANCH   8   9
ENDBRANCH   1   8
TORSDOF 11
ENDMDL
MODEL 7
REMARK VINA RESULT:    -2.102      9.518     11.681
REMARK INTER + INTRA:          -4.832
REMARK INTER:                  -3.342
REMARK INTRA:                  -1.491
REMARK UNBOUND:                -1.440
REMARK SMILES CCCCCCCCCCCCO
REMARK SMILES IDX 7 1 6 2 5 3 4 4 3 5 2 6 1 7 8 8 9 9 10 10 11 11 12 12 13 13
REMARK H PARENT 13 14
REMARK Flexibility Score: inf
ROOT
ATOM      1  C   UNL     1     127.890 133.194 138.856  1.00  0.00     0.000 C 
ENDROOT
BRANCH   1   2
ATOM      2  C   UNL     1     128.667 134.315 138.143  1.00  0.00    -0.000 C 
BRANCH   2   3
ATOM      3  C   UNL     1     129.890 134.788 138.946  1.00  0.00    -0.000 C 
BRANCH   3   4
ATOM      4  C   UNL     1     131.177 134.824 138.102  1.00  0.00    -0.000 C 
BRANCH   4   5
ATOM      5  C   UNL     1     131.002 134.157 136.729  1.00  0.00    -0.000 C 
BRANCH   5   6
ATOM      6  C   UNL     1     132.039 133.053 136.474  1.00  0.00    -0.003 C 
ATOM      7  C   UNL     1     133.281 133.255 137.336  1.00  0.00     0.004 C 
ENDBRANCH   5   6
ENDBRANCH   4   5
ENDBRANCH   3   4
ENDBRANCH   2   3
ENDBRANCH   1   2
BRANCH   1   8
ATOM      8  C   UNL     1     128.817 132.203 139.579  1.00  0.00     0.000 C 
BRANCH   8   9
ATOM      9  C   UNL     1     129.050 130.914 138.776  1.00  0.00     0.000 C 
BRANCH   9  10
ATOM     10  C   UNL     1     130.543 130.552 138.742  1.00  0.00     0.002 C 
BRANCH  10  11
ATOM     11  C   UNL     1     131.366 131.294 139.810  1.00  0.00     0.028 C 
BRANCH  11  12
ATOM     12  C   UNL     1     132.079 130.357 140.793  1.00  0.00     0.156 C 
BRANCH  12  13
ATOM     13  O   UNL     1     132.294 129.105 140.203  1.00  0.00    -0.396 OA
ATOM     14  H   UNL     1     133.203 129.140 139.805  1.00  0.00     0.210 HD
ENDBRANCH  12  13
ENDBRANCH  11  12
ENDBRANCH  10  11
ENDBRANCH   9  10
ENDBRANCH   8   9
ENDBRANCH   1   8
TORSDOF 11
ENDMDL
MODEL 8
REMARK VINA RESULT:    -2.076     10.102     11.802
REMARK INTER + INTRA:          -4.790
REMARK INTER:                  -3.813
REMARK INTRA:                  -0.977
REMARK UNBOUND:                -1.440
REMARK SMILES CCCCCCCCCCCCO
REMARK SMILES IDX 7 1 6 2 5 3 4 4 3 5 2 6 1 7 8 8 9 9 10 10 11 11 12 12 13 13
REMARK H PARENT 13 14
REMARK Flexibility Score: inf
ROOT
ATOM      1  C   UNL     1     141.459 147.485 139.196  1.00  0.00     0.000 C 
ENDROOT
BRANCH   1   2
ATOM      2  C   UNL     1     140.104 148.067 138.757  1.00  0.00    -0.000 C 
BRANCH   2   3
ATOM      3  C   UNL     1     139.033 146.982 138.559  1.00  0.00    -0.000 C 
BRANCH   3   4
ATOM      4  C   UNL     1     139.633 145.567 138.455  1.00  0.00    -0.000 C 
BRANCH   4   5
ATOM      5  C   UNL     1     139.411 144.933 137.073  1.00  0.00    -0.000 C 
BRANCH   5   6
ATOM      6  C   UNL     1     140.701 144.350 136.477  1.00  0.00    -0.003 C 
ATOM      7  C   UNL     1     140.571 142.848 136.248  1.00  0.00     0.004 C 
ENDBRANCH   5   6
ENDBRANCH   4   5
ENDBRANCH   3   4
ENDBRANCH   2   3
ENDBRANCH   1   2
BRANCH   1   8
ATOM      8  C   UNL     1     142.643 148.125 138.454  1.00  0.00     0.000 C 
BRANCH   8   9
ATOM      9  C   UNL     1     143.693 147.095 138.011  1.00  0.00     0.000 C 
BRANCH   9  10
ATOM     10  C   UNL     1     143.342 145.693 138.535  1.00  0.00     0.002 C 
BRANCH  10  11
ATOM     11  C   UNL     1     144.411 145.119 139.480  1.00  0.00     0.028 C 
BRANCH  11  12
ATOM     12  C   UNL     1     145.215 146.195 140.220  1.00  0.00     0.156 C 
BRANCH  12  13
ATOM     13  O   UNL     1     146.564 146.136 139.850  1.00  0.00    -0.396 OA
ATOM     14  H   UNL     1     146.871 147.077 139.777  1.00  0.00     0.210 HD
ENDBRANCH  12  13
ENDBRANCH  11  12
ENDBRANCH  10  11
ENDBRANCH   9  10
ENDBRANCH   8   9
ENDBRANCH   1   8
TORSDOF 11
ENDMDL
MODEL 9
REMARK VINA RESULT:    -2.068      1.421      3.598
REMARK INTER + INTRA:          -4.776
REMARK INTER:                  -3.703
REMARK INTRA:                  -1.074
REMARK UNBOUND:                -1.440
REMARK SMILES CCCCCCCCCCCCO
REMARK SMILES IDX 7 1 6 2 5 3 4 4 3 5 2 6 1 7 8 8 9 9 10 10 11 11 12 12 13 13
REMARK H PARENT 13 14
REMARK Flexibility Score: inf
ROOT
ATOM      1  C   UNL     1     134.027 143.949 138.971  1.00  0.00     0.000 C 
ENDROOT
BRANCH   1   2
ATOM      2  C   UNL     1     132.731 144.647 139.420  1.00  0.00    -0.000 C 
BRANCH   2   3
ATOM      3  C   UNL     1     132.831 146.179 139.346  1.00  0.00    -0.000 C 
BRANCH   3   4
ATOM      4  C   UNL     1     131.458 146.858 139.188  1.00  0.00    -0.000 C 
BRANCH   4   5
ATOM      5  C   UNL     1     130.689 146.355 137.957  1.00  0.00    -0.000 C 
BRANCH   5   6
ATOM      6  C   UNL     1     129.283 145.846 138.307  1.00  0.00    -0.003 C 
ATOM      7  C   UNL     1     128.845 146.345 139.682  1.00  0.00     0.004 C 
ENDBRANCH   5   6
ENDBRANCH   4   5
ENDBRANCH   3   4
ENDBRANCH   2   3
ENDBRANCH   1   2
BRANCH   1   8
ATOM      8  C   UNL     1     133.808 143.014 137.771  1.00  0.00     0.000 C 
BRANCH   8   9
ATOM      9  C   UNL     1     132.437 143.211 137.107  1.00  0.00     0.000 C 
BRANCH   9  10
ATOM     10  C   UNL     1     131.728 141.862 136.903  1.00  0.00     0.002 C 
BRANCH  10  11
ATOM     11  C   UNL     1     131.123 141.299 138.200  1.00  0.00     0.028 C 
BRANCH  11  12
ATOM     12  C   UNL     1     129.996 142.164 138.776  1.00  0.00     0.156 C 
BRANCH  12  13
ATOM     13  O   UNL     1     128.985 142.344 137.824  1.00  0.00    -0.396 OA
ATOM     14  H   UNL     1     128.593 143.238 138.002  1.00  0.00     0.210 HD
ENDBRANCH  12  13
ENDBRANCH  11  12
ENDBRANCH  10  11
ENDBRANCH   9  10
ENDBRANCH   8   9
ENDBRANCH   1   8
TORSDOF 11
ENDMDL
