MODEL 1
REMARK VINA RESULT:    -7.882      0.000      0.000
REMARK INTER + INTRA:         -11.464
REMARK INTER:                 -10.416
REMARK INTRA:                  -1.048
REMARK UNBOUND:                -1.048
REMARK SMILES CC[C@@H](C=C[C@@H](C)[C@@H]1CC[C@H]2[C@@H]3CC[C@H]4C[C@H](O)CC[C@@]4(C)[C@@H]3CC[C@]21C)C(C)C
REMARK SMILES IDX 6 1 7 2 5 3 4 4 3 5 2 6 1 7 28 8 29 9 30 10 8 11 9 12 26 13
REMARK SMILES IDX 10 14 11 15 25 16 27 17 12 18 24 19 23 20 13 21 21 22 14 23
REMARK SMILES IDX 15 24 20 25 22 26 16 27 19 28 17 29 18 30
REMARK H PARENT 18 31
REMARK Flexibility Score: inf
ROOT
ATOM      1  C   UNL     1     115.748 126.319 126.913  1.00  0.00     0.012 C 
ATOM      2  C   UNL     1     115.879 126.843 128.357  1.00  0.00     0.012 C 
ENDROOT
BRANCH   1   3
ATOM      3  C   UNL     1     116.076 127.440 125.949  1.00  0.00    -0.028 C 
ATOM      4  C   UNL     1     116.070 128.726 126.343  1.00  0.00    -0.027 C 
BRANCH   4   5
ATOM      5  C   UNL     1     116.417 129.889 125.431  1.00  0.00     0.014 C 
BRANCH   5   6
ATOM      6  C   UNL     1     117.816 130.493 125.722  1.00  0.00     0.004 C 
ATOM      7  C   UNL     1     118.949 129.633 125.155  1.00  0.00     0.004 C 
ENDBRANCH   5   6
BRANCH   5   8
ATOM      8  C   UNL     1     115.261 130.939 125.385  1.00  0.00    -0.011 C 
ATOM      9  C   UNL     1     114.045 130.485 126.209  1.00  0.00     0.008 C 
ATOM     10  C   UNL     1     114.816 131.329 123.966  1.00  0.00     0.008 C 
ENDBRANCH   5   8
ENDBRANCH   4   5
ENDBRANCH   1   3
BRANCH   1  11
ATOM     11  C   UNL     1     114.349 125.694 126.548  1.00  0.00     0.002 C 
ATOM     12  C   UNL     1     113.362 125.750 127.726  1.00  0.00     0.005 C 
ATOM     13  C   UNL     1     114.308 124.206 126.059  1.00  0.00    -0.026 C 
ATOM     14  C   UNL     1     113.242 124.331 128.279  1.00  0.00     0.005 C 
ATOM     15  C   UNL     1     114.068 123.405 127.367  1.00  0.00    -0.001 C 
ATOM     16  C   UNL     1     113.098 124.040 125.088  1.00  0.00     0.007 C 
ATOM     17  C   UNL     1     115.603 123.795 125.310  1.00  0.00     0.012 C 
ATOM     18  C   UNL     1     113.424 121.990 127.228  1.00  0.00    -0.004 C 
ATOM     19  C   UNL     1     112.643 122.590 124.890  1.00  0.00     0.005 C 
ATOM     20  C   UNL     1     112.225 121.944 126.235  1.00  0.00    -0.001 C 
ATOM     21  C   UNL     1     114.476 120.915 126.893  1.00  0.00     0.004 C 
ATOM     22  C   UNL     1     111.587 120.492 126.106  1.00  0.00    -0.026 C 
ATOM     23  C   UNL     1     113.854 119.526 126.918  1.00  0.00     0.004 C 
ATOM     24  C   UNL     1     112.696 119.404 125.900  1.00  0.00    -0.002 C 
ATOM     25  C   UNL     1     110.770 120.169 127.401  1.00  0.00     0.010 C 
ATOM     26  C   UNL     1     110.602 120.468 124.898  1.00  0.00     0.012 C 
ATOM     27  C   UNL     1     112.115 117.968 125.927  1.00  0.00     0.036 C 
ATOM     28  C   UNL     1     110.209 118.736 127.450  1.00  0.00     0.032 C 
ATOM     29  C   UNL     1     111.298 117.678 127.204  1.00  0.00     0.114 C 
BRANCH  29  30
ATOM     30  O   UNL     1     110.729 116.394 127.141  1.00  0.00    -0.393 OA
ATOM     31  H   UNL     1     111.456 115.732 127.277  1.00  0.00     0.210 HD
ENDBRANCH  29  30
ENDBRANCH   1  11
TORSDOF 6
ENDMDL
MODEL 2
REMARK VINA RESULT:    -7.596      1.134      2.001
REMARK INTER + INTRA:         -11.087
REMARK INTER:                 -10.255
REMARK INTRA:                  -0.832
REMARK UNBOUND:                -1.048
REMARK SMILES CC[C@@H](C=C[C@@H](C)[C@@H]1CC[C@H]2[C@@H]3CC[C@H]4C[C@H](O)CC[C@@]4(C)[C@@H]3CC[C@]21C)C(C)C
REMARK SMILES IDX 6 1 7 2 5 3 4 4 3 5 2 6 1 7 28 8 29 9 30 10 8 11 9 12 26 13
REMARK SMILES IDX 10 14 11 15 25 16 27 17 12 18 24 19 23 20 13 21 21 22 14 23
REMARK SMILES IDX 15 24 20 25 22 26 16 27 19 28 17 29 18 30
REMARK H PARENT 18 31
REMARK Flexibility Score: inf
ROOT
ATOM      1  C   UNL     1     115.398 125.752 126.052  1.00  0.00     0.012 C 
ATOM      2  C   UNL     1     116.539 125.092 126.853  1.00  0.00     0.012 C 
ENDROOT
BRANCH   1   3
ATOM      3  C   UNL     1     115.343 127.226 126.395  1.00  0.00    -0.028 C 
ATOM      4  C   UNL     1     116.284 128.082 125.958  1.00  0.00    -0.027 C 
BRANCH   4   5
ATOM      5  C   UNL     1     116.266 129.573 126.245  1.00  0.00     0.014 C 
BRANCH   5   6
ATOM      6  C   UNL     1     114.922 130.249 125.867  1.00  0.00     0.004 C 
ATOM      7  C   UNL     1     115.023 131.061 124.574  1.00  0.00     0.004 C 
ENDBRANCH   5   6
BRANCH   5   8
ATOM      8  C   UNL     1     117.529 130.279 125.656  1.00  0.00    -0.011 C 
ATOM      9  C   UNL     1     118.610 129.266 125.247  1.00  0.00     0.008 C 
ATOM     10  C   UNL     1     118.138 131.355 126.571  1.00  0.00     0.008 C 
ENDBRANCH   5   8
ENDBRANCH   4   5
ENDBRANCH   1   3
BRANCH   1  11
ATOM     11  C   UNL     1     113.976 125.104 126.248  1.00  0.00     0.002 C 
ATOM     12  C   UNL     1     113.719 124.698 127.710  1.00  0.00     0.005 C 
ATOM     13  C   UNL     1     113.620 123.831 125.408  1.00  0.00    -0.026 C 
ATOM     14  C   UNL     1     113.822 123.176 127.777  1.00  0.00     0.005 C 
ATOM     15  C   UNL     1     114.030 122.660 126.340  1.00  0.00    -0.001 C 
ATOM     16  C   UNL     1     112.080 123.819 125.161  1.00  0.00     0.007 C 
ATOM     17  C   UNL     1     114.341 123.810 124.034  1.00  0.00     0.012 C 
ATOM     18  C   UNL     1     113.333 121.283 126.104  1.00  0.00    -0.004 C 
ATOM     19  C   UNL     1     111.514 122.448 124.773  1.00  0.00     0.005 C 
ATOM     20  C   UNL     1     111.797 121.392 125.872  1.00  0.00    -0.001 C 
ATOM     21  C   UNL     1     114.019 120.483 124.980  1.00  0.00     0.004 C 
ATOM     22  C   UNL     1     111.108 119.979 125.628  1.00  0.00    -0.026 C 
ATOM     23  C   UNL     1     113.424 119.085 124.874  1.00  0.00     0.004 C 
ATOM     24  C   UNL     1     111.907 119.134 124.577  1.00  0.00    -0.002 C 
ATOM     25  C   UNL     1     111.037 119.198 126.983  1.00  0.00     0.010 C 
ATOM     26  C   UNL     1     109.649 120.197 125.123  1.00  0.00     0.012 C 
ATOM     27  C   UNL     1     111.346 117.697 124.438  1.00  0.00     0.036 C 
ATOM     28  C   UNL     1     110.505 117.759 126.852  1.00  0.00     0.032 C 
ATOM     29  C   UNL     1     111.269 116.952 125.788  1.00  0.00     0.114 C 
BRANCH  29  30
ATOM     30  O   UNL     1     110.681 115.687 125.617  1.00  0.00    -0.393 OA
ATOM     31  H   UNL     1     111.168 115.222 124.888  1.00  0.00     0.210 HD
ENDBRANCH  29  30
ENDBRANCH   1  11
TORSDOF 6
ENDMDL
MODEL 3
REMARK VINA RESULT:    -7.181      4.135      9.797
REMARK INTER + INTRA:         -10.538
REMARK INTER:                  -9.561
REMARK INTRA:                  -0.977
REMARK UNBOUND:                -1.048
REMARK SMILES CC[C@@H](C=C[C@@H](C)[C@@H]1CC[C@H]2[C@@H]3CC[C@H]4C[C@H](O)CC[C@@]4(C)[C@@H]3CC[C@]21C)C(C)C
REMARK SMILES IDX 6 1 7 2 5 3 4 4 3 5 2 6 1 7 28 8 29 9 30 10 8 11 9 12 26 13
REMARK SMILES IDX 10 14 11 15 25 16 27 17 12 18 24 19 23 20 13 21 21 22 14 23
REMARK SMILES IDX 15 24 20 25 22 26 16 27 19 28 17 29 18 30
REMARK H PARENT 18 31
REMARK Flexibility Score: inf
ROOT
ATOM      1  C   UNL     1     109.627 116.539 127.299  1.00  0.00     0.012 C 
ATOM      2  C   UNL     1     109.526 115.998 128.740  1.00  0.00     0.012 C 
ENDROOT
BRANCH   1   3
ATOM      3  C   UNL     1     110.880 115.989 126.651  1.00  0.00    -0.028 C 
ATOM      4  C   UNL     1     110.843 115.402 125.442  1.00  0.00    -0.027 C 
BRANCH   4   5
ATOM      5  C   UNL     1     112.069 114.857 124.730  1.00  0.00     0.014 C 
BRANCH   5   6
ATOM      6  C   UNL     1     113.401 115.350 125.354  1.00  0.00     0.004 C 
ATOM      7  C   UNL     1     114.041 116.478 124.542  1.00  0.00     0.004 C 
ENDBRANCH   5   6
BRANCH   5   8
ATOM      8  C   UNL     1     111.967 115.063 123.186  1.00  0.00    -0.011 C 
ATOM      9  C   UNL     1     110.752 115.925 122.804  1.00  0.00     0.008 C 
ATOM     10  C   UNL     1     111.961 113.759 122.371  1.00  0.00     0.008 C 
ENDBRANCH   5   8
ENDBRANCH   4   5
ENDBRANCH   1   3
BRANCH   1  11
ATOM     11  C   UNL     1     109.601 118.108 127.166  1.00  0.00     0.002 C 
ATOM     12  C   UNL     1     109.046 118.566 125.806  1.00  0.00     0.005 C 
ATOM     13  C   UNL     1     110.950 118.887 127.334  1.00  0.00    -0.026 C 
ATOM     14  C   UNL     1     110.232 119.058 124.981  1.00  0.00     0.005 C 
ATOM     15  C   UNL     1     111.482 119.001 125.880  1.00  0.00    -0.001 C 
ATOM     16  C   UNL     1     110.632 120.301 127.911  1.00  0.00     0.007 C 
ATOM     17  C   UNL     1     111.929 118.169 128.298  1.00  0.00     0.012 C 
ATOM     18  C   UNL     1     112.479 120.162 125.575  1.00  0.00    -0.004 C 
ATOM     19  C   UNL     1     111.748 121.332 127.703  1.00  0.00     0.005 C 
ATOM     20  C   UNL     1     112.061 121.526 126.198  1.00  0.00    -0.001 C 
ATOM     21  C   UNL     1     113.924 119.786 125.957  1.00  0.00     0.004 C 
ATOM     22  C   UNL     1     113.094 122.693 125.879  1.00  0.00    -0.026 C 
ATOM     23  C   UNL     1     114.898 120.866 125.508  1.00  0.00     0.004 C 
ATOM     24  C   UNL     1     114.567 122.233 126.151  1.00  0.00    -0.002 C 
ATOM     25  C   UNL     1     112.946 123.119 124.380  1.00  0.00     0.010 C 
ATOM     26  C   UNL     1     112.762 123.932 126.765  1.00  0.00     0.012 C 
ATOM     27  C   UNL     1     115.601 123.296 125.701  1.00  0.00     0.036 C 
ATOM     28  C   UNL     1     113.985 124.156 123.916  1.00  0.00     0.032 C 
ATOM     29  C   UNL     1     115.425 123.714 124.226  1.00  0.00     0.114 C 
BRANCH  29  30
ATOM     30  O   UNL     1     116.334 124.734 123.893  1.00  0.00    -0.393 OA
ATOM     31  H   UNL     1     116.121 125.524 124.455  1.00  0.00     0.210 HD
ENDBRANCH  29  30
ENDBRANCH   1  11
TORSDOF 6
ENDMDL
MODEL 4
REMARK VINA RESULT:    -7.177      1.410      2.310
REMARK INTER + INTRA:         -10.533
REMARK INTER:                  -9.734
REMARK INTRA:                  -0.799
REMARK UNBOUND:                -1.048
REMARK SMILES CC[C@@H](C=C[C@@H](C)[C@@H]1CC[C@H]2[C@@H]3CC[C@H]4C[C@H](O)CC[C@@]4(C)[C@@H]3CC[C@]21C)C(C)C
REMARK SMILES IDX 6 1 7 2 5 3 4 4 3 5 2 6 1 7 28 8 29 9 30 10 8 11 9 12 26 13
REMARK SMILES IDX 10 14 11 15 25 16 27 17 12 18 24 19 23 20 13 21 21 22 14 23
REMARK SMILES IDX 15 24 20 25 22 26 16 27 19 28 17 29 18 30
REMARK H PARENT 18 31
REMARK Flexibility Score: inf
ROOT
ATOM      1  C   UNL     1     115.676 125.254 126.283  1.00  0.00     0.012 C 
ATOM      2  C   UNL     1     114.404 125.758 126.994  1.00  0.00     0.012 C 
ENDROOT
BRANCH   1   3
ATOM      3  C   UNL     1     116.327 126.412 125.556  1.00  0.00    -0.028 C 
ATOM      4  C   UNL     1     116.007 127.687 125.842  1.00  0.00    -0.027 C 
BRANCH   4   5
ATOM      5  C   UNL     1     116.645 128.888 125.167  1.00  0.00     0.014 C 
BRANCH   5   6
ATOM      6  C   UNL     1     118.172 128.989 125.425  1.00  0.00     0.004 C 
ATOM      7  C   UNL     1     118.605 130.409 125.798  1.00  0.00     0.004 C 
ENDBRANCH   5   6
BRANCH   5   8
ATOM      8  C   UNL     1     115.853 130.199 125.475  1.00  0.00    -0.011 C 
ATOM      9  C   UNL     1     114.616 129.926 126.346  1.00  0.00     0.008 C 
ATOM     10  C   UNL     1     115.448 131.001 124.227  1.00  0.00     0.008 C 
ENDBRANCH   5   8
ENDBRANCH   4   5
ENDBRANCH   1   3
BRANCH   1  11
ATOM     11  C   UNL     1     115.459 124.053 125.287  1.00  0.00     0.002 C 
ATOM     12  C   UNL     1     114.358 124.347 124.253  1.00  0.00     0.005 C 
ATOM     13  C   UNL     1     115.087 122.654 125.885  1.00  0.00    -0.026 C 
ATOM     14  C   UNL     1     113.135 123.525 124.655  1.00  0.00     0.005 C 
ATOM     15  C   UNL     1     113.535 122.655 125.861  1.00  0.00    -0.001 C 
ATOM     16  C   UNL     1     115.646 121.549 124.937  1.00  0.00     0.007 C 
ATOM     17  C   UNL     1     115.685 122.439 127.300  1.00  0.00     0.012 C 
ATOM     18  C   UNL     1     112.822 121.267 125.846  1.00  0.00    -0.004 C 
ATOM     19  C   UNL     1     114.990 120.175 125.114  1.00  0.00     0.005 C 
ATOM     20  C   UNL     1     113.463 120.244 124.862  1.00  0.00    -0.001 C 
ATOM     21  C   UNL     1     112.689 120.679 127.265  1.00  0.00     0.004 C 
ATOM     22  C   UNL     1     112.724 118.836 124.867  1.00  0.00    -0.026 C 
ATOM     23  C   UNL     1     111.855 119.405 127.244  1.00  0.00     0.004 C 
ATOM     24  C   UNL     1     112.484 118.329 126.331  1.00  0.00    -0.002 C 
ATOM     25  C   UNL     1     111.350 118.970 124.128  1.00  0.00     0.010 C 
ATOM     26  C   UNL     1     113.588 117.798 124.089  1.00  0.00     0.012 C 
ATOM     27  C   UNL     1     111.629 117.036 126.366  1.00  0.00     0.036 C 
ATOM     28  C   UNL     1     110.482 117.700 124.179  1.00  0.00     0.032 C 
ATOM     29  C   UNL     1     110.288 117.187 125.616  1.00  0.00     0.114 C 
BRANCH  29  30
ATOM     30  O   UNL     1     109.590 115.967 125.611  1.00  0.00    -0.393 OA
ATOM     31  H   UNL     1     108.620 116.172 125.568  1.00  0.00     0.210 HD
ENDBRANCH  29  30
ENDBRANCH   1  11
TORSDOF 6
ENDMDL
MODEL 5
REMARK VINA RESULT:    -7.101      4.108     10.047
REMARK INTER + INTRA:         -10.433
REMARK INTER:                  -9.696
REMARK INTRA:                  -0.737
REMARK UNBOUND:                -1.048
REMARK SMILES CC[C@@H](C=C[C@@H](C)[C@@H]1CC[C@H]2[C@@H]3CC[C@H]4C[C@H](O)CC[C@@]4(C)[C@@H]3CC[C@]21C)C(C)C
REMARK SMILES IDX 6 1 7 2 5 3 4 4 3 5 2 6 1 7 28 8 29 9 30 10 8 11 9 12 26 13
REMARK SMILES IDX 10 14 11 15 25 16 27 17 12 18 24 19 23 20 13 21 21 22 14 23
REMARK SMILES IDX 15 24 20 25 22 26 16 27 19 28 17 29 18 30
REMARK H PARENT 18 31
REMARK Flexibility Score: inf
ROOT
ATOM      1  C   UNL     1     109.613 116.432 126.979  1.00  0.00     0.012 C 
ATOM      2  C   UNL     1     109.555 115.807 128.388  1.00  0.00     0.012 C 
ENDROOT
BRANCH   1   3
ATOM      3  C   UNL     1     110.851 115.927 126.266  1.00  0.00    -0.028 C 
ATOM      4  C   UNL     1     110.774 115.358 125.050  1.00  0.00    -0.027 C 
BRANCH   4   5
ATOM      5  C   UNL     1     111.981 114.858 124.275  1.00  0.00     0.014 C 
BRANCH   5   6
ATOM      6  C   UNL     1     111.971 113.321 124.063  1.00  0.00     0.004 C 
ATOM      7  C   UNL     1     112.266 112.933 122.612  1.00  0.00     0.004 C 
ENDBRANCH   5   6
BRANCH   5   8
ATOM      8  C   UNL     1     113.311 115.416 124.873  1.00  0.00    -0.011 C 
ATOM      9  C   UNL     1     113.933 116.495 123.971  1.00  0.00     0.008 C 
ATOM     10  C   UNL     1     114.358 114.340 125.202  1.00  0.00     0.008 C 
ENDBRANCH   5   8
ENDBRANCH   4   5
ENDBRANCH   1   3
BRANCH   1  11
ATOM     11  C   UNL     1     109.579 118.006 126.938  1.00  0.00     0.002 C 
ATOM     12  C   UNL     1     109.003 118.540 125.615  1.00  0.00     0.005 C 
ATOM     13  C   UNL     1     110.926 118.781 127.133  1.00  0.00    -0.026 C 
ATOM     14  C   UNL     1     110.177 119.085 124.804  1.00  0.00     0.005 C 
ATOM     15  C   UNL     1     111.438 118.982 125.681  1.00  0.00    -0.001 C 
ATOM     16  C   UNL     1     110.610 120.157 127.796  1.00  0.00     0.007 C 
ATOM     17  C   UNL     1     111.922 118.013 128.041  1.00  0.00     0.012 C 
ATOM     18  C   UNL     1     112.427 120.164 125.432  1.00  0.00    -0.004 C 
ATOM     19  C   UNL     1     111.719 121.204 127.634  1.00  0.00     0.005 C 
ATOM     20  C   UNL     1     112.010 121.487 126.139  1.00  0.00    -0.001 C 
ATOM     21  C   UNL     1     113.878 119.774 125.772  1.00  0.00     0.004 C 
ATOM     22  C   UNL     1     113.034 122.676 125.875  1.00  0.00    -0.026 C 
ATOM     23  C   UNL     1     114.841 120.884 125.374  1.00  0.00     0.004 C 
ATOM     24  C   UNL     1     114.513 122.209 126.100  1.00  0.00    -0.002 C 
ATOM     25  C   UNL     1     112.864 123.188 124.406  1.00  0.00     0.010 C 
ATOM     26  C   UNL     1     112.708 123.859 126.836  1.00  0.00     0.012 C 
ATOM     27  C   UNL     1     115.536 123.302 125.699  1.00  0.00     0.036 C 
ATOM     28  C   UNL     1     113.892 124.256 123.989  1.00  0.00     0.032 C 
ATOM     29  C   UNL     1     115.338 123.804 124.253  1.00  0.00     0.114 C 
BRANCH  29  30
ATOM     30  O   UNL     1     116.237 124.846 123.969  1.00  0.00    -0.393 OA
ATOM     31  H   UNL     1     115.736 125.701 124.020  1.00  0.00     0.210 HD
ENDBRANCH  29  30
ENDBRANCH   1  11
TORSDOF 6
ENDMDL
MODEL 6
REMARK VINA RESULT:    -6.830      3.332      9.706
REMARK INTER + INTRA:         -10.075
REMARK INTER:                  -8.654
REMARK INTRA:                  -1.421
REMARK UNBOUND:                -1.048
REMARK SMILES CC[C@@H](C=C[C@@H](C)[C@@H]1CC[C@H]2[C@@H]3CC[C@H]4C[C@H](O)CC[C@@]4(C)[C@@H]3CC[C@]21C)C(C)C
REMARK SMILES IDX 6 1 7 2 5 3 4 4 3 5 2 6 1 7 28 8 29 9 30 10 8 11 9 12 26 13
REMARK SMILES IDX 10 14 11 15 25 16 27 17 12 18 24 19 23 20 13 21 21 22 14 23
REMARK SMILES IDX 15 24 20 25 22 26 16 27 19 28 17 29 18 30
REMARK H PARENT 18 31
REMARK Flexibility Score: inf
ROOT
ATOM      1  C   UNL     1     111.798 117.711 127.753  1.00  0.00     0.012 C 
ATOM      2  C   UNL     1     112.487 116.894 128.864  1.00  0.00     0.012 C 
ENDROOT
BRANCH   1   3
ATOM      3  C   UNL     1     110.919 116.789 126.933  1.00  0.00    -0.028 C 
ATOM      4  C   UNL     1     111.109 116.634 125.611  1.00  0.00    -0.027 C 
BRANCH   4   5
ATOM      5  C   UNL     1     110.280 115.704 124.742  1.00  0.00     0.014 C 
BRANCH   5   6
ATOM      6  C   UNL     1     111.106 114.534 124.146  1.00  0.00     0.004 C 
ATOM      7  C   UNL     1     112.594 114.640 124.487  1.00  0.00     0.004 C 
ENDBRANCH   5   6
BRANCH   5   8
ATOM      8  C   UNL     1     109.445 116.503 123.692  1.00  0.00    -0.011 C 
ATOM      9  C   UNL     1     110.016 116.349 122.273  1.00  0.00     0.008 C 
ATOM     10  C   UNL     1     109.267 117.994 124.026  1.00  0.00     0.008 C 
ENDBRANCH   5   8
ENDBRANCH   4   5
ENDBRANCH   1   3
BRANCH   1  11
ATOM     11  C   UNL     1     112.768 118.508 126.802  1.00  0.00     0.002 C 
ATOM     12  C   UNL     1     114.245 118.319 127.189  1.00  0.00     0.005 C 
ATOM     13  C   UNL     1     112.578 120.059 126.683  1.00  0.00    -0.026 C 
ATOM     14  C   UNL     1     114.705 119.617 127.850  1.00  0.00     0.005 C 
ATOM     15  C   UNL     1     113.541 120.622 127.762  1.00  0.00    -0.001 C 
ATOM     16  C   UNL     1     113.035 120.502 125.258  1.00  0.00     0.007 C 
ATOM     17  C   UNL     1     111.102 120.490 126.884  1.00  0.00     0.012 C 
ATOM     18  C   UNL     1     114.044 122.088 127.572  1.00  0.00    -0.004 C 
ATOM     19  C   UNL     1     113.350 121.997 125.134  1.00  0.00     0.005 C 
ATOM     20  C   UNL     1     114.476 122.417 126.112  1.00  0.00    -0.001 C 
ATOM     21  C   UNL     1     113.025 123.113 128.104  1.00  0.00     0.004 C 
ATOM     22  C   UNL     1     114.980 123.916 125.941  1.00  0.00    -0.026 C 
ATOM     23  C   UNL     1     113.602 124.522 128.053  1.00  0.00     0.004 C 
ATOM     24  C   UNL     1     113.987 124.926 126.612  1.00  0.00    -0.002 C 
ATOM     25  C   UNL     1     116.396 124.063 126.592  1.00  0.00     0.010 C 
ATOM     26  C   UNL     1     115.114 124.244 124.423  1.00  0.00     0.012 C 
ATOM     27  C   UNL     1     114.533 126.377 126.595  1.00  0.00     0.036 C 
ATOM     28  C   UNL     1     116.937 125.504 126.603  1.00  0.00     0.032 C 
ATOM     29  C   UNL     1     115.937 126.494 127.225  1.00  0.00     0.114 C 
BRANCH  29  30
ATOM     30  O   UNL     1     116.416 127.811 127.112  1.00  0.00    -0.393 OA
ATOM     31  H   UNL     1     116.062 128.191 126.267  1.00  0.00     0.210 HD
ENDBRANCH  29  30
ENDBRANCH   1  11
TORSDOF 6
ENDMDL
MODEL 7
REMARK VINA RESULT:    -6.705      3.643      9.509
REMARK INTER + INTRA:          -9.909
REMARK INTER:                  -9.219
REMARK INTRA:                  -0.690
REMARK UNBOUND:                -1.048
REMARK SMILES CC[C@@H](C=C[C@@H](C)[C@@H]1CC[C@H]2[C@@H]3CC[C@H]4C[C@H](O)CC[C@@]4(C)[C@@H]3CC[C@]21C)C(C)C
REMARK SMILES IDX 6 1 7 2 5 3 4 4 3 5 2 6 1 7 28 8 29 9 30 10 8 11 9 12 26 13
REMARK SMILES IDX 10 14 11 15 25 16 27 17 12 18 24 19 23 20 13 21 21 22 14 23
REMARK SMILES IDX 15 24 20 25 22 26 16 27 19 28 17 29 18 30
REMARK H PARENT 18 31
REMARK Flexibility Score: inf
ROOT
ATOM      1  C   UNL     1     111.065 116.460 125.461  1.00  0.00     0.012 C 
ATOM      2  C   UNL     1     109.672 115.988 124.993  1.00  0.00     0.012 C 
ENDROOT
BRANCH   1   3
ATOM      3  C   UNL     1     110.997 116.818 126.931  1.00  0.00    -0.028 C 
ATOM      4  C   UNL     1     111.918 116.370 127.803  1.00  0.00    -0.027 C 
BRANCH   4   5
ATOM      5  C   UNL     1     111.919 116.717 129.281  1.00  0.00     0.014 C 
BRANCH   5   6
ATOM      6  C   UNL     1     110.602 117.391 129.747  1.00  0.00     0.004 C 
ATOM      7  C   UNL     1     110.013 116.719 130.990  1.00  0.00     0.004 C 
ENDBRANCH   5   6
BRANCH   5   8
ATOM      8  C   UNL     1     113.214 117.492 129.682  1.00  0.00    -0.011 C 
ATOM      9  C   UNL     1     114.368 117.219 128.702  1.00  0.00     0.008 C 
ATOM     10  C   UNL     1     113.683 117.240 131.125  1.00  0.00     0.008 C 
ENDBRANCH   5   8
ENDBRANCH   4   5
ENDBRANCH   1   3
BRANCH   1  11
ATOM     11  C   UNL     1     111.677 117.660 124.646  1.00  0.00     0.002 C 
ATOM     12  C   UNL     1     113.192 117.502 124.429  1.00  0.00     0.005 C 
ATOM     13  C   UNL     1     111.502 119.108 125.218  1.00  0.00    -0.026 C 
ATOM     14  C   UNL     1     113.885 118.491 125.364  1.00  0.00     0.005 C 
ATOM     15  C   UNL     1     112.789 119.320 126.060  1.00  0.00    -0.001 C 
ATOM     16  C   UNL     1     111.461 120.108 124.021  1.00  0.00     0.007 C 
ATOM     17  C   UNL     1     110.194 119.265 126.036  1.00  0.00     0.012 C 
ATOM     18  C   UNL     1     113.239 120.793 126.314  1.00  0.00    -0.004 C 
ATOM     19  C   UNL     1     111.758 121.562 124.404  1.00  0.00     0.005 C 
ATOM     20  C   UNL     1     113.159 121.699 125.050  1.00  0.00    -0.001 C 
ATOM     21  C   UNL     1     112.489 121.419 127.506  1.00  0.00     0.004 C 
ATOM     22  C   UNL     1     113.618 123.196 125.334  1.00  0.00    -0.026 C 
ATOM     23  C   UNL     1     113.053 122.795 127.835  1.00  0.00     0.004 C 
ATOM     24  C   UNL     1     112.939 123.758 126.631  1.00  0.00    -0.002 C 
ATOM     25  C   UNL     1     115.174 123.238 125.498  1.00  0.00     0.010 C 
ATOM     26  C   UNL     1     113.238 124.091 124.116  1.00  0.00     0.012 C 
ATOM     27  C   UNL     1     113.487 125.156 127.015  1.00  0.00     0.036 C 
ATOM     28  C   UNL     1     115.726 124.617 125.904  1.00  0.00     0.032 C 
ATOM     29  C   UNL     1     115.024 125.178 127.152  1.00  0.00     0.114 C 
BRANCH  29  30
ATOM     30  O   UNL     1     115.473 126.482 127.422  1.00  0.00    -0.393 OA
ATOM     31  H   UNL     1     116.410 126.553 127.101  1.00  0.00     0.210 HD
ENDBRANCH  29  30
ENDBRANCH   1  11
TORSDOF 6
ENDMDL
MODEL 8
REMARK VINA RESULT:    -6.660      1.911      3.925
REMARK INTER + INTRA:          -9.850
REMARK INTER:                  -9.761
REMARK INTRA:                  -0.088
REMARK UNBOUND:                -1.048
REMARK SMILES CC[C@@H](C=C[C@@H](C)[C@@H]1CC[C@H]2[C@@H]3CC[C@H]4C[C@H](O)CC[C@@]4(C)[C@@H]3CC[C@]21C)C(C)C
REMARK SMILES IDX 6 1 7 2 5 3 4 4 3 5 2 6 1 7 28 8 29 9 30 10 8 11 9 12 26 13
REMARK SMILES IDX 10 14 11 15 25 16 27 17 12 18 24 19 23 20 13 21 21 22 14 23
REMARK SMILES IDX 15 24 20 25 22 26 16 27 19 28 17 29 18 30
REMARK H PARENT 18 31
REMARK Flexibility Score: inf
ROOT
ATOM      1  C   UNL     1     114.166 123.629 124.064  1.00  0.00     0.012 C 
ATOM      2  C   UNL     1     115.586 123.042 123.939  1.00  0.00     0.012 C 
ENDROOT
BRANCH   1   3
ATOM      3  C   UNL     1     114.138 124.617 125.212  1.00  0.00    -0.028 C 
ATOM      4  C   UNL     1     115.223 124.830 125.978  1.00  0.00    -0.027 C 
BRANCH   4   5
ATOM      5  C   UNL     1     115.264 125.826 127.124  1.00  0.00     0.014 C 
BRANCH   5   6
ATOM      6  C   UNL     1     113.858 126.158 127.689  1.00  0.00     0.004 C 
ATOM      7  C   UNL     1     113.357 125.091 128.665  1.00  0.00     0.004 C 
ENDBRANCH   5   6
BRANCH   5   8
ATOM      8  C   UNL     1     116.122 127.078 126.757  1.00  0.00    -0.011 C 
ATOM      9  C   UNL     1     115.249 128.326 126.545  1.00  0.00     0.008 C 
ATOM     10  C   UNL     1     117.050 126.877 125.547  1.00  0.00     0.008 C 
ENDBRANCH   5   8
ENDBRANCH   4   5
ENDBRANCH   1   3
BRANCH   1  11
ATOM     11  C   UNL     1     113.013 122.570 124.243  1.00  0.00     0.002 C 
ATOM     12  C   UNL     1     111.873 123.098 125.131  1.00  0.00     0.005 C 
ATOM     13  C   UNL     1     113.380 121.172 124.846  1.00  0.00    -0.026 C 
ATOM     14  C   UNL     1     111.992 122.391 126.480  1.00  0.00     0.005 C 
ATOM     15  C   UNL     1     113.132 121.360 126.366  1.00  0.00    -0.001 C 
ATOM     16  C   UNL     1     112.397 120.111 124.260  1.00  0.00     0.007 C 
ATOM     17  C   UNL     1     114.831 120.744 124.503  1.00  0.00     0.012 C 
ATOM     18  C   UNL     1     112.848 120.076 127.206  1.00  0.00    -0.004 C 
ATOM     19  C   UNL     1     112.313 118.814 125.073  1.00  0.00     0.005 C 
ATOM     20  C   UNL     1     111.853 119.090 126.526  1.00  0.00    -0.001 C 
ATOM     21  C   UNL     1     114.152 119.366 127.620  1.00  0.00     0.004 C 
ATOM     22  C   UNL     1     111.582 117.787 127.397  1.00  0.00    -0.026 C 
ATOM     23  C   UNL     1     113.859 118.210 128.567  1.00  0.00     0.004 C 
ATOM     24  C   UNL     1     112.925 117.165 127.915  1.00  0.00    -0.002 C 
ATOM     25  C   UNL     1     110.674 118.159 128.616  1.00  0.00     0.010 C 
ATOM     26  C   UNL     1     110.820 116.738 126.532  1.00  0.00     0.012 C 
ATOM     27  C   UNL     1     112.682 115.987 128.892  1.00  0.00     0.036 C 
ATOM     28  C   UNL     1     110.446 117.003 129.607  1.00  0.00     0.032 C 
ATOM     29  C   UNL     1     111.769 116.372 130.076  1.00  0.00     0.114 C 
BRANCH  29  30
ATOM     30  O   UNL     1     111.517 115.251 130.886  1.00  0.00    -0.393 OA
ATOM     31  H   UNL     1     110.536 115.189 131.022  1.00  0.00     0.210 HD
ENDBRANCH  29  30
ENDBRANCH   1  11
TORSDOF 6
ENDMDL
MODEL 9
REMARK VINA RESULT:    -6.616      5.632      9.766
REMARK INTER + INTRA:          -9.792
REMARK INTER:                  -8.896
REMARK INTRA:                  -0.896
REMARK UNBOUND:                -1.048
REMARK SMILES CC[C@@H](C=C[C@@H](C)[C@@H]1CC[C@H]2[C@@H]3CC[C@H]4C[C@H](O)CC[C@@]4(C)[C@@H]3CC[C@]21C)C(C)C
REMARK SMILES IDX 6 1 7 2 5 3 4 4 3 5 2 6 1 7 28 8 29 9 30 10 8 11 9 12 26 13
REMARK SMILES IDX 10 14 11 15 25 16 27 17 12 18 24 19 23 20 13 21 21 22 14 23
REMARK SMILES IDX 15 24 20 25 22 26 16 27 19 28 17 29 18 30
REMARK H PARENT 18 31
REMARK Flexibility Score: inf
ROOT
ATOM      1  C   UNL     1     109.614 117.358 126.112  1.00  0.00     0.012 C 
ATOM      2  C   UNL     1     108.875 118.388 126.990  1.00  0.00     0.012 C 
ENDROOT
BRANCH   1   3
ATOM      3  C   UNL     1     110.478 116.483 126.996  1.00  0.00    -0.028 C 
ATOM      4  C   UNL     1     110.697 116.793 128.287  1.00  0.00    -0.027 C 
BRANCH   4   5
ATOM      5  C   UNL     1     111.530 115.942 129.229  1.00  0.00     0.014 C 
BRANCH   5   6
ATOM      6  C   UNL     1     110.911 115.822 130.646  1.00  0.00     0.004 C 
ATOM      7  C   UNL     1     109.937 116.961 130.953  1.00  0.00     0.004 C 
ENDBRANCH   5   6
BRANCH   5   8
ATOM      8  C   UNL     1     113.028 116.383 129.217  1.00  0.00    -0.011 C 
ATOM      9  C   UNL     1     113.172 117.913 129.262  1.00  0.00     0.008 C 
ATOM     10  C   UNL     1     113.847 115.814 128.046  1.00  0.00     0.008 C 
ENDBRANCH   5   8
ENDBRANCH   4   5
ENDBRANCH   1   3
BRANCH   1  11
ATOM     11  C   UNL     1     110.484 117.966 124.948  1.00  0.00     0.002 C 
ATOM     12  C   UNL     1     111.198 116.877 124.128  1.00  0.00     0.005 C 
ATOM     13  C   UNL     1     111.608 118.991 125.323  1.00  0.00    -0.026 C 
ATOM     14  C   UNL     1     112.674 116.917 124.520  1.00  0.00     0.005 C 
ATOM     15  C   UNL     1     112.867 118.098 125.490  1.00  0.00    -0.001 C 
ATOM     16  C   UNL     1     111.792 119.976 124.128  1.00  0.00     0.007 C 
ATOM     17  C   UNL     1     111.258 119.812 126.591  1.00  0.00     0.012 C 
ATOM     18  C   UNL     1     114.256 118.785 125.310  1.00  0.00    -0.004 C 
ATOM     19  C   UNL     1     113.129 120.727 124.131  1.00  0.00     0.005 C 
ATOM     20  C   UNL     1     114.326 119.744 124.085  1.00  0.00    -0.001 C 
ATOM     21  C   UNL     1     114.717 119.485 126.603  1.00  0.00     0.004 C 
ATOM     22  C   UNL     1     115.749 120.437 123.924  1.00  0.00    -0.026 C 
ATOM     23  C   UNL     1     116.138 120.011 126.453  1.00  0.00     0.004 C 
ATOM     24  C   UNL     1     116.250 121.022 125.289  1.00  0.00    -0.002 C 
ATOM     25  C   UNL     1     116.780 119.384 123.396  1.00  0.00     0.010 C 
ATOM     26  C   UNL     1     115.649 121.581 122.870  1.00  0.00     0.012 C 
ATOM     27  C   UNL     1     117.699 121.563 125.193  1.00  0.00     0.036 C 
ATOM     28  C   UNL     1     118.227 119.904 123.320  1.00  0.00     0.032 C 
ATOM     29  C   UNL     1     118.694 120.514 124.653  1.00  0.00     0.114 C 
BRANCH  29  30
ATOM     30  O   UNL     1     119.974 121.079 124.511  1.00  0.00    -0.393 OA
ATOM     31  H   UNL     1     120.176 121.585 125.341  1.00  0.00     0.210 HD
ENDBRANCH  29  30
ENDBRANCH   1  11
TORSDOF 6
ENDMDL
