MODEL 1
REMARK VINA RESULT:    -2.821      0.000      0.000
REMARK INTER + INTRA:          -3.335
REMARK INTER:                  -3.315
REMARK INTRA:                  -0.019
REMARK UNBOUND:                -0.019
REMARK SMILES CCCCC(=O)[O-]
REMARK SMILES IDX 4 1 5 2 6 3 7 4 3 5 2 6 1 7
REMARK H PARENT
REMARK Flexibility Score: inf
ROOT
ATOM      1  C   UNL     1      59.968  21.798  21.561  1.00  0.00     0.053 C 
ENDROOT
BRANCH   1   2
ATOM      2  C   UNL     1      59.298  22.718  22.533  1.00  0.00     0.041 C 
ATOM      3  O   UNL     1      58.067  22.599  22.771  1.00  0.00    -0.550 OA
ATOM      4  O   UNL     1      60.021  23.736  23.140  1.00  0.00    -0.550 OA
ENDBRANCH   1   2
BRANCH   1   5
ATOM      5  C   UNL     1      61.114  22.523  20.843  1.00  0.00     0.006 C 
BRANCH   5   6
ATOM      6  C   UNL     1      61.296  22.049  19.393  1.00  0.00    -0.003 C 
ATOM      7  C   UNL     1      62.759  22.049  18.950  1.00  0.00     0.004 C 
ENDBRANCH   5   6
ENDBRANCH   1   5
TORSDOF 3
ENDMDL
MODEL 2
REMARK VINA RESULT:    -2.814      0.148      1.232
REMARK INTER + INTRA:          -3.327
REMARK INTER:                  -3.308
REMARK INTRA:                  -0.019
REMARK UNBOUND:                -0.019
REMARK SMILES CCCCC(=O)[O-]
REMARK SMILES IDX 4 1 5 2 6 3 7 4 3 5 2 6 1 7
REMARK H PARENT
REMARK Flexibility Score: inf
ROOT
ATOM      1  C   UNL     1      60.032  21.775  21.527  1.00  0.00     0.053 C 
ENDROOT
BRANCH   1   2
ATOM      2  C   UNL     1      59.277  22.674  22.454  1.00  0.00     0.041 C 
ATOM      3  O   UNL     1      59.883  23.561  23.110  1.00  0.00    -0.550 OA
ATOM      4  O   UNL     1      57.910  22.500  22.632  1.00  0.00    -0.550 OA
ENDBRANCH   1   2
BRANCH   1   5
ATOM      5  C   UNL     1      61.090  22.572  20.752  1.00  0.00     0.006 C 
BRANCH   5   6
ATOM      6  C   UNL     1      61.362  21.992  19.356  1.00  0.00    -0.003 C 
ATOM      7  C   UNL     1      62.849  21.979  19.001  1.00  0.00     0.004 C 
ENDBRANCH   5   6
ENDBRANCH   1   5
TORSDOF 3
ENDMDL
MODEL 3
REMARK VINA RESULT:    -2.790      1.972      2.984
REMARK INTER + INTRA:          -3.299
REMARK INTER:                  -3.216
REMARK INTRA:                  -0.083
REMARK UNBOUND:                -0.019
REMARK SMILES CCCCC(=O)[O-]
REMARK SMILES IDX 4 1 5 2 6 3 7 4 3 5 2 6 1 7
REMARK H PARENT
REMARK Flexibility Score: inf
ROOT
ATOM      1  C   UNL     1      57.640  20.954  22.759  1.00  0.00     0.053 C 
ENDROOT
BRANCH   1   2
ATOM      2  C   UNL     1      56.875  22.189  23.116  1.00  0.00     0.041 C 
ATOM      3  O   UNL     1      57.027  22.723  24.246  1.00  0.00    -0.550 OA
ATOM      4  O   UNL     1      55.958  22.723  22.220  1.00  0.00    -0.550 OA
ENDBRANCH   1   2
BRANCH   1   5
ATOM      5  C   UNL     1      59.150  21.226  22.806  1.00  0.00     0.006 C 
BRANCH   5   6
ATOM      6  C   UNL     1      59.579  22.337  21.836  1.00  0.00    -0.003 C 
ATOM      7  C   UNL     1      60.535  21.839  20.752  1.00  0.00     0.004 C 
ENDBRANCH   5   6
ENDBRANCH   1   5
TORSDOF 3
ENDMDL
MODEL 4
REMARK VINA RESULT:    -2.768      2.932      4.290
REMARK INTER + INTRA:          -3.273
REMARK INTER:                  -3.257
REMARK INTRA:                  -0.016
REMARK UNBOUND:                -0.019
REMARK SMILES CCCCC(=O)[O-]
REMARK SMILES IDX 4 1 5 2 6 3 7 4 3 5 2 6 1 7
REMARK H PARENT
REMARK Flexibility Score: inf
ROOT
ATOM      1  C   UNL     1      61.479  22.830  20.870  1.00  0.00     0.053 C 
ENDROOT
BRANCH   1   2
ATOM      2  C   UNL     1      62.118  22.127  19.715  1.00  0.00     0.041 C 
ATOM      3  O   UNL     1      61.787  22.416  18.535  1.00  0.00    -0.550 OA
ATOM      4  O   UNL     1      63.044  21.117  19.941  1.00  0.00    -0.550 OA
ENDBRANCH   1   2
BRANCH   1   5
ATOM      5  C   UNL     1      60.169  22.135  21.262  1.00  0.00     0.006 C 
BRANCH   5   6
ATOM      6  C   UNL     1      59.520  22.756  22.507  1.00  0.00    -0.003 C 
ATOM      7  C   UNL     1      58.059  22.341  22.682  1.00  0.00     0.004 C 
ENDBRANCH   5   6
ENDBRANCH   1   5
TORSDOF 3
ENDMDL
MODEL 5
REMARK VINA RESULT:    -2.751      2.471      3.729
REMARK INTER + INTRA:          -3.252
REMARK INTER:                  -3.196
REMARK INTRA:                  -0.056
REMARK UNBOUND:                -0.019
REMARK SMILES CCCCC(=O)[O-]
REMARK SMILES IDX 4 1 5 2 6 3 7 4 3 5 2 6 1 7
REMARK H PARENT
REMARK Flexibility Score: inf
ROOT
ATOM      1  C   UNL     1      57.357  22.418  23.916  1.00  0.00     0.053 C 
ENDROOT
BRANCH   1   2
ATOM      2  C   UNL     1      56.106  22.230  23.118  1.00  0.00     0.041 C 
ATOM      3  O   UNL     1      55.905  22.918  22.083  1.00  0.00    -0.550 OA
ATOM      4  O   UNL     1      55.139  21.328  23.543  1.00  0.00    -0.550 OA
ENDBRANCH   1   2
BRANCH   1   5
ATOM      5  C   UNL     1      58.547  21.754  23.211  1.00  0.00     0.006 C 
BRANCH   5   6
ATOM      6  C   UNL     1      59.470  22.772  22.524  1.00  0.00    -0.003 C 
ATOM      7  C   UNL     1      60.122  22.219  21.257  1.00  0.00     0.004 C 
ENDBRANCH   5   6
ENDBRANCH   1   5
TORSDOF 3
ENDMDL
MODEL 6
REMARK VINA RESULT:    -2.747      3.066      4.928
REMARK INTER + INTRA:          -3.248
REMARK INTER:                  -3.169
REMARK INTRA:                  -0.078
REMARK UNBOUND:                -0.019
REMARK SMILES CCCCC(=O)[O-]
REMARK SMILES IDX 4 1 5 2 6 3 7 4 3 5 2 6 1 7
REMARK H PARENT
REMARK Flexibility Score: inf
ROOT
ATOM      1  C   UNL     1      58.268  21.335  23.569  1.00  0.00     0.053 C 
ENDROOT
BRANCH   1   2
ATOM      2  C   UNL     1      59.027  22.496  23.008  1.00  0.00     0.041 C 
ATOM      3  O   UNL     1      59.305  23.483  23.739  1.00  0.00    -0.550 OA
ATOM      4  O   UNL     1      59.384  22.511  21.667  1.00  0.00    -0.550 OA
ENDBRANCH   1   2
BRANCH   1   5
ATOM      5  C   UNL     1      56.911  21.192  22.868  1.00  0.00     0.006 C 
BRANCH   5   6
ATOM      6  C   UNL     1      55.940  22.327  23.225  1.00  0.00    -0.003 C 
ATOM      7  C   UNL     1      54.506  21.836  23.427  1.00  0.00     0.004 C 
ENDBRANCH   5   6
ENDBRANCH   1   5
TORSDOF 3
ENDMDL
MODEL 7
REMARK VINA RESULT:    -2.619      2.296      4.256
REMARK INTER + INTRA:          -3.097
REMARK INTER:                  -3.077
REMARK INTRA:                  -0.020
REMARK UNBOUND:                -0.019
REMARK SMILES CCCCC(=O)[O-]
REMARK SMILES IDX 4 1 5 2 6 3 7 4 3 5 2 6 1 7
REMARK H PARENT
REMARK Flexibility Score: inf
ROOT
ATOM      1  C   UNL     1      60.047  21.458  21.291  1.00  0.00     0.053 C 
ENDROOT
BRANCH   1   2
ATOM      2  C   UNL     1      61.039  22.268  20.516  1.00  0.00     0.041 C 
ATOM      3  O   UNL     1      61.620  23.245  21.058  1.00  0.00    -0.550 OA
ATOM      4  O   UNL     1      61.284  21.976  19.181  1.00  0.00    -0.550 OA
ENDBRANCH   1   2
BRANCH   1   5
ATOM      5  C   UNL     1      59.223  22.363  22.216  1.00  0.00     0.006 C 
BRANCH   5   6
ATOM      6  C   UNL     1      58.267  21.570  23.119  1.00  0.00    -0.003 C 
ATOM      7  C   UNL     1      57.149  22.435  23.702  1.00  0.00     0.004 C 
ENDBRANCH   5   6
ENDBRANCH   1   5
TORSDOF 3
ENDMDL
MODEL 8
REMARK VINA RESULT:    -2.488      3.415      4.360
REMARK INTER + INTRA:          -2.944
REMARK INTER:                  -2.841
REMARK INTRA:                  -0.103
REMARK UNBOUND:                -0.019
REMARK SMILES CCCCC(=O)[O-]
REMARK SMILES IDX 4 1 5 2 6 3 7 4 3 5 2 6 1 7
REMARK H PARENT
REMARK Flexibility Score: inf
ROOT
ATOM      1  C   UNL     1      58.754  22.722  23.166  1.00  0.00     0.053 C 
ENDROOT
BRANCH   1   2
ATOM      2  C   UNL     1      59.004  23.537  24.395  1.00  0.00     0.041 C 
ATOM      3  O   UNL     1      58.138  23.590  25.307  1.00  0.00    -0.550 OA
ATOM      4  O   UNL     1      60.174  24.277  24.513  1.00  0.00    -0.550 OA
ENDBRANCH   1   2
BRANCH   1   5
ATOM      5  C   UNL     1      58.340  21.294  23.545  1.00  0.00     0.006 C 
BRANCH   5   6
ATOM      6  C   UNL     1      57.008  20.875  22.905  1.00  0.00    -0.003 C 
ATOM      7  C   UNL     1      55.870  21.846  23.219  1.00  0.00     0.004 C 
ENDBRANCH   5   6
ENDBRANCH   1   5
TORSDOF 3
ENDMDL
MODEL 9
REMARK VINA RESULT:    -2.415      3.842      4.752
REMARK INTER + INTRA:          -2.857
REMARK INTER:                  -2.807
REMARK INTRA:                  -0.050
REMARK UNBOUND:                -0.019
REMARK SMILES CCCCC(=O)[O-]
REMARK SMILES IDX 4 1 5 2 6 3 7 4 3 5 2 6 1 7
REMARK H PARENT
REMARK Flexibility Score: inf
ROOT
ATOM      1  C   UNL     1      57.993  21.979  22.668  1.00  0.00     0.053 C 
ENDROOT
BRANCH   1   2
ATOM      2  C   UNL     1      56.497  21.989  22.702  1.00  0.00     0.041 C 
ATOM      3  O   UNL     1      55.857  22.923  22.151  1.00  0.00    -0.550 OA
ATOM      4  O   UNL     1      55.810  20.993  23.383  1.00  0.00    -0.550 OA
ENDBRANCH   1   2
BRANCH   1   5
ATOM      5  C   UNL     1      58.552  21.308  23.929  1.00  0.00     0.006 C 
BRANCH   5   6
ATOM      6  C   UNL     1      59.317  22.289  24.830  1.00  0.00    -0.003 C 
ATOM      7  C   UNL     1      58.412  23.360  25.441  1.00  0.00     0.004 C 
ENDBRANCH   5   6
ENDBRANCH   1   5
TORSDOF 3
ENDMDL
