MODEL 1
REMARK VINA RESULT:    -6.341      0.000      0.000
REMARK INTER + INTRA:         -10.303
REMARK INTER:                  -9.121
REMARK INTRA:                  -1.182
REMARK UNBOUND:                -1.182
REMARK SMILES O=c1c(O[C@H]2O[C@H](CO)[C@H](O)[C@@H](O)[C@H]2O)c(-c2ccc(O)cc2)oc2cc(O)cc(O)c12
REMARK SMILES IDX 4 1 3 2 16 3 24 4 2 5 25 6 1 7 32 8 26 9 30 10 27 11 29 12
REMARK SMILES IDX 17 13 18 14 19 15 20 16 23 17 22 18 21 19 31 21 28 23 5 25
REMARK SMILES IDX 14 26 6 27 12 28 7 29 10 30 15 31 13 33 8 35 9 36 11 38
REMARK H PARENT 21 20 31 22 28 24 15 32 13 34 9 37 11 39
REMARK Flexibility Score: inf
ROOT
ATOM      1  O   UNL     1      10.883   1.174  -1.160  1.00  0.00    -0.454 OA
ENDROOT
BRANCH   1   2
ATOM      2  C   UNL     1      12.238   1.553  -1.201  1.00  0.00     0.214 A 
ATOM      3  C   UNL     1      12.608   2.836  -0.750  1.00  0.00     0.180 A 
ATOM      4  O   UNL     1      13.894   3.170  -0.680  1.00  0.00    -0.452 OA
ATOM      5  C   UNL     1      13.248   0.686  -1.665  1.00  0.00     0.239 A 
ATOM      6  C   UNL     1      14.881   2.364  -1.060  1.00  0.00     0.146 A 
ATOM      7  O   UNL     1      12.939  -0.428  -2.170  1.00  0.00    -0.285 OA
ATOM      8  C   UNL     1      14.601   1.082  -1.588  1.00  0.00     0.111 A 
ATOM      9  C   UNL     1      16.205   2.804  -0.943  1.00  0.00     0.094 A 
ATOM     10  C   UNL     1      15.676   0.262  -2.015  1.00  0.00     0.134 A 
ATOM     11  C   UNL     1      17.261   1.987  -1.359  1.00  0.00     0.123 A 
ATOM     12  C   UNL     1      16.996   0.723  -1.891  1.00  0.00     0.093 A 
BRANCH   3  13
ATOM     13  C   UNL     1      11.604   3.828  -0.315  1.00  0.00     0.021 A 
ATOM     14  C   UNL     1      10.647   4.333  -1.214  1.00  0.00     0.016 A 
ATOM     15  C   UNL     1       9.704   5.271  -0.785  1.00  0.00     0.047 A 
ATOM     16  C   UNL     1       9.710   5.721   0.541  1.00  0.00     0.115 A 
ATOM     17  C   UNL     1      11.622   4.302   1.006  1.00  0.00     0.016 A 
ATOM     18  C   UNL     1      10.674   5.238   1.432  1.00  0.00     0.047 A 
BRANCH  16  19
ATOM     19  O   UNL     1       8.770   6.649   0.980  1.00  0.00    -0.508 OA
ATOM     20  H   UNL     1       8.322   6.561   1.885  1.00  0.00     0.293 HD
ENDBRANCH  16  19
ENDBRANCH   3  13
BRANCH  10  21
ATOM     21  O   UNL     1      15.443  -1.000  -2.559  1.00  0.00    -0.507 OA
ATOM     22  H   UNL     1      15.838  -1.276  -3.452  1.00  0.00     0.293 HD
ENDBRANCH  10  21
BRANCH  11  23
ATOM     23  O   UNL     1      18.578   2.425  -1.250  1.00  0.00    -0.508 OA
ATOM     24  H   UNL     1      19.302   1.844  -0.846  1.00  0.00     0.293 HD
ENDBRANCH  11  23
ENDBRANCH   1   2
BRANCH   1  25
ATOM     25  C   UNL     1      10.401  -0.019  -0.527  1.00  0.00     0.339 C 
ATOM     26  C   UNL     1       8.933  -0.319  -0.916  1.00  0.00     0.214 C 
ATOM     27  O   UNL     1      10.550   0.056   0.885  1.00  0.00    -0.332 OA
ATOM     28  C   UNL     1       7.945   0.669  -0.261  1.00  0.00     0.180 C 
ATOM     29  C   UNL     1       9.756   1.097   1.439  1.00  0.00     0.179 C 
ATOM     30  C   UNL     1       8.250   0.798   1.244  1.00  0.00     0.177 C 
BRANCH  26  31
ATOM     31  O   UNL     1       8.763  -0.371  -2.311  1.00  0.00    -0.384 OA
ATOM     32  H   UNL     1       8.303   0.460  -2.596  1.00  0.00     0.211 HD
ENDBRANCH  26  31
BRANCH  28  33
ATOM     33  O   UNL     1       8.033   1.930  -0.878  1.00  0.00    -0.387 OA
ATOM     34  H   UNL     1       8.940   1.996  -1.279  1.00  0.00     0.211 HD
ENDBRANCH  28  33
BRANCH  29  35
ATOM     35  C   UNL     1      10.126   1.256   2.919  1.00  0.00     0.191 C 
BRANCH  35  36
ATOM     36  O   UNL     1       8.977   1.505   3.685  1.00  0.00    -0.394 OA
ATOM     37  H   UNL     1       8.524   2.270   3.248  1.00  0.00     0.210 HD
ENDBRANCH  35  36
ENDBRANCH  29  35
BRANCH  30  38
ATOM     38  O   UNL     1       7.902  -0.403   1.888  1.00  0.00    -0.387 OA
ATOM     39  H   UNL     1       6.961  -0.604   1.642  1.00  0.00     0.211 HD
ENDBRANCH  30  38
ENDBRANCH   1  25
TORSDOF 11
ENDMDL
MODEL 2
REMARK VINA RESULT:    -6.198      2.606      6.956
REMARK INTER + INTRA:         -10.098
REMARK INTER:                  -9.111
REMARK INTRA:                  -0.987
REMARK UNBOUND:                -1.182
REMARK SMILES O=c1c(O[C@H]2O[C@H](CO)[C@H](O)[C@@H](O)[C@H]2O)c(-c2ccc(O)cc2)oc2cc(O)cc(O)c12
REMARK SMILES IDX 4 1 3 2 16 3 24 4 2 5 25 6 1 7 32 8 26 9 30 10 27 11 29 12
REMARK SMILES IDX 17 13 18 14 19 15 20 16 23 17 22 18 21 19 31 21 28 23 5 25
REMARK SMILES IDX 14 26 6 27 12 28 7 29 10 30 15 31 13 33 8 35 9 36 11 38
REMARK H PARENT 21 20 31 22 28 24 15 32 13 34 9 37 11 39
REMARK Flexibility Score: inf
ROOT
ATOM      1  O   UNL     1      13.499   1.159  -0.581  1.00  0.00    -0.454 OA
ENDROOT
BRANCH   1   2
ATOM      2  C   UNL     1      12.668   2.161  -0.046  1.00  0.00     0.214 A 
ATOM      3  C   UNL     1      12.781   2.493   1.319  1.00  0.00     0.180 A 
ATOM      4  O   UNL     1      12.082   3.510   1.815  1.00  0.00    -0.452 OA
ATOM      5  C   UNL     1      11.731   2.861  -0.833  1.00  0.00     0.239 A 
ATOM      6  C   UNL     1      11.225   4.229   1.096  1.00  0.00     0.146 A 
ATOM      7  O   UNL     1      11.535   2.519  -2.031  1.00  0.00    -0.285 OA
ATOM      8  C   UNL     1      10.997   3.926  -0.267  1.00  0.00     0.111 A 
ATOM      9  C   UNL     1      10.539   5.285   1.707  1.00  0.00     0.094 A 
ATOM     10  C   UNL     1      10.051   4.692  -0.995  1.00  0.00     0.134 A 
ATOM     11  C   UNL     1       9.613   6.041   0.981  1.00  0.00     0.123 A 
ATOM     12  C   UNL     1       9.373   5.744  -0.363  1.00  0.00     0.093 A 
BRANCH   3  13
ATOM     13  C   UNL     1      13.687   1.759   2.226  1.00  0.00     0.021 A 
ATOM     14  C   UNL     1      13.355   0.478   2.701  1.00  0.00     0.016 A 
ATOM     15  C   UNL     1      14.224  -0.203   3.558  1.00  0.00     0.047 A 
ATOM     16  C   UNL     1      15.428   0.392   3.959  1.00  0.00     0.115 A 
ATOM     17  C   UNL     1      14.882   2.361   2.651  1.00  0.00     0.016 A 
ATOM     18  C   UNL     1      15.750   1.674   3.507  1.00  0.00     0.047 A 
BRANCH  16  19
ATOM     19  O   UNL     1      16.304  -0.282   4.806  1.00  0.00    -0.508 OA
ATOM     20  H   UNL     1      16.385  -1.292   4.789  1.00  0.00     0.293 HD
ENDBRANCH  16  19
ENDBRANCH   3  13
BRANCH  10  21
ATOM     21  O   UNL     1       9.783   4.414  -2.335  1.00  0.00    -0.507 OA
ATOM     22  H   UNL     1      10.191   4.963  -3.084  1.00  0.00     0.293 HD
ENDBRANCH  10  21
BRANCH  11  23
ATOM     23  O   UNL     1       8.924   7.088   1.588  1.00  0.00    -0.508 OA
ATOM     24  H   UNL     1       8.054   6.938   2.083  1.00  0.00     0.293 HD
ENDBRANCH  11  23
ENDBRANCH   1   2
BRANCH   1  25
ATOM     25  C   UNL     1      14.319   1.331  -1.745  1.00  0.00     0.339 C 
ATOM     26  C   UNL     1      15.284   0.138  -1.945  1.00  0.00     0.214 C 
ATOM     27  O   UNL     1      15.031   2.561  -1.691  1.00  0.00    -0.332 OA
ATOM     28  C   UNL     1      16.420   0.128  -0.901  1.00  0.00     0.180 C 
ATOM     29  C   UNL     1      15.948   2.586  -0.605  1.00  0.00     0.179 C 
ATOM     30  C   UNL     1      17.058   1.526  -0.803  1.00  0.00     0.177 C 
BRANCH  26  31
ATOM     31  O   UNL     1      14.598  -1.089  -1.975  1.00  0.00    -0.384 OA
ATOM     32  H   UNL     1      14.045  -1.113  -2.798  1.00  0.00     0.211 HD
ENDBRANCH  26  31
BRANCH  28  33
ATOM     33  O   UNL     1      15.923  -0.262   0.357  1.00  0.00    -0.387 OA
ATOM     34  H   UNL     1      15.866  -1.254   0.353  1.00  0.00     0.211 HD
ENDBRANCH  28  33
BRANCH  29  35
ATOM     35  C   UNL     1      16.518   4.004  -0.482  1.00  0.00     0.191 C 
BRANCH  35  36
ATOM     36  O   UNL     1      15.808   4.734   0.482  1.00  0.00    -0.394 OA
ATOM     37  H   UNL     1      16.341   5.553   0.646  1.00  0.00     0.210 HD
ENDBRANCH  35  36
ENDBRANCH  29  35
BRANCH  30  38
ATOM     38  O   UNL     1      17.778   1.787  -1.984  1.00  0.00    -0.387 OA
ATOM     39  H   UNL     1      17.150   1.660  -2.742  1.00  0.00     0.211 HD
ENDBRANCH  30  38
ENDBRANCH   1  25
TORSDOF 11
ENDMDL
MODEL 3
REMARK VINA RESULT:    -5.879      2.522      6.583
REMARK INTER + INTRA:          -9.639
REMARK INTER:                  -8.871
REMARK INTRA:                  -0.768
REMARK UNBOUND:                -1.182
REMARK SMILES O=c1c(O[C@H]2O[C@H](CO)[C@H](O)[C@@H](O)[C@H]2O)c(-c2ccc(O)cc2)oc2cc(O)cc(O)c12
REMARK SMILES IDX 4 1 3 2 16 3 24 4 2 5 25 6 1 7 32 8 26 9 30 10 27 11 29 12
REMARK SMILES IDX 17 13 18 14 19 15 20 16 23 17 22 18 21 19 31 21 28 23 5 25
REMARK SMILES IDX 14 26 6 27 12 28 7 29 10 30 15 31 13 33 8 35 9 36 11 38
REMARK H PARENT 21 20 31 22 28 24 15 32 13 34 9 37 11 39
REMARK Flexibility Score: inf
ROOT
ATOM      1  O   UNL     1      13.023   2.765   0.564  1.00  0.00    -0.454 OA
ENDROOT
BRANCH   1   2
ATOM      2  C   UNL     1      12.016   2.200   1.369  1.00  0.00     0.214 A 
ATOM      3  C   UNL     1      10.706   2.715   1.296  1.00  0.00     0.180 A 
ATOM      4  O   UNL     1       9.722   2.124   1.968  1.00  0.00    -0.452 OA
ATOM      5  C   UNL     1      12.267   1.121   2.241  1.00  0.00     0.239 A 
ATOM      6  C   UNL     1       9.906   1.073   2.762  1.00  0.00     0.146 A 
ATOM      7  O   UNL     1      13.446   0.705   2.405  1.00  0.00    -0.285 OA
ATOM      8  C   UNL     1      11.198   0.529   2.948  1.00  0.00     0.111 A 
ATOM      9  C   UNL     1       8.805   0.516   3.423  1.00  0.00     0.094 A 
ATOM     10  C   UNL     1      11.363  -0.571   3.829  1.00  0.00     0.134 A 
ATOM     11  C   UNL     1       8.974  -0.573   4.284  1.00  0.00     0.123 A 
ATOM     12  C   UNL     1      10.247  -1.112   4.484  1.00  0.00     0.093 A 
BRANCH   3  13
ATOM     13  C   UNL     1      10.376   3.888   0.462  1.00  0.00     0.021 A 
ATOM     14  C   UNL     1      10.168   3.757  -0.923  1.00  0.00     0.016 A 
ATOM     15  C   UNL     1       9.855   4.877  -1.698  1.00  0.00     0.047 A 
ATOM     16  C   UNL     1       9.757   6.140  -1.102  1.00  0.00     0.115 A 
ATOM     17  C   UNL     1      10.302   5.160   1.049  1.00  0.00     0.016 A 
ATOM     18  C   UNL     1       9.985   6.278   0.270  1.00  0.00     0.047 A 
BRANCH  16  19
ATOM     19  O   UNL     1       9.438   7.261  -1.864  1.00  0.00    -0.508 OA
ATOM     20  H   UNL     1       9.753   8.188  -1.600  1.00  0.00     0.293 HD
ENDBRANCH  16  19
ENDBRANCH   3  13
BRANCH  10  21
ATOM     21  O   UNL     1      12.623  -1.125   4.055  1.00  0.00    -0.507 OA
ATOM     22  H   UNL     1      13.087  -1.694   3.356  1.00  0.00     0.293 HD
ENDBRANCH  10  21
BRANCH  11  23
ATOM     23  O   UNL     1       7.882  -1.125   4.949  1.00  0.00    -0.508 OA
ATOM     24  H   UNL     1       7.869  -1.235   5.955  1.00  0.00     0.293 HD
ENDBRANCH  11  23
ENDBRANCH   1   2
BRANCH   1  25
ATOM     25  C   UNL     1      14.053   2.007  -0.085  1.00  0.00     0.339 C 
ATOM     26  C   UNL     1      15.458   2.381   0.445  1.00  0.00     0.214 C 
ATOM     27  O   UNL     1      13.984   2.155  -1.498  1.00  0.00    -0.332 OA
ATOM     28  C   UNL     1      15.907   3.777  -0.033  1.00  0.00     0.180 C 
ATOM     29  C   UNL     1      14.230   3.498  -1.894  1.00  0.00     0.179 C 
ATOM     30  C   UNL     1      15.681   3.912  -1.551  1.00  0.00     0.177 C 
BRANCH  26  31
ATOM     31  O   UNL     1      15.536   2.263   1.845  1.00  0.00    -0.384 OA
ATOM     32  H   UNL     1      16.147   1.512   2.057  1.00  0.00     0.211 HD
ENDBRANCH  26  31
BRANCH  28  33
ATOM     33  O   UNL     1      15.193   4.780   0.649  1.00  0.00    -0.387 OA
ATOM     34  H   UNL     1      15.591   5.652   0.386  1.00  0.00     0.211 HD
ENDBRANCH  28  33
BRANCH  29  35
ATOM     35  C   UNL     1      13.931   3.627  -3.393  1.00  0.00     0.191 C 
BRANCH  35  36
ATOM     36  O   UNL     1      13.474   4.918  -3.690  1.00  0.00    -0.394 OA
ATOM     37  H   UNL     1      14.099   5.537  -3.234  1.00  0.00     0.210 HD
ENDBRANCH  35  36
ENDBRANCH  29  35
BRANCH  30  38
ATOM     38  O   UNL     1      16.598   3.086  -2.227  1.00  0.00    -0.387 OA
ATOM     39  H   UNL     1      16.927   2.418  -1.571  1.00  0.00     0.211 HD
ENDBRANCH  30  38
ENDBRANCH   1  25
TORSDOF 11
ENDMDL
MODEL 4
REMARK VINA RESULT:    -5.807      2.455      6.185
REMARK INTER + INTRA:          -9.535
REMARK INTER:                  -8.633
REMARK INTRA:                  -0.902
REMARK UNBOUND:                -1.182
REMARK SMILES O=c1c(O[C@H]2O[C@H](CO)[C@H](O)[C@@H](O)[C@H]2O)c(-c2ccc(O)cc2)oc2cc(O)cc(O)c12
REMARK SMILES IDX 4 1 3 2 16 3 24 4 2 5 25 6 1 7 32 8 26 9 30 10 27 11 29 12
REMARK SMILES IDX 17 13 18 14 19 15 20 16 23 17 22 18 21 19 31 21 28 23 5 25
REMARK SMILES IDX 14 26 6 27 12 28 7 29 10 30 15 31 13 33 8 35 9 36 11 38
REMARK H PARENT 21 20 31 22 28 24 15 32 13 34 9 37 11 39
REMARK Flexibility Score: inf
ROOT
ATOM      1  O   UNL     1      12.574   2.618  -0.459  1.00  0.00    -0.454 OA
ENDROOT
BRANCH   1   2
ATOM      2  C   UNL     1      11.738   2.215   0.600  1.00  0.00     0.214 A 
ATOM      3  C   UNL     1      10.533   2.909   0.828  1.00  0.00     0.180 A 
ATOM      4  O   UNL     1       9.681   2.475   1.753  1.00  0.00    -0.452 OA
ATOM      5  C   UNL     1      12.056   1.126   1.437  1.00  0.00     0.239 A 
ATOM      6  C   UNL     1       9.919   1.422   2.530  1.00  0.00     0.146 A 
ATOM      7  O   UNL     1      13.171   0.549   1.323  1.00  0.00    -0.285 OA
ATOM      8  C   UNL     1      11.131   0.703   2.417  1.00  0.00     0.111 A 
ATOM      9  C   UNL     1       8.958   1.038   3.472  1.00  0.00     0.094 A 
ATOM     10  C   UNL     1      11.366  -0.394   3.284  1.00  0.00     0.134 A 
ATOM     11  C   UNL     1       9.192  -0.050   4.319  1.00  0.00     0.123 A 
ATOM     12  C   UNL     1      10.391  -0.761   4.223  1.00  0.00     0.093 A 
BRANCH   3  13
ATOM     13  C   UNL     1      10.162   4.104   0.042  1.00  0.00     0.021 A 
ATOM     14  C   UNL     1      10.159   5.383   0.626  1.00  0.00     0.016 A 
ATOM     15  C   UNL     1       9.806   6.503  -0.132  1.00  0.00     0.047 A 
ATOM     16  C   UNL     1       9.442   6.357  -1.477  1.00  0.00     0.115 A 
ATOM     17  C   UNL     1       9.771   3.960  -1.298  1.00  0.00     0.016 A 
ATOM     18  C   UNL     1       9.422   5.084  -2.054  1.00  0.00     0.047 A 
BRANCH  16  19
ATOM     19  O   UNL     1       9.097   7.467  -2.243  1.00  0.00    -0.508 OA
ATOM     20  H   UNL     1       8.545   7.376  -3.088  1.00  0.00     0.293 HD
ENDBRANCH  16  19
ENDBRANCH   3  13
BRANCH  10  21
ATOM     21  O   UNL     1      12.557  -1.118   3.219  1.00  0.00    -0.507 OA
ATOM     22  H   UNL     1      13.407  -0.710   2.844  1.00  0.00     0.293 HD
ENDBRANCH  10  21
BRANCH  11  23
ATOM     23  O   UNL     1       8.241  -0.430   5.262  1.00  0.00    -0.508 OA
ATOM     24  H   UNL     1       8.499  -0.691   6.205  1.00  0.00     0.293 HD
ENDBRANCH  11  23
ENDBRANCH   1   2
BRANCH   1  25
ATOM     25  C   UNL     1      13.337   3.832  -0.464  1.00  0.00     0.339 C 
ATOM     26  C   UNL     1      14.180   3.971  -1.754  1.00  0.00     0.214 C 
ATOM     27  O   UNL     1      14.157   3.925   0.695  1.00  0.00    -0.332 OA
ATOM     28  C   UNL     1      15.369   2.988  -1.780  1.00  0.00     0.180 C 
ATOM     29  C   UNL     1      15.133   2.893   0.727  1.00  0.00     0.179 C 
ATOM     30  C   UNL     1      16.133   3.049  -0.444  1.00  0.00     0.177 C 
BRANCH  26  31
ATOM     31  O   UNL     1      13.388   3.856  -2.910  1.00  0.00    -0.384 OA
ATOM     32  H   UNL     1      12.445   4.025  -2.655  1.00  0.00     0.211 HD
ENDBRANCH  26  31
BRANCH  28  33
ATOM     33  O   UNL     1      14.914   1.677  -2.013  1.00  0.00    -0.387 OA
ATOM     34  H   UNL     1      13.924   1.722  -2.092  1.00  0.00     0.211 HD
ENDBRANCH  28  33
BRANCH  29  35
ATOM     35  C   UNL     1      15.833   2.926   2.092  1.00  0.00     0.191 C 
BRANCH  35  36
ATOM     36  O   UNL     1      15.645   1.712   2.767  1.00  0.00    -0.394 OA
ATOM     37  H   UNL     1      14.716   1.735   3.109  1.00  0.00     0.210 HD
ENDBRANCH  35  36
ENDBRANCH  29  35
BRANCH  30  38
ATOM     38  O   UNL     1      16.803   4.283  -0.353  1.00  0.00    -0.387 OA
ATOM     39  H   UNL     1      16.647   4.633   0.562  1.00  0.00     0.211 HD
ENDBRANCH  30  38
ENDBRANCH   1  25
TORSDOF 11
ENDMDL
MODEL 5
REMARK VINA RESULT:    -5.742      2.387      6.351
REMARK INTER + INTRA:          -9.442
REMARK INTER:                  -8.375
REMARK INTRA:                  -1.067
REMARK UNBOUND:                -1.182
REMARK SMILES O=c1c(O[C@H]2O[C@H](CO)[C@H](O)[C@@H](O)[C@H]2O)c(-c2ccc(O)cc2)oc2cc(O)cc(O)c12
REMARK SMILES IDX 4 1 3 2 16 3 24 4 2 5 25 6 1 7 32 8 26 9 30 10 27 11 29 12
REMARK SMILES IDX 17 13 18 14 19 15 20 16 23 17 22 18 21 19 31 21 28 23 5 25
REMARK SMILES IDX 14 26 6 27 12 28 7 29 10 30 15 31 13 33 8 35 9 36 11 38
REMARK H PARENT 21 20 31 22 28 24 15 32 13 34 9 37 11 39
REMARK Flexibility Score: inf
ROOT
ATOM      1  O   UNL     1      12.057   1.545   0.889  1.00  0.00    -0.454 OA
ENDROOT
BRANCH   1   2
ATOM      2  C   UNL     1      11.569   2.629   0.134  1.00  0.00     0.214 A 
ATOM      3  C   UNL     1      12.299   3.072  -0.987  1.00  0.00     0.180 A 
ATOM      4  O   UNL     1      11.799   4.022  -1.772  1.00  0.00    -0.452 OA
ATOM      5  C   UNL     1      10.361   3.283   0.452  1.00  0.00     0.239 A 
ATOM      6  C   UNL     1      10.639   4.630  -1.537  1.00  0.00     0.146 A 
ATOM      7  O   UNL     1       9.738   2.978   1.505  1.00  0.00    -0.285 OA
ATOM      8  C   UNL     1       9.869   4.297  -0.399  1.00  0.00     0.111 A 
ATOM      9  C   UNL     1      10.193   5.615  -2.426  1.00  0.00     0.094 A 
ATOM     10  C   UNL     1       8.654   4.989  -0.161  1.00  0.00     0.134 A 
ATOM     11  C   UNL     1       8.990   6.288  -2.190  1.00  0.00     0.123 A 
ATOM     12  C   UNL     1       8.227   5.975  -1.063  1.00  0.00     0.093 A 
BRANCH   3  13
ATOM     13  C   UNL     1      13.607   2.487  -1.345  1.00  0.00     0.021 A 
ATOM     14  C   UNL     1      14.784   3.256  -1.293  1.00  0.00     0.016 A 
ATOM     15  C   UNL     1      16.014   2.687  -1.634  1.00  0.00     0.047 A 
ATOM     16  C   UNL     1      16.082   1.348  -2.039  1.00  0.00     0.115 A 
ATOM     17  C   UNL     1      13.678   1.153  -1.776  1.00  0.00     0.016 A 
ATOM     18  C   UNL     1      14.912   0.587  -2.113  1.00  0.00     0.047 A 
BRANCH  16  19
ATOM     19  O   UNL     1      17.303   0.770  -2.373  1.00  0.00    -0.508 OA
ATOM     20  H   UNL     1      17.373   0.061  -3.095  1.00  0.00     0.293 HD
ENDBRANCH  16  19
ENDBRANCH   3  13
BRANCH  10  21
ATOM     21  O   UNL     1       7.875   4.705   0.959  1.00  0.00    -0.507 OA
ATOM     22  H   UNL     1       6.947   4.305   0.874  1.00  0.00     0.293 HD
ENDBRANCH  10  21
BRANCH  11  23
ATOM     23  O   UNL     1       8.547   7.274  -3.069  1.00  0.00    -0.508 OA
ATOM     24  H   UNL     1       8.401   8.229  -2.769  1.00  0.00     0.293 HD
ENDBRANCH  11  23
ENDBRANCH   1   2
BRANCH   1  25
ATOM     25  C   UNL     1      12.400   1.623   2.278  1.00  0.00     0.339 C 
ATOM     26  C   UNL     1      13.834   1.104   2.542  1.00  0.00     0.214 C 
ATOM     27  O   UNL     1      11.451   0.930   3.079  1.00  0.00    -0.332 OA
ATOM     28  C   UNL     1      13.934  -0.429   2.398  1.00  0.00     0.180 C 
ATOM     29  C   UNL     1      11.445  -0.463   2.793  1.00  0.00     0.179 C 
ATOM     30  C   UNL     1      12.796  -1.107   3.184  1.00  0.00     0.177 C 
BRANCH  26  31
ATOM     31  O   UNL     1      14.783   1.762   1.740  1.00  0.00    -0.384 OA
ATOM     32  H   UNL     1      14.504   1.666   0.793  1.00  0.00     0.211 HD
ENDBRANCH  26  31
BRANCH  28  33
ATOM     33  O   UNL     1      13.864  -0.797   1.042  1.00  0.00    -0.387 OA
ATOM     34  H   UNL     1      12.901  -0.827   0.796  1.00  0.00     0.211 HD
ENDBRANCH  28  33
BRANCH  29  35
ATOM     35  C   UNL     1      10.263  -1.107   3.529  1.00  0.00     0.191 C 
BRANCH  35  36
ATOM     36  O   UNL     1      10.159  -0.591   4.829  1.00  0.00    -0.394 OA
ATOM     37  H   UNL     1       9.190  -0.460   4.989  1.00  0.00     0.210 HD
ENDBRANCH  35  36
ENDBRANCH  29  35
BRANCH  30  38
ATOM     38  O   UNL     1      13.032  -0.949   4.562  1.00  0.00    -0.387 OA
ATOM     39  H   UNL     1      12.710  -0.044   4.812  1.00  0.00     0.211 HD
ENDBRANCH  30  38
ENDBRANCH   1  25
TORSDOF 11
ENDMDL
MODEL 6
REMARK VINA RESULT:    -5.732      2.304      6.481
REMARK INTER + INTRA:          -9.428
REMARK INTER:                  -9.244
REMARK INTRA:                  -0.184
REMARK UNBOUND:                -1.182
REMARK SMILES O=c1c(O[C@H]2O[C@H](CO)[C@H](O)[C@@H](O)[C@H]2O)c(-c2ccc(O)cc2)oc2cc(O)cc(O)c12
REMARK SMILES IDX 4 1 3 2 16 3 24 4 2 5 25 6 1 7 32 8 26 9 30 10 27 11 29 12
REMARK SMILES IDX 17 13 18 14 19 15 20 16 23 17 22 18 21 19 31 21 28 23 5 25
REMARK SMILES IDX 14 26 6 27 12 28 7 29 10 30 15 31 13 33 8 35 9 36 11 38
REMARK H PARENT 21 20 31 22 28 24 15 32 13 34 9 37 11 39
REMARK Flexibility Score: inf
ROOT
ATOM      1  O   UNL     1      13.077   2.645   0.390  1.00  0.00    -0.454 OA
ENDROOT
BRANCH   1   2
ATOM      2  C   UNL     1      12.064   2.138   1.225  1.00  0.00     0.214 A 
ATOM      3  C   UNL     1      10.771   2.693   1.154  1.00  0.00     0.180 A 
ATOM      4  O   UNL     1       9.777   2.155   1.857  1.00  0.00    -0.452 OA
ATOM      5  C   UNL     1      12.292   1.077   2.125  1.00  0.00     0.239 A 
ATOM      6  C   UNL     1       9.938   1.123   2.679  1.00  0.00     0.146 A 
ATOM      7  O   UNL     1      13.459   0.627   2.285  1.00  0.00    -0.285 OA
ATOM      8  C   UNL     1      11.214   0.541   2.864  1.00  0.00     0.111 A 
ATOM      9  C   UNL     1       8.830   0.622   3.372  1.00  0.00     0.094 A 
ATOM     10  C   UNL     1      11.356  -0.537   3.774  1.00  0.00     0.134 A 
ATOM     11  C   UNL     1       8.975  -0.447   4.262  1.00  0.00     0.123 A 
ATOM     12  C   UNL     1      10.232  -1.021   4.460  1.00  0.00     0.093 A 
BRANCH   3  13
ATOM     13  C   UNL     1      10.467   3.852   0.290  1.00  0.00     0.021 A 
ATOM     14  C   UNL     1      10.396   3.715  -1.108  1.00  0.00     0.016 A 
ATOM     15  C   UNL     1      10.106   4.821  -1.911  1.00  0.00     0.047 A 
ATOM     16  C   UNL     1       9.895   6.077  -1.330  1.00  0.00     0.115 A 
ATOM     17  C   UNL     1      10.280   5.119   0.865  1.00  0.00     0.016 A 
ATOM     18  C   UNL     1       9.987   6.223   0.058  1.00  0.00     0.047 A 
BRANCH  16  19
ATOM     19  O   UNL     1       9.598   7.184  -2.120  1.00  0.00    -0.508 OA
ATOM     20  H   UNL     1       8.661   7.571  -2.159  1.00  0.00     0.293 HD
ENDBRANCH  16  19
ENDBRANCH   3  13
BRANCH  10  21
ATOM     21  O   UNL     1      12.600  -1.125   4.000  1.00  0.00    -0.507 OA
ATOM     22  H   UNL     1      12.755  -2.116   3.847  1.00  0.00     0.293 HD
ENDBRANCH  10  21
BRANCH  11  23
ATOM     23  O   UNL     1       7.875  -0.942   4.957  1.00  0.00    -0.508 OA
ATOM     24  H   UNL     1       7.901  -1.837   5.430  1.00  0.00     0.293 HD
ENDBRANCH  11  23
ENDBRANCH   1   2
BRANCH   1  25
ATOM     25  C   UNL     1      14.479   2.501   0.649  1.00  0.00     0.339 C 
ATOM     26  C   UNL     1      15.281   3.730   0.156  1.00  0.00     0.214 C 
ATOM     27  O   UNL     1      14.984   1.300   0.078  1.00  0.00    -0.332 OA
ATOM     28  C   UNL     1      15.367   3.788  -1.383  1.00  0.00     0.180 C 
ATOM     29  C   UNL     1      14.886   1.315  -1.340  1.00  0.00     0.179 C 
ATOM     30  C   UNL     1      15.793   2.416  -1.939  1.00  0.00     0.177 C 
BRANCH  26  31
ATOM     31  O   UNL     1      14.778   4.929   0.692  1.00  0.00    -0.384 OA
ATOM     32  H   UNL     1      14.169   5.334   0.022  1.00  0.00     0.211 HD
ENDBRANCH  26  31
BRANCH  28  33
ATOM     33  O   UNL     1      14.126   4.163  -1.928  1.00  0.00    -0.387 OA
ATOM     34  H   UNL     1      14.203   5.115  -2.204  1.00  0.00     0.211 HD
ENDBRANCH  28  33
BRANCH  29  35
ATOM     35  C   UNL     1      15.245  -0.080  -1.868  1.00  0.00     0.191 C 
BRANCH  35  36
ATOM     36  O   UNL     1      16.132  -0.720  -0.992  1.00  0.00    -0.394 OA
ATOM     37  H   UNL     1      15.618  -1.461  -0.582  1.00  0.00     0.210 HD
ENDBRANCH  35  36
ENDBRANCH  29  35
BRANCH  30  38
ATOM     38  O   UNL     1      17.138   2.180  -1.600  1.00  0.00    -0.387 OA
ATOM     39  H   UNL     1      17.195   1.248  -1.265  1.00  0.00     0.211 HD
ENDBRANCH  30  38
ENDBRANCH   1  25
TORSDOF 11
ENDMDL
MODEL 7
REMARK VINA RESULT:    -5.615      1.829      4.550
REMARK INTER + INTRA:          -9.260
REMARK INTER:                  -8.254
REMARK INTRA:                  -1.006
REMARK UNBOUND:                -1.182
REMARK SMILES O=c1c(O[C@H]2O[C@H](CO)[C@H](O)[C@@H](O)[C@H]2O)c(-c2ccc(O)cc2)oc2cc(O)cc(O)c12
REMARK SMILES IDX 4 1 3 2 16 3 24 4 2 5 25 6 1 7 32 8 26 9 30 10 27 11 29 12
REMARK SMILES IDX 17 13 18 14 19 15 20 16 23 17 22 18 21 19 31 21 28 23 5 25
REMARK SMILES IDX 14 26 6 27 12 28 7 29 10 30 15 31 13 33 8 35 9 36 11 38
REMARK H PARENT 21 20 31 22 28 24 15 32 13 34 9 37 11 39
REMARK Flexibility Score: inf
ROOT
ATOM      1  O   UNL     1      10.876   2.997  -0.429  1.00  0.00    -0.454 OA
ENDROOT
BRANCH   1   2
ATOM      2  C   UNL     1      12.173   2.448  -0.411  1.00  0.00     0.214 A 
ATOM      3  C   UNL     1      12.413   1.273   0.327  1.00  0.00     0.180 A 
ATOM      4  O   UNL     1      13.604   0.683   0.267  1.00  0.00    -0.452 OA
ATOM      5  C   UNL     1      13.244   3.027  -1.123  1.00  0.00     0.239 A 
ATOM      6  C   UNL     1      14.626   1.167  -0.433  1.00  0.00     0.146 A 
ATOM      7  O   UNL     1      13.086   4.132  -1.709  1.00  0.00    -0.285 OA
ATOM      8  C   UNL     1      14.497   2.378  -1.152  1.00  0.00     0.111 A 
ATOM      9  C   UNL     1      15.840   0.470  -0.439  1.00  0.00     0.094 A 
ATOM     10  C   UNL     1      15.617   2.883  -1.860  1.00  0.00     0.134 A 
ATOM     11  C   UNL     1      16.939   0.970  -1.145  1.00  0.00     0.123 A 
ATOM     12  C   UNL     1      16.826   2.170  -1.851  1.00  0.00     0.093 A 
BRANCH   3  13
ATOM     13  C   UNL     1      11.364   0.645   1.155  1.00  0.00     0.021 A 
ATOM     14  C   UNL     1      10.274  -0.018   0.564  1.00  0.00     0.016 A 
ATOM     15  C   UNL     1       9.290  -0.608   1.363  1.00  0.00     0.047 A 
ATOM     16  C   UNL     1       9.378  -0.534   2.758  1.00  0.00     0.115 A 
ATOM     17  C   UNL     1      11.434   0.738   2.554  1.00  0.00     0.016 A 
ATOM     18  C   UNL     1      10.449   0.143   3.350  1.00  0.00     0.047 A 
BRANCH  16  19
ATOM     19  O   UNL     1       8.408  -1.125   3.563  1.00  0.00    -0.508 OA
ATOM     20  H   UNL     1       7.834  -1.889   3.224  1.00  0.00     0.293 HD
ENDBRANCH  16  19
ENDBRANCH   3  13
BRANCH  10  21
ATOM     21  O   UNL     1      15.538   4.083  -2.566  1.00  0.00    -0.507 OA
ATOM     22  H   UNL     1      15.565   4.106  -3.579  1.00  0.00     0.293 HD
ENDBRANCH  10  21
BRANCH  11  23
ATOM     23  O   UNL     1      18.150   0.282  -1.148  1.00  0.00    -0.508 OA
ATOM     24  H   UNL     1      18.952   0.612  -0.626  1.00  0.00     0.293 HD
ENDBRANCH  11  23
ENDBRANCH   1   2
BRANCH   1  25
ATOM     25  C   UNL     1      10.472   4.129   0.351  1.00  0.00     0.339 C 
ATOM     26  C   UNL     1       9.066   3.926   0.967  1.00  0.00     0.214 C 
ATOM     27  O   UNL     1      10.525   5.325  -0.417  1.00  0.00    -0.332 OA
ATOM     28  C   UNL     1       7.949   4.007  -0.095  1.00  0.00     0.180 C 
ATOM     29  C   UNL     1       9.602   5.292  -1.498  1.00  0.00     0.179 C 
ATOM     30  C   UNL     1       8.147   5.256  -0.973  1.00  0.00     0.177 C 
BRANCH  26  31
ATOM     31  O   UNL     1       8.989   2.735   1.710  1.00  0.00    -0.384 OA
ATOM     32  H   UNL     1       9.773   2.698   2.315  1.00  0.00     0.211 HD
ENDBRANCH  26  31
BRANCH  28  33
ATOM     33  O   UNL     1       7.955   2.851  -0.897  1.00  0.00    -0.387 OA
ATOM     34  H   UNL     1       7.097   2.376  -0.730  1.00  0.00     0.211 HD
ENDBRANCH  28  33
BRANCH  29  35
ATOM     35  C   UNL     1       9.862   6.506  -2.398  1.00  0.00     0.191 C 
BRANCH  35  36
ATOM     36  O   UNL     1       8.684   6.887  -3.057  1.00  0.00    -0.394 OA
ATOM     37  H   UNL     1       8.103   6.085  -3.052  1.00  0.00     0.210 HD
ENDBRANCH  35  36
ENDBRANCH  29  35
BRANCH  30  38
ATOM     38  O   UNL     1       7.875   6.405  -0.207  1.00  0.00    -0.387 OA
ATOM     39  H   UNL     1       7.628   6.096   0.704  1.00  0.00     0.211 HD
ENDBRANCH  30  38
ENDBRANCH   1  25
TORSDOF 11
ENDMDL
MODEL 8
REMARK VINA RESULT:    -4.966      3.356      5.007
REMARK INTER + INTRA:          -8.326
REMARK INTER:                  -7.811
REMARK INTRA:                  -0.515
REMARK UNBOUND:                -1.182
REMARK SMILES O=c1c(O[C@H]2O[C@H](CO)[C@H](O)[C@@H](O)[C@H]2O)c(-c2ccc(O)cc2)oc2cc(O)cc(O)c12
REMARK SMILES IDX 4 1 3 2 16 3 24 4 2 5 25 6 1 7 32 8 26 9 30 10 27 11 29 12
REMARK SMILES IDX 17 13 18 14 19 15 20 16 23 17 22 18 21 19 31 21 28 23 5 25
REMARK SMILES IDX 14 26 6 27 12 28 7 29 10 30 15 31 13 33 8 35 9 36 11 38
REMARK H PARENT 21 20 31 22 28 24 15 32 13 34 9 37 11 39
REMARK Flexibility Score: inf
ROOT
ATOM      1  O   UNL     1      11.867   1.536   0.945  1.00  0.00    -0.454 OA
ENDROOT
BRANCH   1   2
ATOM      2  C   UNL     1      13.011   1.192   1.690  1.00  0.00     0.214 A 
ATOM      3  C   UNL     1      14.275   1.642   1.260  1.00  0.00     0.180 A 
ATOM      4  O   UNL     1      15.351   1.418   2.009  1.00  0.00    -0.452 OA
ATOM      5  C   UNL     1      12.936   0.421   2.869  1.00  0.00     0.239 A 
ATOM      6  C   UNL     1      15.317   0.739   3.153  1.00  0.00     0.146 A 
ATOM      7  O   UNL     1      11.836  -0.081   3.224  1.00  0.00    -0.285 OA
ATOM      8  C   UNL     1      14.103   0.193   3.631  1.00  0.00     0.111 A 
ATOM      9  C   UNL     1      16.502   0.560   3.876  1.00  0.00     0.094 A 
ATOM     10  C   UNL     1      14.109  -0.554   4.836  1.00  0.00     0.134 A 
ATOM     11  C   UNL     1      16.500  -0.171   5.068  1.00  0.00     0.123 A 
ATOM     12  C   UNL     1      15.309  -0.723   5.544  1.00  0.00     0.093 A 
BRANCH   3  13
ATOM     13  C   UNL     1      14.446   2.393  -0.001  1.00  0.00     0.021 A 
ATOM     14  C   UNL     1      13.605   2.161  -1.103  1.00  0.00     0.016 A 
ATOM     15  C   UNL     1      13.780   2.881  -2.288  1.00  0.00     0.047 A 
ATOM     16  C   UNL     1      14.802   3.833  -2.389  1.00  0.00     0.115 A 
ATOM     17  C   UNL     1      15.485   3.329  -0.116  1.00  0.00     0.016 A 
ATOM     18  C   UNL     1      15.655   4.051  -1.303  1.00  0.00     0.047 A 
BRANCH  16  19
ATOM     19  O   UNL     1      14.980   4.561  -3.562  1.00  0.00    -0.508 OA
ATOM     20  H   UNL     1      14.682   4.199  -4.460  1.00  0.00     0.293 HD
ENDBRANCH  16  19
ENDBRANCH   3  13
BRANCH  10  21
ATOM     21  O   UNL     1      12.938  -1.125   5.332  1.00  0.00    -0.507 OA
ATOM     22  H   UNL     1      12.770  -2.124   5.278  1.00  0.00     0.293 HD
ENDBRANCH  10  21
BRANCH  11  23
ATOM     23  O   UNL     1      17.680  -0.356   5.785  1.00  0.00    -0.508 OA
ATOM     24  H   UNL     1      17.696  -0.341   6.797  1.00  0.00     0.293 HD
ENDBRANCH  11  23
ENDBRANCH   1   2
BRANCH   1  25
ATOM     25  C   UNL     1      10.621   1.941   1.526  1.00  0.00     0.339 C 
ATOM     26  C   UNL     1       9.417   1.501   0.659  1.00  0.00     0.214 C 
ATOM     27  O   UNL     1      10.597   3.344   1.758  1.00  0.00    -0.332 OA
ATOM     28  C   UNL     1       9.306   2.322  -0.643  1.00  0.00     0.180 C 
ATOM     29  C   UNL     1      10.675   4.076   0.542  1.00  0.00     0.179 C 
ATOM     30  C   UNL     1       9.420   3.826  -0.328  1.00  0.00     0.177 C 
BRANCH  26  31
ATOM     31  O   UNL     1       9.439   0.119   0.398  1.00  0.00    -0.384 OA
ATOM     32  H   UNL     1       8.534  -0.151   0.095  1.00  0.00     0.211 HD
ENDBRANCH  26  31
BRANCH  28  33
ATOM     33  O   UNL     1      10.316   1.944  -1.546  1.00  0.00    -0.387 OA
ATOM     34  H   UNL     1      10.402   2.677  -2.212  1.00  0.00     0.211 HD
ENDBRANCH  28  33
BRANCH  29  35
ATOM     35  C   UNL     1      10.859   5.561   0.878  1.00  0.00     0.191 C 
BRANCH  35  36
ATOM     36  O   UNL     1      10.262   6.362  -0.107  1.00  0.00    -0.394 OA
ATOM     37  H   UNL     1      10.458   5.917  -0.970  1.00  0.00     0.210 HD
ENDBRANCH  35  36
ENDBRANCH  29  35
BRANCH  30  38
ATOM     38  O   UNL     1       8.261   4.241   0.355  1.00  0.00    -0.387 OA
ATOM     39  H   UNL     1       8.117   3.603   1.100  1.00  0.00     0.211 HD
ENDBRANCH  30  38
ENDBRANCH   1  25
TORSDOF 11
ENDMDL
MODEL 9
REMARK VINA RESULT:    -4.599      3.448      7.054
REMARK INTER + INTRA:          -7.798
REMARK INTER:                  -7.584
REMARK INTRA:                  -0.214
REMARK UNBOUND:                -1.182
REMARK SMILES O=c1c(O[C@H]2O[C@H](CO)[C@H](O)[C@@H](O)[C@H]2O)c(-c2ccc(O)cc2)oc2cc(O)cc(O)c12
REMARK SMILES IDX 4 1 3 2 16 3 24 4 2 5 25 6 1 7 32 8 26 9 30 10 27 11 29 12
REMARK SMILES IDX 17 13 18 14 19 15 20 16 23 17 22 18 21 19 31 21 28 23 5 25
REMARK SMILES IDX 14 26 6 27 12 28 7 29 10 30 15 31 13 33 8 35 9 36 11 38
REMARK H PARENT 21 20 31 22 28 24 15 32 13 34 9 37 11 39
REMARK Flexibility Score: inf
ROOT
ATOM      1  O   UNL     1      14.245   1.702   2.219  1.00  0.00    -0.454 OA
ENDROOT
BRANCH   1   2
ATOM      2  C   UNL     1      13.234   1.451   1.272  1.00  0.00     0.214 A 
ATOM      3  C   UNL     1      13.584   1.298  -0.084  1.00  0.00     0.180 A 
ATOM      4  O   UNL     1      12.658   0.954  -0.975  1.00  0.00    -0.452 OA
ATOM      5  C   UNL     1      11.877   1.330   1.635  1.00  0.00     0.239 A 
ATOM      6  C   UNL     1      11.376   0.780  -0.666  1.00  0.00     0.146 A 
ATOM      7  O   UNL     1      11.519   1.562   2.821  1.00  0.00    -0.285 OA
ATOM      8  C   UNL     1      10.920   0.977   0.658  1.00  0.00     0.111 A 
ATOM      9  C   UNL     1      10.475   0.412  -1.673  1.00  0.00     0.094 A 
ATOM     10  C   UNL     1       9.541   0.816   0.945  1.00  0.00     0.134 A 
ATOM     11  C   UNL     1       9.117   0.248  -1.382  1.00  0.00     0.123 A 
ATOM     12  C   UNL     1       8.655   0.449  -0.080  1.00  0.00     0.093 A 
BRANCH   3  13
ATOM     13  C   UNL     1      14.972   1.480  -0.556  1.00  0.00     0.021 A 
ATOM     14  C   UNL     1      15.586   2.745  -0.533  1.00  0.00     0.016 A 
ATOM     15  C   UNL     1      16.900   2.899  -0.982  1.00  0.00     0.047 A 
ATOM     16  C   UNL     1      17.613   1.795  -1.467  1.00  0.00     0.115 A 
ATOM     17  C   UNL     1      15.682   0.382  -1.067  1.00  0.00     0.016 A 
ATOM     18  C   UNL     1      16.999   0.540  -1.512  1.00  0.00     0.047 A 
BRANCH  16  19
ATOM     19  O   UNL     1      18.926   1.936  -1.909  1.00  0.00    -0.508 OA
ATOM     20  H   UNL     1      19.226   1.564  -2.803  1.00  0.00     0.293 HD
ENDBRANCH  16  19
ENDBRANCH   3  13
BRANCH  10  21
ATOM     21  O   UNL     1       9.048   1.019   2.233  1.00  0.00    -0.507 OA
ATOM     22  H   UNL     1       8.788   0.243   2.832  1.00  0.00     0.293 HD
ENDBRANCH  10  21
BRANCH  11  23
ATOM     23  O   UNL     1       8.219  -0.112  -2.383  1.00  0.00    -0.508 OA
ATOM     24  H   UNL     1       8.064  -1.079  -2.639  1.00  0.00     0.293 HD
ENDBRANCH  11  23
ENDBRANCH   1   2
BRANCH   1  25
ATOM     25  C   UNL     1      15.442   0.922   2.344  1.00  0.00     0.339 C 
ATOM     26  C   UNL     1      15.128  -0.554   2.684  1.00  0.00     0.214 C 
ATOM     27  O   UNL     1      16.325   1.491   3.302  1.00  0.00    -0.332 OA
ATOM     28  C   UNL     1      14.628  -0.723   4.134  1.00  0.00     0.180 C 
ATOM     29  C   UNL     1      15.758   1.480   4.606  1.00  0.00     0.179 C 
ATOM     30  C   UNL     1      15.561   0.028   5.103  1.00  0.00     0.177 C 
BRANCH  26  31
ATOM     31  O   UNL     1      14.235  -1.125   1.760  1.00  0.00    -0.384 OA
ATOM     32  H   UNL     1      14.237  -0.563   0.943  1.00  0.00     0.211 HD
ENDBRANCH  26  31
BRANCH  28  33
ATOM     33  O   UNL     1      13.314  -0.235   4.258  1.00  0.00    -0.387 OA
ATOM     34  H   UNL     1      12.899  -0.708   5.027  1.00  0.00     0.211 HD
ENDBRANCH  28  33
BRANCH  29  35
ATOM     35  C   UNL     1      16.665   2.292   5.539  1.00  0.00     0.191 C 
BRANCH  35  36
ATOM     36  O   UNL     1      17.962   1.759   5.545  1.00  0.00    -0.394 OA
ATOM     37  H   UNL     1      18.005   1.148   4.766  1.00  0.00     0.210 HD
ENDBRANCH  35  36
ENDBRANCH  29  35
BRANCH  30  38
ATOM     38  O   UNL     1      16.797  -0.641   5.163  1.00  0.00    -0.387 OA
ATOM     39  H   UNL     1      17.467  -0.056   4.723  1.00  0.00     0.211 HD
ENDBRANCH  30  38
ENDBRANCH   1  25
TORSDOF 11
ENDMDL
