MODEL 1
REMARK VINA RESULT:    -3.375      0.000      0.000
REMARK INTER + INTRA:          -8.389
REMARK INTER:                  -5.941
REMARK INTRA:                  -2.449
REMARK UNBOUND:                -2.449
REMARK SMILES CCCCCCC=CCCCCCCCC(=O)[O-]
REMARK SMILES IDX 10 1 11 2 12 3 13 4 14 5 15 6 16 7 17 8 18 9 9 10 8 11 7 12
REMARK SMILES IDX 6 13 5 14 4 15 3 16 2 17 1 18
REMARK H PARENT
REMARK Flexibility Score: inf
ROOT
ATOM      1  C   UNL     1     149.257  -5.260   7.416  1.00  0.00     0.004 C 
ENDROOT
BRANCH   1   2
ATOM      2  C   UNL     1     150.075  -4.305   8.298  1.00  0.00     0.000 C 
BRANCH   2   3
ATOM      3  C   UNL     1     149.188  -3.391   9.159  1.00  0.00     0.000 C 
BRANCH   3   4
ATOM      4  C   UNL     1     147.769  -3.234   8.585  1.00  0.00     0.000 C 
BRANCH   4   5
ATOM      5  C   UNL     1     147.364  -1.762   8.411  1.00  0.00     0.006 C 
BRANCH   5   6
ATOM      6  C   UNL     1     146.475  -1.535   7.182  1.00  0.00     0.053 C 
BRANCH   6   7
ATOM      7  C   UNL     1     145.034  -1.500   7.579  1.00  0.00     0.041 C 
ATOM      8  O   UNL     1     144.657  -0.774   8.536  1.00  0.00    -0.550 OA
ATOM      9  O   UNL     1     144.113  -2.308   6.924  1.00  0.00    -0.550 OA
ENDBRANCH   6   7
ENDBRANCH   5   6
ENDBRANCH   4   5
ENDBRANCH   3   4
ENDBRANCH   2   3
ENDBRANCH   1   2
BRANCH   1  10
ATOM     10  C   UNL     1     149.664  -5.129   5.943  1.00  0.00     0.027 C 
BRANCH  10  11
ATOM     11  C   UNL     1     150.152  -3.740   5.634  1.00  0.00    -0.031 C 
ATOM     12  C   UNL     1     149.341  -2.811   5.105  1.00  0.00    -0.031 C 
BRANCH  12  13
ATOM     13  C   UNL     1     149.829  -1.423   4.798  1.00  0.00     0.027 C 
BRANCH  13  14
ATOM     14  C   UNL     1     151.343  -1.307   5.013  1.00  0.00     0.004 C 
BRANCH  14  15
ATOM     15  C   UNL     1     151.665  -0.314   6.140  1.00  0.00     0.000 C 
BRANCH  15  16
ATOM     16  C   UNL     1     151.409  -0.914   7.539  1.00  0.00    -0.000 C 
BRANCH  16  17
ATOM     17  C   UNL     1     150.608   0.013   8.469  1.00  0.00    -0.003 C 
ATOM     18  C   UNL     1     149.657   0.941   7.716  1.00  0.00     0.004 C 
ENDBRANCH  16  17
ENDBRANCH  15  16
ENDBRANCH  14  15
ENDBRANCH  13  14
ENDBRANCH  12  13
ENDBRANCH  10  11
ENDBRANCH   1  10
TORSDOF 13
ENDMDL
MODEL 2
REMARK VINA RESULT:    -3.295      1.741      2.947
REMARK INTER + INTRA:          -8.247
REMARK INTER:                  -6.758
REMARK INTRA:                  -1.489
REMARK UNBOUND:                -2.449
REMARK SMILES CCCCCCC=CCCCCCCCC(=O)[O-]
REMARK SMILES IDX 10 1 11 2 12 3 13 4 14 5 15 6 16 7 17 8 18 9 9 10 8 11 7 12
REMARK SMILES IDX 6 13 5 14 4 15 3 16 2 17 1 18
REMARK H PARENT
REMARK Flexibility Score: inf
ROOT
ATOM      1  C   UNL     1     149.348  -4.665   9.891  1.00  0.00     0.004 C 
ENDROOT
BRANCH   1   2
ATOM      2  C   UNL     1     148.376  -3.640  10.495  1.00  0.00     0.000 C 
BRANCH   2   3
ATOM      3  C   UNL     1     148.687  -2.201  10.054  1.00  0.00     0.000 C 
BRANCH   3   4
ATOM      4  C   UNL     1     147.475  -1.505   9.411  1.00  0.00     0.000 C 
BRANCH   4   5
ATOM      5  C   UNL     1     146.988  -2.223   8.142  1.00  0.00     0.006 C 
BRANCH   5   6
ATOM      6  C   UNL     1     145.920  -1.425   7.385  1.00  0.00     0.053 C 
BRANCH   6   7
ATOM      7  C   UNL     1     144.588  -1.575   8.048  1.00  0.00     0.041 C 
ATOM      8  O   UNL     1     144.209  -2.703   8.462  1.00  0.00    -0.550 OA
ATOM      9  O   UNL     1     143.742  -0.479   8.166  1.00  0.00    -0.550 OA
ENDBRANCH   6   7
ENDBRANCH   5   6
ENDBRANCH   4   5
ENDBRANCH   3   4
ENDBRANCH   2   3
ENDBRANCH   1   2
BRANCH   1  10
ATOM     10  C   UNL     1     148.641  -5.546   8.854  1.00  0.00     0.027 C 
BRANCH  10  11
ATOM     11  C   UNL     1     149.071  -5.194   7.456  1.00  0.00    -0.031 C 
ATOM     12  C   UNL     1     149.976  -4.233   7.219  1.00  0.00    -0.031 C 
BRANCH  12  13
ATOM     13  C   UNL     1     150.406  -3.883   5.821  1.00  0.00     0.027 C 
BRANCH  13  14
ATOM     14  C   UNL     1     149.387  -2.958   5.144  1.00  0.00     0.004 C 
BRANCH  14  15
ATOM     15  C   UNL     1     150.001  -1.579   4.859  1.00  0.00     0.000 C 
BRANCH  15  16
ATOM     16  C   UNL     1     149.577  -1.023   3.483  1.00  0.00    -0.000 C 
BRANCH  16  17
ATOM     17  C   UNL     1     150.763  -0.694   2.561  1.00  0.00    -0.003 C 
ATOM     18  C   UNL     1     152.056  -0.413   3.324  1.00  0.00     0.004 C 
ENDBRANCH  16  17
ENDBRANCH  15  16
ENDBRANCH  14  15
ENDBRANCH  13  14
ENDBRANCH  12  13
ENDBRANCH  10  11
ENDBRANCH   1  10
TORSDOF 13
ENDMDL
MODEL 3
REMARK VINA RESULT:    -3.236      1.246      2.979
REMARK INTER + INTRA:          -8.144
REMARK INTER:                  -6.348
REMARK INTRA:                  -1.796
REMARK UNBOUND:                -2.449
REMARK SMILES CCCCCCC=CCCCCCCCC(=O)[O-]
REMARK SMILES IDX 10 1 11 2 12 3 13 4 14 5 15 6 16 7 17 8 18 9 9 10 8 11 7 12
REMARK SMILES IDX 6 13 5 14 4 15 3 16 2 17 1 18
REMARK H PARENT
REMARK Flexibility Score: inf
ROOT
ATOM      1  C   UNL     1     147.308  -3.485   9.656  1.00  0.00     0.004 C 
ENDROOT
BRANCH   1   2
ATOM      2  C   UNL     1     147.504  -2.080  10.246  1.00  0.00     0.000 C 
BRANCH   2   3
ATOM      3  C   UNL     1     146.514  -1.055   9.671  1.00  0.00     0.000 C 
BRANCH   3   4
ATOM      4  C   UNL     1     146.726  -0.807   8.167  1.00  0.00     0.000 C 
BRANCH   4   5
ATOM      5  C   UNL     1     145.800  -1.666   7.292  1.00  0.00     0.006 C 
BRANCH   5   6
ATOM      6  C   UNL     1     144.315  -1.371   7.537  1.00  0.00     0.053 C 
BRANCH   6   7
ATOM      7  C   UNL     1     143.603  -2.608   7.984  1.00  0.00     0.041 C 
ATOM      8  O   UNL     1     142.873  -3.245   7.180  1.00  0.00    -0.550 OA
ATOM      9  O   UNL     1     143.706  -3.030   9.303  1.00  0.00    -0.550 OA
ENDBRANCH   6   7
ENDBRANCH   5   6
ENDBRANCH   4   5
ENDBRANCH   3   4
ENDBRANCH   2   3
ENDBRANCH   1   2
BRANCH   1  10
ATOM     10  C   UNL     1     148.637  -4.248   9.604  1.00  0.00     0.027 C 
BRANCH  10  11
ATOM     11  C   UNL     1     149.269  -4.150   8.243  1.00  0.00    -0.031 C 
ATOM     12  C   UNL     1     149.133  -5.126   7.332  1.00  0.00    -0.031 C 
BRANCH  12  13
ATOM     13  C   UNL     1     149.765  -5.026   5.971  1.00  0.00     0.027 C 
BRANCH  13  14
ATOM     14  C   UNL     1     150.337  -3.624   5.727  1.00  0.00     0.004 C 
BRANCH  14  15
ATOM     15  C   UNL     1     149.306  -2.722   5.033  1.00  0.00     0.000 C 
BRANCH  15  16
ATOM     16  C   UNL     1     149.260  -1.307   5.648  1.00  0.00    -0.000 C 
BRANCH  16  17
ATOM     17  C   UNL     1     150.540  -0.927   6.413  1.00  0.00    -0.003 C 
ATOM     18  C   UNL     1     150.265  -0.436   7.833  1.00  0.00     0.004 C 
ENDBRANCH  16  17
ENDBRANCH  15  16
ENDBRANCH  14  15
ENDBRANCH  13  14
ENDBRANCH  12  13
ENDBRANCH  10  11
ENDBRANCH   1  10
TORSDOF 13
ENDMDL
MODEL 4
REMARK VINA RESULT:    -3.225      1.758      2.694
REMARK INTER + INTRA:          -8.124
REMARK INTER:                  -6.958
REMARK INTRA:                  -1.166
REMARK UNBOUND:                -2.449
REMARK SMILES CCCCCCC=CCCCCCCCC(=O)[O-]
REMARK SMILES IDX 10 1 11 2 12 3 13 4 14 5 15 6 16 7 17 8 18 9 9 10 8 11 7 12
REMARK SMILES IDX 6 13 5 14 4 15 3 16 2 17 1 18
REMARK H PARENT
REMARK Flexibility Score: inf
ROOT
ATOM      1  C   UNL     1     148.957  -5.010   7.824  1.00  0.00     0.004 C 
ENDROOT
BRANCH   1   2
ATOM      2  C   UNL     1     149.516  -3.679   8.349  1.00  0.00     0.000 C 
BRANCH   2   3
ATOM      3  C   UNL     1     148.440  -2.588   8.457  1.00  0.00     0.000 C 
BRANCH   3   4
ATOM      4  C   UNL     1     148.047  -2.008   7.087  1.00  0.00     0.000 C 
BRANCH   4   5
ATOM      5  C   UNL     1     146.929  -0.958   7.189  1.00  0.00     0.006 C 
BRANCH   5   6
ATOM      6  C   UNL     1     145.529  -1.584   7.176  1.00  0.00     0.053 C 
BRANCH   6   7
ATOM      7  C   UNL     1     144.941  -1.577   8.551  1.00  0.00     0.041 C 
ATOM      8  O   UNL     1     145.233  -0.658   9.361  1.00  0.00    -0.550 OA
ATOM      9  O   UNL     1     144.106  -2.611   8.955  1.00  0.00    -0.550 OA
ENDBRANCH   6   7
ENDBRANCH   5   6
ENDBRANCH   4   5
ENDBRANCH   3   4
ENDBRANCH   2   3
ENDBRANCH   1   2
BRANCH   1  10
ATOM     10  C   UNL     1     149.547  -5.348   6.449  1.00  0.00     0.027 C 
BRANCH  10  11
ATOM     11  C   UNL     1     150.725  -4.467   6.131  1.00  0.00    -0.031 C 
ATOM     12  C   UNL     1     151.937  -4.980   5.872  1.00  0.00    -0.031 C 
BRANCH  12  13
ATOM     13  C   UNL     1     153.113  -4.099   5.553  1.00  0.00     0.027 C 
BRANCH  13  14
ATOM     14  C   UNL     1     152.877  -2.663   6.037  1.00  0.00     0.004 C 
BRANCH  14  15
ATOM     15  C   UNL     1     152.977  -1.666   4.873  1.00  0.00     0.000 C 
BRANCH  15  16
ATOM     16  C   UNL     1     151.592  -1.160   4.415  1.00  0.00    -0.000 C 
BRANCH  16  17
ATOM     17  C   UNL     1     151.611  -0.478   3.037  1.00  0.00    -0.003 C 
ATOM     18  C   UNL     1     150.263  -0.536   2.321  1.00  0.00     0.004 C 
ENDBRANCH  16  17
ENDBRANCH  15  16
ENDBRANCH  14  15
ENDBRANCH  13  14
ENDBRANCH  12  13
ENDBRANCH  10  11
ENDBRANCH   1  10
TORSDOF 13
ENDMDL
MODEL 5
REMARK VINA RESULT:    -3.224     14.199     16.055
REMARK INTER + INTRA:          -8.123
REMARK INTER:                  -6.562
REMARK INTRA:                  -1.562
REMARK UNBOUND:                -2.449
REMARK SMILES CCCCCCC=CCCCCCCCC(=O)[O-]
REMARK SMILES IDX 10 1 11 2 12 3 13 4 14 5 15 6 16 7 17 8 18 9 9 10 8 11 7 12
REMARK SMILES IDX 6 13 5 14 4 15 3 16 2 17 1 18
REMARK H PARENT
REMARK Flexibility Score: inf
ROOT
ATOM      1  C   UNL     1     148.032  -1.531  -7.444  1.00  0.00     0.004 C 
ENDROOT
BRANCH   1   2
ATOM      2  C   UNL     1     148.057  -2.385  -8.721  1.00  0.00     0.000 C 
BRANCH   2   3
ATOM      3  C   UNL     1     149.393  -3.120  -8.914  1.00  0.00     0.000 C 
BRANCH   3   4
ATOM      4  C   UNL     1     149.264  -4.641  -8.718  1.00  0.00     0.000 C 
BRANCH   4   5
ATOM      5  C   UNL     1     147.808  -5.087  -8.511  1.00  0.00     0.006 C 
BRANCH   5   6
ATOM      6  C   UNL     1     147.562  -5.672  -7.115  1.00  0.00     0.053 C 
BRANCH   6   7
ATOM      7  C   UNL     1     146.282  -6.444  -7.090  1.00  0.00     0.041 C 
ATOM      8  O   UNL     1     145.330  -6.119  -7.847  1.00  0.00    -0.550 OA
ATOM      9  O   UNL     1     146.120  -7.493  -6.194  1.00  0.00    -0.550 OA
ENDBRANCH   6   7
ENDBRANCH   5   6
ENDBRANCH   4   5
ENDBRANCH   3   4
ENDBRANCH   2   3
ENDBRANCH   1   2
BRANCH   1  10
ATOM     10  C   UNL     1     146.924  -2.000  -6.493  1.00  0.00     0.027 C 
BRANCH  10  11
ATOM     11  C   UNL     1     145.669  -2.347  -7.247  1.00  0.00    -0.031 C 
ATOM     12  C   UNL     1     144.622  -1.509  -7.293  1.00  0.00    -0.031 C 
BRANCH  12  13
ATOM     13  C   UNL     1     143.369  -1.856  -8.048  1.00  0.00     0.027 C 
BRANCH  13  14
ATOM     14  C   UNL     1     143.053  -0.800  -9.114  1.00  0.00     0.004 C 
BRANCH  14  15
ATOM     15  C   UNL     1     143.878   0.475  -8.887  1.00  0.00     0.000 C 
BRANCH  15  16
ATOM     16  C   UNL     1     142.994   1.738  -8.814  1.00  0.00    -0.000 C 
BRANCH  16  17
ATOM     17  C   UNL     1     142.203   1.861  -7.500  1.00  0.00    -0.003 C 
ATOM     18  C   UNL     1     143.063   1.625  -6.260  1.00  0.00     0.004 C 
ENDBRANCH  16  17
ENDBRANCH  15  16
ENDBRANCH  14  15
ENDBRANCH  13  14
ENDBRANCH  12  13
ENDBRANCH  10  11
ENDBRANCH   1  10
TORSDOF 13
ENDMDL
MODEL 6
REMARK VINA RESULT:    -3.169     13.400     15.357
REMARK INTER + INTRA:          -8.026
REMARK INTER:                  -6.810
REMARK INTRA:                  -1.216
REMARK UNBOUND:                -2.449
REMARK SMILES CCCCCCC=CCCCCCCCC(=O)[O-]
REMARK SMILES IDX 10 1 11 2 12 3 13 4 14 5 15 6 16 7 17 8 18 9 9 10 8 11 7 12
REMARK SMILES IDX 6 13 5 14 4 15 3 16 2 17 1 18
REMARK H PARENT
REMARK Flexibility Score: inf
ROOT
ATOM      1  C   UNL     1     147.305  -2.405  -7.667  1.00  0.00     0.004 C 
ENDROOT
BRANCH   1   2
ATOM      2  C   UNL     1     146.197  -1.747  -8.502  1.00  0.00     0.000 C 
BRANCH   2   3
ATOM      3  C   UNL     1     144.832  -2.427  -8.312  1.00  0.00     0.000 C 
BRANCH   3   4
ATOM      4  C   UNL     1     143.860  -1.578  -7.472  1.00  0.00     0.000 C 
BRANCH   4   5
ATOM      5  C   UNL     1     143.902  -0.089  -7.850  1.00  0.00     0.006 C 
BRANCH   5   6
ATOM      6  C   UNL     1     143.567   0.829  -6.668  1.00  0.00     0.053 C 
BRANCH   6   7
ATOM      7  C   UNL     1     142.675   1.945  -7.110  1.00  0.00     0.041 C 
ATOM      8  O   UNL     1     141.506   1.701  -7.513  1.00  0.00    -0.550 OA
ATOM      9  O   UNL     1     143.149   3.250  -7.124  1.00  0.00    -0.550 OA
ENDBRANCH   6   7
ENDBRANCH   5   6
ENDBRANCH   4   5
ENDBRANCH   3   4
ENDBRANCH   2   3
ENDBRANCH   1   2
BRANCH   1  10
ATOM     10  C   UNL     1     148.538  -2.701  -8.529  1.00  0.00     0.027 C 
BRANCH  10  11
ATOM     11  C   UNL     1     148.733  -4.182  -8.710  1.00  0.00    -0.031 C 
ATOM     12  C   UNL     1     147.692  -5.024  -8.793  1.00  0.00    -0.031 C 
BRANCH  12  13
ATOM     13  C   UNL     1     147.888  -6.504  -8.974  1.00  0.00     0.027 C 
BRANCH  13  14
ATOM     14  C   UNL     1     148.142  -7.198  -7.630  1.00  0.00     0.004 C 
BRANCH  14  15
ATOM     15  C   UNL     1     147.026  -6.877  -6.625  1.00  0.00     0.000 C 
BRANCH  15  16
ATOM     16  C   UNL     1     147.546  -6.083  -5.408  1.00  0.00    -0.000 C 
BRANCH  16  17
ATOM     17  C   UNL     1     146.761  -4.788  -5.137  1.00  0.00    -0.003 C 
ATOM     18  C   UNL     1     146.425  -4.589  -3.660  1.00  0.00     0.004 C 
ENDBRANCH  16  17
ENDBRANCH  15  16
ENDBRANCH  14  15
ENDBRANCH  13  14
ENDBRANCH  12  13
ENDBRANCH  10  11
ENDBRANCH   1  10
TORSDOF 13
ENDMDL
MODEL 7
REMARK VINA RESULT:    -3.032      2.082      4.929
REMARK INTER + INTRA:          -7.785
REMARK INTER:                  -6.050
REMARK INTRA:                  -1.735
REMARK UNBOUND:                -2.449
REMARK SMILES CCCCCCC=CCCCCCCCC(=O)[O-]
REMARK SMILES IDX 10 1 11 2 12 3 13 4 14 5 15 6 16 7 17 8 18 9 9 10 8 11 7 12
REMARK SMILES IDX 6 13 5 14 4 15 3 16 2 17 1 18
REMARK H PARENT
REMARK Flexibility Score: inf
ROOT
ATOM      1  C   UNL     1     149.237  -2.616   5.203  1.00  0.00     0.004 C 
ENDROOT
BRANCH   1   2
ATOM      2  C   UNL     1     150.380  -1.620   4.958  1.00  0.00     0.000 C 
BRANCH   2   3
ATOM      3  C   UNL     1     151.285  -1.444   6.188  1.00  0.00     0.000 C 
BRANCH   3   4
ATOM      4  C   UNL     1     151.049  -0.105   6.908  1.00  0.00     0.000 C 
BRANCH   4   5
ATOM      5  C   UNL     1     149.800  -0.130   7.804  1.00  0.00     0.006 C 
BRANCH   5   6
ATOM      6  C   UNL     1     148.613   0.618   7.182  1.00  0.00     0.053 C 
BRANCH   6   7
ATOM      7  C   UNL     1     148.593   2.040   7.643  1.00  0.00     0.041 C 
ATOM      8  O   UNL     1     149.237   2.920   7.014  1.00  0.00    -0.550 OA
ATOM      9  O   UNL     1     147.903   2.387   8.798  1.00  0.00    -0.550 OA
ENDBRANCH   6   7
ENDBRANCH   5   6
ENDBRANCH   4   5
ENDBRANCH   3   4
ENDBRANCH   2   3
ENDBRANCH   1   2
BRANCH   1  10
ATOM     10  C   UNL     1     149.776  -3.950   5.732  1.00  0.00     0.027 C 
BRANCH  10  11
ATOM     11  C   UNL     1     149.378  -4.170   7.166  1.00  0.00    -0.031 C 
ATOM     12  C   UNL     1     148.372  -3.484   7.730  1.00  0.00    -0.031 C 
BRANCH  12  13
ATOM     13  C   UNL     1     147.974  -3.705   9.163  1.00  0.00     0.027 C 
BRANCH  13  14
ATOM     14  C   UNL     1     147.303  -2.457   9.751  1.00  0.00     0.004 C 
BRANCH  14  15
ATOM     15  C   UNL     1     146.357  -1.808   8.730  1.00  0.00     0.000 C 
BRANCH  15  16
ATOM     16  C   UNL     1     144.876  -1.922   9.151  1.00  0.00    -0.000 C 
BRANCH  16  17
ATOM     17  C   UNL     1     143.898  -1.940   7.963  1.00  0.00    -0.003 C 
ATOM     18  C   UNL     1     144.546  -1.512   6.647  1.00  0.00     0.004 C 
ENDBRANCH  16  17
ENDBRANCH  15  16
ENDBRANCH  14  15
ENDBRANCH  13  14
ENDBRANCH  12  13
ENDBRANCH  10  11
ENDBRANCH   1  10
TORSDOF 13
ENDMDL
MODEL 8
REMARK VINA RESULT:    -3.021      1.357      3.600
REMARK INTER + INTRA:          -7.765
REMARK INTER:                  -5.717
REMARK INTRA:                  -2.048
REMARK UNBOUND:                -2.449
REMARK SMILES CCCCCCC=CCCCCCCCC(=O)[O-]
REMARK SMILES IDX 10 1 11 2 12 3 13 4 14 5 15 6 16 7 17 8 18 9 9 10 8 11 7 12
REMARK SMILES IDX 6 13 5 14 4 15 3 16 2 17 1 18
REMARK H PARENT
REMARK Flexibility Score: inf
ROOT
ATOM      1  C   UNL     1     148.829   0.886   8.339  1.00  0.00     0.004 C 
ENDROOT
BRANCH   1   2
ATOM      2  C   UNL     1     149.255  -0.408   9.050  1.00  0.00     0.000 C 
BRANCH   2   3
ATOM      3  C   UNL     1     148.089  -1.089   9.784  1.00  0.00     0.000 C 
BRANCH   3   4
ATOM      4  C   UNL     1     147.728  -2.457   9.179  1.00  0.00     0.000 C 
BRANCH   4   5
ATOM      5  C   UNL     1     146.242  -2.559   8.799  1.00  0.00     0.006 C 
BRANCH   5   6
ATOM      6  C   UNL     1     145.827  -1.518   7.753  1.00  0.00     0.053 C 
BRANCH   6   7
ATOM      7  C   UNL     1     144.346  -1.540   7.552  1.00  0.00     0.041 C 
ATOM      8  O   UNL     1     143.655  -0.519   7.808  1.00  0.00    -0.550 OA
ATOM      9  O   UNL     1     143.719  -2.706   7.130  1.00  0.00    -0.550 OA
ENDBRANCH   6   7
ENDBRANCH   5   6
ENDBRANCH   4   5
ENDBRANCH   3   4
ENDBRANCH   2   3
ENDBRANCH   1   2
BRANCH   1  10
ATOM     10  C   UNL     1     148.558   0.631   6.852  1.00  0.00     0.027 C 
BRANCH  10  11
ATOM     11  C   UNL     1     149.287  -0.593   6.367  1.00  0.00    -0.031 C 
ATOM     12  C   UNL     1     148.687  -1.508   5.591  1.00  0.00    -0.031 C 
BRANCH  12  13
ATOM     13  C   UNL     1     149.417  -2.730   5.107  1.00  0.00     0.027 C 
BRANCH  13  14
ATOM     14  C   UNL     1     150.647  -3.022   5.977  1.00  0.00     0.004 C 
BRANCH  14  15
ATOM     15  C   UNL     1     150.729  -4.514   6.332  1.00  0.00     0.000 C 
BRANCH  15  16
ATOM     16  C   UNL     1     149.366  -5.082   6.784  1.00  0.00    -0.000 C 
BRANCH  16  17
ATOM     17  C   UNL     1     149.329  -5.480   8.270  1.00  0.00    -0.003 C 
ATOM     18  C   UNL     1     150.523  -4.952   9.062  1.00  0.00     0.004 C 
ENDBRANCH  16  17
ENDBRANCH  15  16
ENDBRANCH  14  15
ENDBRANCH  13  14
ENDBRANCH  12  13
ENDBRANCH  10  11
ENDBRANCH   1  10
TORSDOF 13
ENDMDL
MODEL 9
REMARK VINA RESULT:    -2.985      1.527      3.674
REMARK INTER + INTRA:          -7.702
REMARK INTER:                  -5.547
REMARK INTRA:                  -2.155
REMARK UNBOUND:                -2.449
REMARK SMILES CCCCCCC=CCCCCCCCC(=O)[O-]
REMARK SMILES IDX 10 1 11 2 12 3 13 4 14 5 15 6 16 7 17 8 18 9 9 10 8 11 7 12
REMARK SMILES IDX 6 13 5 14 4 15 3 16 2 17 1 18
REMARK H PARENT
REMARK Flexibility Score: inf
ROOT
ATOM      1  C   UNL     1     150.168  -3.097   5.875  1.00  0.00     0.004 C 
ENDROOT
BRANCH   1   2
ATOM      2  C   UNL     1     149.024  -2.244   5.305  1.00  0.00     0.000 C 
BRANCH   2   3
ATOM      3  C   UNL     1     149.054  -0.796   5.820  1.00  0.00     0.000 C 
BRANCH   3   4
ATOM      4  C   UNL     1     147.893  -0.486   6.780  1.00  0.00     0.000 C 
BRANCH   4   5
ATOM      5  C   UNL     1     147.136  -1.750   7.216  1.00  0.00     0.006 C 
BRANCH   5   6
ATOM      6  C   UNL     1     145.616  -1.547   7.249  1.00  0.00     0.053 C 
BRANCH   6   7
ATOM      7  C   UNL     1     145.110  -1.611   8.655  1.00  0.00     0.041 C 
ATOM      8  O   UNL     1     144.551  -2.656   9.081  1.00  0.00    -0.550 OA
ATOM      9  O   UNL     1     145.212  -0.500   9.481  1.00  0.00    -0.550 OA
ENDBRANCH   6   7
ENDBRANCH   5   6
ENDBRANCH   4   5
ENDBRANCH   3   4
ENDBRANCH   2   3
ENDBRANCH   1   2
BRANCH   1  10
ATOM     10  C   UNL     1     149.781  -4.580   5.909  1.00  0.00     0.027 C 
BRANCH  10  11
ATOM     11  C   UNL     1     149.637  -5.073   7.323  1.00  0.00    -0.031 C 
ATOM     12  C   UNL     1     148.596  -4.716   8.090  1.00  0.00    -0.031 C 
BRANCH  12  13
ATOM     13  C   UNL     1     148.453  -5.211   9.503  1.00  0.00     0.027 C 
BRANCH  13  14
ATOM     14  C   UNL     1     147.807  -4.148  10.401  1.00  0.00     0.004 C 
BRANCH  14  15
ATOM     15  C   UNL     1     148.507  -2.790  10.237  1.00  0.00     0.000 C 
BRANCH  15  16
ATOM     16  C   UNL     1     149.893  -2.762  10.917  1.00  0.00    -0.000 C 
BRANCH  16  17
ATOM     17  C   UNL     1     151.057  -2.568   9.930  1.00  0.00    -0.003 C 
ATOM     18  C   UNL     1     150.893  -1.335   9.044  1.00  0.00     0.004 C 
ENDBRANCH  16  17
ENDBRANCH  15  16
ENDBRANCH  14  15
ENDBRANCH  13  14
ENDBRANCH  12  13
ENDBRANCH  10  11
ENDBRANCH   1  10
TORSDOF 13
ENDMDL
