MODEL 1
REMARK VINA RESULT:    -5.982      0.000      0.000
REMARK INTER + INTRA:          -6.747
REMARK INTER:                  -6.331
REMARK INTRA:                  -0.416
REMARK UNBOUND:                -0.416
REMARK SMILES CC1=CC[C@@H]2[C@H]3[C@@H](C(C)C)CC[C@]2(C)[C@@H]13
REMARK SMILES IDX 1 1 2 2 3 3 4 4 5 5 6 6 15 7 13 8 12 9 11 10 7 11 14 12 8 13
REMARK SMILES IDX 9 14 10 15
REMARK H PARENT
REMARK Flexibility Score: inf
ROOT
ATOM      1  C   UNL     1       5.756   6.019  10.893  1.00  0.00     0.039 C 
ATOM      2  C   UNL     1       6.296   6.165  12.284  1.00  0.00    -0.073 C 
ATOM      3  C   UNL     1       7.157   5.253  12.805  1.00  0.00    -0.027 C 
ATOM      4  C   UNL     1       7.696   5.469  14.222  1.00  0.00     0.031 C 
ATOM      5  C   UNL     1       7.081   6.763  14.848  1.00  0.00     0.003 C 
ATOM      6  C   UNL     1       5.554   6.734  14.571  1.00  0.00     0.004 C 
ATOM      7  C   UNL     1       5.891   7.335  13.187  1.00  0.00     0.024 C 
ATOM      8  C   UNL     1       7.138   7.956  13.859  1.00  0.00    -0.022 C 
ATOM      9  C   UNL     1       6.725   9.280  14.574  1.00  0.00     0.008 C 
ATOM     10  C   UNL     1       5.660   9.051  15.681  1.00  0.00     0.005 C 
ATOM     11  C   UNL     1       4.779   7.793  15.417  1.00  0.00    -0.005 C 
ATOM     12  C   UNL     1       8.409   8.164  13.005  1.00  0.00     0.012 C 
ENDROOT
BRANCH  11  13
ATOM     13  C   UNL     1       4.156   7.222  16.728  1.00  0.00    -0.014 C 
ATOM     14  C   UNL     1       3.812   5.731  16.582  1.00  0.00     0.007 C 
ATOM     15  C   UNL     1       5.030   7.436  17.976  1.00  0.00     0.007 C 
ENDBRANCH  11  13
TORSDOF 1
ENDMDL
MODEL 2
REMARK VINA RESULT:    -5.911     12.267     14.930
REMARK INTER + INTRA:          -6.673
REMARK INTER:                  -6.254
REMARK INTRA:                  -0.419
REMARK UNBOUND:                -0.416
REMARK SMILES CC1=CC[C@@H]2[C@H]3[C@@H](C(C)C)CC[C@]2(C)[C@@H]13
REMARK SMILES IDX 1 1 2 2 3 3 4 4 5 5 6 6 15 7 13 8 12 9 11 10 7 11 14 12 8 13
REMARK SMILES IDX 9 14 10 15
REMARK H PARENT
REMARK Flexibility Score: inf
ROOT
ATOM      1  C   UNL     1      10.992   4.121  31.085  1.00  0.00     0.039 C 
ATOM      2  C   UNL     1      10.630   4.497  29.679  1.00  0.00    -0.073 C 
ATOM      3  C   UNL     1       9.843   3.696  28.916  1.00  0.00    -0.027 C 
ATOM      4  C   UNL     1       9.486   4.146  27.496  1.00  0.00     0.031 C 
ATOM      5  C   UNL     1      10.172   5.511  27.167  1.00  0.00     0.003 C 
ATOM      6  C   UNL     1      11.653   5.410  27.624  1.00  0.00     0.004 C 
ATOM      7  C   UNL     1      11.144   5.789  29.033  1.00  0.00     0.024 C 
ATOM      8  C   UNL     1       9.990   6.532  28.320  1.00  0.00    -0.022 C 
ATOM      9  C   UNL     1      10.487   7.945  27.883  1.00  0.00     0.008 C 
ATOM     10  C   UNL     1      11.683   7.876  26.896  1.00  0.00     0.005 C 
ATOM     11  C   UNL     1      12.525   6.575  27.061  1.00  0.00    -0.005 C 
ATOM     12  C   UNL     1       8.621   6.625  29.032  1.00  0.00     0.012 C 
ENDROOT
BRANCH  11  13
ATOM     13  C   UNL     1      13.309   6.210  25.763  1.00  0.00    -0.014 C 
ATOM     14  C   UNL     1      13.518   4.692  25.644  1.00  0.00     0.007 C 
ATOM     15  C   UNL     1      12.666   6.751  24.475  1.00  0.00     0.007 C 
ENDBRANCH  11  13
TORSDOF 1
ENDMDL
MODEL 3
REMARK VINA RESULT:    -5.633     11.954     14.110
REMARK INTER + INTRA:          -6.379
REMARK INTER:                  -6.109
REMARK INTRA:                  -0.269
REMARK UNBOUND:                -0.416
REMARK SMILES CC1=CC[C@@H]2[C@H]3[C@@H](C(C)C)CC[C@]2(C)[C@@H]13
REMARK SMILES IDX 1 1 2 2 3 3 4 4 5 5 6 6 15 7 13 8 12 9 11 10 7 11 14 12 8 13
REMARK SMILES IDX 9 14 10 15
REMARK H PARENT
REMARK Flexibility Score: inf
ROOT
ATOM      1  C   UNL     1      10.922   8.433  27.141  1.00  0.00     0.039 C 
ATOM      2  C   UNL     1      12.024   7.699  26.437  1.00  0.00    -0.073 C 
ATOM      3  C   UNL     1      12.218   6.369  26.626  1.00  0.00    -0.027 C 
ATOM      4  C   UNL     1      13.344   5.669  25.859  1.00  0.00     0.031 C 
ATOM      5  C   UNL     1      14.126   6.696  24.978  1.00  0.00     0.003 C 
ATOM      6  C   UNL     1      14.415   7.941  25.860  1.00  0.00     0.004 C 
ATOM      7  C   UNL     1      12.991   8.416  25.489  1.00  0.00     0.024 C 
ATOM      8  C   UNL     1      13.161   7.611  24.179  1.00  0.00    -0.022 C 
ATOM      9  C   UNL     1      13.953   8.474  23.149  1.00  0.00     0.008 C 
ATOM     10  C   UNL     1      15.371   8.851  23.653  1.00  0.00     0.005 C 
ATOM     11  C   UNL     1      15.463   8.897  25.209  1.00  0.00    -0.005 C 
ATOM     12  C   UNL     1      11.904   6.989  23.528  1.00  0.00     0.012 C 
ENDROOT
BRANCH  11  13
ATOM     13  C   UNL     1      16.921   8.680  25.721  1.00  0.00    -0.014 C 
ATOM     14  C   UNL     1      17.781   7.955  24.674  1.00  0.00     0.007 C 
ATOM     15  C   UNL     1      17.621   9.975  26.167  1.00  0.00     0.007 C 
ENDBRANCH  11  13
TORSDOF 1
ENDMDL
MODEL 4
REMARK VINA RESULT:    -5.625      1.274      4.579
REMARK INTER + INTRA:          -6.369
REMARK INTER:                  -5.958
REMARK INTRA:                  -0.411
REMARK UNBOUND:                -0.416
REMARK SMILES CC1=CC[C@@H]2[C@H]3[C@@H](C(C)C)CC[C@]2(C)[C@@H]13
REMARK SMILES IDX 1 1 2 2 3 3 4 4 5 5 6 6 15 7 13 8 12 9 11 10 7 11 14 12 8 13
REMARK SMILES IDX 9 14 10 15
REMARK H PARENT
REMARK Flexibility Score: inf
ROOT
ATOM      1  C   UNL     1       5.621   7.187  19.260  1.00  0.00     0.039 C 
ATOM      2  C   UNL     1       5.319   7.239  17.793  1.00  0.00    -0.073 C 
ATOM      3  C   UNL     1       4.226   6.619  17.276  1.00  0.00    -0.027 C 
ATOM      4  C   UNL     1       3.956   6.728  15.772  1.00  0.00     0.031 C 
ATOM      5  C   UNL     1       5.083   7.555  15.073  1.00  0.00     0.003 C 
ATOM      6  C   UNL     1       6.444   7.028  15.603  1.00  0.00     0.004 C 
ATOM      7  C   UNL     1       6.234   7.974  16.807  1.00  0.00     0.024 C 
ATOM      8  C   UNL     1       5.399   8.859  15.852  1.00  0.00    -0.022 C 
ATOM      9  C   UNL     1       6.362   9.769  15.028  1.00  0.00     0.008 C 
ATOM     10  C   UNL     1       7.357   8.952  14.161  1.00  0.00     0.005 C 
ATOM     11  C   UNL     1       7.648   7.539  14.751  1.00  0.00    -0.005 C 
ATOM     12  C   UNL     1       4.231   9.683  16.442  1.00  0.00     0.012 C 
ENDROOT
BRANCH  11  13
ATOM     13  C   UNL     1       8.126   6.530  13.661  1.00  0.00    -0.014 C 
ATOM     14  C   UNL     1       7.605   5.112  13.944  1.00  0.00     0.007 C 
ATOM     15  C   UNL     1       7.758   6.945  12.227  1.00  0.00     0.007 C 
ENDBRANCH  11  13
TORSDOF 1
ENDMDL
MODEL 5
REMARK VINA RESULT:    -5.301     11.356     13.203
REMARK INTER + INTRA:          -6.027
REMARK INTER:                  -5.758
REMARK INTRA:                  -0.269
REMARK UNBOUND:                -0.416
REMARK SMILES CC1=CC[C@@H]2[C@H]3[C@@H](C(C)C)CC[C@]2(C)[C@@H]13
REMARK SMILES IDX 1 1 2 2 3 3 4 4 5 5 6 6 15 7 13 8 12 9 11 10 7 11 14 12 8 13
REMARK SMILES IDX 9 14 10 15
REMARK H PARENT
REMARK Flexibility Score: inf
ROOT
ATOM      1  C   UNL     1      17.318   7.213  24.002  1.00  0.00     0.039 C 
ATOM      2  C   UNL     1      16.081   8.022  24.255  1.00  0.00    -0.073 C 
ATOM      3  C   UNL     1      16.153   9.345  24.554  1.00  0.00    -0.027 C 
ATOM      4  C   UNL     1      14.854  10.125  24.778  1.00  0.00     0.031 C 
ATOM      5  C   UNL     1      13.618   9.177  24.645  1.00  0.00     0.003 C 
ATOM      6  C   UNL     1      13.927   7.892  25.459  1.00  0.00     0.004 C 
ATOM      7  C   UNL     1      14.684   7.394  24.206  1.00  0.00     0.024 C 
ATOM      8  C   UNL     1      13.721   8.282  23.383  1.00  0.00    -0.022 C 
ATOM      9  C   UNL     1      12.387   7.507  23.151  1.00  0.00     0.008 C 
ATOM     10  C   UNL     1      11.670   7.146  24.480  1.00  0.00     0.005 C 
ATOM     11  C   UNL     1      12.658   7.011  25.678  1.00  0.00    -0.005 C 
ATOM     12  C   UNL     1      14.236   8.900  22.063  1.00  0.00     0.012 C 
ENDROOT
BRANCH  11  13
ATOM     13  C   UNL     1      11.956   7.243  27.052  1.00  0.00    -0.014 C 
ATOM     14  C   UNL     1      10.908   8.364  26.963  1.00  0.00     0.007 C 
ATOM     15  C   UNL     1      11.316   5.976  27.645  1.00  0.00     0.007 C 
ENDBRANCH  11  13
TORSDOF 1
ENDMDL
MODEL 6
REMARK VINA RESULT:    -5.225      1.289      2.796
REMARK INTER + INTRA:          -5.947
REMARK INTER:                  -5.537
REMARK INTRA:                  -0.410
REMARK UNBOUND:                -0.416
REMARK SMILES CC1=CC[C@@H]2[C@H]3[C@@H](C(C)C)CC[C@]2(C)[C@@H]13
REMARK SMILES IDX 1 1 2 2 3 3 4 4 5 5 6 6 15 7 13 8 12 9 11 10 7 11 14 12 8 13
REMARK SMILES IDX 9 14 10 15
REMARK H PARENT
REMARK Flexibility Score: inf
ROOT
ATOM      1  C   UNL     1       7.908   4.216  14.472  1.00  0.00     0.039 C 
ATOM      2  C   UNL     1       7.416   5.631  14.395  1.00  0.00    -0.073 C 
ATOM      3  C   UNL     1       8.167   6.608  13.825  1.00  0.00    -0.027 C 
ATOM      4  C   UNL     1       7.600   8.029  13.753  1.00  0.00     0.031 C 
ATOM      5  C   UNL     1       6.190   8.089  14.425  1.00  0.00     0.003 C 
ATOM      6  C   UNL     1       6.288   7.338  15.780  1.00  0.00     0.004 C 
ATOM      7  C   UNL     1       6.056   6.042  14.969  1.00  0.00     0.024 C 
ATOM      8  C   UNL     1       5.285   6.921  13.956  1.00  0.00    -0.022 C 
ATOM      9  C   UNL     1       3.824   7.122  14.464  1.00  0.00     0.008 C 
ATOM     10  C   UNL     1       3.766   7.835  15.842  1.00  0.00     0.005 C 
ATOM     11  C   UNL     1       5.050   7.602  16.694  1.00  0.00    -0.005 C 
ATOM     12  C   UNL     1       5.299   6.512  12.465  1.00  0.00     0.012 C 
ENDROOT
BRANCH  11  13
ATOM     13  C   UNL     1       5.272   8.729  17.749  1.00  0.00    -0.014 C 
ATOM     14  C   UNL     1       6.735   8.779  18.216  1.00  0.00     0.007 C 
ATOM     15  C   UNL     1       4.827  10.122  17.273  1.00  0.00     0.007 C 
ENDBRANCH  11  13
TORSDOF 1
ENDMDL
MODEL 7
REMARK VINA RESULT:    -5.132      9.120     10.858
REMARK INTER + INTRA:          -5.847
REMARK INTER:                  -5.428
REMARK INTRA:                  -0.419
REMARK UNBOUND:                -0.416
REMARK SMILES CC1=CC[C@@H]2[C@H]3[C@@H](C(C)C)CC[C@]2(C)[C@@H]13
REMARK SMILES IDX 1 1 2 2 3 3 4 4 5 5 6 6 15 7 13 8 12 9 11 10 7 11 14 12 8 13
REMARK SMILES IDX 9 14 10 15
REMARK H PARENT
REMARK Flexibility Score: inf
ROOT
ATOM      1  C   UNL     1       8.811   9.128  22.721  1.00  0.00     0.039 C 
ATOM      2  C   UNL     1      10.111   8.505  22.307  1.00  0.00    -0.073 C 
ATOM      3  C   UNL     1      10.153   7.270  21.744  1.00  0.00    -0.027 C 
ATOM      4  C   UNL     1      11.508   6.697  21.319  1.00  0.00     0.031 C 
ATOM      5  C   UNL     1      12.658   7.695  21.672  1.00  0.00     0.003 C 
ATOM      6  C   UNL     1      12.420   8.184  23.126  1.00  0.00     0.004 C 
ATOM      7  C   UNL     1      11.450   9.222  22.516  1.00  0.00     0.024 C 
ATOM      8  C   UNL     1      12.311   9.141  21.234  1.00  0.00    -0.022 C 
ATOM      9  C   UNL     1      13.551  10.074  21.395  1.00  0.00     0.008 C 
ATOM     10  C   UNL     1      14.452   9.666  22.591  1.00  0.00     0.005 C 
ATOM     11  C   UNL     1      13.663   8.924  23.712  1.00  0.00    -0.005 C 
ATOM     12  C   UNL     1      11.624   9.368  19.868  1.00  0.00     0.012 C 
ENDROOT
BRANCH  11  13
ATOM     13  C   UNL     1      14.586   8.018  24.584  1.00  0.00    -0.014 C 
ATOM     14  C   UNL     1      13.818   6.811  25.146  1.00  0.00     0.007 C 
ATOM     15  C   UNL     1      15.853   7.537  23.856  1.00  0.00     0.007 C 
ENDBRANCH  11  13
TORSDOF 1
ENDMDL
MODEL 8
REMARK VINA RESULT:    -5.118     10.671     13.025
REMARK INTER + INTRA:          -5.833
REMARK INTER:                  -5.622
REMARK INTRA:                  -0.211
REMARK UNBOUND:                -0.416
REMARK SMILES CC1=CC[C@@H]2[C@H]3[C@@H](C(C)C)CC[C@]2(C)[C@@H]13
REMARK SMILES IDX 1 1 2 2 3 3 4 4 5 5 6 6 15 7 13 8 12 9 11 10 7 11 14 12 8 13
REMARK SMILES IDX 9 14 10 15
REMARK H PARENT
REMARK Flexibility Score: inf
ROOT
ATOM      1  C   UNL     1      10.965   7.133  22.600  1.00  0.00     0.039 C 
ATOM      2  C   UNL     1      11.594   7.091  23.961  1.00  0.00    -0.073 C 
ATOM      3  C   UNL     1      12.907   6.786  24.122  1.00  0.00    -0.027 C 
ATOM      4  C   UNL     1      13.498   6.784  25.535  1.00  0.00     0.031 C 
ATOM      5  C   UNL     1      12.395   7.121  26.589  1.00  0.00     0.003 C 
ATOM      6  C   UNL     1      11.146   6.264  26.246  1.00  0.00     0.004 C 
ATOM      7  C   UNL     1      10.783   7.372  25.231  1.00  0.00     0.024 C 
ATOM      8  C   UNL     1      11.549   8.346  26.157  1.00  0.00    -0.022 C 
ATOM      9  C   UNL     1      10.606   8.797  27.315  1.00  0.00     0.008 C 
ATOM     10  C   UNL     1      10.122   7.607  28.186  1.00  0.00     0.005 C 
ATOM     11  C   UNL     1      10.096   6.260  27.401  1.00  0.00    -0.005 C 
ATOM     12  C   UNL     1      12.261   9.563  25.520  1.00  0.00     0.012 C 
ENDROOT
BRANCH  11  13
ATOM     13  C   UNL     1      10.201   5.023  28.347  1.00  0.00    -0.014 C 
ATOM     14  C   UNL     1       9.414   5.245  29.648  1.00  0.00     0.007 C 
ATOM     15  C   UNL     1       9.765   3.702  27.692  1.00  0.00     0.007 C 
ENDBRANCH  11  13
TORSDOF 1
ENDMDL
MODEL 9
REMARK VINA RESULT:    -5.049     11.185     13.297
REMARK INTER + INTRA:          -5.760
REMARK INTER:                  -5.470
REMARK INTRA:                  -0.290
REMARK UNBOUND:                -0.416
REMARK SMILES CC1=CC[C@@H]2[C@H]3[C@@H](C(C)C)CC[C@]2(C)[C@@H]13
REMARK SMILES IDX 1 1 2 2 3 3 4 4 5 5 6 6 15 7 13 8 12 9 11 10 7 11 14 12 8 13
REMARK SMILES IDX 9 14 10 15
REMARK H PARENT
REMARK Flexibility Score: inf
ROOT
ATOM      1  C   UNL     1      11.624   6.875  21.801  1.00  0.00     0.039 C 
ATOM      2  C   UNL     1      12.057   7.779  22.915  1.00  0.00    -0.073 C 
ATOM      3  C   UNL     1      11.578   9.045  23.023  1.00  0.00    -0.027 C 
ATOM      4  C   UNL     1      12.038   9.913  24.198  1.00  0.00     0.031 C 
ATOM      5  C   UNL     1      13.065   9.134  25.083  1.00  0.00     0.003 C 
ATOM      6  C   UNL     1      14.095   8.473  24.128  1.00  0.00     0.004 C 
ATOM      7  C   UNL     1      13.070   7.326  23.972  1.00  0.00     0.024 C 
ATOM      8  C   UNL     1      12.575   7.696  25.390  1.00  0.00    -0.022 C 
ATOM      9  C   UNL     1      13.500   7.016  26.446  1.00  0.00     0.008 C 
ATOM     10  C   UNL     1      14.977   7.480  26.330  1.00  0.00     0.005 C 
ATOM     11  C   UNL     1      15.350   7.942  24.889  1.00  0.00    -0.005 C 
ATOM     12  C   UNL     1      11.085   7.466  25.733  1.00  0.00     0.012 C 
ENDROOT
BRANCH  11  13
ATOM     13  C   UNL     1      16.560   8.927  24.879  1.00  0.00    -0.014 C 
ATOM     14  C   UNL     1      17.881   8.189  24.612  1.00  0.00     0.007 C 
ATOM     15  C   UNL     1      16.403  10.093  23.888  1.00  0.00     0.007 C 
ENDBRANCH  11  13
TORSDOF 1
ENDMDL
