MODEL 1
REMARK VINA RESULT:    -4.957      0.000      0.000
REMARK INTER + INTRA:          -6.114
REMARK INTER:                  -5.826
REMARK INTRA:                  -0.288
REMARK UNBOUND:                -0.288
REMARK SMILES O=c1c(O)c(-c2ccc(O)cc2)oc2cc(O)cc(O)c12
REMARK SMILES IDX 5 1 3 2 2 3 1 4 21 5 19 6 18 7 16 8 15 9 14 10 13 11 6 12
REMARK SMILES IDX 7 13 8 14 9 15 12 16 11 17 10 18 4 20 20 22 17 24
REMARK H PARENT 10 19 4 21 20 23 17 25
REMARK Flexibility Score: inf
ROOT
ATOM      1  C   UNL     1      32.411  -6.884  -1.841  1.00  0.00     0.180 A 
ATOM      2  C   UNL     1      31.257  -6.576  -1.099  1.00  0.00     0.208 A 
ATOM      3  C   UNL     1      31.359  -5.678  -0.024  1.00  0.00     0.238 A 
ATOM      4  O   UNL     1      30.313  -5.365   0.602  1.00  0.00    -0.285 OA
ATOM      5  C   UNL     1      32.614  -5.113   0.306  1.00  0.00     0.111 A 
ATOM      6  C   UNL     1      32.840  -4.223   1.399  1.00  0.00     0.134 A 
ATOM      7  C   UNL     1      34.096  -3.623   1.553  1.00  0.00     0.093 A 
ATOM      8  C   UNL     1      35.150  -3.929   0.693  1.00  0.00     0.123 A 
ATOM      9  C   UNL     1      34.956  -4.843  -0.344  1.00  0.00     0.094 A 
ATOM     10  C   UNL     1      33.705  -5.431  -0.543  1.00  0.00     0.146 A 
ATOM     11  O   UNL     1      33.560  -6.287  -1.548  1.00  0.00    -0.452 OA
ENDROOT
BRANCH   1  12
ATOM     12  C   UNL     1      32.388  -7.841  -2.971  1.00  0.00     0.021 A 
ATOM     13  C   UNL     1      32.622  -9.204  -2.727  1.00  0.00     0.016 A 
ATOM     14  C   UNL     1      32.582 -10.129  -3.776  1.00  0.00     0.047 A 
ATOM     15  C   UNL     1      32.294  -9.705  -5.077  1.00  0.00     0.115 A 
ATOM     16  C   UNL     1      32.079  -7.424  -4.279  1.00  0.00     0.016 A 
ATOM     17  C   UNL     1      32.039  -8.350  -5.326  1.00  0.00     0.047 A 
BRANCH  15  18
ATOM     18  O   UNL     1      32.259 -10.636  -6.112  1.00  0.00    -0.508 OA
ATOM     19  H   UNL     1      32.929 -11.394  -6.166  1.00  0.00     0.293 HD
ENDBRANCH  15  18
ENDBRANCH   1  12
BRANCH   2  20
ATOM     20  O   UNL     1      30.024  -7.129  -1.455  1.00  0.00    -0.502 OA
ATOM     21  H   UNL     1      29.656  -7.079  -2.397  1.00  0.00     0.293 HD
ENDBRANCH   2  20
BRANCH   6  22
ATOM     22  O   UNL     1      31.880  -3.921   2.370  1.00  0.00    -0.507 OA
ATOM     23  H   UNL     1      32.088  -3.587   3.299  1.00  0.00     0.293 HD
ENDBRANCH   6  22
BRANCH   8  24
ATOM     24  O   UNL     1      36.390  -3.324   0.884  1.00  0.00    -0.508 OA
ATOM     25  H   UNL     1      36.497  -2.317   0.869  1.00  0.00     0.293 HD
ENDBRANCH   8  24
TORSDOF 5
ENDMDL
MODEL 2
REMARK VINA RESULT:    -4.939      3.381      8.137
REMARK INTER + INTRA:          -6.093
REMARK INTER:                  -5.849
REMARK INTRA:                  -0.244
REMARK UNBOUND:                -0.288
REMARK SMILES O=c1c(O)c(-c2ccc(O)cc2)oc2cc(O)cc(O)c12
REMARK SMILES IDX 5 1 3 2 2 3 1 4 21 5 19 6 18 7 16 8 15 9 14 10 13 11 6 12
REMARK SMILES IDX 7 13 8 14 9 15 12 16 11 17 10 18 4 20 20 22 17 24
REMARK H PARENT 10 19 4 21 20 23 17 25
REMARK Flexibility Score: inf
ROOT
ATOM      1  C   UNL     1      33.106  -5.129   3.389  1.00  0.00     0.180 A 
ATOM      2  C   UNL     1      33.694  -6.382   3.638  1.00  0.00     0.208 A 
ATOM      3  C   UNL     1      33.557  -7.400   2.682  1.00  0.00     0.238 A 
ATOM      4  O   UNL     1      34.131  -8.502   2.886  1.00  0.00    -0.285 OA
ATOM      5  C   UNL     1      32.823  -7.160   1.496  1.00  0.00     0.111 A 
ATOM      6  C   UNL     1      32.587  -8.132   0.477  1.00  0.00     0.134 A 
ATOM      7  C   UNL     1      31.957  -7.746  -0.713  1.00  0.00     0.093 A 
ATOM      8  C   UNL     1      31.498  -6.442  -0.895  1.00  0.00     0.123 A 
ATOM      9  C   UNL     1      31.671  -5.499   0.119  1.00  0.00     0.094 A 
ATOM     10  C   UNL     1      32.326  -5.845   1.303  1.00  0.00     0.146 A 
ATOM     11  O   UNL     1      32.480  -4.914   2.238  1.00  0.00    -0.452 OA
ENDROOT
BRANCH   1  12
ATOM     12  C   UNL     1      33.185  -4.014   4.361  1.00  0.00     0.021 A 
ATOM     13  C   UNL     1      34.004  -2.908   4.078  1.00  0.00     0.016 A 
ATOM     14  C   UNL     1      34.077  -1.834   4.970  1.00  0.00     0.047 A 
ATOM     15  C   UNL     1      33.321  -1.845   6.146  1.00  0.00     0.115 A 
ATOM     16  C   UNL     1      32.413  -4.010   5.536  1.00  0.00     0.016 A 
ATOM     17  C   UNL     1      32.486  -2.934   6.426  1.00  0.00     0.047 A 
BRANCH  15  18
ATOM     18  O   UNL     1      33.404  -0.769   7.028  1.00  0.00    -0.508 OA
ATOM     19  H   UNL     1      33.739   0.138   6.726  1.00  0.00     0.293 HD
ENDBRANCH  15  18
ENDBRANCH   1  12
BRANCH   2  20
ATOM     20  O   UNL     1      34.433  -6.592   4.806  1.00  0.00    -0.502 OA
ATOM     21  H   UNL     1      34.116  -6.278   5.715  1.00  0.00     0.293 HD
ENDBRANCH   2  20
BRANCH   6  22
ATOM     22  O   UNL     1      32.923  -9.483   0.596  1.00  0.00    -0.507 OA
ATOM     23  H   UNL     1      32.750 -10.050   1.413  1.00  0.00     0.293 HD
ENDBRANCH   6  22
BRANCH   8  24
ATOM     24  O   UNL     1      30.863  -6.097  -2.086  1.00  0.00    -0.508 OA
ATOM     25  H   UNL     1      30.809  -5.135  -2.398  1.00  0.00     0.293 HD
ENDBRANCH   8  24
TORSDOF 5
ENDMDL
MODEL 3
REMARK VINA RESULT:    -4.819      3.835      5.967
REMARK INTER + INTRA:          -5.952
REMARK INTER:                  -5.715
REMARK INTRA:                  -0.238
REMARK UNBOUND:                -0.288
REMARK SMILES O=c1c(O)c(-c2ccc(O)cc2)oc2cc(O)cc(O)c12
REMARK SMILES IDX 5 1 3 2 2 3 1 4 21 5 19 6 18 7 16 8 15 9 14 10 13 11 6 12
REMARK SMILES IDX 7 13 8 14 9 15 12 16 11 17 10 18 4 20 20 22 17 24
REMARK H PARENT 10 19 4 21 20 23 17 25
REMARK Flexibility Score: inf
ROOT
ATOM      1  C   UNL     1      33.167  -5.127   3.124  1.00  0.00     0.180 A 
ATOM      2  C   UNL     1      33.616  -6.171   3.951  1.00  0.00     0.208 A 
ATOM      3  C   UNL     1      34.024  -5.875   5.261  1.00  0.00     0.238 A 
ATOM      4  O   UNL     1      34.374  -6.821   6.013  1.00  0.00    -0.285 OA
ATOM      5  C   UNL     1      33.992  -4.537   5.724  1.00  0.00     0.111 A 
ATOM      6  C   UNL     1      34.421  -4.117   7.019  1.00  0.00     0.134 A 
ATOM      7  C   UNL     1      34.222  -2.788   7.414  1.00  0.00     0.093 A 
ATOM      8  C   UNL     1      33.673  -1.851   6.541  1.00  0.00     0.123 A 
ATOM      9  C   UNL     1      33.306  -2.238   5.251  1.00  0.00     0.094 A 
ATOM     10  C   UNL     1      33.459  -3.564   4.840  1.00  0.00     0.146 A 
ATOM     11  O   UNL     1      33.086  -3.893   3.608  1.00  0.00    -0.452 OA
ENDROOT
BRANCH   1  12
ATOM     12  C   UNL     1      32.745  -5.357   1.723  1.00  0.00     0.021 A 
ATOM     13  C   UNL     1      33.719  -5.574   0.735  1.00  0.00     0.016 A 
ATOM     14  C   UNL     1      33.344  -5.817  -0.590  1.00  0.00     0.047 A 
ATOM     15  C   UNL     1      31.991  -5.861  -0.940  1.00  0.00     0.115 A 
ATOM     16  C   UNL     1      31.385  -5.422   1.368  1.00  0.00     0.016 A 
ATOM     17  C   UNL     1      31.012  -5.666   0.043  1.00  0.00     0.047 A 
BRANCH  15  18
ATOM     18  O   UNL     1      31.630  -6.102  -2.264  1.00  0.00    -0.508 OA
ATOM     19  H   UNL     1      30.695  -5.910  -2.601  1.00  0.00     0.293 HD
ENDBRANCH  15  18
ENDBRANCH   1  12
BRANCH   2  20
ATOM     20  O   UNL     1      33.619  -7.488   3.482  1.00  0.00    -0.502 OA
ATOM     21  H   UNL     1      34.377  -7.866   2.926  1.00  0.00     0.293 HD
ENDBRANCH   2  20
BRANCH   6  22
ATOM     22  O   UNL     1      35.065  -4.952   7.936  1.00  0.00    -0.507 OA
ATOM     23  H   UNL     1      34.782  -5.897   8.152  1.00  0.00     0.293 HD
ENDBRANCH   6  22
BRANCH   8  24
ATOM     24  O   UNL     1      33.504  -0.534   6.962  1.00  0.00    -0.508 OA
ATOM     25  H   UNL     1      33.755   0.248   6.370  1.00  0.00     0.293 HD
ENDBRANCH   8  24
TORSDOF 5
ENDMDL
MODEL 4
REMARK VINA RESULT:    -4.754      1.496      3.121
REMARK INTER + INTRA:          -5.876
REMARK INTER:                  -5.589
REMARK INTRA:                  -0.286
REMARK UNBOUND:                -0.288
REMARK SMILES O=c1c(O)c(-c2ccc(O)cc2)oc2cc(O)cc(O)c12
REMARK SMILES IDX 5 1 3 2 2 3 1 4 21 5 19 6 18 7 16 8 15 9 14 10 13 11 6 12
REMARK SMILES IDX 7 13 8 14 9 15 12 16 11 17 10 18 4 20 20 22 17 24
REMARK H PARENT 10 19 4 21 20 23 17 25
REMARK Flexibility Score: inf
ROOT
ATOM      1  C   UNL     1      32.350  -7.366  -2.288  1.00  0.00     0.180 A 
ATOM      2  C   UNL     1      33.652  -6.935  -2.598  1.00  0.00     0.208 A 
ATOM      3  C   UNL     1      34.263  -5.972  -1.780  1.00  0.00     0.238 A 
ATOM      4  O   UNL     1      35.448  -5.630  -2.031  1.00  0.00    -0.285 OA
ATOM      5  C   UNL     1      33.560  -5.440  -0.672  1.00  0.00     0.111 A 
ATOM      6  C   UNL     1      34.067  -4.431   0.201  1.00  0.00     0.134 A 
ATOM      7  C   UNL     1      33.337  -4.074   1.342  1.00  0.00     0.093 A 
ATOM      8  C   UNL     1      32.091  -4.641   1.606  1.00  0.00     0.123 A 
ATOM      9  C   UNL     1      31.560  -5.586   0.727  1.00  0.00     0.094 A 
ATOM     10  C   UNL     1      32.280  -5.988  -0.400  1.00  0.00     0.146 A 
ATOM     11  O   UNL     1      31.743  -6.898  -1.205  1.00  0.00    -0.452 OA
ENDROOT
BRANCH   1  12
ATOM     12  C   UNL     1      31.631  -8.360  -3.119  1.00  0.00     0.021 A 
ATOM     13  C   UNL     1      30.918  -7.928  -4.250  1.00  0.00     0.016 A 
ATOM     14  C   UNL     1      30.251  -8.850  -5.062  1.00  0.00     0.047 A 
ATOM     15  C   UNL     1      30.301 -10.215  -4.762  1.00  0.00     0.115 A 
ATOM     16  C   UNL     1      31.693  -9.736  -2.835  1.00  0.00     0.016 A 
ATOM     17  C   UNL     1      31.026 -10.657  -3.648  1.00  0.00     0.047 A 
BRANCH  15  18
ATOM     18  O   UNL     1      29.630 -11.124  -5.578  1.00  0.00    -0.508 OA
ATOM     19  H   UNL     1      30.036 -11.460  -6.442  1.00  0.00     0.293 HD
ENDBRANCH  15  18
ENDBRANCH   1  12
BRANCH   2  20
ATOM     20  O   UNL     1      34.337  -7.488  -3.684  1.00  0.00    -0.502 OA
ATOM     21  H   UNL     1      35.154  -8.075  -3.571  1.00  0.00     0.293 HD
ENDBRANCH   2  20
BRANCH   6  22
ATOM     22  O   UNL     1      35.259  -3.735  -0.020  1.00  0.00    -0.507 OA
ATOM     23  H   UNL     1      35.799  -3.276   0.698  1.00  0.00     0.293 HD
ENDBRANCH   6  22
BRANCH   8  24
ATOM     24  O   UNL     1      31.385  -4.251   2.742  1.00  0.00    -0.508 OA
ATOM     25  H   UNL     1      31.720  -4.468   3.673  1.00  0.00     0.293 HD
ENDBRANCH   8  24
TORSDOF 5
ENDMDL
MODEL 5
REMARK VINA RESULT:    -4.748      2.098      6.910
REMARK INTER + INTRA:          -5.869
REMARK INTER:                  -5.585
REMARK INTRA:                  -0.284
REMARK UNBOUND:                -0.288
REMARK SMILES O=c1c(O)c(-c2ccc(O)cc2)oc2cc(O)cc(O)c12
REMARK SMILES IDX 5 1 3 2 2 3 1 4 21 5 19 6 18 7 16 8 15 9 14 10 13 11 6 12
REMARK SMILES IDX 7 13 8 14 9 15 12 16 11 17 10 18 4 20 20 22 17 24
REMARK H PARENT 10 19 4 21 20 23 17 25
REMARK Flexibility Score: inf
ROOT
ATOM      1  C   UNL     1      32.879  -6.120  -1.090  1.00  0.00     0.180 A 
ATOM      2  C   UNL     1      33.785  -5.470  -1.948  1.00  0.00     0.208 A 
ATOM      3  C   UNL     1      33.716  -5.723  -3.327  1.00  0.00     0.238 A 
ATOM      4  O   UNL     1      34.493  -5.098  -4.095  1.00  0.00    -0.285 OA
ATOM      5  C   UNL     1      32.756  -6.634  -3.830  1.00  0.00     0.111 A 
ATOM      6  C   UNL     1      32.625  -6.995  -5.205  1.00  0.00     0.134 A 
ATOM      7  C   UNL     1      31.555  -7.806  -5.606  1.00  0.00     0.093 A 
ATOM      8  C   UNL     1      30.652  -8.320  -4.677  1.00  0.00     0.123 A 
ATOM      9  C   UNL     1      30.807  -8.020  -3.322  1.00  0.00     0.094 A 
ATOM     10  C   UNL     1      31.843  -7.186  -2.896  1.00  0.00     0.146 A 
ATOM     11  O   UNL     1      31.948  -6.918  -1.599  1.00  0.00    -0.452 OA
ENDROOT
BRANCH   1  12
ATOM     12  C   UNL     1      32.906  -5.924   0.377  1.00  0.00     0.021 A 
ATOM     13  C   UNL     1      32.185  -4.860   0.945  1.00  0.00     0.016 A 
ATOM     14  C   UNL     1      32.177  -4.669   2.331  1.00  0.00     0.047 A 
ATOM     15  C   UNL     1      32.875  -5.547   3.166  1.00  0.00     0.115 A 
ATOM     16  C   UNL     1      33.590  -6.815   1.225  1.00  0.00     0.016 A 
ATOM     17  C   UNL     1      33.580  -6.623   2.609  1.00  0.00     0.047 A 
BRANCH  15  18
ATOM     18  O   UNL     1      32.860  -5.344   4.544  1.00  0.00    -0.508 OA
ATOM     19  H   UNL     1      33.183  -6.057   5.187  1.00  0.00     0.293 HD
ENDBRANCH  15  18
ENDBRANCH   1  12
BRANCH   2  20
ATOM     20  O   UNL     1      34.711  -4.559  -1.433  1.00  0.00    -0.502 OA
ATOM     21  H   UNL     1      34.529  -4.009  -0.602  1.00  0.00     0.293 HD
ENDBRANCH   2  20
BRANCH   6  22
ATOM     22  O   UNL     1      33.525  -6.611  -6.202  1.00  0.00    -0.507 OA
ATOM     23  H   UNL     1      34.182  -7.230  -6.655  1.00  0.00     0.293 HD
ENDBRANCH   6  22
BRANCH   8  24
ATOM     24  O   UNL     1      29.609  -9.135  -5.109  1.00  0.00    -0.508 OA
ATOM     25  H   UNL     1      29.782  -9.982  -5.637  1.00  0.00     0.293 HD
ENDBRANCH   8  24
TORSDOF 5
ENDMDL
MODEL 6
REMARK VINA RESULT:    -4.738      2.808      7.251
REMARK INTER + INTRA:          -5.857
REMARK INTER:                  -5.556
REMARK INTRA:                  -0.300
REMARK UNBOUND:                -0.288
REMARK SMILES O=c1c(O)c(-c2ccc(O)cc2)oc2cc(O)cc(O)c12
REMARK SMILES IDX 5 1 3 2 2 3 1 4 21 5 19 6 18 7 16 8 15 9 14 10 13 11 6 12
REMARK SMILES IDX 7 13 8 14 9 15 12 16 11 17 10 18 4 20 20 22 17 24
REMARK H PARENT 10 19 4 21 20 23 17 25
REMARK Flexibility Score: inf
ROOT
ATOM      1  C   UNL     1      33.353  -5.016   2.407  1.00  0.00     0.180 A 
ATOM      2  C   UNL     1      32.057  -4.891   1.876  1.00  0.00     0.208 A 
ATOM      3  C   UNL     1      31.815  -5.329   0.564  1.00  0.00     0.238 A 
ATOM      4  O   UNL     1      30.641  -5.265   0.114  1.00  0.00    -0.285 OA
ATOM      5  C   UNL     1      32.873  -5.870  -0.205  1.00  0.00     0.111 A 
ATOM      6  C   UNL     1      32.749  -6.307  -1.559  1.00  0.00     0.134 A 
ATOM      7  C   UNL     1      33.830  -6.946  -2.179  1.00  0.00     0.093 A 
ATOM      8  C   UNL     1      35.048  -7.105  -1.520  1.00  0.00     0.123 A 
ATOM      9  C   UNL     1      35.198  -6.628  -0.217  1.00  0.00     0.094 A 
ATOM     10  C   UNL     1      34.127  -6.018   0.441  1.00  0.00     0.146 A 
ATOM     11  O   UNL     1      34.309  -5.588   1.684  1.00  0.00    -0.452 OA
ENDROOT
BRANCH   1  12
ATOM     12  C   UNL     1      33.692  -4.554   3.773  1.00  0.00     0.021 A 
ATOM     13  C   UNL     1      33.644  -5.464   4.842  1.00  0.00     0.016 A 
ATOM     14  C   UNL     1      33.982  -5.056   6.136  1.00  0.00     0.047 A 
ATOM     15  C   UNL     1      34.386  -3.739   6.375  1.00  0.00     0.115 A 
ATOM     16  C   UNL     1      34.119  -3.236   4.017  1.00  0.00     0.016 A 
ATOM     17  C   UNL     1      34.457  -2.830   5.311  1.00  0.00     0.047 A 
BRANCH  15  18
ATOM     18  O   UNL     1      34.719  -3.345   7.670  1.00  0.00    -0.508 OA
ATOM     19  H   UNL     1      35.647  -3.012   7.900  1.00  0.00     0.293 HD
ENDBRANCH  15  18
ENDBRANCH   1  12
BRANCH   2  20
ATOM     20  O   UNL     1      31.022  -4.374   2.660  1.00  0.00    -0.502 OA
ATOM     21  H   UNL     1      30.462  -4.954   3.274  1.00  0.00     0.293 HD
ENDBRANCH   2  20
BRANCH   6  22
ATOM     22  O   UNL     1      31.606  -6.115  -2.339  1.00  0.00    -0.507 OA
ATOM     23  H   UNL     1      31.540  -6.325  -3.324  1.00  0.00     0.293 HD
ENDBRANCH   6  22
BRANCH   8  24
ATOM     24  O   UNL     1      36.107  -7.732  -2.173  1.00  0.00    -0.508 OA
ATOM     25  H   UNL     1      36.839  -7.199  -2.627  1.00  0.00     0.293 HD
ENDBRANCH   8  24
TORSDOF 5
ENDMDL
MODEL 7
REMARK VINA RESULT:    -4.716      2.047      6.601
REMARK INTER + INTRA:          -5.830
REMARK INTER:                  -5.547
REMARK INTRA:                  -0.284
REMARK UNBOUND:                -0.288
REMARK SMILES O=c1c(O)c(-c2ccc(O)cc2)oc2cc(O)cc(O)c12
REMARK SMILES IDX 5 1 3 2 2 3 1 4 21 5 19 6 18 7 16 8 15 9 14 10 13 11 6 12
REMARK SMILES IDX 7 13 8 14 9 15 12 16 11 17 10 18 4 20 20 22 17 24
REMARK H PARENT 10 19 4 21 20 23 17 25
REMARK Flexibility Score: inf
ROOT
ATOM      1  C   UNL     1      32.252  -7.117  -1.109  1.00  0.00     0.180 A 
ATOM      2  C   UNL     1      31.722  -8.419  -1.141  1.00  0.00     0.208 A 
ATOM      3  C   UNL     1      31.632  -9.087  -2.373  1.00  0.00     0.238 A 
ATOM      4  O   UNL     1      31.207 -10.272  -2.388  1.00  0.00    -0.285 OA
ATOM      5  C   UNL     1      32.058  -8.440  -3.558  1.00  0.00     0.111 A 
ATOM      6  C   UNL     1      31.974  -9.008  -4.866  1.00  0.00     0.134 A 
ATOM      7  C   UNL     1      32.545  -8.330  -5.950  1.00  0.00     0.093 A 
ATOM      8  C   UNL     1      33.137  -7.078  -5.786  1.00  0.00     0.123 A 
ATOM      9  C   UNL     1      33.171  -6.488  -4.522  1.00  0.00     0.094 A 
ATOM     10  C   UNL     1      32.641  -7.155  -3.415  1.00  0.00     0.146 A 
ATOM     11  O   UNL     1      32.704  -6.563  -2.228  1.00  0.00    -0.452 OA
ENDROOT
BRANCH   1  12
ATOM     12  C   UNL     1      32.356  -6.340   0.147  1.00  0.00     0.021 A 
ATOM     13  C   UNL     1      31.301  -5.491   0.523  1.00  0.00     0.016 A 
ATOM     14  C   UNL     1      31.366  -4.766   1.717  1.00  0.00     0.047 A 
ATOM     15  C   UNL     1      32.478  -4.890   2.556  1.00  0.00     0.115 A 
ATOM     16  C   UNL     1      33.462  -6.476   1.006  1.00  0.00     0.016 A 
ATOM     17  C   UNL     1      33.525  -5.750   2.198  1.00  0.00     0.047 A 
BRANCH  15  18
ATOM     18  O   UNL     1      32.531  -4.160   3.741  1.00  0.00    -0.508 OA
ATOM     19  H   UNL     1      32.744  -3.170   3.744  1.00  0.00     0.293 HD
ENDBRANCH  15  18
ENDBRANCH   1  12
BRANCH   2  20
ATOM     20  O   UNL     1      31.328  -9.047   0.043  1.00  0.00    -0.502 OA
ATOM     21  H   UNL     1      31.929  -9.689   0.545  1.00  0.00     0.293 HD
ENDBRANCH   2  20
BRANCH   6  22
ATOM     22  O   UNL     1      31.323 -10.210  -5.154  1.00  0.00    -0.507 OA
ATOM     23  H   UNL     1      31.769 -11.116  -5.171  1.00  0.00     0.293 HD
ENDBRANCH   6  22
BRANCH   8  24
ATOM     24  O   UNL     1      33.682  -6.425  -6.889  1.00  0.00    -0.508 OA
ATOM     25  H   UNL     1      34.682  -6.305  -6.993  1.00  0.00     0.293 HD
ENDBRANCH   8  24
TORSDOF 5
ENDMDL
MODEL 8
REMARK VINA RESULT:    -4.712     14.030     15.780
REMARK INTER + INTRA:          -5.827
REMARK INTER:                  -5.531
REMARK INTRA:                  -0.296
REMARK UNBOUND:                -0.288
REMARK SMILES O=c1c(O)c(-c2ccc(O)cc2)oc2cc(O)cc(O)c12
REMARK SMILES IDX 5 1 3 2 2 3 1 4 21 5 19 6 18 7 16 8 15 9 14 10 13 11 6 12
REMARK SMILES IDX 7 13 8 14 9 15 12 16 11 17 10 18 4 20 20 22 17 24
REMARK H PARENT 10 19 4 21 20 23 17 25
REMARK Flexibility Score: inf
ROOT
ATOM      1  C   UNL     1      29.205   7.426   2.109  1.00  0.00     0.180 A 
ATOM      2  C   UNL     1      28.568   7.313   3.357  1.00  0.00     0.208 A 
ATOM      3  C   UNL     1      27.169   7.203   3.399  1.00  0.00     0.238 A 
ATOM      4  O   UNL     1      26.609   7.048   4.515  1.00  0.00    -0.285 OA
ATOM      5  C   UNL     1      26.424   7.225   2.196  1.00  0.00     0.111 A 
ATOM      6  C   UNL     1      24.999   7.161   2.123  1.00  0.00     0.134 A 
ATOM      7  C   UNL     1      24.376   7.058   0.873  1.00  0.00     0.093 A 
ATOM      8  C   UNL     1      25.118   7.082  -0.307  1.00  0.00     0.123 A 
ATOM      9  C   UNL     1      26.508   7.204  -0.248  1.00  0.00     0.094 A 
ATOM     10  C   UNL     1      27.161   7.273   0.984  1.00  0.00     0.146 A 
ATOM     11  O   UNL     1      28.484   7.377   0.995  1.00  0.00    -0.452 OA
ENDROOT
BRANCH   1  12
ATOM     12  C   UNL     1      30.674   7.571   1.985  1.00  0.00     0.021 A 
ATOM     13  C   UNL     1      31.461   6.437   1.724  1.00  0.00     0.016 A 
ATOM     14  C   UNL     1      32.847   6.554   1.580  1.00  0.00     0.047 A 
ATOM     15  C   UNL     1      33.462   7.805   1.681  1.00  0.00     0.115 A 
ATOM     16  C   UNL     1      31.297   8.831   2.066  1.00  0.00     0.016 A 
ATOM     17  C   UNL     1      32.682   8.945   1.921  1.00  0.00     0.047 A 
BRANCH  15  18
ATOM     18  O   UNL     1      34.844   7.907   1.537  1.00  0.00    -0.508 OA
ATOM     19  H   UNL     1      35.464   7.858   2.336  1.00  0.00     0.293 HD
ENDBRANCH  15  18
ENDBRANCH   1  12
BRANCH   2  20
ATOM     20  O   UNL     1      29.324   7.273   4.532  1.00  0.00    -0.502 OA
ATOM     21  H   UNL     1      29.403   6.438   5.100  1.00  0.00     0.293 HD
ENDBRANCH   2  20
BRANCH   6  22
ATOM     22  O   UNL     1      24.158   7.223   3.238  1.00  0.00    -0.507 OA
ATOM     23  H   UNL     1      23.347   6.639   3.379  1.00  0.00     0.293 HD
ENDBRANCH   6  22
BRANCH   8  24
ATOM     24  O   UNL     1      24.464   6.993  -1.533  1.00  0.00    -0.508 OA
ATOM     25  H   UNL     1      23.863   7.736  -1.868  1.00  0.00     0.293 HD
ENDBRANCH   8  24
TORSDOF 5
ENDMDL
MODEL 9
REMARK VINA RESULT:    -4.689      3.890      8.168
REMARK INTER + INTRA:          -5.799
REMARK INTER:                  -5.568
REMARK INTRA:                  -0.231
REMARK UNBOUND:                -0.288
REMARK SMILES O=c1c(O)c(-c2ccc(O)cc2)oc2cc(O)cc(O)c12
REMARK SMILES IDX 5 1 3 2 2 3 1 4 21 5 19 6 18 7 16 8 15 9 14 10 13 11 6 12
REMARK SMILES IDX 7 13 8 14 9 15 12 16 11 17 10 18 4 20 20 22 17 24
REMARK H PARENT 10 19 4 21 20 23 17 25
REMARK Flexibility Score: inf
ROOT
ATOM      1  C   UNL     1      33.099  -5.147   3.447  1.00  0.00     0.180 A 
ATOM      2  C   UNL     1      32.592  -4.951   2.151  1.00  0.00     0.208 A 
ATOM      3  C   UNL     1      32.537  -6.043   1.270  1.00  0.00     0.238 A 
ATOM      4  O   UNL     1      32.032  -5.874   0.129  1.00  0.00    -0.285 OA
ATOM      5  C   UNL     1      33.005  -7.312   1.689  1.00  0.00     0.111 A 
ATOM      6  C   UNL     1      33.034  -8.478   0.866  1.00  0.00     0.134 A 
ATOM      7  C   UNL     1      33.396  -9.709   1.426  1.00  0.00     0.093 A 
ATOM      8  C   UNL     1      33.791  -9.806   2.760  1.00  0.00     0.123 A 
ATOM      9  C   UNL     1      33.823  -8.661   3.557  1.00  0.00     0.094 A 
ATOM     10  C   UNL     1      33.434  -7.425   3.037  1.00  0.00     0.146 A 
ATOM     11  O   UNL     1      33.469  -6.363   3.833  1.00  0.00    -0.452 OA
ENDROOT
BRANCH   1  12
ATOM     12  C   UNL     1      33.212  -4.039   4.424  1.00  0.00     0.021 A 
ATOM     13  C   UNL     1      32.363  -4.017   5.544  1.00  0.00     0.016 A 
ATOM     14  C   UNL     1      32.468  -2.993   6.491  1.00  0.00     0.047 A 
ATOM     15  C   UNL     1      33.429  -1.990   6.340  1.00  0.00     0.115 A 
ATOM     16  C   UNL     1      34.190  -3.038   4.288  1.00  0.00     0.016 A 
ATOM     17  C   UNL     1      34.293  -2.016   5.237  1.00  0.00     0.047 A 
BRANCH  15  18
ATOM     18  O   UNL     1      33.521  -0.975   7.290  1.00  0.00    -0.508 OA
ATOM     19  H   UNL     1      34.193  -1.017   8.046  1.00  0.00     0.293 HD
ENDBRANCH  15  18
ENDBRANCH   1  12
BRANCH   2  20
ATOM     20  O   UNL     1      32.115  -3.696   1.764  1.00  0.00    -0.502 OA
ATOM     21  H   UNL     1      31.338  -3.582   1.124  1.00  0.00     0.293 HD
ENDBRANCH   2  20
BRANCH   6  22
ATOM     22  O   UNL     1      32.746  -8.474  -0.502  1.00  0.00    -0.507 OA
ATOM     23  H   UNL     1      32.174  -7.785  -0.967  1.00  0.00     0.293 HD
ENDBRANCH   6  22
BRANCH   8  24
ATOM     24  O   UNL     1      34.159 -11.045   3.280  1.00  0.00    -0.508 OA
ATOM     25  H   UNL     1      34.088 -11.892   2.730  1.00  0.00     0.293 HD
ENDBRANCH   8  24
TORSDOF 5
ENDMDL
