MODEL 1
REMARK VINA RESULT:    -6.571      0.000      0.000
REMARK INTER + INTRA:          -9.532
REMARK INTER:                  -8.876
REMARK INTRA:                  -0.655
REMARK UNBOUND:                -0.655
REMARK SMILES COc1ccc(-c2cc(=O)c3c(OC)c(OC)c(OC)cc3o2)cc1OC
REMARK SMILES IDX 7 1 8 2 9 3 10 4 11 5 12 6 15 7 18 8 21 9 22 10 23 11 6 12
REMARK SMILES IDX 3 13 25 14 4 15 24 16 5 17 2 18 1 19 26 20 27 21 13 22 14 23
REMARK SMILES IDX 19 24 20 25 16 26 17 27
REMARK H PARENT
REMARK Flexibility Score: inf
ROOT
ATOM      1  C   UNL     1     100.283 104.253 112.717  1.00  0.00     0.138 A 
ATOM      2  C   UNL     1      99.431 105.343 112.955  1.00  0.00     0.100 A 
ATOM      3  C   UNL     1      98.664 105.372 114.120  1.00  0.00     0.197 A 
ATOM      4  O   UNL     1      97.911 106.362 114.329  1.00  0.00    -0.289 OA
ATOM      5  C   UNL     1      98.755 104.308 115.042  1.00  0.00     0.111 A 
ATOM      6  C   UNL     1      97.997 104.250 116.237  1.00  0.00     0.179 A 
ATOM      7  C   UNL     1      98.191 103.181 117.144  1.00  0.00     0.204 A 
ATOM      8  C   UNL     1      99.063 102.132 116.815  1.00  0.00     0.168 A 
ATOM      9  C   UNL     1      99.782 102.175 115.610  1.00  0.00     0.098 A 
ATOM     10  C   UNL     1      99.643 103.253 114.736  1.00  0.00     0.146 A 
ATOM     11  O   UNL     1     100.355 103.271 113.613  1.00  0.00    -0.456 OA
ENDROOT
BRANCH   1  12
ATOM     12  C   UNL     1     101.124 104.171 111.496  1.00  0.00     0.021 A 
ATOM     13  C   UNL     1     102.737 103.968 109.188  1.00  0.00     0.160 A 
ATOM     14  C   UNL     1     102.917 103.068 110.248  1.00  0.00     0.161 A 
ATOM     15  C   UNL     1     101.746 104.961 109.279  1.00  0.00     0.051 A 
ATOM     16  C   UNL     1     102.104 103.169 111.395  1.00  0.00     0.062 A 
ATOM     17  C   UNL     1     100.946 105.058 110.420  1.00  0.00     0.016 A 
BRANCH  13  18
ATOM     18  O   UNL     1     103.562 103.843 108.059  1.00  0.00    -0.493 OA
ATOM     19  C   UNL     1     104.602 104.753 107.712  1.00  0.00     0.278 C 
ENDBRANCH  13  18
BRANCH  14  20
ATOM     20  O   UNL     1     103.916 102.089 110.128  1.00  0.00    -0.493 OA
ATOM     21  C   UNL     1     105.217 102.185 110.701  1.00  0.00     0.278 C 
ENDBRANCH  14  20
ENDBRANCH   1  12
BRANCH   6  22
ATOM     22  O   UNL     1      97.033 105.225 116.499  1.00  0.00    -0.492 OA
ATOM     23  C   UNL     1      95.644 104.938 116.363  1.00  0.00     0.278 C 
ENDBRANCH   6  22
BRANCH   8  24
ATOM     24  O   UNL     1      99.198 101.071 117.725  1.00  0.00    -0.493 OA
ATOM     25  C   UNL     1      98.411  99.882 117.705  1.00  0.00     0.278 C 
ENDBRANCH   8  24
BRANCH   7  26
ATOM     26  O   UNL     1      97.538 103.117 118.386  1.00  0.00    -0.490 OA
ATOM     27  C   UNL     1      97.995 103.766 119.571  1.00  0.00     0.278 C 
ENDBRANCH   7  26
TORSDOF 6
ENDMDL
MODEL 2
REMARK VINA RESULT:    -6.557      5.936      9.125
REMARK INTER + INTRA:          -9.512
REMARK INTER:                  -8.862
REMARK INTRA:                  -0.649
REMARK UNBOUND:                -0.655
REMARK SMILES COc1ccc(-c2cc(=O)c3c(OC)c(OC)c(OC)cc3o2)cc1OC
REMARK SMILES IDX 7 1 8 2 9 3 10 4 11 5 12 6 15 7 18 8 21 9 22 10 23 11 6 12
REMARK SMILES IDX 3 13 25 14 4 15 24 16 5 17 2 18 1 19 26 20 27 21 13 22 14 23
REMARK SMILES IDX 19 24 20 25 16 26 17 27
REMARK H PARENT
REMARK Flexibility Score: inf
ROOT
ATOM      1  C   UNL     1     107.155 103.102 112.634  1.00  0.00     0.138 A 
ATOM      2  C   UNL     1     108.087 102.059 112.759  1.00  0.00     0.100 A 
ATOM      3  C   UNL     1     108.917 102.012 113.879  1.00  0.00     0.197 A 
ATOM      4  O   UNL     1     109.742 101.065 113.985  1.00  0.00    -0.289 OA
ATOM      5  C   UNL     1     108.808 103.010 114.870  1.00  0.00     0.111 A 
ATOM      6  C   UNL     1     109.626 103.047 116.026  1.00  0.00     0.179 A 
ATOM      7  C   UNL     1     109.414 104.043 117.008  1.00  0.00     0.204 A 
ATOM      8  C   UNL     1     108.460 105.049 116.792  1.00  0.00     0.168 A 
ATOM      9  C   UNL     1     107.680 105.031 115.624  1.00  0.00     0.098 A 
ATOM     10  C   UNL     1     107.839 104.019 114.678  1.00  0.00     0.146 A 
ATOM     11  O   UNL     1     107.070 104.021 113.593  1.00  0.00    -0.456 OA
ENDROOT
BRANCH   1  12
ATOM     12  C   UNL     1     106.245 103.201 111.465  1.00  0.00     0.021 A 
ATOM     13  C   UNL     1     104.501 103.435 109.257  1.00  0.00     0.160 A 
ATOM     14  C   UNL     1     104.389 104.327 110.334  1.00  0.00     0.161 A 
ATOM     15  C   UNL     1     105.488 102.435 109.282  1.00  0.00     0.051 A 
ATOM     16  C   UNL     1     105.268 104.210 111.430  1.00  0.00     0.062 A 
ATOM     17  C   UNL     1     106.353 102.322 110.373  1.00  0.00     0.016 A 
BRANCH  13  18
ATOM     18  O   UNL     1     103.612 103.576 108.179  1.00  0.00    -0.493 OA
ATOM     19  C   UNL     1     102.846 102.513 107.619  1.00  0.00     0.278 C 
ENDBRANCH  13  18
BRANCH  14  20
ATOM     20  O   UNL     1     103.392 105.313 110.281  1.00  0.00    -0.493 OA
ATOM     21  C   UNL     1     102.078 105.165 110.810  1.00  0.00     0.278 C 
ENDBRANCH  14  20
ENDBRANCH   1  12
BRANCH   6  22
ATOM     22  O   UNL     1     110.663 102.125 116.176  1.00  0.00    -0.492 OA
ATOM     23  C   UNL     1     112.022 102.515 115.996  1.00  0.00     0.278 C 
ENDBRANCH   6  22
BRANCH   8  24
ATOM     24  O   UNL     1     108.307 106.042 117.773  1.00  0.00    -0.493 OA
ATOM     25  C   UNL     1     108.881 107.345 117.703  1.00  0.00     0.278 C 
ENDBRANCH   8  24
BRANCH   7  26
ATOM     26  O   UNL     1     110.129 104.077 118.217  1.00  0.00    -0.490 OA
ATOM     27  C   UNL     1     109.803 103.297 119.366  1.00  0.00     0.278 C 
ENDBRANCH   7  26
TORSDOF 6
ENDMDL
MODEL 3
REMARK VINA RESULT:    -6.490      1.159      1.900
REMARK INTER + INTRA:          -9.421
REMARK INTER:                  -8.715
REMARK INTRA:                  -0.706
REMARK UNBOUND:                -0.655
REMARK SMILES COc1ccc(-c2cc(=O)c3c(OC)c(OC)c(OC)cc3o2)cc1OC
REMARK SMILES IDX 7 1 8 2 9 3 10 4 11 5 12 6 15 7 18 8 21 9 22 10 23 11 6 12
REMARK SMILES IDX 3 13 25 14 4 15 24 16 5 17 2 18 1 19 26 20 27 21 13 22 14 23
REMARK SMILES IDX 19 24 20 25 16 26 17 27
REMARK H PARENT
REMARK Flexibility Score: inf
ROOT
ATOM      1  C   UNL     1     100.544 103.546 112.891  1.00  0.00     0.138 A 
ATOM      2  C   UNL     1      99.669 104.638 112.782  1.00  0.00     0.100 A 
ATOM      3  C   UNL     1      98.858 104.976 113.866  1.00  0.00     0.197 A 
ATOM      4  O   UNL     1      98.084 105.966 113.761  1.00  0.00    -0.289 OA
ATOM      5  C   UNL     1      98.930 104.219 115.055  1.00  0.00     0.111 A 
ATOM      6  C   UNL     1      98.128 104.484 116.191  1.00  0.00     0.179 A 
ATOM      7  C   UNL     1      98.303 103.720 117.370  1.00  0.00     0.204 A 
ATOM      8  C   UNL     1      99.201 102.642 117.381  1.00  0.00     0.168 A 
ATOM      9  C   UNL     1      99.965 102.360 116.236  1.00  0.00     0.098 A 
ATOM     10  C   UNL     1      99.844 103.143 115.088  1.00  0.00     0.146 A 
ATOM     11  O   UNL     1     100.596 102.860 114.030  1.00  0.00    -0.456 OA
ENDROOT
BRANCH   1  12
ATOM     12  C   UNL     1     101.431 103.142 111.770  1.00  0.00     0.021 A 
ATOM     13  C   UNL     1     103.112 102.420 109.620  1.00  0.00     0.160 A 
ATOM     14  C   UNL     1     102.315 103.571 109.528  1.00  0.00     0.161 A 
ATOM     15  C   UNL     1     103.074 101.639 110.788  1.00  0.00     0.051 A 
ATOM     16  C   UNL     1     101.483 103.930 110.608  1.00  0.00     0.062 A 
ATOM     17  C   UNL     1     102.246 101.999 111.853  1.00  0.00     0.016 A 
BRANCH  13  18
ATOM     18  O   UNL     1     103.930 102.087 108.528  1.00  0.00    -0.493 OA
ATOM     19  C   UNL     1     105.332 102.329 108.464  1.00  0.00     0.278 C 
ENDBRANCH  13  18
BRANCH  14  20
ATOM     20  O   UNL     1     102.373 104.328 108.348  1.00  0.00    -0.493 OA
ATOM     21  C   UNL     1     103.112 105.536 108.198  1.00  0.00     0.278 C 
ENDBRANCH  14  20
ENDBRANCH   1  12
BRANCH   6  22
ATOM     22  O   UNL     1      97.141 105.469 116.136  1.00  0.00    -0.492 OA
ATOM     23  C   UNL     1      95.764 105.122 116.019  1.00  0.00     0.278 C 
ENDBRANCH   6  22
BRANCH   8  24
ATOM     24  O   UNL     1      99.318 101.885 118.558  1.00  0.00    -0.493 OA
ATOM     25  C   UNL     1     100.407 101.975 119.473  1.00  0.00     0.278 C 
ENDBRANCH   8  24
BRANCH   7  26
ATOM     26  O   UNL     1      97.605 103.994 118.558  1.00  0.00    -0.490 OA
ATOM     27  C   UNL     1      97.957 105.024 119.480  1.00  0.00     0.278 C 
ENDBRANCH   7  26
TORSDOF 6
ENDMDL
MODEL 4
REMARK VINA RESULT:    -6.464      6.714      8.421
REMARK INTER + INTRA:          -9.387
REMARK INTER:                  -8.722
REMARK INTRA:                  -0.665
REMARK UNBOUND:                -0.655
REMARK SMILES COc1ccc(-c2cc(=O)c3c(OC)c(OC)c(OC)cc3o2)cc1OC
REMARK SMILES IDX 7 1 8 2 9 3 10 4 11 5 12 6 15 7 18 8 21 9 22 10 23 11 6 12
REMARK SMILES IDX 3 13 25 14 4 15 24 16 5 17 2 18 1 19 26 20 27 21 13 22 14 23
REMARK SMILES IDX 19 24 20 25 16 26 17 27
REMARK H PARENT
REMARK Flexibility Score: inf
ROOT
ATOM      1  C   UNL     1     106.676 103.990 113.069  1.00  0.00     0.138 A 
ATOM      2  C   UNL     1     107.559 102.898 113.051  1.00  0.00     0.100 A 
ATOM      3  C   UNL     1     108.267 102.571 114.208  1.00  0.00     0.197 A 
ATOM      4  O   UNL     1     109.048 101.581 114.184  1.00  0.00    -0.289 OA
ATOM      5  C   UNL     1     108.085 103.338 115.378  1.00  0.00     0.111 A 
ATOM      6  C   UNL     1     108.778 103.086 116.586  1.00  0.00     0.179 A 
ATOM      7  C   UNL     1     108.495 103.859 117.737  1.00  0.00     0.204 A 
ATOM      8  C   UNL     1     107.599 104.936 117.655  1.00  0.00     0.168 A 
ATOM      9  C   UNL     1     106.944 105.207 116.443  1.00  0.00     0.098 A 
ATOM     10  C   UNL     1     107.171 104.413 115.318  1.00  0.00     0.146 A 
ATOM     11  O   UNL     1     106.519 104.686 114.192  1.00  0.00    -0.456 OA
ENDROOT
BRANCH   1  12
ATOM     12  C   UNL     1     105.896 104.382 111.868  1.00  0.00     0.021 A 
ATOM     13  C   UNL     1     104.419 105.082 109.566  1.00  0.00     0.160 A 
ATOM     14  C   UNL     1     105.197 103.915 109.569  1.00  0.00     0.161 A 
ATOM     15  C   UNL     1     104.373 105.891 110.715  1.00  0.00     0.051 A 
ATOM     16  C   UNL     1     105.926 103.567 110.724  1.00  0.00     0.062 A 
ATOM     17  C   UNL     1     105.101 105.542 111.855  1.00  0.00     0.016 A 
BRANCH  13  18
ATOM     18  O   UNL     1     103.703 105.404 108.401  1.00  0.00    -0.493 OA
ATOM     19  C   UNL     1     102.314 105.154 108.211  1.00  0.00     0.278 C 
ENDBRANCH  13  18
BRANCH  14  20
ATOM     20  O   UNL     1     105.224 103.130 108.406  1.00  0.00    -0.493 OA
ATOM     21  C   UNL     1     104.491 101.922 108.229  1.00  0.00     0.278 C 
ENDBRANCH  14  20
ENDBRANCH   1  12
BRANCH   6  22
ATOM     22  O   UNL     1     109.767 102.101 116.631  1.00  0.00    -0.492 OA
ATOM     23  C   UNL     1     111.148 102.450 116.670  1.00  0.00     0.278 C 
ENDBRANCH   6  22
BRANCH   8  24
ATOM     24  O   UNL     1     107.374 105.703 118.810  1.00  0.00    -0.493 OA
ATOM     25  C   UNL     1     108.031 106.934 119.105  1.00  0.00     0.278 C 
ENDBRANCH   8  24
BRANCH   7  26
ATOM     26  O   UNL     1     109.081 103.597 118.987  1.00  0.00    -0.490 OA
ATOM     27  C   UNL     1     108.666 102.556 119.868  1.00  0.00     0.278 C 
ENDBRANCH   7  26
TORSDOF 6
ENDMDL
MODEL 5
REMARK VINA RESULT:    -6.463      2.865      8.360
REMARK INTER + INTRA:          -9.386
REMARK INTER:                  -9.017
REMARK INTRA:                  -0.368
REMARK UNBOUND:                -0.655
REMARK SMILES COc1ccc(-c2cc(=O)c3c(OC)c(OC)c(OC)cc3o2)cc1OC
REMARK SMILES IDX 7 1 8 2 9 3 10 4 11 5 12 6 15 7 18 8 21 9 22 10 23 11 6 12
REMARK SMILES IDX 3 13 25 14 4 15 24 16 5 17 2 18 1 19 26 20 27 21 13 22 14 23
REMARK SMILES IDX 19 24 20 25 16 26 17 27
REMARK H PARENT
REMARK Flexibility Score: inf
ROOT
ATOM      1  C   UNL     1     100.146 105.300 112.361  1.00  0.00     0.138 A 
ATOM      2  C   UNL     1     100.454 104.185 113.157  1.00  0.00     0.100 A 
ATOM      3  C   UNL     1     101.360 103.235 112.684  1.00  0.00     0.197 A 
ATOM      4  O   UNL     1     101.638 102.245 113.413  1.00  0.00    -0.289 OA
ATOM      5  C   UNL     1     101.955 103.408 111.417  1.00  0.00     0.111 A 
ATOM      6  C   UNL     1     102.868 102.482 110.856  1.00  0.00     0.179 A 
ATOM      7  C   UNL     1     103.472 102.756 109.606  1.00  0.00     0.204 A 
ATOM      8  C   UNL     1     103.095 103.896 108.880  1.00  0.00     0.168 A 
ATOM      9  C   UNL     1     102.159 104.791 109.424  1.00  0.00     0.098 A 
ATOM     10  C   UNL     1     101.601 104.561 110.682  1.00  0.00     0.146 A 
ATOM     11  O   UNL     1     100.733 105.439 111.175  1.00  0.00    -0.456 OA
ENDROOT
BRANCH   1  12
ATOM     12  C   UNL     1      99.190 106.343 112.813  1.00  0.00     0.021 A 
ATOM     13  C   UNL     1      97.347 108.289 113.698  1.00  0.00     0.160 A 
ATOM     14  C   UNL     1      97.021 106.928 113.786  1.00  0.00     0.161 A 
ATOM     15  C   UNL     1      98.595 108.674 113.177  1.00  0.00     0.051 A 
ATOM     16  C   UNL     1      97.949 105.960 113.350  1.00  0.00     0.062 A 
ATOM     17  C   UNL     1      99.507 107.710 112.743  1.00  0.00     0.016 A 
BRANCH  13  18
ATOM     18  O   UNL     1      96.403 109.231 114.140  1.00  0.00    -0.493 OA
ATOM     19  C   UNL     1      95.550 109.984 113.283  1.00  0.00     0.278 C 
ENDBRANCH  13  18
BRANCH  14  20
ATOM     20  O   UNL     1      95.768 106.575 114.308  1.00  0.00    -0.493 OA
ATOM     21  C   UNL     1      95.540 105.494 115.207  1.00  0.00     0.278 C 
ENDBRANCH  14  20
ENDBRANCH   1  12
BRANCH   6  22
ATOM     22  O   UNL     1     103.141 101.283 111.517  1.00  0.00    -0.492 OA
ATOM     23  C   UNL     1     104.338 101.118 112.271  1.00  0.00     0.278 C 
ENDBRANCH   6  22
BRANCH   8  24
ATOM     24  O   UNL     1     103.690 104.113 107.627  1.00  0.00    -0.493 OA
ATOM     25  C   UNL     1     104.745 105.040 107.381  1.00  0.00     0.278 C 
ENDBRANCH   8  24
BRANCH   7  26
ATOM     26  O   UNL     1     104.453 101.924 109.042  1.00  0.00    -0.490 OA
ATOM     27  C   UNL     1     105.858 102.114 109.200  1.00  0.00     0.278 C 
ENDBRANCH   7  26
TORSDOF 6
ENDMDL
MODEL 6
REMARK VINA RESULT:    -6.463      5.973      8.621
REMARK INTER + INTRA:          -9.385
REMARK INTER:                  -8.759
REMARK INTRA:                  -0.626
REMARK UNBOUND:                -0.655
REMARK SMILES COc1ccc(-c2cc(=O)c3c(OC)c(OC)c(OC)cc3o2)cc1OC
REMARK SMILES IDX 7 1 8 2 9 3 10 4 11 5 12 6 15 7 18 8 21 9 22 10 23 11 6 12
REMARK SMILES IDX 3 13 25 14 4 15 24 16 5 17 2 18 1 19 26 20 27 21 13 22 14 23
REMARK SMILES IDX 19 24 20 25 16 26 17 27
REMARK H PARENT
REMARK Flexibility Score: inf
ROOT
ATOM      1  C   UNL     1     106.382 103.826 112.431  1.00  0.00     0.138 A 
ATOM      2  C   UNL     1     105.884 104.645 113.456  1.00  0.00     0.100 A 
ATOM      3  C   UNL     1     106.590 104.748 114.655  1.00  0.00     0.197 A 
ATOM      4  O   UNL     1     106.139 105.496 115.564  1.00  0.00    -0.289 OA
ATOM      5  C   UNL     1     107.794 104.031 114.820  1.00  0.00     0.111 A 
ATOM      6  C   UNL     1     108.559 104.066 116.010  1.00  0.00     0.179 A 
ATOM      7  C   UNL     1     109.790 103.370 116.077  1.00  0.00     0.204 A 
ATOM      8  C   UNL     1     110.204 102.571 115.000  1.00  0.00     0.168 A 
ATOM      9  C   UNL     1     109.419 102.509 113.837  1.00  0.00     0.098 A 
ATOM     10  C   UNL     1     108.234 103.238 113.737  1.00  0.00     0.146 A 
ATOM     11  O   UNL     1     107.527 103.172 112.614  1.00  0.00    -0.456 OA
ENDROOT
BRANCH   1  12
ATOM     12  C   UNL     1     105.674 103.680 111.133  1.00  0.00     0.021 A 
ATOM     13  C   UNL     1     104.305 103.447 108.675  1.00  0.00     0.160 A 
ATOM     14  C   UNL     1     103.902 104.411 109.611  1.00  0.00     0.161 A 
ATOM     15  C   UNL     1     105.396 102.609 108.966  1.00  0.00     0.051 A 
ATOM     16  C   UNL     1     104.594 104.527 110.834  1.00  0.00     0.062 A 
ATOM     17  C   UNL     1     106.075 102.727 110.180  1.00  0.00     0.016 A 
BRANCH  13  18
ATOM     18  O   UNL     1     103.597 103.354 107.466  1.00  0.00    -0.493 OA
ATOM     19  C   UNL     1     102.472 102.506 107.251  1.00  0.00     0.278 C 
ENDBRANCH  13  18
BRANCH  14  20
ATOM     20  O   UNL     1     102.808 105.230 109.293  1.00  0.00    -0.493 OA
ATOM     21  C   UNL     1     101.516 105.121 109.883  1.00  0.00     0.278 C 
ENDBRANCH  14  20
ENDBRANCH   1  12
BRANCH   6  22
ATOM     22  O   UNL     1     108.082 104.752 117.128  1.00  0.00    -0.492 OA
ATOM     23  C   UNL     1     107.572 104.049 118.258  1.00  0.00     0.278 C 
ENDBRANCH   6  22
BRANCH   8  24
ATOM     24  O   UNL     1     111.412 101.866 115.121  1.00  0.00    -0.493 OA
ATOM     25  C   UNL     1     111.858 100.863 114.211  1.00  0.00     0.278 C 
ENDBRANCH   8  24
BRANCH   7  26
ATOM     26  O   UNL     1     110.638 103.440 117.195  1.00  0.00    -0.490 OA
ATOM     27  C   UNL     1     111.540 104.515 117.455  1.00  0.00     0.278 C 
ENDBRANCH   7  26
TORSDOF 6
ENDMDL
MODEL 7
REMARK VINA RESULT:    -6.432      4.550      9.085
REMARK INTER + INTRA:          -9.344
REMARK INTER:                  -8.819
REMARK INTRA:                  -0.525
REMARK UNBOUND:                -0.655
REMARK SMILES COc1ccc(-c2cc(=O)c3c(OC)c(OC)c(OC)cc3o2)cc1OC
REMARK SMILES IDX 7 1 8 2 9 3 10 4 11 5 12 6 15 7 18 8 21 9 22 10 23 11 6 12
REMARK SMILES IDX 3 13 25 14 4 15 24 16 5 17 2 18 1 19 26 20 27 21 13 22 14 23
REMARK SMILES IDX 19 24 20 25 16 26 17 27
REMARK H PARENT
REMARK Flexibility Score: inf
ROOT
ATOM      1  C   UNL     1     106.911 100.824 112.470  1.00  0.00     0.138 A 
ATOM      2  C   UNL     1     105.714 100.299 112.981  1.00  0.00     0.100 A 
ATOM      3  C   UNL     1     104.495 100.823 112.548  1.00  0.00     0.197 A 
ATOM      4  O   UNL     1     103.427 100.335 113.006  1.00  0.00    -0.289 OA
ATOM      5  C   UNL     1     104.483 101.870 111.602  1.00  0.00     0.111 A 
ATOM      6  C   UNL     1     103.292 102.470 111.127  1.00  0.00     0.179 A 
ATOM      7  C   UNL     1     103.357 103.472 110.129  1.00  0.00     0.204 A 
ATOM      8  C   UNL     1     104.603 103.937 109.683  1.00  0.00     0.168 A 
ATOM      9  C   UNL     1     105.783 103.366 110.188  1.00  0.00     0.098 A 
ATOM     10  C   UNL     1     105.729 102.336 111.128  1.00  0.00     0.146 A 
ATOM     11  O   UNL     1     106.864 101.804 111.570  1.00  0.00    -0.456 OA
ENDROOT
BRANCH   1  12
ATOM     12  C   UNL     1     108.236 100.304 112.894  1.00  0.00     0.021 A 
ATOM     13  C   UNL     1     110.776  99.362 113.690  1.00  0.00     0.160 A 
ATOM     14  C   UNL     1     110.669 100.561 112.970  1.00  0.00     0.161 A 
ATOM     15  C   UNL     1     109.613  98.642 114.017  1.00  0.00     0.051 A 
ATOM     16  C   UNL     1     109.398 101.030 112.582  1.00  0.00     0.062 A 
ATOM     17  C   UNL     1     108.357  99.111 113.627  1.00  0.00     0.016 A 
BRANCH  13  18
ATOM     18  O   UNL     1     112.055  98.918 114.062  1.00  0.00    -0.493 OA
ATOM     19  C   UNL     1     112.578  97.625 113.775  1.00  0.00     0.278 C 
ENDBRANCH  13  18
BRANCH  14  20
ATOM     20  O   UNL     1     111.848 101.255 112.656  1.00  0.00    -0.493 OA
ATOM     21  C   UNL     1     112.012 102.098 111.519  1.00  0.00     0.278 C 
ENDBRANCH  14  20
ENDBRANCH   1  12
BRANCH   6  22
ATOM     22  O   UNL     1     102.059 102.101 111.668  1.00  0.00    -0.492 OA
ATOM     23  C   UNL     1     101.447 102.878 112.694  1.00  0.00     0.278 C 
ENDBRANCH   6  22
BRANCH   8  24
ATOM     24  O   UNL     1     104.626 104.959 108.720  1.00  0.00    -0.493 OA
ATOM     25  C   UNL     1     104.801 104.750 107.321  1.00  0.00     0.278 C 
ENDBRANCH   8  24
BRANCH   7  26
ATOM     26  O   UNL     1     102.209 104.039 109.551  1.00  0.00    -0.490 OA
ATOM     27  C   UNL     1     101.588 105.240 110.005  1.00  0.00     0.278 C 
ENDBRANCH   7  26
TORSDOF 6
ENDMDL
MODEL 8
REMARK VINA RESULT:    -6.418      5.820      9.269
REMARK INTER + INTRA:          -9.325
REMARK INTER:                  -8.957
REMARK INTRA:                  -0.368
REMARK UNBOUND:                -0.655
REMARK SMILES COc1ccc(-c2cc(=O)c3c(OC)c(OC)c(OC)cc3o2)cc1OC
REMARK SMILES IDX 7 1 8 2 9 3 10 4 11 5 12 6 15 7 18 8 21 9 22 10 23 11 6 12
REMARK SMILES IDX 3 13 25 14 4 15 24 16 5 17 2 18 1 19 26 20 27 21 13 22 14 23
REMARK SMILES IDX 19 24 20 25 16 26 17 27
REMARK H PARENT
REMARK Flexibility Score: inf
ROOT
ATOM      1  C   UNL     1     107.467 101.962 112.406  1.00  0.00     0.138 A 
ATOM      2  C   UNL     1     107.149 103.040 113.247  1.00  0.00     0.100 A 
ATOM      3  C   UNL     1     106.239 104.004 112.811  1.00  0.00     0.197 A 
ATOM      4  O   UNL     1     105.952 104.962 113.580  1.00  0.00    -0.289 OA
ATOM      5  C   UNL     1     105.651 103.882 111.535  1.00  0.00     0.111 A 
ATOM      6  C   UNL     1     104.735 104.825 111.010  1.00  0.00     0.179 A 
ATOM      7  C   UNL     1     104.137 104.601 109.747  1.00  0.00     0.204 A 
ATOM      8  C   UNL     1     104.523 103.495 108.976  1.00  0.00     0.168 A 
ATOM      9  C   UNL     1     105.463 102.583 109.485  1.00  0.00     0.098 A 
ATOM     10  C   UNL     1     106.014 102.763 110.754  1.00  0.00     0.146 A 
ATOM     11  O   UNL     1     106.885 101.870 111.213  1.00  0.00    -0.456 OA
ENDROOT
BRANCH   1  12
ATOM     12  C   UNL     1     108.427 100.907 112.818  1.00  0.00     0.021 A 
ATOM     13  C   UNL     1     110.288  98.935 113.605  1.00  0.00     0.160 A 
ATOM     14  C   UNL     1     110.740 100.193 113.180  1.00  0.00     0.161 A 
ATOM     15  C   UNL     1     108.908  98.668 113.645  1.00  0.00     0.051 A 
ATOM     16  C   UNL     1     109.805 101.176 112.795  1.00  0.00     0.062 A 
ATOM     17  C   UNL     1     107.988  99.646 113.259  1.00  0.00     0.016 A 
BRANCH  13  18
ATOM     18  O   UNL     1     111.241  97.975 113.982  1.00  0.00    -0.493 OA
ATOM     19  C   UNL     1     111.732  96.944 113.129  1.00  0.00     0.278 C 
ENDBRANCH  13  18
BRANCH  14  20
ATOM     20  O   UNL     1     112.123 100.427 113.149  1.00  0.00    -0.493 OA
ATOM     21  C   UNL     1     112.911 100.466 111.963  1.00  0.00     0.278 C 
ENDBRANCH  14  20
ENDBRANCH   1  12
BRANCH   6  22
ATOM     22  O   UNL     1     104.452 105.994 111.720  1.00  0.00    -0.492 OA
ATOM     23  C   UNL     1     103.240 106.130 112.456  1.00  0.00     0.278 C 
ENDBRANCH   6  22
BRANCH   8  24
ATOM     24  O   UNL     1     103.935 103.328 107.711  1.00  0.00    -0.493 OA
ATOM     25  C   UNL     1     102.852 102.444 107.433  1.00  0.00     0.278 C 
ENDBRANCH   8  24
BRANCH   7  26
ATOM     26  O   UNL     1     103.153 105.451 109.215  1.00  0.00    -0.490 OA
ATOM     27  C   UNL     1     101.750 105.260 109.380  1.00  0.00     0.278 C 
ENDBRANCH   7  26
TORSDOF 6
ENDMDL
MODEL 9
REMARK VINA RESULT:    -6.389      1.328      2.782
REMARK INTER + INTRA:          -9.286
REMARK INTER:                  -8.856
REMARK INTRA:                  -0.430
REMARK UNBOUND:                -0.655
REMARK SMILES COc1ccc(-c2cc(=O)c3c(OC)c(OC)c(OC)cc3o2)cc1OC
REMARK SMILES IDX 7 1 8 2 9 3 10 4 11 5 12 6 15 7 18 8 21 9 22 10 23 11 6 12
REMARK SMILES IDX 3 13 25 14 4 15 24 16 5 17 2 18 1 19 26 20 27 21 13 22 14 23
REMARK SMILES IDX 19 24 20 25 16 26 17 27
REMARK H PARENT
REMARK Flexibility Score: inf
ROOT
ATOM      1  C   UNL     1     100.779 103.569 112.950  1.00  0.00     0.138 A 
ATOM      2  C   UNL     1     101.422 102.851 113.971  1.00  0.00     0.100 A 
ATOM      3  C   UNL     1     100.803 102.729 115.216  1.00  0.00     0.197 A 
ATOM      4  O   UNL     1     101.384 102.072 116.122  1.00  0.00    -0.289 OA
ATOM      5  C   UNL     1      99.542 103.324 115.430  1.00  0.00     0.111 A 
ATOM      6  C   UNL     1      98.856 103.263 116.667  1.00  0.00     0.179 A 
ATOM      7  C   UNL     1      97.565 103.829 116.787  1.00  0.00     0.204 A 
ATOM      8  C   UNL     1      97.006 104.533 115.709  1.00  0.00     0.168 A 
ATOM      9  C   UNL     1      97.708 104.624 114.496  1.00  0.00     0.098 A 
ATOM     10  C   UNL     1      98.956 104.018 114.349  1.00  0.00     0.146 A 
ATOM     11  O   UNL     1      99.584 104.108 113.181  1.00  0.00    -0.456 OA
ENDROOT
BRANCH   1  12
ATOM     12  C   UNL     1     101.389 103.730 111.605  1.00  0.00     0.021 A 
ATOM     13  C   UNL     1     102.568 103.989 109.053  1.00  0.00     0.160 A 
ATOM     14  C   UNL     1     102.948 102.934 109.894  1.00  0.00     0.161 A 
ATOM     15  C   UNL     1     101.594 104.907 109.485  1.00  0.00     0.051 A 
ATOM     16  C   UNL     1     102.350 102.805 111.165  1.00  0.00     0.062 A 
ATOM     17  C   UNL     1     101.009 104.776 110.746  1.00  0.00     0.016 A 
BRANCH  13  18
ATOM     18  O   UNL     1     103.180 104.093 107.794  1.00  0.00    -0.493 OA
ATOM     19  C   UNL     1     104.349 104.860 107.523  1.00  0.00     0.278 C 
ENDBRANCH  13  18
BRANCH  14  20
ATOM     20  O   UNL     1     103.924 102.035 109.436  1.00  0.00    -0.493 OA
ATOM     21  C   UNL     1     105.313 102.126 109.738  1.00  0.00     0.278 C 
ENDBRANCH  14  20
ENDBRANCH   1  12
BRANCH   6  22
ATOM     22  O   UNL     1      99.470 102.680 117.777  1.00  0.00    -0.492 OA
ATOM     23  C   UNL     1     100.120 103.480 118.761  1.00  0.00     0.278 C 
ENDBRANCH   6  22
BRANCH   8  24
ATOM     24  O   UNL     1      95.738 105.114 115.880  1.00  0.00    -0.493 OA
ATOM     25  C   UNL     1      94.503 104.446 115.633  1.00  0.00     0.278 C 
ENDBRANCH   8  24
BRANCH   7  26
ATOM     26  O   UNL     1      96.797 103.721 117.958  1.00  0.00    -0.490 OA
ATOM     27  C   UNL     1      96.803 104.677 119.016  1.00  0.00     0.278 C 
ENDBRANCH   7  26
TORSDOF 6
ENDMDL
