MODEL 1
REMARK VINA RESULT:    -4.517      0.000      0.000
REMARK INTER + INTRA:          -4.517
REMARK INTER:                  -4.517
REMARK INTRA:                   0.000
REMARK UNBOUND:                 0.000
REMARK SMILES CC1=CC=CC(C)(C)[C@@H]1C
REMARK SMILES IDX 10 1 9 2 2 3 3 4 4 5 5 6 6 7 7 8 8 9 1 10
REMARK H PARENT
REMARK Flexibility Score: inf
ROOT
ATOM      1  C   UNL     1      31.965  24.001  11.384  1.00  0.00     0.013 C 
ATOM      2  C   UNL     1      30.478  23.746  11.724  1.00  0.00     0.021 C 
ATOM      3  C   UNL     1      29.625  25.017  11.600  1.00  0.00    -0.070 C 
ATOM      4  C   UNL     1      28.443  25.081  12.233  1.00  0.00    -0.001 C 
ATOM      5  C   UNL     1      27.981  23.998  13.110  1.00  0.00    -0.004 C 
ATOM      6  C   UNL     1      28.807  23.022  13.485  1.00  0.00    -0.020 C 
ATOM      7  C   UNL     1      30.283  23.051  13.127  1.00  0.00    -0.011 C 
ATOM      8  C   UNL     1      30.783  21.589  13.096  1.00  0.00     0.016 C 
ATOM      9  C   UNL     1      31.023  23.816  14.249  1.00  0.00     0.016 C 
ATOM     10  C   UNL     1      29.977  26.158  10.675  1.00  0.00     0.040 C 
ENDROOT
TORSDOF 0
ENDMDL
MODEL 2
REMARK VINA RESULT:    -4.348      1.222      3.195
REMARK INTER + INTRA:          -4.348
REMARK INTER:                  -4.348
REMARK INTRA:                   0.000
REMARK UNBOUND:                 0.000
REMARK SMILES CC1=CC=CC(C)(C)[C@@H]1C
REMARK SMILES IDX 10 1 9 2 2 3 3 4 4 5 5 6 6 7 7 8 8 9 1 10
REMARK H PARENT
REMARK Flexibility Score: inf
ROOT
ATOM      1  C   UNL     1      32.125  23.870  12.976  1.00  0.00     0.013 C 
ATOM      2  C   UNL     1      30.696  24.457  13.041  1.00  0.00     0.021 C 
ATOM      3  C   UNL     1      29.619  23.365  13.130  1.00  0.00    -0.070 C 
ATOM      4  C   UNL     1      28.354  23.657  12.787  1.00  0.00    -0.001 C 
ATOM      5  C   UNL     1      27.989  24.973  12.249  1.00  0.00    -0.004 C 
ATOM      6  C   UNL     1      28.926  25.843  11.873  1.00  0.00    -0.020 C 
ATOM      7  C   UNL     1      30.397  25.470  11.868  1.00  0.00    -0.011 C 
ATOM      8  C   UNL     1      31.209  26.774  12.044  1.00  0.00     0.016 C 
ATOM      9  C   UNL     1      30.722  24.854  10.488  1.00  0.00     0.016 C 
ATOM     10  C   UNL     1      29.876  22.002  13.729  1.00  0.00     0.040 C 
ENDROOT
TORSDOF 0
ENDMDL
MODEL 3
REMARK VINA RESULT:    -4.231      1.051      1.137
REMARK INTER + INTRA:          -4.231
REMARK INTER:                  -4.231
REMARK INTRA:                   0.000
REMARK UNBOUND:                 0.000
REMARK SMILES CC1=CC=CC(C)(C)[C@@H]1C
REMARK SMILES IDX 10 1 9 2 2 3 3 4 4 5 5 6 6 7 7 8 8 9 1 10
REMARK H PARENT
REMARK Flexibility Score: inf
ROOT
ATOM      1  C   UNL     1      31.617  25.501  10.726  1.00  0.00     0.013 C 
ATOM      2  C   UNL     1      30.292  24.819  11.139  1.00  0.00     0.021 C 
ATOM      3  C   UNL     1      29.181  25.836  11.441  1.00  0.00    -0.070 C 
ATOM      4  C   UNL     1      28.130  25.462  12.189  1.00  0.00    -0.001 C 
ATOM      5  C   UNL     1      28.055  24.126  12.793  1.00  0.00    -0.004 C 
ATOM      6  C   UNL     1      29.118  23.322  12.812  1.00  0.00    -0.020 C 
ATOM      7  C   UNL     1      30.476  23.793  12.324  1.00  0.00    -0.011 C 
ATOM      8  C   UNL     1      31.261  22.546  11.858  1.00  0.00     0.016 C 
ATOM      9  C   UNL     1      31.210  24.435  13.523  1.00  0.00     0.016 C 
ATOM     10  C   UNL     1      29.130  27.211  10.817  1.00  0.00     0.040 C 
ENDROOT
TORSDOF 0
ENDMDL
MODEL 4
REMARK VINA RESULT:    -4.231      1.127      2.802
REMARK INTER + INTRA:          -4.231
REMARK INTER:                  -4.231
REMARK INTRA:                   0.000
REMARK UNBOUND:                 0.000
REMARK SMILES CC1=CC=CC(C)(C)[C@@H]1C
REMARK SMILES IDX 10 1 9 2 2 3 3 4 4 5 5 6 6 7 7 8 8 9 1 10
REMARK H PARENT
REMARK Flexibility Score: inf
ROOT
ATOM      1  C   UNL     1      29.492  22.326  13.375  1.00  0.00     0.013 C 
ATOM      2  C   UNL     1      29.623  23.857  13.198  1.00  0.00     0.021 C 
ATOM      3  C   UNL     1      28.502  24.442  12.327  1.00  0.00    -0.070 C 
ATOM      4  C   UNL     1      28.678  25.638  11.741  1.00  0.00    -0.001 C 
ATOM      5  C   UNL     1      29.950  26.364  11.846  1.00  0.00    -0.004 C 
ATOM      6  C   UNL     1      31.040  25.769  12.330  1.00  0.00    -0.020 C 
ATOM      7  C   UNL     1      31.048  24.291  12.677  1.00  0.00    -0.011 C 
ATOM      8  C   UNL     1      32.125  24.075  13.766  1.00  0.00     0.016 C 
ATOM      9  C   UNL     1      31.451  23.511  11.404  1.00  0.00     0.016 C 
ATOM     10  C   UNL     1      27.136  23.809  12.207  1.00  0.00     0.040 C 
ENDROOT
TORSDOF 0
ENDMDL
MODEL 5
REMARK VINA RESULT:    -4.199      1.074      2.871
REMARK INTER + INTRA:          -4.199
REMARK INTER:                  -4.199
REMARK INTRA:                   0.000
REMARK UNBOUND:                 0.000
REMARK SMILES CC1=CC=CC(C)(C)[C@@H]1C
REMARK SMILES IDX 10 1 9 2 2 3 3 4 4 5 5 6 6 7 7 8 8 9 1 10
REMARK H PARENT
REMARK Flexibility Score: inf
ROOT
ATOM      1  C   UNL     1      29.389  25.606  11.074  1.00  0.00     0.013 C 
ATOM      2  C   UNL     1      29.765  24.156  11.461  1.00  0.00     0.021 C 
ATOM      3  C   UNL     1      28.969  23.651  12.673  1.00  0.00    -0.070 C 
ATOM      4  C   UNL     1      29.438  22.612  13.384  1.00  0.00    -0.001 C 
ATOM      5  C   UNL     1      30.737  21.998  13.080  1.00  0.00    -0.004 C 
ATOM      6  C   UNL     1      31.592  22.585  12.243  1.00  0.00    -0.020 C 
ATOM      7  C   UNL     1      31.318  23.962  11.666  1.00  0.00    -0.011 C 
ATOM      8  C   UNL     1      32.070  24.061  10.320  1.00  0.00     0.016 C 
ATOM      9  C   UNL     1      31.897  25.007  12.648  1.00  0.00     0.016 C 
ATOM     10  C   UNL     1      27.596  24.168  13.031  1.00  0.00     0.040 C 
ENDROOT
TORSDOF 0
ENDMDL
MODEL 6
REMARK VINA RESULT:    -4.192      0.840      1.731
REMARK INTER + INTRA:          -4.192
REMARK INTER:                  -4.192
REMARK INTRA:                   0.000
REMARK UNBOUND:                 0.000
REMARK SMILES CC1=CC=CC(C)(C)[C@@H]1C
REMARK SMILES IDX 10 1 9 2 2 3 3 4 4 5 5 6 6 7 7 8 8 9 1 10
REMARK H PARENT
REMARK Flexibility Score: inf
ROOT
ATOM      1  C   UNL     1      30.776  25.829  10.765  1.00  0.00     0.013 C 
ATOM      2  C   UNL     1      30.081  24.588  11.372  1.00  0.00     0.021 C 
ATOM      3  C   UNL     1      28.816  24.955  12.162  1.00  0.00    -0.070 C 
ATOM      4  C   UNL     1      28.334  24.094  13.073  1.00  0.00    -0.001 C 
ATOM      5  C   UNL     1      29.033  22.842  13.391  1.00  0.00    -0.004 C 
ATOM      6  C   UNL     1      30.275  22.623  12.959  1.00  0.00    -0.020 C 
ATOM      7  C   UNL     1      31.061  23.697  12.229  1.00  0.00    -0.011 C 
ATOM      8  C   UNL     1      32.094  22.985  11.326  1.00  0.00     0.016 C 
ATOM      9  C   UNL     1      31.810  24.535  13.291  1.00  0.00     0.016 C 
ATOM     10  C   UNL     1      27.988  26.183  11.868  1.00  0.00     0.040 C 
ENDROOT
TORSDOF 0
ENDMDL
MODEL 7
REMARK VINA RESULT:    -4.137      1.303      3.379
REMARK INTER + INTRA:          -4.137
REMARK INTER:                  -4.137
REMARK INTRA:                   0.000
REMARK UNBOUND:                 0.000
REMARK SMILES CC1=CC=CC(C)(C)[C@@H]1C
REMARK SMILES IDX 10 1 9 2 2 3 3 4 4 5 5 6 6 7 7 8 8 9 1 10
REMARK H PARENT
REMARK Flexibility Score: inf
ROOT
ATOM      1  C   UNL     1      28.761  26.488  11.650  1.00  0.00     0.013 C 
ATOM      2  C   UNL     1      29.514  25.147  11.485  1.00  0.00     0.021 C 
ATOM      3  C   UNL     1      29.056  24.092  12.502  1.00  0.00    -0.070 C 
ATOM      4  C   UNL     1      29.857  23.048  12.774  1.00  0.00    -0.001 C 
ATOM      5  C   UNL     1      31.196  22.933  12.184  1.00  0.00    -0.004 C 
ATOM      6  C   UNL     1      31.751  23.960  11.541  1.00  0.00    -0.020 C 
ATOM      7  C   UNL     1      31.082  25.322  11.497  1.00  0.00    -0.011 C 
ATOM      8  C   UNL     1      31.569  26.038  10.216  1.00  0.00     0.016 C 
ATOM      9  C   UNL     1      31.556  26.119  12.734  1.00  0.00     0.016 C 
ATOM     10  C   UNL     1      27.676  24.082  13.115  1.00  0.00     0.040 C 
ENDROOT
TORSDOF 0
ENDMDL
MODEL 8
REMARK VINA RESULT:    -4.121      1.520      2.975
REMARK INTER + INTRA:          -4.121
REMARK INTER:                  -4.121
REMARK INTRA:                   0.000
REMARK UNBOUND:                 0.000
REMARK SMILES CC1=CC=CC(C)(C)[C@@H]1C
REMARK SMILES IDX 10 1 9 2 2 3 3 4 4 5 5 6 6 7 7 8 8 9 1 10
REMARK H PARENT
REMARK Flexibility Score: inf
ROOT
ATOM      1  C   UNL     1      27.561  24.637  11.842  1.00  0.00     0.013 C 
ATOM      2  C   UNL     1      28.890  25.158  12.439  1.00  0.00     0.021 C 
ATOM      3  C   UNL     1      29.217  26.585  11.977  1.00  0.00    -0.070 C 
ATOM      4  C   UNL     1      30.483  27.029  12.052  1.00  0.00    -0.001 C 
ATOM      5  C   UNL     1      31.578  26.154  12.490  1.00  0.00    -0.004 C 
ATOM      6  C   UNL     1      31.397  24.839  12.611  1.00  0.00    -0.020 C 
ATOM      7  C   UNL     1      30.099  24.175  12.187  1.00  0.00    -0.011 C 
ATOM      8  C   UNL     1      29.944  22.882  13.021  1.00  0.00     0.016 C 
ATOM      9  C   UNL     1      30.227  23.802  10.693  1.00  0.00     0.016 C 
ATOM     10  C   UNL     1      28.159  27.583  11.572  1.00  0.00     0.040 C 
ENDROOT
TORSDOF 0
ENDMDL
MODEL 9
REMARK VINA RESULT:    -4.019      1.555      3.065
REMARK INTER + INTRA:          -4.019
REMARK INTER:                  -4.019
REMARK INTRA:                   0.000
REMARK UNBOUND:                 0.000
REMARK SMILES CC1=CC=CC(C)(C)[C@@H]1C
REMARK SMILES IDX 10 1 9 2 2 3 3 4 4 5 5 6 6 7 7 8 8 9 1 10
REMARK H PARENT
REMARK Flexibility Score: inf
ROOT
ATOM      1  C   UNL     1      29.524  26.768  10.908  1.00  0.00     0.013 C 
ATOM      2  C   UNL     1      29.938  25.959  12.159  1.00  0.00     0.021 C 
ATOM      3  C   UNL     1      31.388  26.236  12.580  1.00  0.00    -0.070 C 
ATOM      4  C   UNL     1      32.030  25.349  13.359  1.00  0.00    -0.001 C 
ATOM      5  C   UNL     1      31.406  24.080  13.751  1.00  0.00    -0.004 C 
ATOM      6  C   UNL     1      30.281  23.662  13.171  1.00  0.00    -0.020 C 
ATOM      7  C   UNL     1      29.665  24.412  12.004  1.00  0.00    -0.011 C 
ATOM      8  C   UNL     1      28.148  24.115  12.007  1.00  0.00     0.016 C 
ATOM      9  C   UNL     1      30.288  23.852  10.704  1.00  0.00     0.016 C 
ATOM     10  C   UNL     1      32.097  27.537  12.286  1.00  0.00     0.040 C 
ENDROOT
TORSDOF 0
ENDMDL
