MODEL 1
REMARK VINA RESULT:    -3.423      0.000      0.000
REMARK INTER + INTRA:          -4.931
REMARK INTER:                  -4.623
REMARK INTRA:                  -0.307
REMARK UNBOUND:                -0.307
REMARK SMILES C=C1CCC=C(C)CC[C@@H]2[C@H]1CC2(C)C
REMARK SMILES IDX 11 1 12 2 13 3 10 4 14 5 15 6 9 7 8 8 6 9 7 10 5 11 2 13
REMARK SMILES IDX 1 14 3 15 4 16
REMARK H PARENT
REMARK Flexibility Score: 70.00
ROOT
ATOM      1  C   UNL     1     137.910 139.425 135.913  1.00  0.00     0.018 C 
ATOM      2  C   UNL     1     139.372 139.706 135.513  1.00  0.00     0.015 C 
ATOM      3  C   UNL     1     139.621 138.212 135.274  1.00  0.00    -0.031 C 
ATOM      4  C   UNL     1     138.146 137.912 135.647  1.00  0.00     0.002 C 
ATOM      5  C   UNL     1     140.057 137.920 133.822  1.00  0.00     0.011 C 
ATOM      6  C   UNL     1     140.621 137.615 136.283  1.00  0.00     0.011 C 
ENDROOT
BRANCH   4   7
ATOM      7  C   UNL     1     137.299 137.204 134.558  1.00  0.00     0.009 C 
BRANCH   7   8
ATOM      8  C   UNL     1     136.115 136.441 135.183  1.00  0.00     0.030 C 
BRANCH   8   9
ATOM      9  C   UNL     1     134.743 137.038 134.910  1.00  0.00    -0.077 C 
ATOM     10  C   UNL     1     133.836 136.318 133.939  1.00  0.00     0.039 C 
ATOM     11  C   UNL     1     134.217 138.099 135.574  1.00  0.00    -0.028 CG0
ATOM     12  G   UNL     1     134.948 139.116 136.424  1.00  0.00     0.000 G0
ENDBRANCH   8   9
ENDBRANCH   7   8
ENDBRANCH   4   7
BRANCH   1  13
ATOM     13  C   UNL     1     136.829 140.176 135.123  1.00  0.00    -0.074 C 
ATOM     14  C   UNL     1     137.133 140.905 134.030  1.00  0.00     0.008 C 
BRANCH  13  15
ATOM     15  C   UNL     1     135.453 140.391 135.725  1.00  0.00     0.035 C 
BRANCH  15  16
ATOM     16  C   UNL     1     134.949 139.122 136.440  1.00  0.00     0.032 CG0
ATOM     17  G   UNL     1     134.219 138.117 135.575  1.00  0.00     0.000 G0
ENDBRANCH  15  16
ENDBRANCH  13  15
ENDBRANCH   1  13
TORSDOF 0
ENDMDL
MODEL 2
REMARK VINA RESULT:    -3.355      3.637      6.763
REMARK INTER + INTRA:          -4.839
REMARK INTER:                  -4.532
REMARK INTRA:                  -0.307
REMARK UNBOUND:                -0.307
REMARK SMILES C=C1CCC=C(C)CC[C@@H]2[C@H]1CC2(C)C
REMARK SMILES IDX 11 1 12 2 13 3 10 4 14 5 15 6 9 7 8 8 6 9 7 10 5 11 2 13
REMARK SMILES IDX 1 14 3 15 4 16
REMARK H PARENT
REMARK Flexibility Score: 70.00
ROOT
ATOM      1  C   UNL     1     134.909 133.049 135.975  1.00  0.00     0.018 C 
ATOM      2  C   UNL     1     133.417 132.776 135.696  1.00  0.00     0.015 C 
ATOM      3  C   UNL     1     133.149 134.275 135.517  1.00  0.00    -0.031 C 
ATOM      4  C   UNL     1     134.651 134.568 135.768  1.00  0.00     0.002 C 
ATOM      5  C   UNL     1     132.590 134.603 134.115  1.00  0.00     0.011 C 
ATOM      6  C   UNL     1     132.241 134.845 136.623  1.00  0.00     0.011 C 
ENDROOT
BRANCH   4   7
ATOM      7  C   UNL     1     135.402 135.304 134.629  1.00  0.00     0.009 C 
BRANCH   7   8
ATOM      8  C   UNL     1     136.632 136.058 135.170  1.00  0.00     0.030 C 
BRANCH   8   9
ATOM      9  C   UNL     1     137.978 135.469 134.773  1.00  0.00    -0.077 C 
ATOM     10  C   UNL     1     138.806 136.213 133.751  1.00  0.00     0.039 C 
ATOM     11  C   UNL     1     138.554 134.392 135.367  1.00  0.00    -0.028 CG0
ATOM     12  G   UNL     1     137.892 133.354 136.248  1.00  0.00     0.000 G0
ENDBRANCH   8   9
ENDBRANCH   7   8
ENDBRANCH   4   7
BRANCH   1  13
ATOM     13  C   UNL     1     135.916 132.320 135.075  1.00  0.00    -0.074 C 
ATOM     14  C   UNL     1     135.518 131.616 133.996  1.00  0.00     0.008 C 
BRANCH  13  15
ATOM     15  C   UNL     1     137.340 132.094 135.549  1.00  0.00     0.035 C 
BRANCH  15  16
ATOM     16  C   UNL     1     137.902 133.346 136.253  1.00  0.00     0.032 CG0
ATOM     17  G   UNL     1     138.549 134.378 135.355  1.00  0.00     0.000 G0
ENDBRANCH  15  16
ENDBRANCH  13  15
ENDBRANCH   1  13
TORSDOF 0
ENDMDL
MODEL 3
REMARK VINA RESULT:    -3.286      2.864      4.597
REMARK INTER + INTRA:          -4.746
REMARK INTER:                  -4.457
REMARK INTRA:                  -0.289
REMARK UNBOUND:                -0.307
REMARK SMILES C=C1CCC=C(C)CC[C@@H]2[C@H]1CC2(C)C
REMARK SMILES IDX 11 1 12 2 13 3 10 4 14 5 15 6 9 7 8 8 6 9 7 10 5 11 2 13
REMARK SMILES IDX 1 14 3 15 4 16
REMARK H PARENT
REMARK Flexibility Score: 70.00
ROOT
ATOM      1  C   UNL     1     139.482 134.961 135.972  1.00  0.00     0.018 C 
ATOM      2  C   UNL     1     139.776 133.477 135.672  1.00  0.00     0.015 C 
ATOM      3  C   UNL     1     138.279 133.184 135.523  1.00  0.00    -0.031 C 
ATOM      4  C   UNL     1     137.964 134.677 135.796  1.00  0.00     0.002 C 
ATOM      5  C   UNL     1     137.931 132.632 134.123  1.00  0.00     0.011 C 
ATOM      6  C   UNL     1     137.750 132.254 136.632  1.00  0.00     0.011 C 
ENDROOT
BRANCH   4   7
ATOM      7  C   UNL     1     137.190 135.425 134.680  1.00  0.00     0.009 C 
BRANCH   7   8
ATOM      8  C   UNL     1     136.388 136.608 135.257  1.00  0.00     0.030 C 
BRANCH   8   9
ATOM      9  C   UNL     1     136.920 137.988 134.898  1.00  0.00    -0.077 C 
ATOM     10  C   UNL     1     136.112 138.834 133.941  1.00  0.00     0.039 C 
ATOM     11  C   UNL     1     138.001 138.572 135.476  1.00  0.00    -0.028 CG0
ATOM     12  G   UNL     1     139.091 137.907 136.287  1.00  0.00     0.000 G0
ENDBRANCH   8   9
ENDBRANCH   7   8
ENDBRANCH   4   7
BRANCH   1  13
ATOM     13  C   UNL     1     140.173 135.991 135.067  1.00  0.00    -0.074 C 
ATOM     14  C   UNL     1     140.898 135.613 133.995  1.00  0.00     0.008 C 
BRANCH  13  15
ATOM     15  C   UNL     1     140.338 137.426 135.531  1.00  0.00     0.035 C 
BRANCH  15  16
ATOM     16  C   UNL     1     139.097 137.911 136.305  1.00  0.00     0.032 CG0
ATOM     17  G   UNL     1     138.014 138.571 135.479  1.00  0.00     0.000 G0
ENDBRANCH  15  16
ENDBRANCH  13  15
ENDBRANCH   1  13
TORSDOF 0
ENDMDL
MODEL 4
REMARK VINA RESULT:    -3.227      3.073      4.887
REMARK INTER + INTRA:          -4.666
REMARK INTER:                  -4.362
REMARK INTRA:                  -0.305
REMARK UNBOUND:                -0.307
REMARK SMILES C=C1CCC=C(C)CC[C@@H]2[C@H]1CC2(C)C
REMARK SMILES IDX 11 1 12 2 13 3 10 4 14 5 15 6 9 7 8 8 6 9 7 10 5 11 2 13
REMARK SMILES IDX 1 14 3 15 4 16
REMARK H PARENT
REMARK Flexibility Score: 70.00
ROOT
ATOM      1  C   UNL     1     133.031 137.775 136.009  1.00  0.00     0.018 C 
ATOM      2  C   UNL     1     132.998 139.068 135.169  1.00  0.00     0.015 C 
ATOM      3  C   UNL     1     134.489 139.309 135.436  1.00  0.00    -0.031 C 
ATOM      4  C   UNL     1     134.548 137.998 136.262  1.00  0.00     0.002 C 
ATOM      5  C   UNL     1     135.313 139.361 134.131  1.00  0.00     0.011 C 
ATOM      6  C   UNL     1     134.734 140.563 136.297  1.00  0.00     0.011 C 
ENDROOT
BRANCH   4   7
ATOM      7  C   UNL     1     135.553 136.926 135.768  1.00  0.00     0.009 C 
BRANCH   7   8
ATOM      8  C   UNL     1     135.977 135.990 136.916  1.00  0.00     0.030 C 
BRANCH   8   9
ATOM      9  C   UNL     1     135.436 134.570 136.826  1.00  0.00    -0.077 C 
ATOM     10  C   UNL     1     136.401 133.464 136.465  1.00  0.00     0.039 C 
ATOM     11  C   UNL     1     134.177 134.200 137.178  1.00  0.00    -0.028 CG0
ATOM     12  G   UNL     1     132.969 135.091 137.372  1.00  0.00     0.000 G0
ENDBRANCH   8   9
ENDBRANCH   7   8
ENDBRANCH   4   7
BRANCH   1  13
ATOM     13  C   UNL     1     132.558 136.493 135.309  1.00  0.00    -0.074 C 
ATOM     14  C   UNL     1     132.283 136.471 133.989  1.00  0.00     0.008 C 
BRANCH  13  15
ATOM     15  C   UNL     1     132.073 135.311 136.127  1.00  0.00     0.035 C 
BRANCH  15  16
ATOM     16  C   UNL     1     132.958 135.088 137.370  1.00  0.00     0.032 CG0
ATOM     17  G   UNL     1     134.167 134.200 137.173  1.00  0.00     0.000 G0
ENDBRANCH  15  16
ENDBRANCH  13  15
ENDBRANCH   1  13
TORSDOF 0
ENDMDL
MODEL 5
REMARK VINA RESULT:    -3.139      2.918      4.616
REMARK INTER + INTRA:          -4.548
REMARK INTER:                  -4.230
REMARK INTRA:                  -0.317
REMARK UNBOUND:                -0.307
REMARK SMILES C=C1CCC=C(C)CC[C@@H]2[C@H]1CC2(C)C
REMARK SMILES IDX 11 1 12 2 13 3 10 4 14 5 15 6 9 7 8 8 6 9 7 10 5 11 2 13
REMARK SMILES IDX 1 14 3 15 4 16
REMARK H PARENT
REMARK Flexibility Score: 70.00
ROOT
ATOM      1  C   UNL     1     136.022 139.403 136.993  1.00  0.00     0.018 C 
ATOM      2  C   UNL     1     135.039 140.512 136.566  1.00  0.00     0.015 C 
ATOM      3  C   UNL     1     134.327 139.547 135.610  1.00  0.00    -0.031 C 
ATOM      4  C   UNL     1     135.288 138.412 136.047  1.00  0.00     0.002 C 
ATOM      5  C   UNL     1     132.832 139.381 135.959  1.00  0.00     0.011 C 
ATOM      6  C   UNL     1     134.510 139.944 134.133  1.00  0.00     0.011 C 
ENDROOT
BRANCH   4   7
ATOM      7  C   UNL     1     134.622 137.152 136.657  1.00  0.00     0.009 C 
BRANCH   7   8
ATOM      8  C   UNL     1     135.518 135.910 136.483  1.00  0.00     0.030 C 
BRANCH   8   9
ATOM      9  C   UNL     1     136.156 135.388 137.762  1.00  0.00    -0.077 C 
ATOM     10  C   UNL     1     135.636 134.091 138.338  1.00  0.00     0.039 C 
ATOM     11  C   UNL     1     137.250 135.931 138.356  1.00  0.00    -0.028 CG0
ATOM     12  G   UNL     1     137.841 137.306 138.131  1.00  0.00     0.000 G0
ENDBRANCH   8   9
ENDBRANCH   7   8
ENDBRANCH   4   7
BRANCH   1  13
ATOM     13  C   UNL     1     136.100 139.101 138.496  1.00  0.00    -0.074 C 
ATOM     14  C   UNL     1     135.245 139.664 139.374  1.00  0.00     0.008 C 
BRANCH  13  15
ATOM     15  C   UNL     1     137.331 138.431 139.078  1.00  0.00     0.035 C 
BRANCH  15  16
ATOM     16  C   UNL     1     137.852 137.315 138.151  1.00  0.00     0.032 CG0
ATOM     17  G   UNL     1     137.247 135.943 138.357  1.00  0.00     0.000 G0
ENDBRANCH  15  16
ENDBRANCH  13  15
ENDBRANCH   1  13
TORSDOF 0
ENDMDL
MODEL 6
REMARK VINA RESULT:    -3.132      3.960      6.168
REMARK INTER + INTRA:          -4.538
REMARK INTER:                  -4.253
REMARK INTRA:                  -0.285
REMARK UNBOUND:                -0.307
REMARK SMILES C=C1CCC=C(C)CC[C@@H]2[C@H]1CC2(C)C
REMARK SMILES IDX 11 1 12 2 13 3 10 4 14 5 15 6 9 7 8 8 6 9 7 10 5 11 2 13
REMARK SMILES IDX 1 14 3 15 4 16
REMARK H PARENT
REMARK Flexibility Score: 70.00
ROOT
ATOM      1  C   UNL     1     138.724 133.391 136.421  1.00  0.00     0.018 C 
ATOM      2  C   UNL     1     137.706 132.411 137.040  1.00  0.00     0.015 C 
ATOM      3  C   UNL     1     137.338 133.436 138.120  1.00  0.00    -0.031 C 
ATOM      4  C   UNL     1     138.336 134.445 137.496  1.00  0.00     0.002 C 
ATOM      5  C   UNL     1     135.839 133.808 138.081  1.00  0.00     0.011 C 
ATOM      6  C   UNL     1     137.760 132.979 139.529  1.00  0.00     0.011 C 
ENDROOT
BRANCH   4   7
ATOM      7  C   UNL     1     137.737 135.798 137.033  1.00  0.00     0.009 C 
BRANCH   7   8
ATOM      8  C   UNL     1     138.795 136.917 137.073  1.00  0.00     0.030 C 
BRANCH   8   9
ATOM      9  C   UNL     1     139.278 137.401 135.713  1.00  0.00    -0.077 C 
ATOM     10  C   UNL     1     138.887 138.793 135.274  1.00  0.00     0.039 C 
ATOM     11  C   UNL     1     140.148 136.725 134.918  1.00  0.00    -0.028 CG0
ATOM     12  G   UNL     1     140.534 135.264 134.998  1.00  0.00     0.000 G0
ENDBRANCH   8   9
ENDBRANCH   7   8
ENDBRANCH   4   7
BRANCH   1  13
ATOM     13  C   UNL     1     138.537 133.720 134.933  1.00  0.00    -0.074 C 
ATOM     14  C   UNL     1     137.484 133.250 134.234  1.00  0.00     0.008 C 
BRANCH  13  15
ATOM     15  C   UNL     1     139.686 134.299 134.129  1.00  0.00     0.035 C 
BRANCH  15  16
ATOM     16  C   UNL     1     140.539 135.259 134.981  1.00  0.00     0.032 CG0
ATOM     17  G   UNL     1     140.150 136.721 134.924  1.00  0.00     0.000 G0
ENDBRANCH  15  16
ENDBRANCH  13  15
ENDBRANCH   1  13
TORSDOF 0
ENDMDL
MODEL 7
REMARK VINA RESULT:    -3.106      5.086      7.354
REMARK INTER + INTRA:          -4.503
REMARK INTER:                  -4.208
REMARK INTRA:                  -0.295
REMARK UNBOUND:                -0.307
REMARK SMILES C=C1CCC=C(C)CC[C@@H]2[C@H]1CC2(C)C
REMARK SMILES IDX 11 1 12 2 13 3 10 4 14 5 15 6 9 7 8 8 6 9 7 10 5 11 2 13
REMARK SMILES IDX 1 14 3 15 4 16
REMARK H PARENT
REMARK Flexibility Score: 70.00
ROOT
ATOM      1  C   UNL     1     133.900 133.817 138.376  1.00  0.00     0.018 C 
ATOM      2  C   UNL     1     133.864 133.694 136.839  1.00  0.00     0.015 C 
ATOM      3  C   UNL     1     133.110 135.024 136.724  1.00  0.00    -0.031 C 
ATOM      4  C   UNL     1     133.160 135.179 138.266  1.00  0.00     0.002 C 
ATOM      5  C   UNL     1     133.885 136.062 135.883  1.00  0.00     0.011 C 
ATOM      6  C   UNL     1     131.676 134.840 136.192  1.00  0.00     0.011 C 
ENDROOT
BRANCH   4   7
ATOM      7  C   UNL     1     133.860 136.455 138.800  1.00  0.00     0.009 C 
BRANCH   7   8
ATOM      8  C   UNL     1     133.358 136.816 140.211  1.00  0.00     0.030 C 
BRANCH   8   9
ATOM      9  C   UNL     1     134.366 136.600 141.331  1.00  0.00    -0.077 C 
ATOM     10  C   UNL     1     135.004 137.819 141.957  1.00  0.00     0.039 C 
ATOM     11  C   UNL     1     134.637 135.399 141.904  1.00  0.00    -0.028 CG0
ATOM     12  G   UNL     1     134.316 134.022 141.366  1.00  0.00     0.000 G0
ENDBRANCH   8   9
ENDBRANCH   7   8
ENDBRANCH   4   7
BRANCH   1  13
ATOM     13  C   UNL     1     135.286 133.757 139.034  1.00  0.00    -0.074 C 
ATOM     14  C   UNL     1     136.416 133.764 138.299  1.00  0.00     0.008 C 
BRANCH  13  15
ATOM     15  C   UNL     1     135.422 133.360 140.492  1.00  0.00     0.035 C 
BRANCH  15  16
ATOM     16  C   UNL     1     134.329 134.018 141.357  1.00  0.00     0.032 CG0
ATOM     17  G   UNL     1     134.648 135.396 141.896  1.00  0.00     0.000 G0
ENDBRANCH  15  16
ENDBRANCH  13  15
ENDBRANCH   1  13
TORSDOF 0
ENDMDL
MODEL 8
REMARK VINA RESULT:    -3.093      3.160      4.952
REMARK INTER + INTRA:          -4.486
REMARK INTER:                  -4.217
REMARK INTRA:                  -0.269
REMARK UNBOUND:                -0.307
REMARK SMILES C=C1CCC=C(C)CC[C@@H]2[C@H]1CC2(C)C
REMARK SMILES IDX 11 1 12 2 13 3 10 4 14 5 15 6 9 7 8 8 6 9 7 10 5 11 2 13
REMARK SMILES IDX 1 14 3 15 4 16
REMARK H PARENT
REMARK Flexibility Score: 70.00
ROOT
ATOM      1  C   UNL     1     139.180 134.567 134.242  1.00  0.00     0.018 C 
ATOM      2  C   UNL     1     140.579 135.215 134.217  1.00  0.00     0.015 C 
ATOM      3  C   UNL     1     139.970 136.599 134.472  1.00  0.00    -0.031 C 
ATOM      4  C   UNL     1     138.558 135.962 134.529  1.00  0.00     0.002 C 
ATOM      5  C   UNL     1     140.508 137.241 135.770  1.00  0.00     0.011 C 
ATOM      6  C   UNL     1     140.145 137.548 133.271  1.00  0.00     0.011 C 
ENDROOT
BRANCH   4   7
ATOM      7  C   UNL     1     137.768 136.171 135.846  1.00  0.00     0.009 C 
BRANCH   7   8
ATOM      8  C   UNL     1     136.248 136.127 135.596  1.00  0.00     0.030 C 
BRANCH   8   9
ATOM      9  C   UNL     1     135.539 134.893 136.133  1.00  0.00    -0.077 C 
ATOM     10  C   UNL     1     134.602 135.065 137.306  1.00  0.00     0.039 C 
ATOM     11  C   UNL     1     135.581 133.665 135.553  1.00  0.00    -0.028 CG0
ATOM     12  G   UNL     1     136.568 133.160 134.523  1.00  0.00     0.000 G0
ENDBRANCH   8   9
ENDBRANCH   7   8
ENDBRANCH   4   7
BRANCH   1  13
ATOM     13  C   UNL     1     138.975 133.423 135.246  1.00  0.00    -0.074 C 
ATOM     14  C   UNL     1     139.941 133.070 136.119  1.00  0.00     0.008 C 
BRANCH  13  15
ATOM     15  C   UNL     1     137.824 132.451 135.072  1.00  0.00     0.035 C 
BRANCH  15  16
ATOM     16  C   UNL     1     136.572 133.157 134.513  1.00  0.00     0.032 CG0
ATOM     17  G   UNL     1     135.587 133.673 135.539  1.00  0.00     0.000 G0
ENDBRANCH  15  16
ENDBRANCH  13  15
ENDBRANCH   1  13
TORSDOF 0
ENDMDL
MODEL 9
REMARK VINA RESULT:    -3.079      2.863      4.708
REMARK INTER + INTRA:          -4.466
REMARK INTER:                  -4.197
REMARK INTRA:                  -0.269
REMARK UNBOUND:                -0.307
REMARK SMILES C=C1CCC=C(C)CC[C@@H]2[C@H]1CC2(C)C
REMARK SMILES IDX 11 1 12 2 13 3 10 4 14 5 15 6 9 7 8 8 6 9 7 10 5 11 2 13
REMARK SMILES IDX 1 14 3 15 4 16
REMARK H PARENT
REMARK Flexibility Score: 70.00
ROOT
ATOM      1  C   UNL     1     139.329 138.114 134.415  1.00  0.00     0.018 C 
ATOM      2  C   UNL     1     139.060 139.524 134.980  1.00  0.00     0.015 C 
ATOM      3  C   UNL     1     137.549 139.336 134.798  1.00  0.00    -0.031 C 
ATOM      4  C   UNL     1     137.798 137.906 134.253  1.00  0.00     0.002 C 
ATOM      5  C   UNL     1     136.783 139.461 136.134  1.00  0.00     0.011 C 
ATOM      6  C   UNL     1     136.965 140.284 133.734  1.00  0.00     0.011 C 
ENDROOT
BRANCH   4   7
ATOM      7  C   UNL     1     137.115 136.752 135.031  1.00  0.00     0.009 C 
BRANCH   7   8
ATOM      8  C   UNL     1     136.846 135.545 134.112  1.00  0.00     0.030 C 
BRANCH   8   9
ATOM      9  C   UNL     1     137.725 134.329 134.367  1.00  0.00    -0.077 C 
ATOM     10  C   UNL     1     137.078 133.095 134.953  1.00  0.00     0.039 C 
ATOM     11  C   UNL     1     139.023 134.221 133.983  1.00  0.00    -0.028 CG0
ATOM     12  G   UNL     1     139.964 135.334 133.575  1.00  0.00     0.000 G0
ENDBRANCH   8   9
ENDBRANCH   7   8
ENDBRANCH   4   7
BRANCH   1  13
ATOM     13  C   UNL     1     140.135 137.162 135.310  1.00  0.00    -0.074 C 
ATOM     14  C   UNL     1     140.506 137.512 136.558  1.00  0.00     0.008 C 
BRANCH  13  15
ATOM     15  C   UNL     1     140.817 135.946 134.712  1.00  0.00     0.035 C 
BRANCH  15  16
ATOM     16  C   UNL     1     139.974 135.333 133.575  1.00  0.00     0.032 CG0
ATOM     17  G   UNL     1     139.025 134.224 133.975  1.00  0.00     0.000 G0
ENDBRANCH  15  16
ENDBRANCH  13  15
ENDBRANCH   1  13
TORSDOF 0
ENDMDL
