MODEL 1
REMARK VINA RESULT:    -3.235      0.000      0.000
REMARK INTER + INTRA:          -9.266
REMARK INTER:                  -6.261
REMARK INTRA:                  -3.004
REMARK UNBOUND:                -3.004
REMARK SMILES CCCCCCCCCCCCCCCCCC(=O)[O-]
REMARK SMILES IDX 10 1 11 2 12 3 13 4 14 5 15 6 16 7 17 8 18 9 19 10 20 11
REMARK SMILES IDX 9 12 8 13 7 14 6 15 5 16 4 17 3 18 2 19 1 20
REMARK H PARENT
REMARK Flexibility Score: inf
ROOT
ATOM      1  C   UNL     1       2.761  -2.527  -6.098  1.00  0.00     0.000 C 
ENDROOT
BRANCH   1   2
ATOM      2  C   UNL     1       1.348  -2.028  -5.748  1.00  0.00     0.000 C 
BRANCH   2   3
ATOM      3  C   UNL     1       1.361  -0.689  -4.992  1.00  0.00     0.000 C 
BRANCH   3   4
ATOM      4  C   UNL     1       1.046  -0.856  -3.495  1.00  0.00     0.000 C 
BRANCH   4   5
ATOM      5  C   UNL     1       0.357  -2.196  -3.175  1.00  0.00     0.000 C 
BRANCH   5   6
ATOM      6  C   UNL     1       1.067  -3.062  -2.116  1.00  0.00     0.000 C 
BRANCH   6   7
ATOM      7  C   UNL     1       1.166  -4.563  -2.455  1.00  0.00     0.006 C 
BRANCH   7   8
ATOM      8  C   UNL     1       1.014  -5.498  -1.246  1.00  0.00     0.053 C 
BRANCH   8   9
ATOM      9  C   UNL     1      -0.278  -5.272  -0.523  1.00  0.00     0.041 C 
ATOM     10  O   UNL     1      -1.374  -5.524  -1.090  1.00  0.00    -0.550 OA
ATOM     11  O   UNL     1      -0.274  -4.747   0.764  1.00  0.00    -0.550 OA
ENDBRANCH   8   9
ENDBRANCH   7   8
ENDBRANCH   6   7
ENDBRANCH   5   6
ENDBRANCH   4   5
ENDBRANCH   3   4
ENDBRANCH   2   3
ENDBRANCH   1   2
BRANCH   1  12
ATOM     12  C   UNL     1       3.127  -3.829  -5.370  1.00  0.00     0.000 C 
BRANCH  12  13
ATOM     13  C   UNL     1       4.547  -3.794  -4.778  1.00  0.00    -0.000 C 
BRANCH  13  14
ATOM     14  C   UNL     1       4.556  -3.980  -3.251  1.00  0.00    -0.000 C 
BRANCH  14  15
ATOM     15  C   UNL     1       5.123  -2.762  -2.506  1.00  0.00    -0.000 C 
BRANCH  15  16
ATOM     16  C   UNL     1       4.390  -1.478  -2.915  1.00  0.00    -0.000 C 
BRANCH  16  17
ATOM     17  C   UNL     1       5.385  -0.371  -3.292  1.00  0.00    -0.000 C 
BRANCH  17  18
ATOM     18  C   UNL     1       5.409  -0.076  -4.801  1.00  0.00    -0.000 C 
BRANCH  18  19
ATOM     19  C   UNL     1       6.551  -0.793  -5.552  1.00  0.00    -0.003 C 
ATOM     20  C   UNL     1       6.140  -1.229  -6.959  1.00  0.00     0.004 C 
ENDBRANCH  18  19
ENDBRANCH  17  18
ENDBRANCH  16  17
ENDBRANCH  15  16
ENDBRANCH  14  15
ENDBRANCH  13  14
ENDBRANCH  12  13
ENDBRANCH   1  12
TORSDOF 16
ENDMDL
MODEL 2
REMARK VINA RESULT:    -3.235     12.020     13.909
REMARK INTER + INTRA:          -9.265
REMARK INTER:                  -7.831
REMARK INTRA:                  -1.433
REMARK UNBOUND:                -3.004
REMARK SMILES CCCCCCCCCCCCCCCCCC(=O)[O-]
REMARK SMILES IDX 10 1 11 2 12 3 13 4 14 5 15 6 16 7 17 8 18 9 19 10 20 11
REMARK SMILES IDX 9 12 8 13 7 14 6 15 5 16 4 17 3 18 2 19 1 20
REMARK H PARENT
REMARK Flexibility Score: inf
ROOT
ATOM      1  C   UNL     1      -4.762  -1.381  10.033  1.00  0.00     0.000 C 
ENDROOT
BRANCH   1   2
ATOM      2  C   UNL     1      -5.581  -2.679  10.152  1.00  0.00     0.000 C 
BRANCH   2   3
ATOM      3  C   UNL     1      -5.496  -3.552   8.889  1.00  0.00     0.000 C 
BRANCH   3   4
ATOM      4  C   UNL     1      -6.485  -4.730   8.921  1.00  0.00     0.000 C 
BRANCH   4   5
ATOM      5  C   UNL     1      -6.887  -5.211   7.514  1.00  0.00     0.000 C 
BRANCH   5   6
ATOM      6  C   UNL     1      -5.712  -5.526   6.567  1.00  0.00     0.000 C 
BRANCH   6   7
ATOM      7  C   UNL     1      -6.110  -5.841   5.111  1.00  0.00     0.006 C 
BRANCH   7   8
ATOM      8  C   UNL     1      -7.338  -5.067   4.608  1.00  0.00     0.053 C 
BRANCH   8   9
ATOM      9  C   UNL     1      -8.322  -5.964   3.922  1.00  0.00     0.041 C 
ATOM     10  O   UNL     1      -8.130  -6.322   2.730  1.00  0.00    -0.550 OA
ATOM     11  O   UNL     1      -9.472  -6.373   4.587  1.00  0.00    -0.550 OA
ENDBRANCH   8   9
ENDBRANCH   7   8
ENDBRANCH   6   7
ENDBRANCH   5   6
ENDBRANCH   4   5
ENDBRANCH   3   4
ENDBRANCH   2   3
ENDBRANCH   1   2
BRANCH   1  12
ATOM     12  C   UNL     1      -4.323  -1.087   8.590  1.00  0.00     0.000 C 
BRANCH  12  13
ATOM     13  C   UNL     1      -3.591   0.260   8.461  1.00  0.00    -0.000 C 
BRANCH  13  14
ATOM     14  C   UNL     1      -2.148   0.201   8.989  1.00  0.00    -0.000 C 
BRANCH  14  15
ATOM     15  C   UNL     1      -1.123   0.746   7.983  1.00  0.00    -0.000 C 
BRANCH  15  16
ATOM     16  C   UNL     1      -0.099  -0.331   7.605  1.00  0.00    -0.000 C 
BRANCH  16  17
ATOM     17  C   UNL     1       0.017  -1.393   8.707  1.00  0.00    -0.000 C 
BRANCH  17  18
ATOM     18  C   UNL     1       0.170  -2.819   8.150  1.00  0.00    -0.000 C 
BRANCH  18  19
ATOM     19  C   UNL     1      -0.282  -3.917   9.135  1.00  0.00    -0.003 C 
ATOM     20  C   UNL     1      -1.776  -3.836   9.451  1.00  0.00     0.004 C 
ENDBRANCH  18  19
ENDBRANCH  17  18
ENDBRANCH  16  17
ENDBRANCH  15  16
ENDBRANCH  14  15
ENDBRANCH  13  14
ENDBRANCH  12  13
ENDBRANCH   1  12
TORSDOF 16
ENDMDL
MODEL 3
REMARK VINA RESULT:    -3.209     12.245     14.303
REMARK INTER + INTRA:          -9.214
REMARK INTER:                  -7.172
REMARK INTRA:                  -2.043
REMARK UNBOUND:                -3.004
REMARK SMILES CCCCCCCCCCCCCCCCCC(=O)[O-]
REMARK SMILES IDX 10 1 11 2 12 3 13 4 14 5 15 6 16 7 17 8 18 9 19 10 20 11
REMARK SMILES IDX 9 12 8 13 7 14 6 15 5 16 4 17 3 18 2 19 1 20
REMARK H PARENT
REMARK Flexibility Score: inf
ROOT
ATOM      1  C   UNL     1       1.736  -0.717  10.571  1.00  0.00     0.000 C 
ENDROOT
BRANCH   1   2
ATOM      2  C   UNL     1       2.160   0.754  10.414  1.00  0.00     0.000 C 
BRANCH   2   3
ATOM      3  C   UNL     1       2.962   1.008   9.127  1.00  0.00     0.000 C 
BRANCH   3   4
ATOM      4  C   UNL     1       4.197   1.893   9.369  1.00  0.00     0.000 C 
BRANCH   4   5
ATOM      5  C   UNL     1       5.034   2.111   8.095  1.00  0.00     0.000 C 
BRANCH   5   6
ATOM      6  C   UNL     1       4.873   3.494   7.431  1.00  0.00     0.000 C 
BRANCH   6   7
ATOM      7  C   UNL     1       3.547   4.218   7.739  1.00  0.00     0.006 C 
BRANCH   7   8
ATOM      8  C   UNL     1       2.429   3.955   6.719  1.00  0.00     0.053 C 
BRANCH   8   9
ATOM      9  C   UNL     1       1.074   4.248   7.286  1.00  0.00     0.041 C 
ATOM     10  O   UNL     1       0.722   3.737   8.382  1.00  0.00    -0.550 OA
ATOM     11  O   UNL     1       0.185   5.054   6.585  1.00  0.00    -0.550 OA
ENDBRANCH   8   9
ENDBRANCH   7   8
ENDBRANCH   6   7
ENDBRANCH   5   6
ENDBRANCH   4   5
ENDBRANCH   3   4
ENDBRANCH   2   3
ENDBRANCH   1   2
BRANCH   1  12
ATOM     12  C   UNL     1       2.258  -1.608   9.432  1.00  0.00     0.000 C 
BRANCH  12  13
ATOM     13  C   UNL     1       1.128  -2.366   8.713  1.00  0.00    -0.000 C 
BRANCH  13  14
ATOM     14  C   UNL     1      -0.177  -1.556   8.645  1.00  0.00    -0.000 C 
BRANCH  14  15
ATOM     15  C   UNL     1      -0.130  -0.438   7.592  1.00  0.00    -0.000 C 
BRANCH  15  16
ATOM     16  C   UNL     1      -1.103   0.693   7.948  1.00  0.00    -0.000 C 
BRANCH  16  17
ATOM     17  C   UNL     1      -1.632   0.534   9.381  1.00  0.00    -0.000 C 
BRANCH  17  18
ATOM     18  C   UNL     1      -3.155   0.728   9.481  1.00  0.00    -0.000 C 
BRANCH  18  19
ATOM     19  C   UNL     1      -3.942   0.022   8.356  1.00  0.00    -0.003 C 
ATOM     20  C   UNL     1      -4.456  -1.354   8.780  1.00  0.00     0.004 C 
ENDBRANCH  18  19
ENDBRANCH  17  18
ENDBRANCH  16  17
ENDBRANCH  15  16
ENDBRANCH  14  15
ENDBRANCH  13  14
ENDBRANCH  12  13
ENDBRANCH   1  12
TORSDOF 16
ENDMDL
MODEL 4
REMARK VINA RESULT:    -3.155     12.551     13.858
REMARK INTER + INTRA:          -9.110
REMARK INTER:                  -6.823
REMARK INTRA:                  -2.287
REMARK UNBOUND:                -3.004
REMARK SMILES CCCCCCCCCCCCCCCCCC(=O)[O-]
REMARK SMILES IDX 10 1 11 2 12 3 13 4 14 5 15 6 16 7 17 8 18 9 19 10 20 11
REMARK SMILES IDX 9 12 8 13 7 14 6 15 5 16 4 17 3 18 2 19 1 20
REMARK H PARENT
REMARK Flexibility Score: inf
ROOT
ATOM      1  C   UNL     1      -1.047   0.218   8.657  1.00  0.00     0.000 C 
ENDROOT
BRANCH   1   2
ATOM      2  C   UNL     1      -0.800   1.737   8.705  1.00  0.00     0.000 C 
BRANCH   2   3
ATOM      3  C   UNL     1       0.436   2.163   7.898  1.00  0.00     0.000 C 
BRANCH   3   4
ATOM      4  C   UNL     1       0.856   3.615   8.187  1.00  0.00     0.000 C 
BRANCH   4   5
ATOM      5  C   UNL     1       1.038   4.450   6.906  1.00  0.00     0.000 C 
BRANCH   5   6
ATOM      6  C   UNL     1       2.419   5.118   6.748  1.00  0.00     0.000 C 
BRANCH   6   7
ATOM      7  C   UNL     1       3.626   4.166   6.869  1.00  0.00     0.006 C 
BRANCH   7   8
ATOM      8  C   UNL     1       4.768   4.698   7.748  1.00  0.00     0.053 C 
BRANCH   8   9
ATOM      9  C   UNL     1       5.873   5.292   6.929  1.00  0.00     0.041 C 
ATOM     10  O   UNL     1       7.067   4.949   7.133  1.00  0.00    -0.550 OA
ATOM     11  O   UNL     1       5.587   6.253   5.968  1.00  0.00    -0.550 OA
ENDBRANCH   8   9
ENDBRANCH   7   8
ENDBRANCH   6   7
ENDBRANCH   5   6
ENDBRANCH   4   5
ENDBRANCH   3   4
ENDBRANCH   2   3
ENDBRANCH   1   2
BRANCH   1  12
ATOM     12  C   UNL     1       0.006  -0.527   7.823  1.00  0.00     0.000 C 
BRANCH  12  13
ATOM     13  C   UNL     1       0.150  -2.002   8.238  1.00  0.00    -0.000 C 
BRANCH  13  14
ATOM     14  C   UNL     1       1.428  -2.265   9.052  1.00  0.00    -0.000 C 
BRANCH  14  15
ATOM     15  C   UNL     1       2.384  -1.062   9.065  1.00  0.00    -0.000 C 
BRANCH  15  16
ATOM     16  C   UNL     1       2.466  -0.442  10.465  1.00  0.00    -0.000 C 
BRANCH  16  17
ATOM     17  C   UNL     1       2.902   1.028  10.393  1.00  0.00    -0.000 C 
BRANCH  17  18
ATOM     18  C   UNL     1       3.776   1.333   9.164  1.00  0.00    -0.000 C 
BRANCH  18  19
ATOM     19  C   UNL     1       5.281   1.435   9.487  1.00  0.00    -0.003 C 
ATOM     20  C   UNL     1       6.157   1.249   8.248  1.00  0.00     0.004 C 
ENDBRANCH  18  19
ENDBRANCH  17  18
ENDBRANCH  16  17
ENDBRANCH  15  16
ENDBRANCH  14  15
ENDBRANCH  13  14
ENDBRANCH  12  13
ENDBRANCH   1  12
TORSDOF 16
ENDMDL
MODEL 5
REMARK VINA RESULT:    -3.124     12.592     14.269
REMARK INTER + INTRA:          -9.050
REMARK INTER:                  -6.850
REMARK INTRA:                  -2.200
REMARK UNBOUND:                -3.004
REMARK SMILES CCCCCCCCCCCCCCCCCC(=O)[O-]
REMARK SMILES IDX 10 1 11 2 12 3 13 4 14 5 15 6 16 7 17 8 18 9 19 10 20 11
REMARK SMILES IDX 9 12 8 13 7 14 6 15 5 16 4 17 3 18 2 19 1 20
REMARK H PARENT
REMARK Flexibility Score: inf
ROOT
ATOM      1  C   UNL     1       1.617  -2.055   8.859  1.00  0.00     0.000 C 
ENDROOT
BRANCH   1   2
ATOM      2  C   UNL     1       2.686  -1.170   9.526  1.00  0.00     0.000 C 
BRANCH   2   3
ATOM      3  C   UNL     1       2.078  -0.015  10.338  1.00  0.00     0.000 C 
BRANCH   3   4
ATOM      4  C   UNL     1       3.040   1.178  10.475  1.00  0.00     0.000 C 
BRANCH   4   5
ATOM      5  C   UNL     1       4.258   1.073   9.538  1.00  0.00     0.000 C 
BRANCH   5   6
ATOM      6  C   UNL     1       4.354   2.173   8.461  1.00  0.00     0.000 C 
BRANCH   6   7
ATOM      7  C   UNL     1       5.563   2.055   7.510  1.00  0.00     0.006 C 
BRANCH   7   8
ATOM      8  C   UNL     1       6.920   2.333   8.174  1.00  0.00     0.053 C 
BRANCH   8   9
ATOM      9  C   UNL     1       7.732   3.321   7.394  1.00  0.00     0.041 C 
ATOM     10  O   UNL     1       7.360   4.521   7.309  1.00  0.00    -0.550 OA
ATOM     11  O   UNL     1       8.880   2.907   6.729  1.00  0.00    -0.550 OA
ENDBRANCH   8   9
ENDBRANCH   7   8
ENDBRANCH   6   7
ENDBRANCH   5   6
ENDBRANCH   4   5
ENDBRANCH   3   4
ENDBRANCH   2   3
ENDBRANCH   1   2
BRANCH   1  12
ATOM     12  C   UNL     1       0.456  -1.239   8.270  1.00  0.00     0.000 C 
BRANCH  12  13
ATOM     13  C   UNL     1      -0.892  -1.568   8.934  1.00  0.00    -0.000 C 
BRANCH  13  14
ATOM     14  C   UNL     1      -1.924  -0.441   8.769  1.00  0.00    -0.000 C 
BRANCH  14  15
ATOM     15  C   UNL     1      -1.330   0.819   8.118  1.00  0.00    -0.000 C 
BRANCH  15  16
ATOM     16  C   UNL     1      -1.340   1.999   9.097  1.00  0.00    -0.000 C 
BRANCH  16  17
ATOM     17  C   UNL     1       0.016   2.718   9.108  1.00  0.00    -0.000 C 
BRANCH  17  18
ATOM     18  C   UNL     1       0.792   2.553   7.790  1.00  0.00    -0.000 C 
BRANCH  18  19
ATOM     19  C   UNL     1       1.306   3.885   7.205  1.00  0.00    -0.003 C 
ATOM     20  C   UNL     1       1.549   4.940   8.285  1.00  0.00     0.004 C 
ENDBRANCH  18  19
ENDBRANCH  17  18
ENDBRANCH  16  17
ENDBRANCH  15  16
ENDBRANCH  14  15
ENDBRANCH  13  14
ENDBRANCH  12  13
ENDBRANCH   1  12
TORSDOF 16
ENDMDL
MODEL 6
REMARK VINA RESULT:    -3.113     12.046     13.432
REMARK INTER + INTRA:          -9.030
REMARK INTER:                  -6.640
REMARK INTRA:                  -2.390
REMARK UNBOUND:                -3.004
REMARK SMILES CCCCCCCCCCCCCCCCCC(=O)[O-]
REMARK SMILES IDX 10 1 11 2 12 3 13 4 14 5 15 6 16 7 17 8 18 9 19 10 20 11
REMARK SMILES IDX 9 12 8 13 7 14 6 15 5 16 4 17 3 18 2 19 1 20
REMARK H PARENT
REMARK Flexibility Score: inf
ROOT
ATOM      1  C   UNL     1       4.187   0.785  10.139  1.00  0.00     0.000 C 
ENDROOT
BRANCH   1   2
ATOM      2  C   UNL     1       3.177   0.274   9.096  1.00  0.00     0.000 C 
BRANCH   2   3
ATOM      3  C   UNL     1       1.993  -0.472   9.731  1.00  0.00     0.000 C 
BRANCH   3   4
ATOM      4  C   UNL     1       1.519  -1.660   8.877  1.00  0.00     0.000 C 
BRANCH   4   5
ATOM      5  C   UNL     1       0.091  -1.473   8.332  1.00  0.00     0.000 C 
BRANCH   5   6
ATOM      6  C   UNL     1      -0.159  -0.146   7.587  1.00  0.00     0.000 C 
BRANCH   6   7
ATOM      7  C   UNL     1      -1.434   0.612   8.010  1.00  0.00     0.006 C 
BRANCH   7   8
ATOM      8  C   UNL     1      -2.131   0.037   9.252  1.00  0.00     0.053 C 
BRANCH   8   9
ATOM      9  C   UNL     1      -3.546  -0.360   8.964  1.00  0.00     0.041 C 
ATOM     10  O   UNL     1      -3.863  -1.578   8.904  1.00  0.00    -0.550 OA
ATOM     11  O   UNL     1      -4.508   0.614   8.725  1.00  0.00    -0.550 OA
ENDBRANCH   8   9
ENDBRANCH   7   8
ENDBRANCH   6   7
ENDBRANCH   5   6
ENDBRANCH   4   5
ENDBRANCH   3   4
ENDBRANCH   2   3
ENDBRANCH   1   2
BRANCH   1  12
ATOM     12  C   UNL     1       5.389   1.499   9.500  1.00  0.00     0.000 C 
BRANCH  12  13
ATOM     13  C   UNL     1       5.092   1.987   8.071  1.00  0.00    -0.000 C 
BRANCH  13  14
ATOM     14  C   UNL     1       5.418   3.477   7.877  1.00  0.00    -0.000 C 
BRANCH  14  15
ATOM     15  C   UNL     1       4.166   4.368   7.906  1.00  0.00    -0.000 C 
BRANCH  15  16
ATOM     16  C   UNL     1       3.385   4.260   6.591  1.00  0.00    -0.000 C 
BRANCH  16  17
ATOM     17  C   UNL     1       1.873   4.192   6.852  1.00  0.00    -0.000 C 
BRANCH  17  18
ATOM     18  C   UNL     1       1.477   3.032   7.781  1.00  0.00    -0.000 C 
BRANCH  18  19
ATOM     19  C   UNL     1       0.665   3.480   9.015  1.00  0.00    -0.003 C 
ATOM     20  C   UNL     1       1.471   3.379  10.311  1.00  0.00     0.004 C 
ENDBRANCH  18  19
ENDBRANCH  17  18
ENDBRANCH  16  17
ENDBRANCH  15  16
ENDBRANCH  14  15
ENDBRANCH  13  14
ENDBRANCH  12  13
ENDBRANCH   1  12
TORSDOF 16
ENDMDL
MODEL 7
REMARK VINA RESULT:    -3.107     12.727     14.409
REMARK INTER + INTRA:          -9.017
REMARK INTER:                  -6.863
REMARK INTRA:                  -2.154
REMARK UNBOUND:                -3.004
REMARK SMILES CCCCCCCCCCCCCCCCCC(=O)[O-]
REMARK SMILES IDX 10 1 11 2 12 3 13 4 14 5 15 6 16 7 17 8 18 9 19 10 20 11
REMARK SMILES IDX 9 12 8 13 7 14 6 15 5 16 4 17 3 18 2 19 1 20
REMARK H PARENT
REMARK Flexibility Score: inf
ROOT
ATOM      1  C   UNL     1       0.582   2.081   9.515  1.00  0.00     0.000 C 
ENDROOT
BRANCH   1   2
ATOM      2  C   UNL     1       0.719   2.161   7.984  1.00  0.00     0.000 C 
BRANCH   2   3
ATOM      3  C   UNL     1       0.841   3.606   7.473  1.00  0.00     0.000 C 
BRANCH   3   4
ATOM      4  C   UNL     1       2.287   3.981   7.107  1.00  0.00     0.000 C 
BRANCH   4   5
ATOM      5  C   UNL     1       3.099   4.479   8.317  1.00  0.00     0.000 C 
BRANCH   5   6
ATOM      6  C   UNL     1       4.388   3.686   8.614  1.00  0.00     0.000 C 
BRANCH   6   7
ATOM      7  C   UNL     1       4.801   2.674   7.526  1.00  0.00     0.006 C 
BRANCH   7   8
ATOM      8  C   UNL     1       5.942   1.732   7.938  1.00  0.00     0.053 C 
BRANCH   8   9
ATOM      9  C   UNL     1       7.270   2.427   7.933  1.00  0.00     0.041 C 
ATOM     10  O   UNL     1       7.482   3.381   7.140  1.00  0.00    -0.550 OA
ATOM     11  O   UNL     1       8.284   1.994   8.778  1.00  0.00    -0.550 OA
ENDBRANCH   8   9
ENDBRANCH   7   8
ENDBRANCH   6   7
ENDBRANCH   5   6
ENDBRANCH   4   5
ENDBRANCH   3   4
ENDBRANCH   2   3
ENDBRANCH   1   2
BRANCH   1  12
ATOM     12  C   UNL     1       1.597   1.117  10.150  1.00  0.00     0.000 C 
BRANCH  12  13
ATOM     13  C   UNL     1       2.421   0.353   9.100  1.00  0.00    -0.000 C 
BRANCH  13  14
ATOM     14  C   UNL     1       2.116  -1.154   9.092  1.00  0.00    -0.000 C 
BRANCH  14  15
ATOM     15  C   UNL     1       0.726  -1.484   9.658  1.00  0.00    -0.000 C 
BRANCH  15  16
ATOM     16  C   UNL     1      -0.338  -1.451   8.555  1.00  0.00    -0.000 C 
BRANCH  16  17
ATOM     17  C   UNL     1      -1.733  -1.194   9.141  1.00  0.00    -0.000 C 
BRANCH  17  18
ATOM     18  C   UNL     1      -2.362   0.117   8.638  1.00  0.00    -0.000 C 
BRANCH  18  19
ATOM     19  C   UNL     1      -3.889   0.030   8.434  1.00  0.00    -0.003 C 
ATOM     20  C   UNL     1      -4.459  -1.319   8.873  1.00  0.00     0.004 C 
ENDBRANCH  18  19
ENDBRANCH  17  18
ENDBRANCH  16  17
ENDBRANCH  15  16
ENDBRANCH  14  15
ENDBRANCH  13  14
ENDBRANCH  12  13
ENDBRANCH   1  12
TORSDOF 16
ENDMDL
MODEL 8
REMARK VINA RESULT:    -3.099     12.253     13.985
REMARK INTER + INTRA:          -9.001
REMARK INTER:                  -6.897
REMARK INTRA:                  -2.105
REMARK UNBOUND:                -3.004
REMARK SMILES CCCCCCCCCCCCCCCCCC(=O)[O-]
REMARK SMILES IDX 10 1 11 2 12 3 13 4 14 5 15 6 16 7 17 8 18 9 19 10 20 11
REMARK SMILES IDX 9 12 8 13 7 14 6 15 5 16 4 17 3 18 2 19 1 20
REMARK H PARENT
REMARK Flexibility Score: inf
ROOT
ATOM      1  C   UNL     1       1.132   3.709   8.522  1.00  0.00     0.000 C 
ENDROOT
BRANCH   1   2
ATOM      2  C   UNL     1       1.481   4.585   7.306  1.00  0.00     0.000 C 
BRANCH   2   3
ATOM      3  C   UNL     1       2.702   4.066   6.530  1.00  0.00     0.000 C 
BRANCH   3   4
ATOM      4  C   UNL     1       3.970   4.891   6.809  1.00  0.00     0.000 C 
BRANCH   4   5
ATOM      5  C   UNL     1       5.104   4.054   7.429  1.00  0.00     0.000 C 
BRANCH   5   6
ATOM      6  C   UNL     1       4.692   2.650   7.917  1.00  0.00     0.000 C 
BRANCH   6   7
ATOM      7  C   UNL     1       5.849   1.639   8.057  1.00  0.00     0.006 C 
BRANCH   7   8
ATOM      8  C   UNL     1       5.912   0.932   9.419  1.00  0.00     0.053 C 
BRANCH   8   9
ATOM      9  C   UNL     1       6.944  -0.154   9.438  1.00  0.00     0.041 C 
ATOM     10  O   UNL     1       8.167   0.133   9.360  1.00  0.00    -0.550 OA
ATOM     11  O   UNL     1       6.551  -1.485   9.504  1.00  0.00    -0.550 OA
ENDBRANCH   8   9
ENDBRANCH   7   8
ENDBRANCH   6   7
ENDBRANCH   5   6
ENDBRANCH   4   5
ENDBRANCH   3   4
ENDBRANCH   2   3
ENDBRANCH   1   2
BRANCH   1  12
ATOM     12  C   UNL     1       0.736   2.277   8.128  1.00  0.00     0.000 C 
BRANCH  12  13
ATOM     13  C   UNL     1      -0.576   1.826   8.793  1.00  0.00    -0.000 C 
BRANCH  13  14
ATOM     14  C   UNL     1      -1.146   0.543   8.165  1.00  0.00    -0.000 C 
BRANCH  14  15
ATOM     15  C   UNL     1      -0.052  -0.405   7.650  1.00  0.00    -0.000 C 
BRANCH  15  16
ATOM     16  C   UNL     1      -0.167  -1.784   8.309  1.00  0.00    -0.000 C 
BRANCH  16  17
ATOM     17  C   UNL     1       0.975  -2.016   9.308  1.00  0.00    -0.000 C 
BRANCH  17  18
ATOM     18  C   UNL     1       2.160  -1.057   9.096  1.00  0.00    -0.000 C 
BRANCH  18  19
ATOM     19  C   UNL     1       2.894  -0.685  10.401  1.00  0.00    -0.003 C 
ATOM     20  C   UNL     1       2.480   0.689  10.930  1.00  0.00     0.004 C 
ENDBRANCH  18  19
ENDBRANCH  17  18
ENDBRANCH  16  17
ENDBRANCH  15  16
ENDBRANCH  14  15
ENDBRANCH  13  14
ENDBRANCH  12  13
ENDBRANCH   1  12
TORSDOF 16
ENDMDL
MODEL 9
REMARK VINA RESULT:    -3.095     12.312     14.570
REMARK INTER + INTRA:          -8.995
REMARK INTER:                  -7.010
REMARK INTRA:                  -1.985
REMARK UNBOUND:                -3.004
REMARK SMILES CCCCCCCCCCCCCCCCCC(=O)[O-]
REMARK SMILES IDX 10 1 11 2 12 3 13 4 14 5 15 6 16 7 17 8 18 9 19 10 20 11
REMARK SMILES IDX 9 12 8 13 7 14 6 15 5 16 4 17 3 18 2 19 1 20
REMARK H PARENT
REMARK Flexibility Score: inf
ROOT
ATOM      1  C   UNL     1       0.023  -2.383   8.593  1.00  0.00     0.000 C 
ENDROOT
BRANCH   1   2
ATOM      2  C   UNL     1       1.431  -2.969   8.798  1.00  0.00     0.000 C 
BRANCH   2   3
ATOM      3  C   UNL     1       2.163  -2.352  10.001  1.00  0.00     0.000 C 
BRANCH   3   4
ATOM      4  C   UNL     1       3.303  -1.409   9.577  1.00  0.00     0.000 C 
BRANCH   4   5
ATOM      5  C   UNL     1       3.031   0.060   9.947  1.00  0.00     0.000 C 
BRANCH   5   6
ATOM      6  C   UNL     1       3.839   1.100   9.144  1.00  0.00     0.000 C 
BRANCH   6   7
ATOM      7  C   UNL     1       3.058   2.368   8.742  1.00  0.00     0.006 C 
BRANCH   7   8
ATOM      8  C   UNL     1       3.929   3.488   8.154  1.00  0.00     0.053 C 
BRANCH   8   9
ATOM      9  C   UNL     1       3.310   4.096   6.933  1.00  0.00     0.041 C 
ATOM     10  O   UNL     1       2.149   3.761   6.578  1.00  0.00    -0.550 OA
ATOM     11  O   UNL     1       4.030   5.003   6.165  1.00  0.00    -0.550 OA
ENDBRANCH   8   9
ENDBRANCH   7   8
ENDBRANCH   6   7
ENDBRANCH   5   6
ENDBRANCH   4   5
ENDBRANCH   3   4
ENDBRANCH   2   3
ENDBRANCH   1   2
BRANCH   1  12
ATOM     12  C   UNL     1       0.050  -0.990   7.944  1.00  0.00     0.000 C 
BRANCH  12  13
ATOM     13  C   UNL     1      -0.559   0.094   8.850  1.00  0.00    -0.000 C 
BRANCH  13  14
ATOM     14  C   UNL     1      -0.415   1.507   8.261  1.00  0.00    -0.000 C 
BRANCH  14  15
ATOM     15  C   UNL     1      -1.130   2.578   9.099  1.00  0.00    -0.000 C 
BRANCH  15  16
ATOM     16  C   UNL     1      -2.200   1.947   9.997  1.00  0.00    -0.000 C 
BRANCH  16  17
ATOM     17  C   UNL     1      -3.611   2.278   9.491  1.00  0.00    -0.000 C 
BRANCH  17  18
ATOM     18  C   UNL     1      -4.548   1.057   9.486  1.00  0.00    -0.000 C 
BRANCH  18  19
ATOM     19  C   UNL     1      -4.211   0.026   8.389  1.00  0.00    -0.003 C 
ATOM     20  C   UNL     1      -4.154  -1.403   8.931  1.00  0.00     0.004 C 
ENDBRANCH  18  19
ENDBRANCH  17  18
ENDBRANCH  16  17
ENDBRANCH  15  16
ENDBRANCH  14  15
ENDBRANCH  13  14
ENDBRANCH  12  13
ENDBRANCH   1  12
TORSDOF 16
ENDMDL
