MODEL 1
REMARK VINA RESULT:    -4.041      0.000      0.000
REMARK INTER + INTRA:          -4.643
REMARK INTER:                  -4.395
REMARK INTRA:                  -0.248
REMARK UNBOUND:                -0.248
REMARK SMILES O=C([O-])c1ccccc1O
REMARK SMILES IDX 4 1 9 2 5 3 8 4 6 5 7 6 2 7 1 8 3 9 10 10
REMARK H PARENT 10 11
REMARK Flexibility Score: inf
ROOT
ATOM      1  C   UNL     1      12.991  16.532   9.750  1.00  0.00     0.039 A 
ATOM      2  C   UNL     1      11.765  17.011  10.282  1.00  0.00     0.124 A 
ATOM      3  C   UNL     1      13.641  15.464  10.397  1.00  0.00     0.014 A 
ATOM      4  C   UNL     1      11.196  16.374  11.393  1.00  0.00     0.047 A 
ATOM      5  C   UNL     1      13.070  14.855  11.516  1.00  0.00     0.001 A 
ATOM      6  C   UNL     1      11.845  15.303  12.008  1.00  0.00     0.004 A 
ENDROOT
BRANCH   1   7
ATOM      7  C   UNL     1      13.605  17.087   8.524  1.00  0.00     0.075 C 
ATOM      8  O   UNL     1      12.902  17.364   7.517  1.00  0.00    -0.545 OA
ATOM      9  O   UNL     1      14.984  17.244   8.446  1.00  0.00    -0.545 OA
ENDBRANCH   1   7
BRANCH   2  10
ATOM     10  O   UNL     1      11.101  18.125   9.763  1.00  0.00    -0.507 OA
ATOM     11  H   UNL     1      11.358  19.078   9.978  1.00  0.00     0.293 HD
ENDBRANCH   2  10
TORSDOF 2
ENDMDL
MODEL 2
REMARK VINA RESULT:    -4.005      3.120      3.646
REMARK INTER + INTRA:          -4.605
REMARK INTER:                  -4.354
REMARK INTRA:                  -0.251
REMARK UNBOUND:                -0.248
REMARK SMILES O=C([O-])c1ccccc1O
REMARK SMILES IDX 4 1 9 2 5 3 8 4 6 5 7 6 2 7 1 8 3 9 10 10
REMARK H PARENT 10 11
REMARK Flexibility Score: inf
ROOT
ATOM      1  C   UNL     1      11.708  14.633  10.029  1.00  0.00     0.039 A 
ATOM      2  C   UNL     1      11.684  14.971  11.408  1.00  0.00     0.124 A 
ATOM      3  C   UNL     1      11.560  15.658   9.075  1.00  0.00     0.014 A 
ATOM      4  C   UNL     1      11.580  16.315  11.789  1.00  0.00     0.047 A 
ATOM      5  C   UNL     1      11.436  16.990   9.475  1.00  0.00     0.001 A 
ATOM      6  C   UNL     1      11.455  17.319  10.830  1.00  0.00     0.004 A 
ENDROOT
BRANCH   1   7
ATOM      7  C   UNL     1      11.913  13.251   9.545  1.00  0.00     0.075 C 
ATOM      8  O   UNL     1      11.189  12.770   8.634  1.00  0.00    -0.545 OA
ATOM      9  O   UNL     1      12.868  12.438  10.144  1.00  0.00    -0.545 OA
ENDBRANCH   1   7
BRANCH   2  10
ATOM     10  O   UNL     1      11.729  14.010  12.421  1.00  0.00    -0.507 OA
ATOM     11  H   UNL     1      11.225  14.095  13.293  1.00  0.00     0.293 HD
ENDBRANCH   2  10
TORSDOF 2
ENDMDL
MODEL 3
REMARK VINA RESULT:    -3.990      2.169      3.562
REMARK INTER + INTRA:          -4.588
REMARK INTER:                  -4.337
REMARK INTRA:                  -0.252
REMARK UNBOUND:                -0.248
REMARK SMILES O=C([O-])c1ccccc1O
REMARK SMILES IDX 4 1 9 2 5 3 8 4 6 5 7 6 2 7 1 8 3 9 10 10
REMARK H PARENT 10 11
REMARK Flexibility Score: inf
ROOT
ATOM      1  C   UNL     1      12.917  17.233  10.325  1.00  0.00     0.039 A 
ATOM      2  C   UNL     1      12.147  17.273   9.133  1.00  0.00     0.124 A 
ATOM      3  C   UNL     1      14.307  17.033  10.231  1.00  0.00     0.014 A 
ATOM      4  C   UNL     1      12.789  17.178   7.892  1.00  0.00     0.047 A 
ATOM      5  C   UNL     1      14.927  16.920   8.985  1.00  0.00     0.001 A 
ATOM      6  C   UNL     1      14.171  17.002   7.817  1.00  0.00     0.004 A 
ENDROOT
BRANCH   1   7
ATOM      7  C   UNL     1      12.326  17.423  11.668  1.00  0.00     0.075 C 
ATOM      8  O   UNL     1      12.907  18.125  12.537  1.00  0.00    -0.545 OA
ATOM      9  O   UNL     1      11.149  16.767  12.010  1.00  0.00    -0.545 OA
ENDBRANCH   1   7
BRANCH   2  10
ATOM     10  O   UNL     1      10.754  17.371   9.137  1.00  0.00    -0.507 OA
ATOM     11  H   UNL     1      10.162  16.891   9.801  1.00  0.00     0.293 HD
ENDBRANCH   2  10
TORSDOF 2
ENDMDL
MODEL 4
REMARK VINA RESULT:    -3.938      1.388      2.097
REMARK INTER + INTRA:          -4.532
REMARK INTER:                  -4.280
REMARK INTRA:                  -0.252
REMARK UNBOUND:                -0.248
REMARK SMILES O=C([O-])c1ccccc1O
REMARK SMILES IDX 4 1 9 2 5 3 8 4 6 5 7 6 2 7 1 8 3 9 10 10
REMARK H PARENT 10 11
REMARK Flexibility Score: inf
ROOT
ATOM      1  C   UNL     1      13.429  17.043  10.411  1.00  0.00     0.039 A 
ATOM      2  C   UNL     1      12.412  17.166   9.428  1.00  0.00     0.124 A 
ATOM      3  C   UNL     1      13.090  16.540  11.681  1.00  0.00     0.014 A 
ATOM      4  C   UNL     1      11.113  16.728   9.718  1.00  0.00     0.047 A 
ATOM      5  C   UNL     1      11.785  16.128  11.959  1.00  0.00     0.001 A 
ATOM      6  C   UNL     1      10.800  16.213  10.976  1.00  0.00     0.004 A 
ENDROOT
BRANCH   1   7
ATOM      7  C   UNL     1      14.843  17.391  10.150  1.00  0.00     0.075 C 
ATOM      8  O   UNL     1      15.551  17.932  11.039  1.00  0.00    -0.545 OA
ATOM      9  O   UNL     1      15.388  17.187   8.888  1.00  0.00    -0.545 OA
ENDBRANCH   1   7
BRANCH   2  10
ATOM     10  O   UNL     1      12.638  17.741   8.176  1.00  0.00    -0.507 OA
ATOM     11  H   UNL     1      13.524  18.139   7.896  1.00  0.00     0.293 HD
ENDBRANCH   2  10
TORSDOF 2
ENDMDL
MODEL 5
REMARK VINA RESULT:    -3.915      1.667      3.599
REMARK INTER + INTRA:          -4.507
REMARK INTER:                  -4.254
REMARK INTRA:                  -0.253
REMARK UNBOUND:                -0.248
REMARK SMILES O=C([O-])c1ccccc1O
REMARK SMILES IDX 4 1 9 2 5 3 8 4 6 5 7 6 2 7 1 8 3 9 10 10
REMARK H PARENT 10 11
REMARK Flexibility Score: inf
ROOT
ATOM      1  C   UNL     1      13.482  16.319   9.245  1.00  0.00     0.039 A 
ATOM      2  C   UNL     1      13.739  17.089   8.080  1.00  0.00     0.124 A 
ATOM      3  C   UNL     1      14.484  15.453   9.723  1.00  0.00     0.014 A 
ATOM      4  C   UNL     1      14.998  17.021   7.470  1.00  0.00     0.047 A 
ATOM      5  C   UNL     1      15.726  15.383   9.089  1.00  0.00     0.001 A 
ATOM      6  C   UNL     1      15.987  16.173   7.970  1.00  0.00     0.004 A 
ENDROOT
BRANCH   1   7
ATOM      7  C   UNL     1      12.214  16.408  10.002  1.00  0.00     0.075 C 
ATOM      8  O   UNL     1      11.647  15.372  10.440  1.00  0.00    -0.545 OA
ATOM      9  O   UNL     1      11.594  17.639  10.179  1.00  0.00    -0.545 OA
ENDBRANCH   1   7
BRANCH   2  10
ATOM     10  O   UNL     1      12.771  17.900   7.483  1.00  0.00    -0.507 OA
ATOM     11  H   UNL     1      12.966  18.530   6.718  1.00  0.00     0.293 HD
ENDBRANCH   2  10
TORSDOF 2
ENDMDL
MODEL 6
REMARK VINA RESULT:    -3.888      7.731      9.066
REMARK INTER + INTRA:          -4.478
REMARK INTER:                  -4.236
REMARK INTRA:                  -0.242
REMARK UNBOUND:                -0.248
REMARK SMILES O=C([O-])c1ccccc1O
REMARK SMILES IDX 4 1 9 2 5 3 8 4 6 5 7 6 2 7 1 8 3 9 10 10
REMARK H PARENT 10 11
REMARK Flexibility Score: inf
ROOT
ATOM      1  C   UNL     1      17.177  14.465  16.906  1.00  0.00     0.039 A 
ATOM      2  C   UNL     1      17.622  14.141  15.597  1.00  0.00     0.124 A 
ATOM      3  C   UNL     1      16.228  15.492  17.066  1.00  0.00     0.014 A 
ATOM      4  C   UNL     1      17.064  14.798  14.494  1.00  0.00     0.047 A 
ATOM      5  C   UNL     1      15.698  16.152  15.955  1.00  0.00     0.001 A 
ATOM      6  C   UNL     1      16.108  15.799  14.670  1.00  0.00     0.004 A 
ENDROOT
BRANCH   1   7
ATOM      7  C   UNL     1      17.646  13.750  18.113  1.00  0.00     0.075 C 
ATOM      8  O   UNL     1      18.088  14.381  19.108  1.00  0.00    -0.545 OA
ATOM      9  O   UNL     1      17.667  12.360  18.134  1.00  0.00    -0.545 OA
ENDBRANCH   1   7
BRANCH   2  10
ATOM     10  O   UNL     1      18.629  13.204  15.353  1.00  0.00    -0.507 OA
ATOM     11  H   UNL     1      18.503  12.207  15.461  1.00  0.00     0.293 HD
ENDBRANCH   2  10
TORSDOF 2
ENDMDL
MODEL 7
REMARK VINA RESULT:    -3.827      6.723      7.479
REMARK INTER + INTRA:          -4.411
REMARK INTER:                  -4.167
REMARK INTRA:                  -0.243
REMARK UNBOUND:                -0.248
REMARK SMILES O=C([O-])c1ccccc1O
REMARK SMILES IDX 4 1 9 2 5 3 8 4 6 5 7 6 2 7 1 8 3 9 10 10
REMARK H PARENT 10 11
REMARK Flexibility Score: inf
ROOT
ATOM      1  C   UNL     1      12.216  10.592   7.280  1.00  0.00     0.039 A 
ATOM      2  C   UNL     1      11.710  10.507   5.955  1.00  0.00     0.124 A 
ATOM      3  C   UNL     1      13.563  10.259   7.516  1.00  0.00     0.014 A 
ATOM      4  C   UNL     1      12.572  10.159   4.907  1.00  0.00     0.047 A 
ATOM      5  C   UNL     1      14.402   9.894   6.461  1.00  0.00     0.001 A 
ATOM      6  C   UNL     1      13.910   9.853   5.157  1.00  0.00     0.004 A 
ENDROOT
BRANCH   1   7
ATOM      7  C   UNL     1      11.395  11.045   8.423  1.00  0.00     0.075 C 
ATOM      8  O   UNL     1      10.270  10.530   8.658  1.00  0.00    -0.545 OA
ATOM      9  O   UNL     1      11.829  12.101   9.216  1.00  0.00    -0.545 OA
ENDBRANCH   1   7
BRANCH   2  10
ATOM     10  O   UNL     1      10.366  10.726   5.645  1.00  0.00    -0.507 OA
ATOM     11  H   UNL     1       9.994  11.628   5.382  1.00  0.00     0.293 HD
ENDBRANCH   2  10
TORSDOF 2
ENDMDL
MODEL 8
REMARK VINA RESULT:    -3.727      9.413     10.657
REMARK INTER + INTRA:          -4.302
REMARK INTER:                  -4.056
REMARK INTRA:                  -0.245
REMARK UNBOUND:                -0.248
REMARK SMILES O=C([O-])c1ccccc1O
REMARK SMILES IDX 4 1 9 2 5 3 8 4 6 5 7 6 2 7 1 8 3 9 10 10
REMARK H PARENT 10 11
REMARK Flexibility Score: inf
ROOT
ATOM      1  C   UNL     1      17.496  12.888  18.328  1.00  0.00     0.039 A 
ATOM      2  C   UNL     1      17.876  14.256  18.324  1.00  0.00     0.124 A 
ATOM      3  C   UNL     1      16.355  12.497  17.602  1.00  0.00     0.014 A 
ATOM      4  C   UNL     1      17.150  15.173  17.553  1.00  0.00     0.047 A 
ATOM      5  C   UNL     1      15.632  13.429  16.855  1.00  0.00     0.001 A 
ATOM      6  C   UNL     1      16.034  14.763  16.823  1.00  0.00     0.004 A 
ENDROOT
BRANCH   1   7
ATOM      7  C   UNL     1      18.267  11.844  19.038  1.00  0.00     0.075 C 
ATOM      8  O   UNL     1      18.563  10.760  18.470  1.00  0.00    -0.545 OA
ATOM      9  O   UNL     1      18.615  12.022  20.372  1.00  0.00    -0.545 OA
ENDBRANCH   1   7
BRANCH   2  10
ATOM     10  O   UNL     1      18.935  14.748  19.091  1.00  0.00    -0.507 OA
ATOM     11  H   UNL     1      18.811  15.238  19.966  1.00  0.00     0.293 HD
ENDBRANCH   2  10
TORSDOF 2
ENDMDL
MODEL 9
REMARK VINA RESULT:    -3.621      2.559      3.165
REMARK INTER + INTRA:          -4.187
REMARK INTER:                  -3.973
REMARK INTRA:                  -0.214
REMARK UNBOUND:                -0.248
REMARK SMILES O=C([O-])c1ccccc1O
REMARK SMILES IDX 4 1 9 2 5 3 8 4 6 5 7 6 2 7 1 8 3 9 10 10
REMARK H PARENT 10 11
REMARK Flexibility Score: inf
ROOT
ATOM      1  C   UNL     1      13.497  17.389  11.085  1.00  0.00     0.039 A 
ATOM      2  C   UNL     1      12.125  17.520  11.428  1.00  0.00     0.124 A 
ATOM      3  C   UNL     1      13.836  17.002   9.775  1.00  0.00     0.014 A 
ATOM      4  C   UNL     1      11.145  17.328  10.447  1.00  0.00     0.047 A 
ATOM      5  C   UNL     1      12.844  16.794   8.815  1.00  0.00     0.001 A 
ATOM      6  C   UNL     1      11.500  16.965   9.147  1.00  0.00     0.004 A 
ENDROOT
BRANCH   1   7
ATOM      7  C   UNL     1      14.592  17.670  12.038  1.00  0.00     0.075 C 
ATOM      8  O   UNL     1      14.350  18.125  13.187  1.00  0.00    -0.545 OA
ATOM      9  O   UNL     1      15.915  17.501  11.647  1.00  0.00    -0.545 OA
ENDBRANCH   1   7
BRANCH   2  10
ATOM     10  O   UNL     1      11.696  17.806  12.727  1.00  0.00    -0.507 OA
ATOM     11  H   UNL     1      11.879  18.683  13.195  1.00  0.00     0.293 HD
ENDBRANCH   2  10
TORSDOF 2
ENDMDL
