MODEL 1
REMARK VINA RESULT:    -5.219      0.000      0.000
REMARK INTER + INTRA:          -9.585
REMARK INTER:                  -8.880
REMARK INTRA:                  -0.705
REMARK UNBOUND:                -0.705
REMARK SMILES CCCCCCCCCCCCCC(=O)[O-]
REMARK SMILES IDX 8 1 9 2 10 3 11 4 12 5 13 6 14 7 15 8 16 9 7 10 6 11 5 12
REMARK SMILES IDX 4 13 3 14 2 15 1 16
REMARK H PARENT
REMARK Flexibility Score: inf
ROOT
ATOM      1  C   UNL     1     -10.656  -1.048  -9.747  1.00  0.00     0.000 C 
ENDROOT
BRANCH   1   2
ATOM      2  C   UNL     1     -11.855  -0.225 -10.248  1.00  0.00     0.000 C 
BRANCH   2   3
ATOM      3  C   UNL     1     -13.106  -1.085 -10.504  1.00  0.00     0.000 C 
BRANCH   3   4
ATOM      4  C   UNL     1     -14.428  -0.304 -10.608  1.00  0.00     0.000 C 
BRANCH   4   5
ATOM      5  C   UNL     1     -14.725   0.542  -9.361  1.00  0.00     0.006 C 
BRANCH   5   6
ATOM      6  C   UNL     1     -14.988   2.003  -9.739  1.00  0.00     0.053 C 
BRANCH   6   7
ATOM      7  C   UNL     1     -13.995   2.904  -9.075  1.00  0.00     0.041 C 
ATOM      8  O   UNL     1     -14.374   3.736  -8.211  1.00  0.00    -0.550 OA
ATOM      9  O   UNL     1     -12.657   2.858  -9.447  1.00  0.00    -0.550 OA
ENDBRANCH   6   7
ENDBRANCH   5   6
ENDBRANCH   4   5
ENDBRANCH   3   4
ENDBRANCH   2   3
ENDBRANCH   1   2
BRANCH   1  10
ATOM     10  C   UNL     1     -10.945  -2.559  -9.725  1.00  0.00     0.000 C 
BRANCH  10  11
ATOM     11  C   UNL     1      -9.721  -3.390  -9.310  1.00  0.00    -0.000 C 
BRANCH  11  12
ATOM     12  C   UNL     1      -9.383  -3.161  -7.828  1.00  0.00    -0.000 C 
BRANCH  12  13
ATOM     13  C   UNL     1     -10.094  -4.157  -6.898  1.00  0.00    -0.000 C 
BRANCH  13  14
ATOM     14  C   UNL     1     -10.270  -5.544  -7.540  1.00  0.00    -0.000 C 
BRANCH  14  15
ATOM     15  C   UNL     1     -10.657  -6.622  -6.515  1.00  0.00    -0.003 C 
ATOM     16  C   UNL     1     -11.451  -6.057  -5.338  1.00  0.00     0.004 C 
ENDBRANCH  14  15
ENDBRANCH  13  14
ENDBRANCH  12  13
ENDBRANCH  11  12
ENDBRANCH  10  11
ENDBRANCH   1  10
TORSDOF 12
ENDMDL
MODEL 2
REMARK VINA RESULT:    -5.172      4.047      7.764
REMARK INTER + INTRA:          -9.506
REMARK INTER:                  -8.613
REMARK INTRA:                  -0.893
REMARK UNBOUND:                -0.705
REMARK SMILES CCCCCCCCCCCCCC(=O)[O-]
REMARK SMILES IDX 8 1 9 2 10 3 11 4 12 5 13 6 14 7 15 8 16 9 7 10 6 11 5 12
REMARK SMILES IDX 4 13 3 14 2 15 1 16
REMARK H PARENT
REMARK Flexibility Score: inf
ROOT
ATOM      1  C   UNL     1     -10.852  -0.991  -9.530  1.00  0.00     0.000 C 
ENDROOT
BRANCH   1   2
ATOM      2  C   UNL     1     -10.142  -2.105 -10.318  1.00  0.00     0.000 C 
BRANCH   2   3
ATOM      3  C   UNL     1      -9.691  -3.275  -9.425  1.00  0.00     0.000 C 
BRANCH   3   4
ATOM      4  C   UNL     1      -9.803  -3.025  -7.910  1.00  0.00     0.000 C 
BRANCH   4   5
ATOM      5  C   UNL     1     -10.011  -4.315  -7.103  1.00  0.00     0.006 C 
BRANCH   5   6
ATOM      6  C   UNL     1     -10.946  -5.279  -7.840  1.00  0.00     0.053 C 
BRANCH   6   7
ATOM      7  C   UNL     1     -10.513  -6.696  -7.628  1.00  0.00     0.041 C 
ATOM      8  O   UNL     1     -10.449  -7.491  -8.601  1.00  0.00    -0.550 OA
ATOM      9  O   UNL     1     -10.229  -7.151  -6.347  1.00  0.00    -0.550 OA
ENDBRANCH   6   7
ENDBRANCH   5   6
ENDBRANCH   4   5
ENDBRANCH   3   4
ENDBRANCH   2   3
ENDBRANCH   1   2
BRANCH   1  10
ATOM     10  C   UNL     1     -11.959  -0.303 -10.348  1.00  0.00     0.000 C 
BRANCH  10  11
ATOM     11  C   UNL     1     -13.256  -1.125 -10.399  1.00  0.00    -0.000 C 
BRANCH  11  12
ATOM     12  C   UNL     1     -14.475  -0.210 -10.597  1.00  0.00    -0.000 C 
BRANCH  12  13
ATOM     13  C   UNL     1     -14.765   0.663  -9.365  1.00  0.00    -0.000 C 
BRANCH  13  14
ATOM     14  C   UNL     1     -14.950   2.148  -9.723  1.00  0.00    -0.000 C 
BRANCH  14  15
ATOM     15  C   UNL     1     -14.117   3.077  -8.826  1.00  0.00    -0.003 C 
ATOM     16  C   UNL     1     -12.643   3.118  -9.227  1.00  0.00     0.004 C 
ENDBRANCH  14  15
ENDBRANCH  13  14
ENDBRANCH  12  13
ENDBRANCH  11  12
ENDBRANCH  10  11
ENDBRANCH   1  10
TORSDOF 12
ENDMDL
MODEL 3
REMARK VINA RESULT:    -4.897      2.020      4.489
REMARK INTER + INTRA:          -9.038
REMARK INTER:                  -7.582
REMARK INTRA:                  -1.456
REMARK UNBOUND:                -0.705
REMARK SMILES CCCCCCCCCCCCCC(=O)[O-]
REMARK SMILES IDX 8 1 9 2 10 3 11 4 12 5 13 6 14 7 15 8 16 9 7 10 6 11 5 12
REMARK SMILES IDX 4 13 3 14 2 15 1 16
REMARK H PARENT
REMARK Flexibility Score: inf
ROOT
ATOM      1  C   UNL     1     -10.334  -4.565  -6.791  1.00  0.00     0.000 C 
ENDROOT
BRANCH   1   2
ATOM      2  C   UNL     1      -9.550  -3.441  -7.488  1.00  0.00     0.000 C 
BRANCH   2   3
ATOM      3  C   UNL     1      -9.003  -3.858  -8.866  1.00  0.00     0.000 C 
BRANCH   3   4
ATOM      4  C   UNL     1      -9.702  -3.209 -10.073  1.00  0.00     0.000 C 
BRANCH   4   5
ATOM      5  C   UNL     1     -10.913  -2.351  -9.675  1.00  0.00     0.006 C 
BRANCH   5   6
ATOM      6  C   UNL     1     -10.725  -0.897 -10.121  1.00  0.00     0.053 C 
BRANCH   6   7
ATOM      7  C   UNL     1     -12.023  -0.156 -10.055  1.00  0.00     0.041 C 
ATOM      8  O   UNL     1     -12.076   0.981  -9.519  1.00  0.00    -0.550 OA
ATOM      9  O   UNL     1     -13.184  -0.744 -10.539  1.00  0.00    -0.550 OA
ENDBRANCH   6   7
ENDBRANCH   5   6
ENDBRANCH   4   5
ENDBRANCH   3   4
ENDBRANCH   2   3
ENDBRANCH   1   2
BRANCH   1  10
ATOM     10  C   UNL     1      -9.961  -5.961  -7.319  1.00  0.00     0.000 C 
BRANCH  10  11
ATOM     11  C   UNL     1     -10.580  -7.095  -6.487  1.00  0.00    -0.000 C 
BRANCH  11  12
ATOM     12  C   UNL     1     -11.800  -6.591  -5.699  1.00  0.00    -0.000 C 
BRANCH  12  13
ATOM     13  C   UNL     1     -13.128  -7.122  -6.261  1.00  0.00    -0.000 C 
BRANCH  13  14
ATOM     14  C   UNL     1     -13.766  -6.159  -7.278  1.00  0.00    -0.000 C 
BRANCH  14  15
ATOM     15  C   UNL     1     -13.509  -6.584  -8.732  1.00  0.00    -0.003 C 
ATOM     16  C   UNL     1     -12.772  -5.514  -9.536  1.00  0.00     0.004 C 
ENDBRANCH  14  15
ENDBRANCH  13  14
ENDBRANCH  12  13
ENDBRANCH  11  12
ENDBRANCH  10  11
ENDBRANCH   1  10
TORSDOF 12
ENDMDL
MODEL 4
REMARK VINA RESULT:    -4.788     14.561     15.995
REMARK INTER + INTRA:          -8.853
REMARK INTER:                  -7.822
REMARK INTRA:                  -1.031
REMARK UNBOUND:                -0.705
REMARK SMILES CCCCCCCCCCCCCC(=O)[O-]
REMARK SMILES IDX 8 1 9 2 10 3 11 4 12 5 13 6 14 7 15 8 16 9 7 10 6 11 5 12
REMARK SMILES IDX 4 13 3 14 2 15 1 16
REMARK H PARENT
REMARK Flexibility Score: inf
ROOT
ATOM      1  C   UNL     1     -13.644   5.684   5.441  1.00  0.00     0.000 C 
ENDROOT
BRANCH   1   2
ATOM      2  C   UNL     1     -13.679   5.403   3.930  1.00  0.00     0.000 C 
BRANCH   2   3
ATOM      3  C   UNL     1     -14.820   6.143   3.209  1.00  0.00     0.000 C 
BRANCH   3   4
ATOM      4  C   UNL     1     -14.381   7.056   2.050  1.00  0.00     0.000 C 
BRANCH   4   5
ATOM      5  C   UNL     1     -13.987   8.466   2.514  1.00  0.00     0.006 C 
BRANCH   5   6
ATOM      6  C   UNL     1     -13.844   9.416   1.321  1.00  0.00     0.053 C 
BRANCH   6   7
ATOM      7  C   UNL     1     -12.807  10.457   1.600  1.00  0.00     0.041 C 
ATOM      8  O   UNL     1     -12.795  11.058   2.706  1.00  0.00    -0.550 OA
ATOM      9  O   UNL     1     -11.884  10.801   0.620  1.00  0.00    -0.550 OA
ENDBRANCH   6   7
ENDBRANCH   5   6
ENDBRANCH   4   5
ENDBRANCH   3   4
ENDBRANCH   2   3
ENDBRANCH   1   2
BRANCH   1  10
ATOM     10  C   UNL     1     -13.452   4.405   6.276  1.00  0.00     0.000 C 
BRANCH  10  11
ATOM     11  C   UNL     1     -13.270   4.696   7.773  1.00  0.00    -0.000 C 
BRANCH  11  12
ATOM     12  C   UNL     1     -12.147   3.830   8.365  1.00  0.00    -0.000 C 
BRANCH  12  13
ATOM     13  C   UNL     1     -10.820   3.980   7.603  1.00  0.00    -0.000 C 
BRANCH  13  14
ATOM     14  C   UNL     1     -10.080   5.283   7.954  1.00  0.00    -0.000 C 
BRANCH  14  15
ATOM     15  C   UNL     1      -9.726   6.112   6.710  1.00  0.00    -0.003 C 
ATOM     16  C   UNL     1      -9.930   5.337   5.409  1.00  0.00     0.004 C 
ENDBRANCH  14  15
ENDBRANCH  13  14
ENDBRANCH  12  13
ENDBRANCH  11  12
ENDBRANCH  10  11
ENDBRANCH   1  10
TORSDOF 12
ENDMDL
MODEL 5
REMARK VINA RESULT:    -4.769     14.835     17.284
REMARK INTER + INTRA:          -8.819
REMARK INTER:                  -7.974
REMARK INTRA:                  -0.846
REMARK UNBOUND:                -0.705
REMARK SMILES CCCCCCCCCCCCCC(=O)[O-]
REMARK SMILES IDX 8 1 9 2 10 3 11 4 12 5 13 6 14 7 15 8 16 9 7 10 6 11 5 12
REMARK SMILES IDX 4 13 3 14 2 15 1 16
REMARK H PARENT
REMARK Flexibility Score: inf
ROOT
ATOM      1  C   UNL     1     -13.765   6.476   5.607  1.00  0.00     0.000 C 
ENDROOT
BRANCH   1   2
ATOM      2  C   UNL     1     -13.805   5.719   6.946  1.00  0.00     0.000 C 
BRANCH   2   3
ATOM      3  C   UNL     1     -13.327   4.261   6.824  1.00  0.00     0.000 C 
BRANCH   3   4
ATOM      4  C   UNL     1     -12.423   3.769   7.968  1.00  0.00     0.000 C 
BRANCH   4   5
ATOM      5  C   UNL     1     -10.931   3.782   7.601  1.00  0.00     0.006 C 
BRANCH   5   6
ATOM      6  C   UNL     1     -10.311   5.156   7.876  1.00  0.00     0.053 C 
BRANCH   6   7
ATOM      7  C   UNL     1      -9.788   5.758   6.611  1.00  0.00     0.041 C 
ATOM      8  O   UNL     1      -8.895   6.645   6.653  1.00  0.00    -0.550 OA
ATOM      9  O   UNL     1     -10.321   5.377   5.387  1.00  0.00    -0.550 OA
ENDBRANCH   6   7
ENDBRANCH   5   6
ENDBRANCH   4   5
ENDBRANCH   3   4
ENDBRANCH   2   3
ENDBRANCH   1   2
BRANCH   1  10
ATOM     10  C   UNL     1     -13.933   5.543   4.396  1.00  0.00     0.000 C 
BRANCH  10  11
ATOM     11  C   UNL     1     -14.957   6.070   3.379  1.00  0.00    -0.000 C 
BRANCH  11  12
ATOM     12  C   UNL     1     -14.258   6.860   2.260  1.00  0.00    -0.000 C 
BRANCH  12  13
ATOM     13  C   UNL     1     -14.252   8.375   2.521  1.00  0.00    -0.000 C 
BRANCH  13  14
ATOM     14  C   UNL     1     -13.724   9.180   1.321  1.00  0.00    -0.000 C 
BRANCH  14  15
ATOM     15  C   UNL     1     -12.807  10.337   1.746  1.00  0.00    -0.003 C 
ATOM     16  C   UNL     1     -11.967  10.878   0.589  1.00  0.00     0.004 C 
ENDBRANCH  14  15
ENDBRANCH  13  14
ENDBRANCH  12  13
ENDBRANCH  11  12
ENDBRANCH  10  11
ENDBRANCH   1  10
TORSDOF 12
ENDMDL
MODEL 6
REMARK VINA RESULT:    -4.747      3.642      7.793
REMARK INTER + INTRA:          -8.782
REMARK INTER:                  -8.280
REMARK INTRA:                  -0.502
REMARK UNBOUND:                -0.705
REMARK SMILES CCCCCCCCCCCCCC(=O)[O-]
REMARK SMILES IDX 8 1 9 2 10 3 11 4 12 5 13 6 14 7 15 8 16 9 7 10 6 11 5 12
REMARK SMILES IDX 4 13 3 14 2 15 1 16
REMARK H PARENT
REMARK Flexibility Score: inf
ROOT
ATOM      1  C   UNL     1     -10.602  -2.492  -9.664  1.00  0.00     0.000 C 
ENDROOT
BRANCH   1   2
ATOM      2  C   UNL     1      -9.868  -2.750  -8.338  1.00  0.00     0.000 C 
BRANCH   2   3
ATOM      3  C   UNL     1      -9.861  -4.236  -7.936  1.00  0.00     0.000 C 
BRANCH   3   4
ATOM      4  C   UNL     1     -10.732  -5.155  -8.810  1.00  0.00     0.000 C 
BRANCH   4   5
ATOM      5  C   UNL     1     -11.015  -6.515  -8.154  1.00  0.00     0.006 C 
BRANCH   5   6
ATOM      6  C   UNL     1     -10.545  -6.529  -6.697  1.00  0.00     0.053 C 
BRANCH   6   7
ATOM      7  C   UNL     1     -11.697  -6.294  -5.771  1.00  0.00     0.041 C 
ATOM      8  O   UNL     1     -11.493  -6.096  -4.545  1.00  0.00    -0.550 OA
ATOM      9  O   UNL     1     -12.998  -6.342  -6.254  1.00  0.00    -0.550 OA
ENDBRANCH   6   7
ENDBRANCH   5   6
ENDBRANCH   4   5
ENDBRANCH   3   4
ENDBRANCH   2   3
ENDBRANCH   1   2
BRANCH   1  10
ATOM     10  C   UNL     1     -10.774  -0.992  -9.963  1.00  0.00     0.000 C 
BRANCH  10  11
ATOM     11  C   UNL     1     -12.202  -0.635 -10.402  1.00  0.00    -0.000 C 
BRANCH  11  12
ATOM     12  C   UNL     1     -12.712   0.603  -9.646  1.00  0.00    -0.000 C 
BRANCH  12  13
ATOM     13  C   UNL     1     -14.246   0.696  -9.632  1.00  0.00    -0.000 C 
BRANCH  13  14
ATOM     14  C   UNL     1     -14.751   2.145  -9.750  1.00  0.00    -0.000 C 
BRANCH  14  15
ATOM     15  C   UNL     1     -14.587   2.933  -8.441  1.00  0.00    -0.003 C 
ATOM     16  C   UNL     1     -13.609   4.100  -8.576  1.00  0.00     0.004 C 
ENDBRANCH  14  15
ENDBRANCH  13  14
ENDBRANCH  12  13
ENDBRANCH  11  12
ENDBRANCH  10  11
ENDBRANCH   1  10
TORSDOF 12
ENDMDL
MODEL 7
REMARK VINA RESULT:    -4.694     16.563     18.251
REMARK INTER + INTRA:          -8.693
REMARK INTER:                  -7.599
REMARK INTRA:                  -1.094
REMARK UNBOUND:                -0.705
REMARK SMILES CCCCCCCCCCCCCC(=O)[O-]
REMARK SMILES IDX 8 1 9 2 10 3 11 4 12 5 13 6 14 7 15 8 16 9 7 10 6 11 5 12
REMARK SMILES IDX 4 13 3 14 2 15 1 16
REMARK H PARENT
REMARK Flexibility Score: inf
ROOT
ATOM      1  C   UNL     1     -10.220   5.226   8.061  1.00  0.00     0.000 C 
ENDROOT
BRANCH   1   2
ATOM      2  C   UNL     1     -10.816   3.811   8.148  1.00  0.00     0.000 C 
BRANCH   2   3
ATOM      3  C   UNL     1     -12.285   3.807   8.608  1.00  0.00     0.000 C 
BRANCH   3   4
ATOM      4  C   UNL     1     -12.990   5.174   8.560  1.00  0.00     0.000 C 
BRANCH   4   5
ATOM      5  C   UNL     1     -14.007   5.284   7.414  1.00  0.00     0.006 C 
BRANCH   5   6
ATOM      6  C   UNL     1     -13.406   6.026   6.216  1.00  0.00     0.053 C 
BRANCH   6   7
ATOM      7  C   UNL     1     -13.328   5.123   5.025  1.00  0.00     0.041 C 
ATOM      8  O   UNL     1     -12.381   4.301   4.914  1.00  0.00    -0.550 OA
ATOM      9  O   UNL     1     -14.274   5.224   4.014  1.00  0.00    -0.550 OA
ENDBRANCH   6   7
ENDBRANCH   5   6
ENDBRANCH   4   5
ENDBRANCH   3   4
ENDBRANCH   2   3
ENDBRANCH   1   2
BRANCH   1  10
ATOM     10  C   UNL     1      -9.562   5.507   6.699  1.00  0.00     0.000 C 
BRANCH  10  11
ATOM     11  C   UNL     1      -9.807   6.941   6.206  1.00  0.00    -0.000 C 
BRANCH  11  12
ATOM     12  C   UNL     1      -8.492   7.736   6.159  1.00  0.00    -0.000 C 
BRANCH  12  13
ATOM     13  C   UNL     1      -8.716   9.235   5.904  1.00  0.00    -0.000 C 
BRANCH  13  14
ATOM     14  C   UNL     1      -7.491   9.916   5.268  1.00  0.00    -0.000 C 
BRANCH  14  15
ATOM     15  C   UNL     1      -6.682  10.739   6.282  1.00  0.00    -0.003 C 
ATOM     16  C   UNL     1      -5.206  10.346   6.315  1.00  0.00     0.004 C 
ENDBRANCH  14  15
ENDBRANCH  13  14
ENDBRANCH  12  13
ENDBRANCH  11  12
ENDBRANCH  10  11
ENDBRANCH   1  10
TORSDOF 12
ENDMDL
MODEL 8
REMARK VINA RESULT:    -4.674     16.923     18.417
REMARK INTER + INTRA:          -8.659
REMARK INTER:                  -7.336
REMARK INTRA:                  -1.323
REMARK UNBOUND:                -0.705
REMARK SMILES CCCCCCCCCCCCCC(=O)[O-]
REMARK SMILES IDX 8 1 9 2 10 3 11 4 12 5 13 6 14 7 15 8 16 9 7 10 6 11 5 12
REMARK SMILES IDX 4 13 3 14 2 15 1 16
REMARK H PARENT
REMARK Flexibility Score: inf
ROOT
ATOM      1  C   UNL     1     -10.232   5.148   7.788  1.00  0.00     0.000 C 
ENDROOT
BRANCH   1   2
ATOM      2  C   UNL     1      -9.568   5.662   6.499  1.00  0.00     0.000 C 
BRANCH   2   3
ATOM      3  C   UNL     1      -9.737   7.180   6.303  1.00  0.00     0.000 C 
BRANCH   3   4
ATOM      4  C   UNL     1      -8.512   7.906   5.719  1.00  0.00     0.000 C 
BRANCH   4   5
ATOM      5  C   UNL     1      -8.501   9.410   6.032  1.00  0.00     0.006 C 
BRANCH   5   6
ATOM      6  C   UNL     1      -7.216  10.067   5.518  1.00  0.00     0.053 C 
BRANCH   6   7
ATOM      7  C   UNL     1      -6.253  10.286   6.642  1.00  0.00     0.041 C 
ATOM      8  O   UNL     1      -5.015  10.174   6.446  1.00  0.00    -0.550 OA
ATOM      9  O   UNL     1      -6.725  10.565   7.918  1.00  0.00    -0.550 OA
ENDBRANCH   6   7
ENDBRANCH   5   6
ENDBRANCH   4   5
ENDBRANCH   3   4
ENDBRANCH   2   3
ENDBRANCH   1   2
BRANCH   1  10
ATOM     10  C   UNL     1     -10.737   3.701   7.655  1.00  0.00     0.000 C 
BRANCH  10  11
ATOM     11  C   UNL     1     -12.156   3.515   8.212  1.00  0.00    -0.000 C 
BRANCH  11  12
ATOM     12  C   UNL     1     -12.825   4.874   8.470  1.00  0.00    -0.000 C 
BRANCH  12  13
ATOM     13  C   UNL     1     -13.895   5.216   7.420  1.00  0.00    -0.000 C 
BRANCH  13  14
ATOM     14  C   UNL     1     -13.456   6.350   6.476  1.00  0.00    -0.000 C 
BRANCH  14  15
ATOM     15  C   UNL     1     -13.568   5.959   4.995  1.00  0.00    -0.003 C 
ATOM     16  C   UNL     1     -12.835   4.658   4.672  1.00  0.00     0.004 C 
ENDBRANCH  14  15
ENDBRANCH  13  14
ENDBRANCH  12  13
ENDBRANCH  11  12
ENDBRANCH  10  11
ENDBRANCH   1  10
TORSDOF 12
ENDMDL
MODEL 9
REMARK VINA RESULT:    -4.527      4.714      6.837
REMARK INTER + INTRA:          -8.409
REMARK INTER:                  -6.374
REMARK INTRA:                  -2.035
REMARK UNBOUND:                -0.705
REMARK SMILES CCCCCCCCCCCCCC(=O)[O-]
REMARK SMILES IDX 8 1 9 2 10 3 11 4 12 5 13 6 14 7 15 8 16 9 7 10 6 11 5 12
REMARK SMILES IDX 4 13 3 14 2 15 1 16
REMARK H PARENT
REMARK Flexibility Score: inf
ROOT
ATOM      1  C   UNL     1     -11.753  -6.338  -4.813  1.00  0.00     0.000 C 
ENDROOT
BRANCH   1   2
ATOM      2  C   UNL     1     -10.618  -5.868  -5.739  1.00  0.00     0.000 C 
BRANCH   2   3
ATOM      3  C   UNL     1     -10.258  -6.905  -6.819  1.00  0.00     0.000 C 
BRANCH   3   4
ATOM      4  C   UNL     1     -10.670  -6.528  -8.253  1.00  0.00     0.000 C 
BRANCH   4   5
ATOM      5  C   UNL     1     -11.354  -5.156  -8.340  1.00  0.00     0.006 C 
BRANCH   5   6
ATOM      6  C   UNL     1     -11.017  -4.458  -9.661  1.00  0.00     0.053 C 
BRANCH   6   7
ATOM      7  C   UNL     1      -9.867  -3.519  -9.480  1.00  0.00     0.041 C 
ATOM      8  O   UNL     1      -9.343  -2.960 -10.478  1.00  0.00    -0.550 OA
ATOM      9  O   UNL     1      -9.340  -3.300  -8.213  1.00  0.00    -0.550 OA
ENDBRANCH   6   7
ENDBRANCH   5   6
ENDBRANCH   4   5
ENDBRANCH   3   4
ENDBRANCH   2   3
ENDBRANCH   1   2
BRANCH   1  10
ATOM     10  C   UNL     1     -12.128  -7.813  -5.040  1.00  0.00     0.000 C 
BRANCH  10  11
ATOM     11  C   UNL     1     -13.572  -7.988  -5.533  1.00  0.00    -0.000 C 
BRANCH  11  12
ATOM     12  C   UNL     1     -14.211  -6.626  -5.848  1.00  0.00    -0.000 C 
BRANCH  12  13
ATOM     13  C   UNL     1     -14.566  -6.469  -7.335  1.00  0.00    -0.000 C 
BRANCH  13  14
ATOM     14  C   UNL     1     -14.228  -7.723  -8.160  1.00  0.00    -0.000 C 
BRANCH  14  15
ATOM     15  C   UNL     1     -14.016  -7.408  -9.649  1.00  0.00    -0.003 C 
ATOM     16  C   UNL     1     -14.543  -6.028 -10.040  1.00  0.00     0.004 C 
ENDBRANCH  14  15
ENDBRANCH  13  14
ENDBRANCH  12  13
ENDBRANCH  11  12
ENDBRANCH  10  11
ENDBRANCH   1  10
TORSDOF 12
ENDMDL
