MODEL 1
REMARK VINA RESULT:    -7.851      0.000      0.000
REMARK INTER + INTRA:         -18.865
REMARK INTER:                 -17.949
REMARK INTRA:                  -0.916
REMARK UNBOUND:                -0.916
REMARK SMILES CCCCCCCCCCCCCCCCCCCCCCCC(=O)[O-]
REMARK SMILES IDX 13 1 14 2 15 3 16 4 17 5 18 6 19 7 20 8 21 9 22 10 23 11
REMARK SMILES IDX 24 12 25 13 26 14 12 15 11 16 10 17 9 18 8 19 7 20 6 21 5 22
REMARK SMILES IDX 4 23 3 24 2 25 1 26
REMARK H PARENT
REMARK Flexibility Score: inf
ROOT
ATOM      1  C   UNL     1      -2.669   0.609 -18.197  1.00  0.00     0.000 C 
ENDROOT
BRANCH   1   2
ATOM      2  C   UNL     1      -2.891   1.734 -17.176  1.00  0.00     0.000 C 
BRANCH   2   3
ATOM      3  C   UNL     1      -2.157   3.032 -17.552  1.00  0.00     0.000 C 
BRANCH   3   4
ATOM      4  C   UNL     1      -3.159   4.153 -17.855  1.00  0.00     0.000 C 
BRANCH   4   5
ATOM      5  C   UNL     1      -2.904   5.380 -16.969  1.00  0.00     0.000 C 
BRANCH   5   6
ATOM      6  C   UNL     1      -4.184   5.915 -16.302  1.00  0.00     0.000 C 
BRANCH   6   7
ATOM      7  C   UNL     1      -3.923   7.005 -15.241  1.00  0.00     0.000 C 
BRANCH   7   8
ATOM      8  C   UNL     1      -4.666   6.730 -13.924  1.00  0.00     0.000 C 
BRANCH   8   9
ATOM      9  C   UNL     1      -6.075   6.177 -14.187  1.00  0.00     0.000 C 
BRANCH   9  10
ATOM     10  C   UNL     1      -7.094   6.595 -13.111  1.00  0.00     0.006 C 
BRANCH  10  11
ATOM     11  C   UNL     1      -6.469   7.315 -11.902  1.00  0.00     0.053 C 
BRANCH  11  12
ATOM     12  C   UNL     1      -6.582   6.520 -10.636  1.00  0.00     0.041 C 
ATOM     13  O   UNL     1      -7.553   5.736 -10.466  1.00  0.00    -0.550 OA
ATOM     14  O   UNL     1      -5.631   6.661  -9.634  1.00  0.00    -0.550 OA
ENDBRANCH  11  12
ENDBRANCH  10  11
ENDBRANCH   9  10
ENDBRANCH   8   9
ENDBRANCH   7   8
ENDBRANCH   6   7
ENDBRANCH   5   6
ENDBRANCH   4   5
ENDBRANCH   3   4
ENDBRANCH   2   3
ENDBRANCH   1   2
BRANCH   1  15
ATOM     15  C   UNL     1      -3.971  -0.110 -18.579  1.00  0.00     0.000 C 
BRANCH  15  16
ATOM     16  C   UNL     1      -3.707  -1.586 -18.902  1.00  0.00     0.000 C 
BRANCH  16  17
ATOM     17  C   UNL     1      -4.706  -2.112 -19.943  1.00  0.00     0.000 C 
BRANCH  17  18
ATOM     18  C   UNL     1      -6.176  -1.934 -19.504  1.00  0.00    -0.000 C 
BRANCH  18  19
ATOM     19  C   UNL     1      -7.189  -2.010 -20.663  1.00  0.00    -0.000 C 
BRANCH  19  20
ATOM     20  C   UNL     1      -7.180  -3.328 -21.462  1.00  0.00    -0.000 C 
BRANCH  20  21
ATOM     21  C   UNL     1      -7.052  -4.605 -20.609  1.00  0.00    -0.000 C 
BRANCH  21  22
ATOM     22  C   UNL     1      -8.201  -4.768 -19.605  1.00  0.00    -0.000 C 
BRANCH  22  23
ATOM     23  C   UNL     1      -8.208  -6.180 -18.999  1.00  0.00    -0.000 C 
BRANCH  23  24
ATOM     24  C   UNL     1      -8.766  -7.243 -19.964  1.00  0.00    -0.000 C 
BRANCH  24  25
ATOM     25  C   UNL     1      -8.543  -8.698 -19.521  1.00  0.00    -0.003 C 
ATOM     26  C   UNL     1      -7.841  -9.546 -20.583  1.00  0.00     0.004 C 
ENDBRANCH  24  25
ENDBRANCH  23  24
ENDBRANCH  22  23
ENDBRANCH  21  22
ENDBRANCH  20  21
ENDBRANCH  19  20
ENDBRANCH  18  19
ENDBRANCH  17  18
ENDBRANCH  16  17
ENDBRANCH  15  16
ENDBRANCH   1  15
TORSDOF 22
ENDMDL
MODEL 2
REMARK VINA RESULT:    -7.623      5.521     12.792
REMARK INTER + INTRA:         -18.342
REMARK INTER:                 -17.383
REMARK INTRA:                  -0.959
REMARK UNBOUND:                -0.916
REMARK SMILES CCCCCCCCCCCCCCCCCCCCCCCC(=O)[O-]
REMARK SMILES IDX 13 1 14 2 15 3 16 4 17 5 18 6 19 7 20 8 21 9 22 10 23 11
REMARK SMILES IDX 24 12 25 13 26 14 12 15 11 16 10 17 9 18 8 19 7 20 6 21 5 22
REMARK SMILES IDX 4 23 3 24 2 25 1 26
REMARK H PARENT
REMARK Flexibility Score: inf
ROOT
ATOM      1  C   UNL     1      -3.509   0.764 -18.252  1.00  0.00     0.000 C 
ENDROOT
BRANCH   1   2
ATOM      2  C   UNL     1      -3.652  -0.712 -18.647  1.00  0.00     0.000 C 
BRANCH   2   3
ATOM      3  C   UNL     1      -5.096  -1.095 -19.006  1.00  0.00     0.000 C 
BRANCH   3   4
ATOM      4  C   UNL     1      -5.117  -2.259 -20.004  1.00  0.00     0.000 C 
BRANCH   4   5
ATOM      5  C   UNL     1      -6.389  -2.232 -20.863  1.00  0.00     0.000 C 
BRANCH   5   6
ATOM      6  C   UNL     1      -6.811  -3.629 -21.353  1.00  0.00     0.000 C 
BRANCH   6   7
ATOM      7  C   UNL     1      -6.766  -4.712 -20.255  1.00  0.00     0.000 C 
BRANCH   7   8
ATOM      8  C   UNL     1      -7.985  -4.649 -19.320  1.00  0.00     0.000 C 
BRANCH   8   9
ATOM      9  C   UNL     1      -8.444  -6.057 -18.911  1.00  0.00     0.000 C 
BRANCH   9  10
ATOM     10  C   UNL     1      -7.893  -7.160 -19.835  1.00  0.00     0.006 C 
BRANCH  10  11
ATOM     11  C   UNL     1      -8.532  -8.542 -19.608  1.00  0.00     0.053 C 
BRANCH  11  12
ATOM     12  C   UNL     1      -8.152  -9.533 -20.667  1.00  0.00     0.041 C 
ATOM     13  O   UNL     1      -7.459 -10.541 -20.370  1.00  0.00    -0.550 OA
ATOM     14  O   UNL     1      -8.541  -9.332 -21.985  1.00  0.00    -0.550 OA
ENDBRANCH  11  12
ENDBRANCH  10  11
ENDBRANCH   9  10
ENDBRANCH   8   9
ENDBRANCH   7   8
ENDBRANCH   6   7
ENDBRANCH   5   6
ENDBRANCH   4   5
ENDBRANCH   3   4
ENDBRANCH   2   3
ENDBRANCH   1   2
BRANCH   1  15
ATOM     15  C   UNL     1      -2.178   1.064 -17.546  1.00  0.00     0.000 C 
BRANCH  15  16
ATOM     16  C   UNL     1      -1.880   2.568 -17.555  1.00  0.00     0.000 C 
BRANCH  16  17
ATOM     17  C   UNL     1      -3.178   3.390 -17.555  1.00  0.00     0.000 C 
BRANCH  17  18
ATOM     18  C   UNL     1      -2.972   4.832 -17.044  1.00  0.00    -0.000 C 
BRANCH  18  19
ATOM     19  C   UNL     1      -4.284   5.608 -16.815  1.00  0.00    -0.000 C 
BRANCH  19  20
ATOM     20  C   UNL     1      -4.511   6.109 -15.375  1.00  0.00    -0.000 C 
BRANCH  20  21
ATOM     21  C   UNL     1      -5.719   5.484 -14.652  1.00  0.00    -0.000 C 
BRANCH  21  22
ATOM     22  C   UNL     1      -6.623   6.531 -13.986  1.00  0.00    -0.000 C 
BRANCH  22  23
ATOM     23  C   UNL     1      -6.395   6.571 -12.468  1.00  0.00    -0.000 C 
BRANCH  23  24
ATOM     24  C   UNL     1      -7.481   7.368 -11.720  1.00  0.00    -0.000 C 
BRANCH  24  25
ATOM     25  C   UNL     1      -8.310   6.547 -10.718  1.00  0.00    -0.003 C 
ATOM     26  C   UNL     1      -8.777   5.206 -11.284  1.00  0.00     0.004 C 
ENDBRANCH  24  25
ENDBRANCH  23  24
ENDBRANCH  22  23
ENDBRANCH  21  22
ENDBRANCH  20  21
ENDBRANCH  19  20
ENDBRANCH  18  19
ENDBRANCH  17  18
ENDBRANCH  16  17
ENDBRANCH  15  16
ENDBRANCH   1  15
TORSDOF 22
ENDMDL
MODEL 3
REMARK VINA RESULT:    -7.515      1.330      2.568
REMARK INTER + INTRA:         -18.097
REMARK INTER:                 -16.588
REMARK INTRA:                  -1.508
REMARK UNBOUND:                -0.916
REMARK SMILES CCCCCCCCCCCCCCCCCCCCCCCC(=O)[O-]
REMARK SMILES IDX 13 1 14 2 15 3 16 4 17 5 18 6 19 7 20 8 21 9 22 10 23 11
REMARK SMILES IDX 24 12 25 13 26 14 12 15 11 16 10 17 9 18 8 19 7 20 6 21 5 22
REMARK SMILES IDX 4 23 3 24 2 25 1 26
REMARK H PARENT
REMARK Flexibility Score: inf
ROOT
ATOM      1  C   UNL     1      -2.442   2.485 -17.231  1.00  0.00     0.000 C 
ENDROOT
BRANCH   1   2
ATOM      2  C   UNL     1      -2.943   3.785 -17.877  1.00  0.00     0.000 C 
BRANCH   2   3
ATOM      3  C   UNL     1      -3.077   4.937 -16.870  1.00  0.00     0.000 C 
BRANCH   3   4
ATOM      4  C   UNL     1      -4.344   5.755 -17.148  1.00  0.00     0.000 C 
BRANCH   4   5
ATOM      5  C   UNL     1      -4.904   6.368 -15.856  1.00  0.00     0.000 C 
BRANCH   5   6
ATOM      6  C   UNL     1      -5.324   5.309 -14.821  1.00  0.00     0.000 C 
BRANCH   6   7
ATOM      7  C   UNL     1      -6.641   5.643 -14.090  1.00  0.00     0.000 C 
BRANCH   7   8
ATOM      8  C   UNL     1      -6.569   6.982 -13.337  1.00  0.00     0.000 C 
BRANCH   8   9
ATOM      9  C   UNL     1      -7.459   6.963 -12.085  1.00  0.00     0.000 C 
BRANCH   9  10
ATOM     10  C   UNL     1      -6.794   7.628 -10.866  1.00  0.00     0.006 C 
BRANCH  10  11
ATOM     11  C   UNL     1      -5.326   8.031 -11.095  1.00  0.00     0.053 C 
BRANCH  11  12
ATOM     12  C   UNL     1      -4.361   7.085 -10.447  1.00  0.00     0.041 C 
ATOM     13  O   UNL     1      -3.908   6.103 -11.093  1.00  0.00    -0.550 OA
ATOM     14  O   UNL     1      -3.979   7.271  -9.125  1.00  0.00    -0.550 OA
ENDBRANCH  11  12
ENDBRANCH  10  11
ENDBRANCH   9  10
ENDBRANCH   8   9
ENDBRANCH   7   8
ENDBRANCH   6   7
ENDBRANCH   5   6
ENDBRANCH   4   5
ENDBRANCH   3   4
ENDBRANCH   2   3
ENDBRANCH   1   2
BRANCH   1  15
ATOM     15  C   UNL     1      -2.174   1.376 -18.258  1.00  0.00     0.000 C 
BRANCH  15  16
ATOM     16  C   UNL     1      -2.451  -0.007 -17.656  1.00  0.00     0.000 C 
BRANCH  16  17
ATOM     17  C   UNL     1      -3.950  -0.199 -17.378  1.00  0.00     0.000 C 
BRANCH  17  18
ATOM     18  C   UNL     1      -4.795  -0.251 -18.669  1.00  0.00    -0.000 C 
BRANCH  18  19
ATOM     19  C   UNL     1      -4.488  -1.464 -19.569  1.00  0.00    -0.000 C 
BRANCH  19  20
ATOM     20  C   UNL     1      -4.481  -2.830 -18.855  1.00  0.00    -0.000 C 
BRANCH  20  21
ATOM     21  C   UNL     1      -5.873  -3.399 -18.524  1.00  0.00    -0.000 C 
BRANCH  21  22
ATOM     22  C   UNL     1      -6.939  -3.006 -19.556  1.00  0.00    -0.000 C 
BRANCH  22  23
ATOM     23  C   UNL     1      -7.015  -4.040 -20.690  1.00  0.00    -0.000 C 
BRANCH  23  24
ATOM     24  C   UNL     1      -6.959  -5.492 -20.181  1.00  0.00    -0.000 C 
BRANCH  24  25
ATOM     25  C   UNL     1      -8.294  -6.044 -19.653  1.00  0.00    -0.003 C 
ATOM     26  C   UNL     1      -8.297  -7.567 -19.509  1.00  0.00     0.004 C 
ENDBRANCH  24  25
ENDBRANCH  23  24
ENDBRANCH  22  23
ENDBRANCH  21  22
ENDBRANCH  20  21
ENDBRANCH  19  20
ENDBRANCH  18  19
ENDBRANCH  17  18
ENDBRANCH  16  17
ENDBRANCH  15  16
ENDBRANCH   1  15
TORSDOF 22
ENDMDL
MODEL 4
REMARK VINA RESULT:    -7.444      4.635     12.005
REMARK INTER + INTRA:         -17.932
REMARK INTER:                 -16.659
REMARK INTRA:                  -1.273
REMARK UNBOUND:                -0.916
REMARK SMILES CCCCCCCCCCCCCCCCCCCCCCCC(=O)[O-]
REMARK SMILES IDX 13 1 14 2 15 3 16 4 17 5 18 6 19 7 20 8 21 9 22 10 23 11
REMARK SMILES IDX 24 12 25 13 26 14 12 15 11 16 10 17 9 18 8 19 7 20 6 21 5 22
REMARK SMILES IDX 4 23 3 24 2 25 1 26
REMARK H PARENT
REMARK Flexibility Score: inf
ROOT
ATOM      1  C   UNL     1      -2.856   3.034 -17.509  1.00  0.00     0.000 C 
ENDROOT
BRANCH   1   2
ATOM      2  C   UNL     1      -2.036   1.768 -17.798  1.00  0.00     0.000 C 
BRANCH   2   3
ATOM      3  C   UNL     1      -2.782   0.477 -17.426  1.00  0.00     0.000 C 
BRANCH   3   4
ATOM      4  C   UNL     1      -3.769   0.084 -18.532  1.00  0.00     0.000 C 
BRANCH   4   5
ATOM      5  C   UNL     1      -4.433  -1.267 -18.229  1.00  0.00     0.000 C 
BRANCH   5   6
ATOM      6  C   UNL     1      -4.171  -2.322 -19.319  1.00  0.00     0.000 C 
BRANCH   6   7
ATOM      7  C   UNL     1      -4.752  -1.947 -20.699  1.00  0.00     0.000 C 
BRANCH   7   8
ATOM      8  C   UNL     1      -5.621  -3.067 -21.293  1.00  0.00     0.000 C 
BRANCH   8   9
ATOM      9  C   UNL     1      -7.050  -3.017 -20.733  1.00  0.00     0.000 C 
BRANCH   9  10
ATOM     10  C   UNL     1      -7.279  -4.013 -19.580  1.00  0.00     0.006 C 
BRANCH  10  11
ATOM     11  C   UNL     1      -7.024  -5.482 -19.963  1.00  0.00     0.053 C 
BRANCH  11  12
ATOM     12  C   UNL     1      -8.241  -6.341 -19.792  1.00  0.00     0.041 C 
ATOM     13  O   UNL     1      -9.370  -5.917 -20.152  1.00  0.00    -0.550 OA
ATOM     14  O   UNL     1      -8.133  -7.600 -19.215  1.00  0.00    -0.550 OA
ENDBRANCH  11  12
ENDBRANCH  10  11
ENDBRANCH   9  10
ENDBRANCH   8   9
ENDBRANCH   7   8
ENDBRANCH   6   7
ENDBRANCH   5   6
ENDBRANCH   4   5
ENDBRANCH   3   4
ENDBRANCH   2   3
ENDBRANCH   1   2
BRANCH   1  15
ATOM     15  C   UNL     1      -2.007   4.313 -17.544  1.00  0.00     0.000 C 
BRANCH  15  16
ATOM     16  C   UNL     1      -2.714   5.459 -16.810  1.00  0.00     0.000 C 
BRANCH  16  17
ATOM     17  C   UNL     1      -4.196   5.134 -16.573  1.00  0.00     0.000 C 
BRANCH  17  18
ATOM     18  C   UNL     1      -5.025   6.377 -16.182  1.00  0.00    -0.000 C 
BRANCH  18  19
ATOM     19  C   UNL     1      -5.802   6.221 -14.861  1.00  0.00    -0.000 C 
BRANCH  19  20
ATOM     20  C   UNL     1      -4.934   5.992 -13.608  1.00  0.00    -0.000 C 
BRANCH  20  21
ATOM     21  C   UNL     1      -5.197   6.970 -12.447  1.00  0.00    -0.000 C 
BRANCH  21  22
ATOM     22  C   UNL     1      -4.825   6.383 -11.078  1.00  0.00    -0.000 C 
BRANCH  22  23
ATOM     23  C   UNL     1      -6.050   6.324 -10.153  1.00  0.00    -0.000 C 
BRANCH  23  24
ATOM     24  C   UNL     1      -7.275   7.055 -10.734  1.00  0.00    -0.000 C 
BRANCH  24  25
ATOM     25  C   UNL     1      -8.378   6.134 -11.283  1.00  0.00    -0.003 C 
ATOM     26  C   UNL     1      -8.725   4.987 -10.334  1.00  0.00     0.004 C 
ENDBRANCH  24  25
ENDBRANCH  23  24
ENDBRANCH  22  23
ENDBRANCH  21  22
ENDBRANCH  20  21
ENDBRANCH  19  20
ENDBRANCH  18  19
ENDBRANCH  17  18
ENDBRANCH  16  17
ENDBRANCH  15  16
ENDBRANCH   1  15
TORSDOF 22
ENDMDL
MODEL 5
REMARK VINA RESULT:    -7.426      1.273      2.493
REMARK INTER + INTRA:         -17.892
REMARK INTER:                 -16.822
REMARK INTRA:                  -1.070
REMARK UNBOUND:                -0.916
REMARK SMILES CCCCCCCCCCCCCCCCCCCCCCCC(=O)[O-]
REMARK SMILES IDX 13 1 14 2 15 3 16 4 17 5 18 6 19 7 20 8 21 9 22 10 23 11
REMARK SMILES IDX 24 12 25 13 26 14 12 15 11 16 10 17 9 18 8 19 7 20 6 21 5 22
REMARK SMILES IDX 4 23 3 24 2 25 1 26
REMARK H PARENT
REMARK Flexibility Score: inf
ROOT
ATOM      1  C   UNL     1      -2.808   3.130 -17.473  1.00  0.00     0.000 C 
ENDROOT
BRANCH   1   2
ATOM      2  C   UNL     1      -2.041   4.457 -17.560  1.00  0.00     0.000 C 
BRANCH   2   3
ATOM      3  C   UNL     1      -2.815   5.633 -16.944  1.00  0.00     0.000 C 
BRANCH   3   4
ATOM      4  C   UNL     1      -4.321   5.345 -16.933  1.00  0.00     0.000 C 
BRANCH   4   5
ATOM      5  C   UNL     1      -4.974   5.851 -15.638  1.00  0.00     0.000 C 
BRANCH   5   6
ATOM      6  C   UNL     1      -4.166   6.969 -14.956  1.00  0.00     0.000 C 
BRANCH   6   7
ATOM      7  C   UNL     1      -4.506   7.158 -13.463  1.00  0.00     0.000 C 
BRANCH   7   8
ATOM      8  C   UNL     1      -3.504   6.448 -12.540  1.00  0.00     0.000 C 
BRANCH   8   9
ATOM      9  C   UNL     1      -4.012   6.414 -11.090  1.00  0.00     0.000 C 
BRANCH   9  10
ATOM     10  C   UNL     1      -5.393   7.073 -10.923  1.00  0.00     0.006 C 
BRANCH  10  11
ATOM     11  C   UNL     1      -6.472   6.130 -10.360  1.00  0.00     0.053 C 
BRANCH  11  12
ATOM     12  C   UNL     1      -7.839   6.432 -10.897  1.00  0.00     0.041 C 
ATOM     13  O   UNL     1      -8.169   7.619 -11.155  1.00  0.00    -0.550 OA
ATOM     14  O   UNL     1      -8.757   5.408 -11.090  1.00  0.00    -0.550 OA
ENDBRANCH  11  12
ENDBRANCH  10  11
ENDBRANCH   9  10
ENDBRANCH   8   9
ENDBRANCH   7   8
ENDBRANCH   6   7
ENDBRANCH   5   6
ENDBRANCH   4   5
ENDBRANCH   3   4
ENDBRANCH   2   3
ENDBRANCH   1   2
BRANCH   1  15
ATOM     15  C   UNL     1      -1.879   1.918 -17.310  1.00  0.00     0.000 C 
BRANCH  15  16
ATOM     16  C   UNL     1      -2.223   0.823 -18.327  1.00  0.00     0.000 C 
BRANCH  16  17
ATOM     17  C   UNL     1      -3.529   0.108 -17.949  1.00  0.00     0.000 C 
BRANCH  17  18
ATOM     18  C   UNL     1      -4.149  -0.667 -19.132  1.00  0.00    -0.000 C 
BRANCH  18  19
ATOM     19  C   UNL     1      -3.980  -2.196 -19.035  1.00  0.00    -0.000 C 
BRANCH  19  20
ATOM     20  C   UNL     1      -5.251  -2.977 -18.648  1.00  0.00    -0.000 C 
BRANCH  20  21
ATOM     21  C   UNL     1      -6.435  -2.818 -19.620  1.00  0.00    -0.000 C 
BRANCH  21  22
ATOM     22  C   UNL     1      -7.588  -3.785 -19.318  1.00  0.00    -0.000 C 
BRANCH  22  23
ATOM     23  C   UNL     1      -7.267  -5.200 -19.820  1.00  0.00    -0.000 C 
BRANCH  23  24
ATOM     24  C   UNL     1      -8.167  -6.279 -19.189  1.00  0.00    -0.000 C 
BRANCH  24  25
ATOM     25  C   UNL     1      -8.482  -7.474 -20.104  1.00  0.00    -0.003 C 
ATOM     26  C   UNL     1      -8.510  -8.808 -19.357  1.00  0.00     0.004 C 
ENDBRANCH  24  25
ENDBRANCH  23  24
ENDBRANCH  22  23
ENDBRANCH  21  22
ENDBRANCH  20  21
ENDBRANCH  19  20
ENDBRANCH  18  19
ENDBRANCH  17  18
ENDBRANCH  16  17
ENDBRANCH  15  16
ENDBRANCH   1  15
TORSDOF 22
ENDMDL
MODEL 6
REMARK VINA RESULT:    -7.346      1.725      2.325
REMARK INTER + INTRA:         -17.710
REMARK INTER:                 -16.532
REMARK INTRA:                  -1.179
REMARK UNBOUND:                -0.916
REMARK SMILES CCCCCCCCCCCCCCCCCCCCCCCC(=O)[O-]
REMARK SMILES IDX 13 1 14 2 15 3 16 4 17 5 18 6 19 7 20 8 21 9 22 10 23 11
REMARK SMILES IDX 24 12 25 13 26 14 12 15 11 16 10 17 9 18 8 19 7 20 6 21 5 22
REMARK SMILES IDX 4 23 3 24 2 25 1 26
REMARK H PARENT
REMARK Flexibility Score: inf
ROOT
ATOM      1  C   UNL     1      -3.587  -0.804 -18.051  1.00  0.00     0.000 C 
ENDROOT
BRANCH   1   2
ATOM      2  C   UNL     1      -2.673   0.234 -17.384  1.00  0.00     0.000 C 
BRANCH   2   3
ATOM      3  C   UNL     1      -2.545   1.528 -18.204  1.00  0.00     0.000 C 
BRANCH   3   4
ATOM      4  C   UNL     1      -2.945   2.745 -17.362  1.00  0.00     0.000 C 
BRANCH   4   5
ATOM      5  C   UNL     1      -1.884   3.852 -17.445  1.00  0.00     0.000 C 
BRANCH   5   6
ATOM      6  C   UNL     1      -2.480   5.265 -17.313  1.00  0.00     0.000 C 
BRANCH   6   7
ATOM      7  C   UNL     1      -3.909   5.392 -17.881  1.00  0.00     0.000 C 
BRANCH   7   8
ATOM      8  C   UNL     1      -4.849   6.157 -16.936  1.00  0.00     0.000 C 
BRANCH   8   9
ATOM      9  C   UNL     1      -4.280   6.210 -15.510  1.00  0.00     0.000 C 
BRANCH   9  10
ATOM     10  C   UNL     1      -5.371   6.343 -14.432  1.00  0.00     0.006 C 
BRANCH  10  11
ATOM     11  C   UNL     1      -4.880   6.046 -13.004  1.00  0.00     0.053 C 
BRANCH  11  12
ATOM     12  C   UNL     1      -3.960   7.108 -12.479  1.00  0.00     0.041 C 
ATOM     13  O   UNL     1      -4.346   8.305 -12.416  1.00  0.00    -0.550 OA
ATOM     14  O   UNL     1      -2.670   6.782 -12.081  1.00  0.00    -0.550 OA
ENDBRANCH  11  12
ENDBRANCH  10  11
ENDBRANCH   9  10
ENDBRANCH   8   9
ENDBRANCH   7   8
ENDBRANCH   6   7
ENDBRANCH   5   6
ENDBRANCH   4   5
ENDBRANCH   3   4
ENDBRANCH   2   3
ENDBRANCH   1   2
BRANCH   1  15
ATOM     15  C   UNL     1      -4.832  -0.174 -18.692  1.00  0.00     0.000 C 
BRANCH  15  16
ATOM     16  C   UNL     1      -5.775  -1.255 -19.233  1.00  0.00     0.000 C 
BRANCH  16  17
ATOM     17  C   UNL     1      -4.995  -2.507 -19.663  1.00  0.00     0.000 C 
BRANCH  17  18
ATOM     18  C   UNL     1      -5.049  -3.634 -18.609  1.00  0.00    -0.000 C 
BRANCH  18  19
ATOM     19  C   UNL     1      -6.438  -4.282 -18.457  1.00  0.00    -0.000 C 
BRANCH  19  20
ATOM     20  C   UNL     1      -6.990  -4.967 -19.723  1.00  0.00    -0.000 C 
BRANCH  20  21
ATOM     21  C   UNL     1      -8.526  -4.999 -19.828  1.00  0.00    -0.000 C 
BRANCH  21  22
ATOM     22  C   UNL     1      -9.079  -6.414 -20.054  1.00  0.00    -0.000 C 
BRANCH  22  23
ATOM     23  C   UNL     1      -7.996  -7.474 -19.803  1.00  0.00    -0.000 C 
BRANCH  23  24
ATOM     24  C   UNL     1      -8.571  -8.806 -19.285  1.00  0.00    -0.000 C 
BRANCH  24  25
ATOM     25  C   UNL     1      -8.147 -10.048 -20.088  1.00  0.00    -0.003 C 
ATOM     26  C   UNL     1      -7.795  -9.730 -21.541  1.00  0.00     0.004 C 
ENDBRANCH  24  25
ENDBRANCH  23  24
ENDBRANCH  22  23
ENDBRANCH  21  22
ENDBRANCH  20  21
ENDBRANCH  19  20
ENDBRANCH  18  19
ENDBRANCH  17  18
ENDBRANCH  16  17
ENDBRANCH  15  16
ENDBRANCH   1  15
TORSDOF 22
ENDMDL
MODEL 7
REMARK VINA RESULT:    -6.964      4.191     11.838
REMARK INTER + INTRA:         -16.837
REMARK INTER:                 -14.927
REMARK INTRA:                  -1.910
REMARK UNBOUND:                -0.916
REMARK SMILES CCCCCCCCCCCCCCCCCCCCCCCC(=O)[O-]
REMARK SMILES IDX 13 1 14 2 15 3 16 4 17 5 18 6 19 7 20 8 21 9 22 10 23 11
REMARK SMILES IDX 24 12 25 13 26 14 12 15 11 16 10 17 9 18 8 19 7 20 6 21 5 22
REMARK SMILES IDX 4 23 3 24 2 25 1 26
REMARK H PARENT
REMARK Flexibility Score: inf
ROOT
ATOM      1  C   UNL     1      -3.935   5.988 -15.955  1.00  0.00     0.000 C 
ENDROOT
BRANCH   1   2
ATOM      2  C   UNL     1      -4.197   5.761 -17.450  1.00  0.00     0.000 C 
BRANCH   2   3
ATOM      3  C   UNL     1      -3.025   5.068 -18.162  1.00  0.00     0.000 C 
BRANCH   3   4
ATOM      4  C   UNL     1      -2.242   4.184 -17.184  1.00  0.00     0.000 C 
BRANCH   4   5
ATOM      5  C   UNL     1      -1.886   2.833 -17.819  1.00  0.00     0.000 C 
BRANCH   5   6
ATOM      6  C   UNL     1      -3.083   1.867 -17.884  1.00  0.00     0.000 C 
BRANCH   6   7
ATOM      7  C   UNL     1      -2.702   0.389 -17.656  1.00  0.00     0.000 C 
BRANCH   7   8
ATOM      8  C   UNL     1      -3.895  -0.560 -17.848  1.00  0.00     0.000 C 
BRANCH   8   9
ATOM      9  C   UNL     1      -3.466  -1.855 -18.554  1.00  0.00     0.000 C 
BRANCH   9  10
ATOM     10  C   UNL     1      -4.462  -2.306 -19.638  1.00  0.00     0.006 C 
BRANCH  10  11
ATOM     11  C   UNL     1      -5.582  -3.225 -19.117  1.00  0.00     0.053 C 
BRANCH  11  12
ATOM     12  C   UNL     1      -6.945  -2.625 -19.288  1.00  0.00     0.041 C 
ATOM     13  O   UNL     1      -7.078  -1.380 -19.417  1.00  0.00    -0.550 OA
ATOM     14  O   UNL     1      -8.072  -3.437 -19.282  1.00  0.00    -0.550 OA
ENDBRANCH  11  12
ENDBRANCH  10  11
ENDBRANCH   9  10
ENDBRANCH   8   9
ENDBRANCH   7   8
ENDBRANCH   6   7
ENDBRANCH   5   6
ENDBRANCH   4   5
ENDBRANCH   3   4
ENDBRANCH   2   3
ENDBRANCH   1   2
BRANCH   1  15
ATOM     15  C   UNL     1      -5.214   5.908 -15.109  1.00  0.00     0.000 C 
BRANCH  15  16
ATOM     16  C   UNL     1      -5.028   6.625 -13.766  1.00  0.00     0.000 C 
BRANCH  16  17
ATOM     17  C   UNL     1      -3.651   7.302 -13.686  1.00  0.00     0.000 C 
BRANCH  17  18
ATOM     18  C   UNL     1      -2.918   7.007 -12.359  1.00  0.00    -0.000 C 
BRANCH  18  19
ATOM     19  C   UNL     1      -3.752   6.196 -11.349  1.00  0.00    -0.000 C 
BRANCH  19  20
ATOM     20  C   UNL     1      -3.906   6.836  -9.956  1.00  0.00    -0.000 C 
BRANCH  20  21
ATOM     21  C   UNL     1      -4.476   8.267  -9.956  1.00  0.00    -0.000 C 
BRANCH  21  22
ATOM     22  C   UNL     1      -5.991   8.305  -9.710  1.00  0.00    -0.000 C 
BRANCH  22  23
ATOM     23  C   UNL     1      -6.765   8.257 -11.036  1.00  0.00    -0.000 C 
BRANCH  23  24
ATOM     24  C   UNL     1      -8.089   7.475 -10.928  1.00  0.00    -0.000 C 
BRANCH  24  25
ATOM     25  C   UNL     1      -8.000   5.994 -11.333  1.00  0.00    -0.003 C 
ATOM     26  C   UNL     1      -8.812   5.075 -10.421  1.00  0.00     0.004 C 
ENDBRANCH  24  25
ENDBRANCH  23  24
ENDBRANCH  22  23
ENDBRANCH  21  22
ENDBRANCH  20  21
ENDBRANCH  19  20
ENDBRANCH  18  19
ENDBRANCH  17  18
ENDBRANCH  16  17
ENDBRANCH  15  16
ENDBRANCH   1  15
TORSDOF 22
ENDMDL
MODEL 8
REMARK VINA RESULT:    -6.833      1.421      3.258
REMARK INTER + INTRA:         -16.536
REMARK INTER:                 -15.004
REMARK INTRA:                  -1.532
REMARK UNBOUND:                -0.916
REMARK SMILES CCCCCCCCCCCCCCCCCCCCCCCC(=O)[O-]
REMARK SMILES IDX 13 1 14 2 15 3 16 4 17 5 18 6 19 7 20 8 21 9 22 10 23 11
REMARK SMILES IDX 24 12 25 13 26 14 12 15 11 16 10 17 9 18 8 19 7 20 6 21 5 22
REMARK SMILES IDX 4 23 3 24 2 25 1 26
REMARK H PARENT
REMARK Flexibility Score: inf
ROOT
ATOM      1  C   UNL     1      -3.314   4.525 -17.216  1.00  0.00     0.000 C 
ENDROOT
BRANCH   1   2
ATOM      2  C   UNL     1      -3.076   5.752 -18.107  1.00  0.00     0.000 C 
BRANCH   2   3
ATOM      3  C   UNL     1      -2.021   6.710 -17.532  1.00  0.00     0.000 C 
BRANCH   3   4
ATOM      4  C   UNL     1      -2.579   8.135 -17.434  1.00  0.00     0.000 C 
BRANCH   4   5
ATOM      5  C   UNL     1      -2.809   8.542 -15.971  1.00  0.00     0.000 C 
BRANCH   5   6
ATOM      6  C   UNL     1      -2.356   7.464 -14.970  1.00  0.00     0.000 C 
BRANCH   6   7
ATOM      7  C   UNL     1      -3.308   7.296 -13.766  1.00  0.00     0.000 C 
BRANCH   7   8
ATOM      8  C   UNL     1      -4.781   7.506 -14.151  1.00  0.00     0.000 C 
BRANCH   8   9
ATOM      9  C   UNL     1      -5.592   6.214 -13.964  1.00  0.00     0.000 C 
BRANCH   9  10
ATOM     10  C   UNL     1      -7.068   6.477 -13.612  1.00  0.00     0.006 C 
BRANCH  10  11
ATOM     11  C   UNL     1      -7.443   6.102 -12.167  1.00  0.00     0.053 C 
BRANCH  11  12
ATOM     12  C   UNL     1      -6.848   7.035 -11.156  1.00  0.00     0.041 C 
ATOM     13  O   UNL     1      -7.032   8.277 -11.256  1.00  0.00    -0.550 OA
ATOM     14  O   UNL     1      -6.070   6.539 -10.119  1.00  0.00    -0.550 OA
ENDBRANCH  11  12
ENDBRANCH  10  11
ENDBRANCH   9  10
ENDBRANCH   8   9
ENDBRANCH   7   8
ENDBRANCH   6   7
ENDBRANCH   5   6
ENDBRANCH   4   5
ENDBRANCH   3   4
ENDBRANCH   2   3
ENDBRANCH   1   2
BRANCH   1  15
ATOM     15  C   UNL     1      -2.362   3.364 -17.538  1.00  0.00     0.000 C 
BRANCH  15  16
ATOM     16  C   UNL     1      -3.146   2.087 -17.867  1.00  0.00     0.000 C 
BRANCH  16  17
ATOM     17  C   UNL     1      -2.206   0.879 -17.997  1.00  0.00     0.000 C 
BRANCH  17  18
ATOM     18  C   UNL     1      -2.940  -0.403 -18.447  1.00  0.00    -0.000 C 
BRANCH  18  19
ATOM     19  C   UNL     1      -4.429  -0.186 -18.780  1.00  0.00    -0.000 C 
BRANCH  19  20
ATOM     20  C   UNL     1      -5.261  -1.472 -18.950  1.00  0.00    -0.000 C 
BRANCH  20  21
ATOM     21  C   UNL     1      -6.737  -1.248 -19.327  1.00  0.00    -0.000 C 
BRANCH  21  22
ATOM     22  C   UNL     1      -7.120  -1.912 -20.657  1.00  0.00    -0.000 C 
BRANCH  22  23
ATOM     23  C   UNL     1      -6.246  -3.146 -20.928  1.00  0.00    -0.000 C 
BRANCH  23  24
ATOM     24  C   UNL     1      -6.993  -4.473 -20.693  1.00  0.00    -0.000 C 
BRANCH  24  25
ATOM     25  C   UNL     1      -7.884  -4.499 -19.440  1.00  0.00    -0.003 C 
ATOM     26  C   UNL     1      -8.937  -5.607 -19.477  1.00  0.00     0.004 C 
ENDBRANCH  24  25
ENDBRANCH  23  24
ENDBRANCH  22  23
ENDBRANCH  21  22
ENDBRANCH  20  21
ENDBRANCH  19  20
ENDBRANCH  18  19
ENDBRANCH  17  18
ENDBRANCH  16  17
ENDBRANCH  15  16
ENDBRANCH   1  15
TORSDOF 22
ENDMDL
