MODEL 1
REMARK VINA RESULT:    76.525      0.000      0.000
REMARK INTER + INTRA:          83.666
REMARK INTER:                  83.236
REMARK INTRA:                   0.430
REMARK UNBOUND:                 0.430
REMARK SMILES C[C@@H]1[C@H]2C3=CC[C@@H]4[C@@]5(C)CC[C@@H](O)C(C)(C)[C@H]5CC[C@@]4(C)[C@]3(C)CC[C@]2(C(=O)[O-])CC[C@@H]1C
REMARK SMILES IDX 26 1 30 2 25 3 3 4 31 5 24 6 4 7 2 8 32 9 22 10 5 11 1 12
REMARK SMILES IDX 33 13 23 14 20 15 6 16 7 17 19 18 21 19 8 20 18 21 17 22
REMARK SMILES IDX 10 23 9 24 14 25 11 26 12 27 15 28 16 29 27 30 28 31 29 32
REMARK SMILES IDX 13 33
REMARK H PARENT 13 34
REMARK Flexibility Score: inf
ROOT
ATOM      1  C   UNL     1     -14.963  45.125  27.124  1.00  0.00     0.017 C 
ATOM      2  C   UNL     1     -14.806  43.583  27.155  1.00  0.00     0.014 C 
ATOM      3  C   UNL     1     -14.400  45.712  28.477  1.00  0.00     0.014 C 
ATOM      4  C   UNL     1     -14.151  45.735  25.929  1.00  0.00     0.030 C 
ATOM      5  C   UNL     1     -15.182  42.942  25.817  1.00  0.00     0.004 C 
ATOM      6  C   UNL     1     -13.549  47.006  28.339  1.00  0.00     0.013 C 
ATOM      7  C   UNL     1     -14.363  47.262  25.954  1.00  0.00    -0.063 C 
ATOM      8  C   UNL     1     -14.334  44.998  24.550  1.00  0.00    -0.003 C 
ATOM      9  C   UNL     1     -14.271  43.441  24.686  1.00  0.00    -0.011 C 
ATOM     10  C   UNL     1     -14.083  48.009  27.260  1.00  0.00    -0.006 C 
ATOM     11  C   UNL     1     -14.735  47.983  24.870  1.00  0.00    -0.027 C 
ATOM     12  C   UNL     1     -13.290  45.459  23.499  1.00  0.00     0.008 C 
ATOM     13  C   UNL     1     -12.841  42.875  24.845  1.00  0.00     0.008 C 
ATOM     14  C   UNL     1     -15.444  48.569  27.808  1.00  0.00     0.017 C 
ATOM     15  C   UNL     1     -13.047  49.179  26.909  1.00  0.00    -0.020 C 
ATOM     16  C   UNL     1     -14.598  49.490  24.779  1.00  0.00     0.032 C 
ATOM     17  C   UNL     1     -13.764  50.174  25.921  1.00  0.00     0.006 C 
ATOM     18  C   UNL     1     -12.592  49.964  28.196  1.00  0.00     0.008 C 
ATOM     19  C   UNL     1     -11.769  48.581  26.229  1.00  0.00     0.012 C 
ATOM     20  C   UNL     1     -12.907  51.446  25.478  1.00  0.00    -0.025 C 
ATOM     21  C   UNL     1     -12.608  51.506  28.062  1.00  0.00     0.005 C 
ATOM     22  C   UNL     1     -12.019  51.974  26.699  1.00  0.00     0.003 C 
ATOM     23  C   UNL     1     -13.951  52.528  25.031  1.00  0.00     0.010 C 
ATOM     24  C   UNL     1     -11.980  51.097  24.259  1.00  0.00     0.012 C 
ATOM     25  C   UNL     1     -11.577  53.511  26.625  1.00  0.00    -0.006 C 
ATOM     26  C   UNL     1     -13.383  53.929  24.835  1.00  0.00     0.033 C 
ATOM     27  C   UNL     1     -12.710  54.455  26.107  1.00  0.00     0.120 C 
ATOM     28  C   UNL     1     -11.079  54.046  27.995  1.00  0.00     0.014 C 
ATOM     29  C   UNL     1     -10.353  53.654  25.671  1.00  0.00     0.014 C 
ENDROOT
BRANCH   1  30
ATOM     30  C   UNL     1     -16.459  45.429  27.025  1.00  0.00     0.048 C 
ATOM     31  O   UNL     1     -17.125  45.135  25.997  1.00  0.00    -0.550 OA
ATOM     32  O   UNL     1     -17.125  45.991  28.109  1.00  0.00    -0.550 OA
ENDBRANCH   1  30
BRANCH  27  33
ATOM     33  O   UNL     1     -13.668  54.765  27.090  1.00  0.00    -0.393 OA
ATOM     34  H   UNL     1     -14.079  53.924  27.405  1.00  0.00     0.210 HD
ENDBRANCH  27  33
TORSDOF 2
ENDMDL
MODEL 2
REMARK VINA RESULT:    77.531      1.816      3.558
REMARK INTER + INTRA:          84.759
REMARK INTER:                  83.774
REMARK INTRA:                   0.985
REMARK UNBOUND:                 0.430
REMARK SMILES C[C@@H]1[C@H]2C3=CC[C@@H]4[C@@]5(C)CC[C@@H](O)C(C)(C)[C@H]5CC[C@@]4(C)[C@]3(C)CC[C@]2(C(=O)[O-])CC[C@@H]1C
REMARK SMILES IDX 26 1 30 2 25 3 3 4 31 5 24 6 4 7 2 8 32 9 22 10 5 11 1 12
REMARK SMILES IDX 33 13 23 14 20 15 6 16 7 17 19 18 21 19 8 20 18 21 17 22
REMARK SMILES IDX 10 23 9 24 14 25 11 26 12 27 15 28 16 29 27 30 28 31 29 32
REMARK SMILES IDX 13 33
REMARK H PARENT 13 34
REMARK Flexibility Score: inf
ROOT
ATOM      1  C   UNL     1     -14.241  45.023  25.132  1.00  0.00     0.017 C 
ATOM      2  C   UNL     1     -15.140  43.763  25.053  1.00  0.00     0.014 C 
ATOM      3  C   UNL     1     -14.482  45.892  23.837  1.00  0.00     0.014 C 
ATOM      4  C   UNL     1     -14.607  45.880  26.395  1.00  0.00     0.030 C 
ATOM      5  C   UNL     1     -15.088  42.940  26.343  1.00  0.00     0.004 C 
ATOM      6  C   UNL     1     -14.577  47.427  24.071  1.00  0.00     0.013 C 
ATOM      7  C   UNL     1     -13.668  47.104  26.414  1.00  0.00    -0.063 C 
ATOM      8  C   UNL     1     -14.769  45.066  27.732  1.00  0.00    -0.003 C 
ATOM      9  C   UNL     1     -15.597  43.753  27.542  1.00  0.00    -0.011 C 
ATOM     10  C   UNL     1     -13.583  47.969  25.155  1.00  0.00    -0.006 C 
ATOM     11  C   UNL     1     -12.955  47.481  27.501  1.00  0.00    -0.027 C 
ATOM     12  C   UNL     1     -15.415  45.917  28.857  1.00  0.00     0.008 C 
ATOM     13  C   UNL     1     -17.125  43.975  27.443  1.00  0.00     0.008 C 
ATOM     14  C   UNL     1     -12.141  47.819  24.552  1.00  0.00     0.017 C 
ATOM     15  C   UNL     1     -13.893  49.474  25.608  1.00  0.00    -0.020 C 
ATOM     16  C   UNL     1     -12.326  48.851  27.656  1.00  0.00     0.032 C 
ATOM     17  C   UNL     1     -12.748  49.925  26.590  1.00  0.00     0.006 C 
ATOM     18  C   UNL     1     -13.941  50.457  24.380  1.00  0.00     0.008 C 
ATOM     19  C   UNL     1     -15.279  49.542  26.337  1.00  0.00     0.012 C 
ATOM     20  C   UNL     1     -12.850  51.424  27.128  1.00  0.00    -0.025 C 
ATOM     21  C   UNL     1     -13.161  51.780  24.570  1.00  0.00     0.005 C 
ATOM     22  C   UNL     1     -13.398  52.394  25.980  1.00  0.00     0.003 C 
ATOM     23  C   UNL     1     -11.394  51.823  27.555  1.00  0.00     0.010 C 
ATOM     24  C   UNL     1     -13.789  51.503  28.384  1.00  0.00     0.012 C 
ATOM     25  C   UNL     1     -13.020  53.942  26.137  1.00  0.00    -0.006 C 
ATOM     26  C   UNL     1     -11.188  53.307  27.835  1.00  0.00     0.033 C 
ATOM     27  C   UNL     1     -11.553  54.173  26.624  1.00  0.00     0.120 C 
ATOM     28  C   UNL     1     -13.231  54.734  24.818  1.00  0.00     0.014 C 
ATOM     29  C   UNL     1     -13.982  54.610  27.164  1.00  0.00     0.014 C 
ENDROOT
BRANCH   1  30
ATOM     30  C   UNL     1     -12.787  44.545  25.158  1.00  0.00     0.048 C 
ATOM     31  O   UNL     1     -11.928  45.083  25.905  1.00  0.00    -0.550 OA
ATOM     32  O   UNL     1     -12.405  43.454  24.384  1.00  0.00    -0.550 OA
ENDBRANCH   1  30
BRANCH  27  33
ATOM     33  O   UNL     1     -10.598  54.030  25.600  1.00  0.00    -0.393 OA
ATOM     34  H   UNL     1      -9.837  53.507  25.951  1.00  0.00     0.210 HD
ENDBRANCH  27  33
TORSDOF 2
ENDMDL
