MODEL 1
REMARK VINA RESULT:    -6.306      0.000      0.000
REMARK INTER + INTRA:         -10.603
REMARK INTER:                  -9.440
REMARK INTRA:                  -1.164
REMARK UNBOUND:                -1.164
REMARK SMILES C=C(CC[C@H](C(=O)[O-])[C@H]1[C@H](O)C[C@]2(C)C3=C(CC[C@]12C)[C@]1(C)CC[C@H](OC(C)=O)C(C)(C)[C@@H]1CC3)C(C)C
REMARK SMILES IDX 4 1 5 2 6 3 7 4 8 5 9 6 10 7 19 8 12 9 13 10 18 11 20 12
REMARK SMILES IDX 14 13 15 14 17 15 16 16 35 17 21 18 34 19 33 20 23 21 22 22
REMARK SMILES IDX 30 23 24 24 25 25 31 26 32 27 11 28 26 30 27 31 29 32 28 33
REMARK SMILES IDX 3 34 2 35 1 36 36 37 37 38 38 39
REMARK H PARENT 11 29
REMARK Flexibility Score: inf
ROOT
ATOM      1  C   UNL     1      55.351 -14.408  -4.315  1.00  0.00     0.014 C 
ENDROOT
BRANCH   1   2
ATOM      2  C   UNL     1      55.773 -15.906  -4.293  1.00  0.00     0.042 C 
BRANCH   2   3
ATOM      3  C   UNL     1      54.587 -16.846  -4.228  1.00  0.00     0.045 C 
ATOM      4  O   UNL     1      54.689 -18.056  -4.561  1.00  0.00    -0.550 OA
ATOM      5  O   UNL     1      53.357 -16.367  -3.790  1.00  0.00    -0.550 OA
ENDBRANCH   2   3
BRANCH   2   6
ATOM      6  C   UNL     1      56.881 -16.318  -3.261  1.00  0.00     0.033 C 
ATOM      7  C   UNL     1      58.272 -15.756  -3.594  1.00  0.00     0.119 C 
ATOM      8  C   UNL     1      56.688 -16.134  -1.700  1.00  0.00    -0.017 C 
ATOM      9  C   UNL     1      59.097 -15.977  -2.334  1.00  0.00     0.043 C 
ATOM     10  C   UNL     1      58.133 -15.704  -1.153  1.00  0.00    -0.003 C 
ATOM     11  C   UNL     1      56.226 -17.490  -1.080  1.00  0.00     0.012 C 
ATOM     12  C   UNL     1      55.575 -15.116  -1.326  1.00  0.00     0.013 C 
ATOM     13  C   UNL     1      58.220 -14.170  -0.866  1.00  0.00     0.017 C 
ATOM     14  C   UNL     1      58.612 -16.537   0.078  1.00  0.00    -0.064 C 
ATOM     15  C   UNL     1      57.389 -18.453  -0.881  1.00  0.00     0.032 C 
ATOM     16  C   UNL     1      58.361 -17.881   0.139  1.00  0.00    -0.064 C 
ATOM     17  C   UNL     1      59.539 -15.895   1.089  1.00  0.00     0.032 C 
ATOM     18  C   UNL     1      58.976 -18.836   1.211  1.00  0.00    -0.008 C 
ATOM     19  C   UNL     1      59.633 -16.673   2.386  1.00  0.00     0.009 C 
ATOM     20  C   UNL     1      60.072 -18.128   2.118  1.00  0.00     0.009 C 
ATOM     21  C   UNL     1      57.809 -19.362   2.097  1.00  0.00     0.015 C 
ATOM     22  C   UNL     1      59.632 -20.003   0.417  1.00  0.00     0.016 C 
ATOM     23  C   UNL     1      60.473 -18.904   3.459  1.00  0.00     0.005 C 
ATOM     24  C   UNL     1      58.255 -20.191   3.303  1.00  0.00     0.047 C 
ATOM     25  C   UNL     1      59.209 -19.408   4.219  1.00  0.00     0.182 C 
ATOM     26  C   UNL     1      61.295 -17.995   4.425  1.00  0.00     0.015 C 
ATOM     27  C   UNL     1      61.424 -20.105   3.153  1.00  0.00     0.015 C 
BRANCH   7  28
ATOM     28  O   UNL     1      58.850 -16.371  -4.721  1.00  0.00    -0.393 OA
ATOM     29  H   UNL     1      59.834 -16.404  -4.592  1.00  0.00     0.210 HD
ENDBRANCH   7  28
BRANCH  25  30
ATOM     30  O   UNL     1      58.510 -18.303   4.801  1.00  0.00    -0.462 OA
BRANCH  30  31
ATOM     31  C   UNL     1      57.473 -18.435   5.730  1.00  0.00     0.302 C 
ATOM     32  O   UNL     1      56.289 -18.119   5.432  1.00  0.00    -0.253 OA
ATOM     33  C   UNL     1      57.782 -18.961   7.089  1.00  0.00     0.139 C 
ENDBRANCH  30  31
ENDBRANCH  25  30
ENDBRANCH   2   6
ENDBRANCH   1   2
BRANCH   1  34
ATOM     34  C   UNL     1      56.250 -13.578  -5.244  1.00  0.00     0.031 C 
BRANCH  34  35
ATOM     35  C   UNL     1      55.629 -13.432  -6.620  1.00  0.00    -0.075 C 
ATOM     36  C   UNL     1      54.568 -12.623  -6.776  1.00  0.00     0.008 C 
BRANCH  35  37
ATOM     37  C   UNL     1      56.226 -14.139  -7.829  1.00  0.00     0.008 C 
ATOM     38  C   UNL     1      56.275 -13.206  -9.045  1.00  0.00     0.012 C 
ATOM     39  C   UNL     1      57.616 -14.703  -7.512  1.00  0.00     0.012 C 
ENDBRANCH  35  37
ENDBRANCH  34  35
ENDBRANCH   1  34
TORSDOF 9
ENDMDL
MODEL 2
REMARK VINA RESULT:    -6.285      2.072      3.625
REMARK INTER + INTRA:         -10.572
REMARK INTER:                  -8.347
REMARK INTRA:                  -2.225
REMARK UNBOUND:                -1.164
REMARK SMILES C=C(CC[C@H](C(=O)[O-])[C@H]1[C@H](O)C[C@]2(C)C3=C(CC[C@]12C)[C@]1(C)CC[C@H](OC(C)=O)C(C)(C)[C@@H]1CC3)C(C)C
REMARK SMILES IDX 4 1 5 2 6 3 7 4 8 5 9 6 10 7 19 8 12 9 13 10 18 11 20 12
REMARK SMILES IDX 14 13 15 14 17 15 16 16 35 17 21 18 34 19 33 20 23 21 22 22
REMARK SMILES IDX 30 23 24 24 25 25 31 26 32 27 11 28 26 30 27 31 29 32 28 33
REMARK SMILES IDX 3 34 2 35 1 36 36 37 37 38 38 39
REMARK H PARENT 11 29
REMARK Flexibility Score: inf
ROOT
ATOM      1  C   UNL     1      55.224 -13.432  -6.162  1.00  0.00     0.014 C 
ENDROOT
BRANCH   1   2
ATOM      2  C   UNL     1      56.570 -13.336  -5.387  1.00  0.00     0.042 C 
BRANCH   2   3
ATOM      3  C   UNL     1      57.733 -12.956  -6.280  1.00  0.00     0.045 C 
ATOM      4  O   UNL     1      57.791 -13.333  -7.479  1.00  0.00    -0.550 OA
ATOM      5  O   UNL     1      58.763 -12.174  -5.767  1.00  0.00    -0.550 OA
ENDBRANCH   2   3
BRANCH   2   6
ATOM      6  C   UNL     1      56.941 -14.543  -4.454  1.00  0.00     0.033 C 
ATOM      7  C   UNL     1      58.179 -15.323  -4.921  1.00  0.00     0.119 C 
ATOM      8  C   UNL     1      57.082 -14.382  -2.884  1.00  0.00    -0.017 C 
ATOM      9  C   UNL     1      58.557 -16.205  -3.739  1.00  0.00     0.043 C 
ATOM     10  C   UNL     1      58.301 -15.342  -2.479  1.00  0.00    -0.003 C 
ATOM     11  C   UNL     1      55.751 -14.834  -2.205  1.00  0.00     0.012 C 
ATOM     12  C   UNL     1      57.294 -12.912  -2.426  1.00  0.00     0.013 C 
ATOM     13  C   UNL     1      59.619 -14.541  -2.225  1.00  0.00     0.017 C 
ATOM     14  C   UNL     1      57.980 -16.295  -1.285  1.00  0.00    -0.064 C 
ATOM     15  C   UNL     1      55.651 -16.350  -2.098  1.00  0.00     0.032 C 
ATOM     16  C   UNL     1      56.744 -16.875  -1.180  1.00  0.00    -0.064 C 
ATOM     17  C   UNL     1      59.103 -16.741  -0.373  1.00  0.00     0.032 C 
ATOM     18  C   UNL     1      56.392 -17.999  -0.156  1.00  0.00    -0.008 C 
ATOM     19  C   UNL     1      58.609 -17.354   0.922  1.00  0.00     0.009 C 
ATOM     20  C   UNL     1      57.660 -18.537   0.637  1.00  0.00     0.009 C 
ATOM     21  C   UNL     1      55.349 -17.415   0.842  1.00  0.00     0.015 C 
ATOM     22  C   UNL     1      55.768 -19.156  -0.989  1.00  0.00     0.016 C 
ATOM     23  C   UNL     1      57.347 -19.402   1.947  1.00  0.00     0.005 C 
ATOM     24  C   UNL     1      55.009 -18.338   2.014  1.00  0.00     0.047 C 
ATOM     25  C   UNL     1      56.257 -18.718   2.827  1.00  0.00     0.182 C 
ATOM     26  C   UNL     1      58.624 -19.605   2.819  1.00  0.00     0.015 C 
ATOM     27  C   UNL     1      56.897 -20.850   1.573  1.00  0.00     0.015 C 
BRANCH   7  28
ATOM     28  O   UNL     1      57.939 -16.075  -6.087  1.00  0.00    -0.393 OA
ATOM     29  H   UNL     1      57.079 -15.777  -6.483  1.00  0.00     0.210 HD
ENDBRANCH   7  28
BRANCH  25  30
ATOM     30  O   UNL     1      56.791 -17.548   3.454  1.00  0.00    -0.462 OA
BRANCH  30  31
ATOM     31  C   UNL     1      56.355 -17.052   4.687  1.00  0.00     0.302 C 
ATOM     32  O   UNL     1      55.165 -16.668   4.847  1.00  0.00    -0.253 OA
ATOM     33  C   UNL     1      57.318 -16.983   5.820  1.00  0.00     0.139 C 
ENDBRANCH  30  31
ENDBRANCH  25  30
ENDBRANCH   2   6
ENDBRANCH   1   2
BRANCH   1  34
ATOM     34  C   UNL     1      54.261 -12.299  -5.772  1.00  0.00     0.031 C 
BRANCH  34  35
ATOM     35  C   UNL     1      53.644 -12.549  -4.410  1.00  0.00    -0.075 C 
ATOM     36  C   UNL     1      52.913 -13.660  -4.216  1.00  0.00     0.008 C 
BRANCH  35  37
ATOM     37  C   UNL     1      53.892 -11.594  -3.250  1.00  0.00     0.008 C 
ATOM     38  C   UNL     1      53.366 -10.190  -3.568  1.00  0.00     0.012 C 
ATOM     39  C   UNL     1      53.280 -12.130  -1.950  1.00  0.00     0.012 C 
ENDBRANCH  35  37
ENDBRANCH  34  35
ENDBRANCH   1  34
TORSDOF 9
ENDMDL
MODEL 3
REMARK VINA RESULT:    -6.266      1.871      3.167
REMARK INTER + INTRA:         -10.544
REMARK INTER:                  -8.255
REMARK INTRA:                  -2.289
REMARK UNBOUND:                -1.164
REMARK SMILES C=C(CC[C@H](C(=O)[O-])[C@H]1[C@H](O)C[C@]2(C)C3=C(CC[C@]12C)[C@]1(C)CC[C@H](OC(C)=O)C(C)(C)[C@@H]1CC3)C(C)C
REMARK SMILES IDX 4 1 5 2 6 3 7 4 8 5 9 6 10 7 19 8 12 9 13 10 18 11 20 12
REMARK SMILES IDX 14 13 15 14 17 15 16 16 35 17 21 18 34 19 33 20 23 21 22 22
REMARK SMILES IDX 30 23 24 24 25 25 31 26 32 27 11 28 26 30 27 31 29 32 28 33
REMARK SMILES IDX 3 34 2 35 1 36 36 37 37 38 38 39
REMARK H PARENT 11 29
REMARK Flexibility Score: inf
ROOT
ATOM      1  C   UNL     1      55.311 -16.084  -4.689  1.00  0.00     0.014 C 
ENDROOT
BRANCH   1   2
ATOM      2  C   UNL     1      55.936 -15.121  -3.637  1.00  0.00     0.042 C 
BRANCH   2   3
ATOM      3  C   UNL     1      56.356 -13.794  -4.236  1.00  0.00     0.045 C 
ATOM      4  O   UNL     1      56.175 -12.710  -3.622  1.00  0.00    -0.550 OA
ATOM      5  O   UNL     1      56.954 -13.768  -5.491  1.00  0.00    -0.550 OA
ENDBRANCH   2   3
BRANCH   2   6
ATOM      6  C   UNL     1      57.063 -15.709  -2.716  1.00  0.00     0.033 C 
ATOM      7  C   UNL     1      58.482 -15.322  -3.156  1.00  0.00     0.119 C 
ATOM      8  C   UNL     1      57.028 -15.555  -1.140  1.00  0.00    -0.017 C 
ATOM      9  C   UNL     1      59.374 -15.692  -1.979  1.00  0.00     0.043 C 
ATOM     10  C   UNL     1      58.558 -15.336  -0.713  1.00  0.00    -0.003 C 
ATOM     11  C   UNL     1      56.443 -16.860  -0.513  1.00  0.00     0.012 C 
ATOM     12  C   UNL     1      56.095 -14.414  -0.647  1.00  0.00     0.013 C 
ATOM     13  C   UNL     1      58.872 -13.837  -0.399  1.00  0.00     0.017 C 
ATOM     14  C   UNL     1      59.024 -16.266   0.452  1.00  0.00    -0.064 C 
ATOM     15  C   UNL     1      57.480 -17.972  -0.439  1.00  0.00     0.032 C 
ATOM     16  C   UNL     1      58.603 -17.568   0.505  1.00  0.00    -0.064 C 
ATOM     17  C   UNL     1      60.109 -15.785   1.392  1.00  0.00     0.032 C 
ATOM     18  C   UNL     1      59.173 -18.631   1.495  1.00  0.00    -0.008 C 
ATOM     19  C   UNL     1      60.208 -16.613   2.658  1.00  0.00     0.009 C 
ATOM     20  C   UNL     1      60.426 -18.102   2.319  1.00  0.00     0.009 C 
ATOM     21  C   UNL     1      58.025 -19.030   2.469  1.00  0.00     0.015 C 
ATOM     22  C   UNL     1      59.599 -19.845   0.620  1.00  0.00     0.016 C 
ATOM     23  C   UNL     1      60.831 -18.970   3.601  1.00  0.00     0.005 C 
ATOM     24  C   UNL     1      58.457 -19.951   3.611  1.00  0.00     0.047 C 
ATOM     25  C   UNL     1      59.580 -19.331   4.458  1.00  0.00     0.182 C 
ATOM     26  C   UNL     1      61.845 -18.210   4.512  1.00  0.00     0.015 C 
ATOM     27  C   UNL     1      61.585 -20.274   3.186  1.00  0.00     0.015 C 
BRANCH   7  28
ATOM     28  O   UNL     1      58.878 -15.968  -4.344  1.00  0.00    -0.393 OA
ATOM     29  H   UNL     1      58.457 -15.501  -5.111  1.00  0.00     0.210 HD
ENDBRANCH   7  28
BRANCH  25  30
ATOM     30  O   UNL     1      59.085 -18.165   5.124  1.00  0.00    -0.462 OA
BRANCH  30  31
ATOM     31  C   UNL     1      58.642 -18.151   6.451  1.00  0.00     0.302 C 
ATOM     32  O   UNL     1      57.931 -17.205   6.888  1.00  0.00    -0.253 OA
ATOM     33  C   UNL     1      59.020 -19.275   7.351  1.00  0.00     0.139 C 
ENDBRANCH  30  31
ENDBRANCH  25  30
ENDBRANCH   2   6
ENDBRANCH   1   2
BRANCH   1  34
ATOM     34  C   UNL     1      55.196 -17.517  -4.148  1.00  0.00     0.031 C 
BRANCH  34  35
ATOM     35  C   UNL     1      53.751 -17.884  -3.872  1.00  0.00    -0.075 C 
ATOM     36  C   UNL     1      52.875 -17.907  -4.891  1.00  0.00     0.008 C 
BRANCH  35  37
ATOM     37  C   UNL     1      53.296 -18.283  -2.475  1.00  0.00     0.008 C 
ATOM     38  C   UNL     1      54.314 -19.215  -1.808  1.00  0.00     0.012 C 
ATOM     39  C   UNL     1      53.026 -17.049  -1.605  1.00  0.00     0.012 C 
ENDBRANCH  35  37
ENDBRANCH  34  35
ENDBRANCH   1  34
TORSDOF 9
ENDMDL
MODEL 4
REMARK VINA RESULT:    -6.071      4.809      8.568
REMARK INTER + INTRA:         -10.251
REMARK INTER:                  -8.221
REMARK INTRA:                  -2.030
REMARK UNBOUND:                -1.164
REMARK SMILES C=C(CC[C@H](C(=O)[O-])[C@H]1[C@H](O)C[C@]2(C)C3=C(CC[C@]12C)[C@]1(C)CC[C@H](OC(C)=O)C(C)(C)[C@@H]1CC3)C(C)C
REMARK SMILES IDX 4 1 5 2 6 3 7 4 8 5 9 6 10 7 19 8 12 9 13 10 18 11 20 12
REMARK SMILES IDX 14 13 15 14 17 15 16 16 35 17 21 18 34 19 33 20 23 21 22 22
REMARK SMILES IDX 30 23 24 24 25 25 31 26 32 27 11 28 26 30 27 31 29 32 28 33
REMARK SMILES IDX 3 34 2 35 1 36 36 37 37 38 38 39
REMARK H PARENT 11 29
REMARK Flexibility Score: inf
ROOT
ATOM      1  C   UNL     1      57.674 -20.038   1.243  1.00  0.00     0.014 C 
ENDROOT
BRANCH   1   2
ATOM      2  C   UNL     1      57.637 -19.508   2.706  1.00  0.00     0.042 C 
BRANCH   2   3
ATOM      3  C   UNL     1      57.425 -20.610   3.723  1.00  0.00     0.045 C 
ATOM      4  O   UNL     1      58.072 -20.642   4.802  1.00  0.00    -0.550 OA
ATOM      5  O   UNL     1      56.496 -21.612   3.463  1.00  0.00    -0.550 OA
ENDBRANCH   2   3
BRANCH   2   6
ATOM      6  C   UNL     1      56.699 -18.282   2.994  1.00  0.00     0.033 C 
ATOM      7  C   UNL     1      55.376 -18.666   3.672  1.00  0.00     0.119 C 
ATOM      8  C   UNL     1      57.218 -16.981   3.734  1.00  0.00    -0.017 C 
ATOM      9  C   UNL     1      54.786 -17.350   4.158  1.00  0.00     0.043 C 
ATOM     10  C   UNL     1      55.990 -16.514   4.655  1.00  0.00    -0.003 C 
ATOM     11  C   UNL     1      57.574 -15.897   2.669  1.00  0.00     0.012 C 
ATOM     12  C   UNL     1      58.527 -17.204   4.542  1.00  0.00     0.013 C 
ATOM     13  C   UNL     1      56.200 -16.901   6.155  1.00  0.00     0.017 C 
ATOM     14  C   UNL     1      55.635 -15.000   4.507  1.00  0.00    -0.064 C 
ATOM     15  C   UNL     1      56.337 -15.178   2.149  1.00  0.00     0.032 C 
ATOM     16  C   UNL     1      55.681 -14.399   3.278  1.00  0.00    -0.064 C 
ATOM     17  C   UNL     1      55.033 -14.265   5.686  1.00  0.00     0.032 C 
ATOM     18  C   UNL     1      55.144 -12.962   2.989  1.00  0.00    -0.008 C 
ATOM     19  C   UNL     1      55.072 -12.757   5.528  1.00  0.00     0.009 C 
ATOM     20  C   UNL     1      54.368 -12.328   4.224  1.00  0.00     0.009 C 
ATOM     21  C   UNL     1      56.364 -12.071   2.613  1.00  0.00     0.015 C 
ATOM     22  C   UNL     1      54.174 -13.104   1.781  1.00  0.00     0.016 C 
ATOM     23  C   UNL     1      54.119 -10.749   4.152  1.00  0.00     0.005 C 
ATOM     24  C   UNL     1      56.037 -10.586   2.451  1.00  0.00     0.047 C 
ATOM     25  C   UNL     1      55.412  -9.992   3.723  1.00  0.00     0.182 C 
ATOM     26  C   UNL     1      53.651 -10.179   5.527  1.00  0.00     0.015 C 
ATOM     27  C   UNL     1      52.952 -10.405   3.172  1.00  0.00     0.015 C 
BRANCH   7  28
ATOM     28  O   UNL     1      54.501 -19.351   2.807  1.00  0.00    -0.393 OA
ATOM     29  H   UNL     1      55.043 -19.883   2.167  1.00  0.00     0.210 HD
ENDBRANCH   7  28
BRANCH  25  30
ATOM     30  O   UNL     1      56.374 -10.019   4.783  1.00  0.00    -0.462 OA
BRANCH  30  31
ATOM     31  C   UNL     1      57.140  -8.915   5.173  1.00  0.00     0.302 C 
ATOM     32  O   UNL     1      57.288  -7.925   4.406  1.00  0.00    -0.253 OA
ATOM     33  C   UNL     1      57.782  -8.919   6.516  1.00  0.00     0.139 C 
ENDBRANCH  30  31
ENDBRANCH  25  30
ENDBRANCH   2   6
ENDBRANCH   1   2
BRANCH   1  34
ATOM     34  C   UNL     1      59.039 -19.788   0.582  1.00  0.00     0.031 C 
BRANCH  34  35
ATOM     35  C   UNL     1      59.028 -18.508  -0.230  1.00  0.00    -0.075 C 
ATOM     36  C   UNL     1      57.864 -18.063  -0.733  1.00  0.00     0.008 C 
BRANCH  35  37
ATOM     37  C   UNL     1      60.299 -17.694  -0.429  1.00  0.00     0.008 C 
ATOM     38  C   UNL     1      60.633 -16.877   0.824  1.00  0.00     0.012 C 
ATOM     39  C   UNL     1      61.475 -18.590  -0.832  1.00  0.00     0.012 C 
ENDBRANCH  35  37
ENDBRANCH  34  35
ENDBRANCH   1  34
TORSDOF 9
ENDMDL
MODEL 5
REMARK VINA RESULT:    -6.038      2.311      4.393
REMARK INTER + INTRA:         -10.203
REMARK INTER:                  -7.740
REMARK INTRA:                  -2.462
REMARK UNBOUND:                -1.164
REMARK SMILES C=C(CC[C@H](C(=O)[O-])[C@H]1[C@H](O)C[C@]2(C)C3=C(CC[C@]12C)[C@]1(C)CC[C@H](OC(C)=O)C(C)(C)[C@@H]1CC3)C(C)C
REMARK SMILES IDX 4 1 5 2 6 3 7 4 8 5 9 6 10 7 19 8 12 9 13 10 18 11 20 12
REMARK SMILES IDX 14 13 15 14 17 15 16 16 35 17 21 18 34 19 33 20 23 21 22 22
REMARK SMILES IDX 30 23 24 24 25 25 31 26 32 27 11 28 26 30 27 31 29 32 28 33
REMARK SMILES IDX 3 34 2 35 1 36 36 37 37 38 38 39
REMARK H PARENT 11 29
REMARK Flexibility Score: inf
ROOT
ATOM      1  C   UNL     1      55.163 -14.853  -2.725  1.00  0.00     0.014 C 
ENDROOT
BRANCH   1   2
ATOM      2  C   UNL     1      56.566 -15.512  -2.872  1.00  0.00     0.042 C 
BRANCH   2   3
ATOM      3  C   UNL     1      56.834 -16.008  -4.278  1.00  0.00     0.045 C 
ATOM      4  O   UNL     1      55.906 -16.438  -5.011  1.00  0.00    -0.550 OA
ATOM      5  O   UNL     1      58.133 -15.989  -4.774  1.00  0.00    -0.550 OA
ENDBRANCH   2   3
BRANCH   2   6
ATOM      6  C   UNL     1      56.959 -16.593  -1.805  1.00  0.00     0.033 C 
ATOM      7  C   UNL     1      57.014 -18.022  -2.366  1.00  0.00     0.119 C 
ATOM      8  C   UNL     1      58.229 -16.432  -0.871  1.00  0.00    -0.017 C 
ATOM      9  C   UNL     1      57.722 -18.839  -1.295  1.00  0.00     0.043 C 
ATOM     10  C   UNL     1      58.827 -17.914  -0.730  1.00  0.00    -0.003 C 
ATOM     11  C   UNL     1      57.777 -15.866   0.511  1.00  0.00     0.012 C 
ATOM     12  C   UNL     1      59.271 -15.411  -1.409  1.00  0.00     0.013 C 
ATOM     13  C   UNL     1      60.082 -18.131  -1.636  1.00  0.00     0.017 C 
ATOM     14  C   UNL     1      59.116 -18.335   0.746  1.00  0.00    -0.064 C 
ATOM     15  C   UNL     1      57.186 -16.947   1.406  1.00  0.00     0.032 C 
ATOM     16  C   UNL     1      58.254 -17.975   1.747  1.00  0.00    -0.064 C 
ATOM     17  C   UNL     1      60.229 -19.323   1.028  1.00  0.00     0.032 C 
ATOM     18  C   UNL     1      58.335 -18.520   3.208  1.00  0.00    -0.008 C 
ATOM     19  C   UNL     1      60.629 -19.366   2.489  1.00  0.00     0.009 C 
ATOM     20  C   UNL     1      59.408 -19.680   3.379  1.00  0.00     0.009 C 
ATOM     21  C   UNL     1      58.693 -17.323   4.137  1.00  0.00     0.015 C 
ATOM     22  C   UNL     1      56.917 -19.068   3.538  1.00  0.00     0.016 C 
ATOM     23  C   UNL     1      59.821 -20.030   4.885  1.00  0.00     0.005 C 
ATOM     24  C   UNL     1      58.968 -17.711   5.591  1.00  0.00     0.047 C 
ATOM     25  C   UNL     1      60.108 -18.736   5.707  1.00  0.00     0.182 C 
ATOM     26  C   UNL     1      61.091 -20.934   4.937  1.00  0.00     0.015 C 
ATOM     27  C   UNL     1      58.714 -20.874   5.593  1.00  0.00     0.015 C 
BRANCH   7  28
ATOM     28  O   UNL     1      55.738 -18.536  -2.668  1.00  0.00    -0.393 OA
ATOM     29  H   UNL     1      55.121 -18.305  -1.926  1.00  0.00     0.210 HD
ENDBRANCH   7  28
BRANCH  25  30
ATOM     30  O   UNL     1      61.333 -18.137   5.272  1.00  0.00    -0.462 OA
BRANCH  30  31
ATOM     31  C   UNL     1      62.361 -17.744   6.136  1.00  0.00     0.302 C 
ATOM     32  O   UNL     1      62.154 -16.899   7.048  1.00  0.00    -0.253 OA
ATOM     33  C   UNL     1      63.715 -18.341   5.967  1.00  0.00     0.139 C 
ENDBRANCH  30  31
ENDBRANCH  25  30
ENDBRANCH   2   6
ENDBRANCH   1   2
BRANCH   1  34
ATOM     34  C   UNL     1      54.594 -15.039  -1.309  1.00  0.00     0.031 C 
BRANCH  34  35
ATOM     35  C   UNL     1      53.506 -16.095  -1.290  1.00  0.00    -0.075 C 
ATOM     36  C   UNL     1      52.914 -16.445  -2.444  1.00  0.00     0.008 C 
BRANCH  35  37
ATOM     37  C   UNL     1      53.123 -16.803   0.002  1.00  0.00     0.008 C 
ATOM     38  C   UNL     1      53.679 -18.231   0.036  1.00  0.00     0.012 C 
ATOM     39  C   UNL     1      53.580 -16.005   1.229  1.00  0.00     0.012 C 
ENDBRANCH  35  37
ENDBRANCH  34  35
ENDBRANCH   1  34
TORSDOF 9
ENDMDL
MODEL 6
REMARK VINA RESULT:    -6.005      2.906      4.846
REMARK INTER + INTRA:         -10.152
REMARK INTER:                  -8.751
REMARK INTRA:                  -1.401
REMARK UNBOUND:                -1.164
REMARK SMILES C=C(CC[C@H](C(=O)[O-])[C@H]1[C@H](O)C[C@]2(C)C3=C(CC[C@]12C)[C@]1(C)CC[C@H](OC(C)=O)C(C)(C)[C@@H]1CC3)C(C)C
REMARK SMILES IDX 4 1 5 2 6 3 7 4 8 5 9 6 10 7 19 8 12 9 13 10 18 11 20 12
REMARK SMILES IDX 14 13 15 14 17 15 16 16 35 17 21 18 34 19 33 20 23 21 22 22
REMARK SMILES IDX 30 23 24 24 25 25 31 26 32 27 11 28 26 30 27 31 29 32 28 33
REMARK SMILES IDX 3 34 2 35 1 36 36 37 37 38 38 39
REMARK H PARENT 11 29
REMARK Flexibility Score: inf
ROOT
ATOM      1  C   UNL     1      59.591 -13.577  -2.676  1.00  0.00     0.014 C 
ENDROOT
BRANCH   1   2
ATOM      2  C   UNL     1      59.306 -15.053  -3.083  1.00  0.00     0.042 C 
BRANCH   2   3
ATOM      3  C   UNL     1      58.119 -15.184  -4.014  1.00  0.00     0.045 C 
ATOM      4  O   UNL     1      58.231 -15.710  -5.152  1.00  0.00    -0.550 OA
ATOM      5  O   UNL     1      56.874 -14.715  -3.606  1.00  0.00    -0.550 OA
ENDBRANCH   2   3
BRANCH   2   6
ATOM      6  C   UNL     1      59.238 -16.109  -1.924  1.00  0.00     0.033 C 
ATOM      7  C   UNL     1      58.707 -17.479  -2.370  1.00  0.00     0.119 C 
ATOM      8  C   UNL     1      60.473 -16.398  -0.974  1.00  0.00    -0.017 C 
ATOM      9  C   UNL     1      59.033 -18.422  -1.220  1.00  0.00     0.043 C 
ATOM     10  C   UNL     1      60.422 -17.978  -0.701  1.00  0.00    -0.003 C 
ATOM     11  C   UNL     1      60.301 -15.586   0.348  1.00  0.00     0.012 C 
ATOM     12  C   UNL     1      61.834 -15.932  -1.564  1.00  0.00     0.013 C 
ATOM     13  C   UNL     1      61.475 -18.756  -1.555  1.00  0.00     0.017 C 
ATOM     14  C   UNL     1      60.529 -18.357   0.810  1.00  0.00    -0.064 C 
ATOM     15  C   UNL     1      59.330 -16.259   1.309  1.00  0.00     0.032 C 
ATOM     16  C   UNL     1      59.895 -17.599   1.757  1.00  0.00    -0.064 C 
ATOM     17  C   UNL     1      61.151 -19.683   1.196  1.00  0.00     0.032 C 
ATOM     18  C   UNL     1      59.762 -18.009   3.257  1.00  0.00    -0.008 C 
ATOM     19  C   UNL     1      61.512 -19.764   2.666  1.00  0.00     0.009 C 
ATOM     20  C   UNL     1      60.276 -19.485   3.546  1.00  0.00     0.009 C 
ATOM     21  C   UNL     1      60.580 -16.985   4.099  1.00  0.00     0.015 C 
ATOM     22  C   UNL     1      58.246 -17.909   3.594  1.00  0.00     0.016 C 
ATOM     23  C   UNL     1      60.525 -19.846   5.085  1.00  0.00     0.005 C 
ATOM     24  C   UNL     1      60.688 -17.331   5.585  1.00  0.00     0.047 C 
ATOM     25  C   UNL     1      61.317 -18.715   5.810  1.00  0.00     0.182 C 
ATOM     26  C   UNL     1      61.322 -21.178   5.241  1.00  0.00     0.015 C 
ATOM     27  C   UNL     1      59.177 -20.111   5.829  1.00  0.00     0.015 C 
BRANCH   7  28
ATOM     28  O   UNL     1      57.329 -17.458  -2.663  1.00  0.00    -0.393 OA
ATOM     29  H   UNL     1      57.217 -17.477  -3.649  1.00  0.00     0.210 HD
ENDBRANCH   7  28
BRANCH  25  30
ATOM     30  O   UNL     1      62.676 -18.699   5.361  1.00  0.00    -0.462 OA
BRANCH  30  31
ATOM     31  C   UNL     1      63.781 -18.654   6.217  1.00  0.00     0.302 C 
ATOM     32  O   UNL     1      63.839 -19.387   7.241  1.00  0.00    -0.253 OA
ATOM     33  C   UNL     1      64.902 -17.725   5.902  1.00  0.00     0.139 C 
ENDBRANCH  30  31
ENDBRANCH  25  30
ENDBRANCH   2   6
ENDBRANCH   1   2
BRANCH   1  34
ATOM     34  C   UNL     1      60.376 -12.829  -3.764  1.00  0.00     0.031 C 
BRANCH  34  35
ATOM     35  C   UNL     1      61.831 -12.659  -3.370  1.00  0.00    -0.075 C 
ATOM     36  C   UNL     1      62.128 -12.268  -2.119  1.00  0.00     0.008 C 
BRANCH  35  37
ATOM     37  C   UNL     1      62.951 -12.981  -4.349  1.00  0.00     0.008 C 
ATOM     38  C   UNL     1      63.472 -11.710  -5.030  1.00  0.00     0.012 C 
ATOM     39  C   UNL     1      64.090 -13.741  -3.659  1.00  0.00     0.012 C 
ENDBRANCH  35  37
ENDBRANCH  34  35
ENDBRANCH   1  34
TORSDOF 9
ENDMDL
MODEL 7
REMARK VINA RESULT:    -5.979      5.687      8.608
REMARK INTER + INTRA:         -10.114
REMARK INTER:                  -7.553
REMARK INTRA:                  -2.561
REMARK UNBOUND:                -1.164
REMARK SMILES C=C(CC[C@H](C(=O)[O-])[C@H]1[C@H](O)C[C@]2(C)C3=C(CC[C@]12C)[C@]1(C)CC[C@H](OC(C)=O)C(C)(C)[C@@H]1CC3)C(C)C
REMARK SMILES IDX 4 1 5 2 6 3 7 4 8 5 9 6 10 7 19 8 12 9 13 10 18 11 20 12
REMARK SMILES IDX 14 13 15 14 17 15 16 16 35 17 21 18 34 19 33 20 23 21 22 22
REMARK SMILES IDX 30 23 24 24 25 25 31 26 32 27 11 28 26 30 27 31 29 32 28 33
REMARK SMILES IDX 3 34 2 35 1 36 36 37 37 38 38 39
REMARK H PARENT 11 29
REMARK Flexibility Score: inf
ROOT
ATOM      1  C   UNL     1      58.329 -17.440  -2.288  1.00  0.00     0.014 C 
ENDROOT
BRANCH   1   2
ATOM      2  C   UNL     1      58.224 -15.921  -1.961  1.00  0.00     0.042 C 
BRANCH   2   3
ATOM      3  C   UNL     1      56.865 -15.343  -2.297  1.00  0.00     0.045 C 
ATOM      4  O   UNL     1      56.337 -14.451  -1.584  1.00  0.00    -0.550 OA
ATOM      5  O   UNL     1      56.182 -15.805  -3.417  1.00  0.00    -0.550 OA
ENDBRANCH   2   3
BRANCH   2   6
ATOM      6  C   UNL     1      59.379 -14.999  -2.490  1.00  0.00     0.033 C 
ATOM      7  C   UNL     1      58.959 -14.096  -3.659  1.00  0.00     0.119 C 
ATOM      8  C   UNL     1      60.248 -14.097  -1.520  1.00  0.00    -0.017 C 
ATOM      9  C   UNL     1      60.081 -13.075  -3.791  1.00  0.00     0.043 C 
ATOM     10  C   UNL     1      60.515 -12.746  -2.342  1.00  0.00    -0.003 C 
ATOM     11  C   UNL     1      61.583 -14.838  -1.194  1.00  0.00     0.012 C 
ATOM     12  C   UNL     1      59.577 -13.842  -0.141  1.00  0.00     0.013 C 
ATOM     13  C   UNL     1      59.592 -11.577  -1.866  1.00  0.00     0.017 C 
ATOM     14  C   UNL     1      62.014 -12.309  -2.362  1.00  0.00    -0.064 C 
ATOM     15  C   UNL     1      62.599 -14.706  -2.321  1.00  0.00     0.032 C 
ATOM     16  C   UNL     1      63.003 -13.248  -2.481  1.00  0.00    -0.064 C 
ATOM     17  C   UNL     1      62.353 -10.837  -2.470  1.00  0.00     0.032 C 
ATOM     18  C   UNL     1      64.507 -12.906  -2.725  1.00  0.00    -0.008 C 
ATOM     19  C   UNL     1      63.797 -10.533  -2.123  1.00  0.00     0.009 C 
ATOM     20  C   UNL     1      64.754 -11.361  -3.006  1.00  0.00     0.009 C 
ATOM     21  C   UNL     1      65.301 -13.351  -1.462  1.00  0.00     0.015 C 
ATOM     22  C   UNL     1      64.938 -13.738  -3.967  1.00  0.00     0.016 C 
ATOM     23  C   UNL     1      66.273 -10.868  -2.893  1.00  0.00     0.005 C 
ATOM     24  C   UNL     1      66.775 -12.945  -1.466  1.00  0.00     0.047 C 
ATOM     25  C   UNL     1      66.953 -11.424  -1.605  1.00  0.00     0.182 C 
ATOM     26  C   UNL     1      66.370  -9.311  -2.864  1.00  0.00     0.015 C 
ATOM     27  C   UNL     1      67.097 -11.286  -4.152  1.00  0.00     0.015 C 
BRANCH   7  28
ATOM     28  O   UNL     1      58.753 -14.813  -4.853  1.00  0.00    -0.393 OA
ATOM     29  H   UNL     1      57.826 -15.167  -4.852  1.00  0.00     0.210 HD
ENDBRANCH   7  28
BRANCH  25  30
ATOM     30  O   UNL     1      66.420 -10.775  -0.446  1.00  0.00    -0.462 OA
BRANCH  30  31
ATOM     31  C   UNL     1      66.896 -10.979   0.853  1.00  0.00     0.302 C 
ATOM     32  O   UNL     1      68.089 -10.706   1.157  1.00  0.00    -0.253 OA
ATOM     33  C   UNL     1      65.972 -11.524   1.885  1.00  0.00     0.139 C 
ENDBRANCH  30  31
ENDBRANCH  25  30
ENDBRANCH   2   6
ENDBRANCH   1   2
BRANCH   1  34
ATOM     34  C   UNL     1      59.786 -17.872  -2.519  1.00  0.00     0.031 C 
BRANCH  34  35
ATOM     35  C   UNL     1      60.445 -18.289  -1.219  1.00  0.00    -0.075 C 
ATOM     36  C   UNL     1      61.748 -18.620  -1.223  1.00  0.00     0.008 C 
BRANCH  35  37
ATOM     37  C   UNL     1      59.672 -18.277   0.092  1.00  0.00     0.008 C 
ATOM     38  C   UNL     1      59.461 -19.700   0.621  1.00  0.00     0.012 C 
ATOM     39  C   UNL     1      60.367 -17.399   1.140  1.00  0.00     0.012 C 
ENDBRANCH  35  37
ENDBRANCH  34  35
ENDBRANCH   1  34
TORSDOF 9
ENDMDL
MODEL 8
REMARK VINA RESULT:    -5.961      5.284      8.008
REMARK INTER + INTRA:         -10.087
REMARK INTER:                  -8.028
REMARK INTRA:                  -2.059
REMARK UNBOUND:                -1.164
REMARK SMILES C=C(CC[C@H](C(=O)[O-])[C@H]1[C@H](O)C[C@]2(C)C3=C(CC[C@]12C)[C@]1(C)CC[C@H](OC(C)=O)C(C)(C)[C@@H]1CC3)C(C)C
REMARK SMILES IDX 4 1 5 2 6 3 7 4 8 5 9 6 10 7 19 8 12 9 13 10 18 11 20 12
REMARK SMILES IDX 14 13 15 14 17 15 16 16 35 17 21 18 34 19 33 20 23 21 22 22
REMARK SMILES IDX 30 23 24 24 25 25 31 26 32 27 11 28 26 30 27 31 29 32 28 33
REMARK SMILES IDX 3 34 2 35 1 36 36 37 37 38 38 39
REMARK H PARENT 11 29
REMARK Flexibility Score: inf
ROOT
ATOM      1  C   UNL     1      53.647  -7.931   0.847  1.00  0.00     0.014 C 
ENDROOT
BRANCH   1   2
ATOM      2  C   UNL     1      54.870  -8.496   0.067  1.00  0.00     0.042 C 
BRANCH   2   3
ATOM      3  C   UNL     1      55.410  -7.522  -0.960  1.00  0.00     0.045 C 
ATOM      4  O   UNL     1      56.646  -7.391  -1.154  1.00  0.00    -0.550 OA
ATOM      5  O   UNL     1      54.523  -6.754  -1.707  1.00  0.00    -0.550 OA
ENDBRANCH   2   3
BRANCH   2   6
ATOM      6  C   UNL     1      54.722  -9.936  -0.539  1.00  0.00     0.033 C 
ATOM      7  C   UNL     1      54.513  -9.945  -2.061  1.00  0.00     0.119 C 
ATOM      8  C   UNL     1      55.758 -11.093  -0.225  1.00  0.00    -0.017 C 
ATOM      9  C   UNL     1      54.730 -11.392  -2.480  1.00  0.00     0.043 C 
ATOM     10  C   UNL     1      55.894 -11.909  -1.599  1.00  0.00    -0.003 C 
ATOM     11  C   UNL     1      55.188 -11.991   0.917  1.00  0.00     0.012 C 
ATOM     12  C   UNL     1      57.124 -10.576   0.307  1.00  0.00     0.013 C 
ATOM     13  C   UNL     1      57.210 -11.555  -2.365  1.00  0.00     0.017 C 
ATOM     14  C   UNL     1      55.737 -13.453  -1.430  1.00  0.00    -0.064 C 
ATOM     15  C   UNL     1      54.152 -12.981   0.401  1.00  0.00     0.032 C 
ATOM     16  C   UNL     1      54.809 -13.960  -0.561  1.00  0.00    -0.064 C 
ATOM     17  C   UNL     1      56.459 -14.378  -2.387  1.00  0.00     0.032 C 
ATOM     18  C   UNL     1      54.426 -15.471  -0.475  1.00  0.00    -0.008 C 
ATOM     19  C   UNL     1      56.510 -15.813  -1.901  1.00  0.00     0.009 C 
ATOM     20  C   UNL     1      55.088 -16.345  -1.626  1.00  0.00     0.009 C 
ATOM     21  C   UNL     1      54.882 -15.993   0.920  1.00  0.00     0.015 C 
ATOM     22  C   UNL     1      52.876 -15.527  -0.603  1.00  0.00     0.016 C 
ATOM     23  C   UNL     1      55.060 -17.929  -1.400  1.00  0.00     0.005 C 
ATOM     24  C   UNL     1      54.725 -17.502   1.112  1.00  0.00     0.047 C 
ATOM     25  C   UNL     1      55.498 -18.301   0.050  1.00  0.00     0.182 C 
ATOM     26  C   UNL     1      56.001 -18.669  -2.400  1.00  0.00     0.015 C 
ATOM     27  C   UNL     1      53.642 -18.516  -1.693  1.00  0.00     0.015 C 
BRANCH   7  28
ATOM     28  O   UNL     1      53.242  -9.469  -2.437  1.00  0.00    -0.393 OA
ATOM     29  H   UNL     1      53.340  -8.540  -2.771  1.00  0.00     0.210 HD
ENDBRANCH   7  28
BRANCH  25  30
ATOM     30  O   UNL     1      56.902 -18.077   0.214  1.00  0.00    -0.462 OA
BRANCH  30  31
ATOM     31  C   UNL     1      57.840 -19.097   0.398  1.00  0.00     0.302 C 
ATOM     32  O   UNL     1      58.992 -19.019  -0.110  1.00  0.00    -0.253 OA
ATOM     33  C   UNL     1      57.464 -20.288   1.209  1.00  0.00     0.139 C 
ENDBRANCH  30  31
ENDBRANCH  25  30
ENDBRANCH   2   6
ENDBRANCH   1   2
BRANCH   1  34
ATOM     34  C   UNL     1      52.911  -9.032   1.626  1.00  0.00     0.031 C 
BRANCH  34  35
ATOM     35  C   UNL     1      53.402  -9.113   3.058  1.00  0.00    -0.075 C 
ATOM     36  C   UNL     1      53.310 -10.281   3.716  1.00  0.00     0.008 C 
BRANCH  35  37
ATOM     37  C   UNL     1      54.049  -7.912   3.734  1.00  0.00     0.008 C 
ATOM     38  C   UNL     1      53.287  -7.516   5.003  1.00  0.00     0.012 C 
ATOM     39  C   UNL     1      55.528  -8.177   4.040  1.00  0.00     0.012 C 
ENDBRANCH  35  37
ENDBRANCH  34  35
ENDBRANCH   1  34
TORSDOF 9
ENDMDL
MODEL 9
REMARK VINA RESULT:    -5.947      4.740      7.702
REMARK INTER + INTRA:         -10.065
REMARK INTER:                  -7.845
REMARK INTRA:                  -2.220
REMARK UNBOUND:                -1.164
REMARK SMILES C=C(CC[C@H](C(=O)[O-])[C@H]1[C@H](O)C[C@]2(C)C3=C(CC[C@]12C)[C@]1(C)CC[C@H](OC(C)=O)C(C)(C)[C@@H]1CC3)C(C)C
REMARK SMILES IDX 4 1 5 2 6 3 7 4 8 5 9 6 10 7 19 8 12 9 13 10 18 11 20 12
REMARK SMILES IDX 14 13 15 14 17 15 16 16 35 17 21 18 34 19 33 20 23 21 22 22
REMARK SMILES IDX 30 23 24 24 25 25 31 26 32 27 11 28 26 30 27 31 29 32 28 33
REMARK SMILES IDX 3 34 2 35 1 36 36 37 37 38 38 39
REMARK H PARENT 11 29
REMARK Flexibility Score: inf
ROOT
ATOM      1  C   UNL     1      56.249 -16.491  -4.983  1.00  0.00     0.014 C 
ENDROOT
BRANCH   1   2
ATOM      2  C   UNL     1      55.713 -16.612  -3.526  1.00  0.00     0.042 C 
BRANCH   2   3
ATOM      3  C   UNL     1      54.886 -17.862  -3.310  1.00  0.00     0.045 C 
ATOM      4  O   UNL     1      55.004 -18.554  -2.265  1.00  0.00    -0.550 OA
ATOM      5  O   UNL     1      53.975 -18.258  -4.283  1.00  0.00    -0.550 OA
ENDBRANCH   2   3
BRANCH   2   6
ATOM      6  C   UNL     1      55.001 -15.349  -2.924  1.00  0.00     0.033 C 
ATOM      7  C   UNL     1      53.471 -15.469  -2.877  1.00  0.00     0.119 C 
ATOM      8  C   UNL     1      55.441 -14.714  -1.541  1.00  0.00    -0.017 C 
ATOM      9  C   UNL     1      53.014 -14.329  -1.978  1.00  0.00     0.043 C 
ATOM     10  C   UNL     1      54.073 -14.239  -0.852  1.00  0.00    -0.003 C 
ATOM     11  C   UNL     1      56.390 -13.506  -1.814  1.00  0.00     0.012 C 
ATOM     12  C   UNL     1      56.262 -15.683  -0.645  1.00  0.00     0.013 C 
ATOM     13  C   UNL     1      53.604 -15.227   0.266  1.00  0.00     0.017 C 
ATOM     14  C   UNL     1      54.112 -12.769  -0.327  1.00  0.00    -0.064 C 
ATOM     15  C   UNL     1      55.621 -12.253  -2.209  1.00  0.00     0.032 C 
ATOM     16  C   UNL     1      54.748 -11.796  -1.050  1.00  0.00    -0.064 C 
ATOM     17  C   UNL     1      53.260 -12.388   0.866  1.00  0.00     0.032 C 
ATOM     18  C   UNL     1      54.663 -10.272  -0.726  1.00  0.00    -0.008 C 
ATOM     19  C   UNL     1      53.657 -11.059   1.478  1.00  0.00     0.009 C 
ATOM     20  C   UNL     1      53.613  -9.937   0.420  1.00  0.00     0.009 C 
ATOM     21  C   UNL     1      56.085  -9.801  -0.300  1.00  0.00     0.015 C 
ATOM     22  C   UNL     1      54.229  -9.578  -2.050  1.00  0.00     0.016 C 
ATOM     23  C   UNL     1      53.731  -8.479   1.067  1.00  0.00     0.005 C 
ATOM     24  C   UNL     1      56.149  -8.359   0.207  1.00  0.00     0.047 C 
ATOM     25  C   UNL     1      55.212  -8.127   1.403  1.00  0.00     0.182 C 
ATOM     26  C   UNL     1      52.892  -8.362   2.377  1.00  0.00     0.015 C 
ATOM     27  C   UNL     1      53.128  -7.391   0.122  1.00  0.00     0.015 C 
BRANCH   7  28
ATOM     28  O   UNL     1      52.882 -15.404  -4.155  1.00  0.00    -0.393 OA
ATOM     29  H   UNL     1      52.298 -14.603  -4.193  1.00  0.00     0.210 HD
ENDBRANCH   7  28
BRANCH  25  30
ATOM     30  O   UNL     1      55.663  -8.904   2.518  1.00  0.00    -0.462 OA
BRANCH  30  31
ATOM     31  C   UNL     1      56.330  -8.369   3.625  1.00  0.00     0.302 C 
ATOM     32  O   UNL     1      57.404  -7.724   3.486  1.00  0.00    -0.253 OA
ATOM     33  C   UNL     1      55.752  -8.570   4.983  1.00  0.00     0.139 C 
ENDBRANCH  30  31
ENDBRANCH  25  30
ENDBRANCH   2   6
ENDBRANCH   1   2
BRANCH   1  34
ATOM     34  C   UNL     1      57.540 -15.660  -5.046  1.00  0.00     0.031 C 
BRANCH  34  35
ATOM     35  C   UNL     1      57.532 -14.726  -6.241  1.00  0.00    -0.075 C 
ATOM     36  C   UNL     1      57.741 -15.232  -7.468  1.00  0.00     0.008 C 
BRANCH  35  37
ATOM     37  C   UNL     1      57.234 -13.242  -6.075  1.00  0.00     0.008 C 
ATOM     38  C   UNL     1      55.747 -13.008  -5.783  1.00  0.00     0.012 C 
ATOM     39  C   UNL     1      58.114 -12.616  -4.987  1.00  0.00     0.012 C 
ENDBRANCH  35  37
ENDBRANCH  34  35
ENDBRANCH   1  34
TORSDOF 9
ENDMDL
