MODEL 1
REMARK VINA RESULT:    -4.480      0.000      0.000
REMARK INTER + INTRA:          -6.657
REMARK INTER:                  -6.051
REMARK INTRA:                  -0.606
REMARK UNBOUND:                -0.606
REMARK SMILES COc1ccc(-c2cc(=O)c3c(OC)c(OC)c(OC)c(OC)c3o2)cc1
REMARK SMILES IDX 7 1 8 2 9 3 10 4 11 5 24 6 25 7 21 8 18 9 15 10 12 11 6 12
REMARK SMILES IDX 3 13 4 14 27 15 5 16 26 17 2 18 1 19 22 20 23 21 13 22 14 23
REMARK SMILES IDX 19 24 20 25 16 26 17 27
REMARK H PARENT
REMARK Flexibility Score: inf
ROOT
ATOM      1  C   UNL     1     140.191 156.417 175.099  1.00  0.00     0.138 A 
ATOM      2  C   UNL     1     140.394 157.465 174.197  1.00  0.00     0.100 A 
ATOM      3  C   UNL     1     141.542 158.244 174.306  1.00  0.00     0.197 A 
ATOM      4  O   UNL     1     141.716 159.182 173.482  1.00  0.00    -0.289 OA
ATOM      5  C   UNL     1     142.482 157.968 175.324  1.00  0.00     0.115 A 
ATOM      6  C   UNL     1     142.217 156.886 176.196  1.00  0.00     0.188 A 
ATOM      7  O   UNL     1     141.103 156.174 176.036  1.00  0.00    -0.452 OA
ATOM      8  C   UNL     1     143.121 156.569 177.241  1.00  0.00     0.209 A 
ATOM      9  C   UNL     1     144.306 157.339 177.400  1.00  0.00     0.211 A 
ATOM     10  C   UNL     1     144.568 158.416 176.515  1.00  0.00     0.208 A 
ATOM     11  C   UNL     1     143.648 158.738 175.506  1.00  0.00     0.179 A 
ENDROOT
BRANCH   1  12
ATOM     12  C   UNL     1     138.980 155.562 175.031  1.00  0.00     0.018 A 
ATOM     13  C   UNL     1     136.684 153.930 174.840  1.00  0.00     0.118 A 
ATOM     14  C   UNL     1     137.643 153.694 175.843  1.00  0.00     0.047 A 
ATOM     15  C   UNL     1     136.885 154.982 173.939  1.00  0.00     0.047 A 
ATOM     16  C   UNL     1     138.781 154.502 175.935  1.00  0.00     0.016 A 
ATOM     17  C   UNL     1     138.023 155.788 174.029  1.00  0.00     0.016 A 
BRANCH  13  18
ATOM     18  O   UNL     1     135.528 153.146 174.705  1.00  0.00    -0.497 OA
ATOM     19  C   UNL     1     134.255 153.652 174.320  1.00  0.00     0.278 C 
ENDBRANCH  13  18
ENDBRANCH   1  12
BRANCH   8  20
ATOM     20  O   UNL     1     142.882 155.516 178.145  1.00  0.00    -0.490 OA
ATOM     21  C   UNL     1     142.121 155.564 179.347  1.00  0.00     0.278 C 
ENDBRANCH   8  20
BRANCH  11  22
ATOM     22  O   UNL     1     143.908 159.824 174.661  1.00  0.00    -0.492 OA
ATOM     23  C   UNL     1     143.757 161.175 175.088  1.00  0.00     0.278 C 
ENDBRANCH  11  22
BRANCH   9  24
ATOM     24  O   UNL     1     145.252 157.071 178.410  1.00  0.00    -0.490 OA
ATOM     25  C   UNL     1     146.364 156.184 178.356  1.00  0.00     0.279 C 
ENDBRANCH   9  24
BRANCH  10  26
ATOM     26  O   UNL     1     145.738 159.202 176.568  1.00  0.00    -0.490 OA
ATOM     27  C   UNL     1     146.997 158.922 175.966  1.00  0.00     0.278 C 
ENDBRANCH  10  26
TORSDOF 6
ENDMDL
MODEL 2
REMARK VINA RESULT:    -4.471      2.146      8.082
REMARK INTER + INTRA:          -6.645
REMARK INTER:                  -6.107
REMARK INTRA:                  -0.538
REMARK UNBOUND:                -0.606
REMARK SMILES COc1ccc(-c2cc(=O)c3c(OC)c(OC)c(OC)c(OC)c3o2)cc1
REMARK SMILES IDX 7 1 8 2 9 3 10 4 11 5 24 6 25 7 21 8 18 9 15 10 12 11 6 12
REMARK SMILES IDX 3 13 4 14 27 15 5 16 26 17 2 18 1 19 22 20 23 21 13 22 14 23
REMARK SMILES IDX 19 24 20 25 16 26 17 27
REMARK H PARENT
REMARK Flexibility Score: inf
ROOT
ATOM      1  C   UNL     1     141.828 155.853 177.443  1.00  0.00     0.138 A 
ATOM      2  C   UNL     1     140.831 155.118 178.091  1.00  0.00     0.100 A 
ATOM      3  C   UNL     1     139.618 154.899 177.445  1.00  0.00     0.197 A 
ATOM      4  O   UNL     1     138.730 154.228 178.038  1.00  0.00    -0.289 OA
ATOM      5  C   UNL     1     139.409 155.424 176.150  1.00  0.00     0.115 A 
ATOM      6  C   UNL     1     140.465 156.150 175.551  1.00  0.00     0.188 A 
ATOM      7  O   UNL     1     141.605 156.320 176.218  1.00  0.00    -0.452 OA
ATOM      8  C   UNL     1     140.309 156.707 174.256  1.00  0.00     0.209 A 
ATOM      9  C   UNL     1     139.085 156.519 173.556  1.00  0.00     0.211 A 
ATOM     10  C   UNL     1     138.035 155.781 174.162  1.00  0.00     0.208 A 
ATOM     11  C   UNL     1     138.193 155.264 175.456  1.00  0.00     0.179 A 
ENDROOT
BRANCH   1  12
ATOM     12  C   UNL     1     143.136 156.121 178.091  1.00  0.00     0.018 A 
ATOM     13  C   UNL     1     145.603 156.603 179.376  1.00  0.00     0.118 A 
ATOM     14  C   UNL     1     145.571 156.061 178.078  1.00  0.00     0.047 A 
ATOM     15  C   UNL     1     144.397 156.898 180.021  1.00  0.00     0.047 A 
ATOM     16  C   UNL     1     144.348 155.820 177.443  1.00  0.00     0.016 A 
ATOM     17  C   UNL     1     143.174 156.656 179.389  1.00  0.00     0.016 A 
BRANCH  13  18
ATOM     18  O   UNL     1     146.803 156.860 180.056  1.00  0.00    -0.497 OA
ATOM     19  C   UNL     1     146.911 157.022 181.465  1.00  0.00     0.278 C 
ENDBRANCH  13  18
ENDBRANCH   1  12
BRANCH   8  20
ATOM     20  O   UNL     1     141.325 157.456 173.635  1.00  0.00    -0.490 OA
ATOM     21  C   UNL     1     141.555 158.857 173.742  1.00  0.00     0.278 C 
ENDBRANCH   8  20
BRANCH  11  22
ATOM     22  O   UNL     1     137.136 154.564 176.051  1.00  0.00    -0.492 OA
ATOM     23  C   UNL     1     136.779 153.243 175.654  1.00  0.00     0.278 C 
ENDBRANCH  11  22
BRANCH   9  24
ATOM     24  O   UNL     1     138.866 157.034 172.263  1.00  0.00    -0.490 OA
ATOM     25  C   UNL     1     138.352 158.312 171.905  1.00  0.00     0.279 C 
ENDBRANCH   9  24
BRANCH  10  26
ATOM     26  O   UNL     1     136.808 155.504 173.524  1.00  0.00    -0.490 OA
ATOM     27  C   UNL     1     135.641 156.319 173.501  1.00  0.00     0.278 C 
ENDBRANCH  10  26
TORSDOF 6
ENDMDL
MODEL 3
REMARK VINA RESULT:    -4.454     10.557     14.302
REMARK INTER + INTRA:          -6.622
REMARK INTER:                  -6.134
REMARK INTRA:                  -0.487
REMARK UNBOUND:                -0.606
REMARK SMILES COc1ccc(-c2cc(=O)c3c(OC)c(OC)c(OC)c(OC)c3o2)cc1
REMARK SMILES IDX 7 1 8 2 9 3 10 4 11 5 24 6 25 7 21 8 18 9 15 10 12 11 6 12
REMARK SMILES IDX 3 13 4 14 27 15 5 16 26 17 2 18 1 19 22 20 23 21 13 22 14 23
REMARK SMILES IDX 19 24 20 25 16 26 17 27
REMARK H PARENT
REMARK Flexibility Score: inf
ROOT
ATOM      1  C   UNL     1     144.351 167.138 169.050  1.00  0.00     0.138 A 
ATOM      2  C   UNL     1     143.494 167.534 168.019  1.00  0.00     0.100 A 
ATOM      3  C   UNL     1     142.817 168.745 168.124  1.00  0.00     0.197 A 
ATOM      4  O   UNL     1     142.053 169.094 167.184  1.00  0.00    -0.289 OA
ATOM      5  C   UNL     1     143.001 169.554 169.268  1.00  0.00     0.115 A 
ATOM      6  C   UNL     1     143.890 169.095 170.268  1.00  0.00     0.188 A 
ATOM      7  O   UNL     1     144.513 167.930 170.106  1.00  0.00    -0.452 OA
ATOM      8  C   UNL     1     144.106 169.860 171.442  1.00  0.00     0.209 A 
ATOM      9  C   UNL     1     143.432 171.103 171.602  1.00  0.00     0.211 A 
ATOM     10  C   UNL     1     142.549 171.559 170.589  1.00  0.00     0.208 A 
ATOM     11  C   UNL     1     142.320 170.774 169.449  1.00  0.00     0.179 A 
ENDROOT
BRANCH   1  12
ATOM     12  C   UNL     1     145.090 165.853 168.990  1.00  0.00     0.018 A 
ATOM     13  C   UNL     1     146.477 163.400 168.816  1.00  0.00     0.118 A 
ATOM     14  C   UNL     1     147.108 164.538 169.352  1.00  0.00     0.047 A 
ATOM     15  C   UNL     1     145.155 163.501 168.371  1.00  0.00     0.047 A 
ATOM     16  C   UNL     1     146.421 165.753 169.436  1.00  0.00     0.016 A 
ATOM     17  C   UNL     1     144.468 164.715 168.451  1.00  0.00     0.016 A 
BRANCH  13  18
ATOM     18  O   UNL     1     147.125 162.160 168.710  1.00  0.00    -0.497 OA
ATOM     19  C   UNL     1     147.040 161.122 169.680  1.00  0.00     0.278 C 
ENDBRANCH  13  18
ENDBRANCH   1  12
BRANCH   8  20
ATOM     20  O   UNL     1     144.964 169.428 172.471  1.00  0.00    -0.490 OA
ATOM     21  C   UNL     1     146.343 169.741 172.637  1.00  0.00     0.278 C 
ENDBRANCH   8  20
BRANCH  11  22
ATOM     22  O   UNL     1     141.423 171.226 168.473  1.00  0.00    -0.492 OA
ATOM     23  C   UNL     1     140.013 171.062 168.602  1.00  0.00     0.278 C 
ENDBRANCH  11  22
BRANCH   9  24
ATOM     24  O   UNL     1     143.610 171.919 172.737  1.00  0.00    -0.490 OA
ATOM     25  C   UNL     1     142.985 171.797 174.010  1.00  0.00     0.279 C 
ENDBRANCH   9  24
BRANCH  10  26
ATOM     26  O   UNL     1     141.877 172.797 170.641  1.00  0.00    -0.490 OA
ATOM     27  C   UNL     1     140.717 173.122 171.401  1.00  0.00     0.278 C 
ENDBRANCH  10  26
TORSDOF 6
ENDMDL
MODEL 4
REMARK VINA RESULT:    -4.412     12.868     14.679
REMARK INTER + INTRA:          -6.565
REMARK INTER:                  -6.155
REMARK INTRA:                  -0.410
REMARK UNBOUND:                -0.606
REMARK SMILES COc1ccc(-c2cc(=O)c3c(OC)c(OC)c(OC)c(OC)c3o2)cc1
REMARK SMILES IDX 7 1 8 2 9 3 10 4 11 5 24 6 25 7 21 8 18 9 15 10 12 11 6 12
REMARK SMILES IDX 3 13 4 14 27 15 5 16 26 17 2 18 1 19 22 20 23 21 13 22 14 23
REMARK SMILES IDX 19 24 20 25 16 26 17 27
REMARK H PARENT
REMARK Flexibility Score: inf
ROOT
ATOM      1  C   UNL     1     140.354 170.833 176.083  1.00  0.00     0.138 A 
ATOM      2  C   UNL     1     139.617 171.576 175.157  1.00  0.00     0.100 A 
ATOM      3  C   UNL     1     140.220 171.971 173.967  1.00  0.00     0.197 A 
ATOM      4  O   UNL     1     139.541 172.636 173.137  1.00  0.00    -0.289 OA
ATOM      5  C   UNL     1     141.565 171.621 173.712  1.00  0.00     0.115 A 
ATOM      6  C   UNL     1     142.247 170.859 174.690  1.00  0.00     0.188 A 
ATOM      7  O   UNL     1     141.613 170.506 175.806  1.00  0.00    -0.452 OA
ATOM      8  C   UNL     1     143.601 170.487 174.492  1.00  0.00     0.209 A 
ATOM      9  C   UNL     1     144.266 170.872 173.295  1.00  0.00     0.211 A 
ATOM     10  C   UNL     1     143.570 171.628 172.316  1.00  0.00     0.208 A 
ATOM     11  C   UNL     1     142.241 172.017 172.541  1.00  0.00     0.179 A 
ENDROOT
BRANCH   1  12
ATOM     12  C   UNL     1     139.761 170.394 177.370  1.00  0.00     0.018 A 
ATOM     13  C   UNL     1     138.575 169.550 179.789  1.00  0.00     0.118 A 
ATOM     14  C   UNL     1     139.812 169.019 179.380  1.00  0.00     0.047 A 
ATOM     15  C   UNL     1     137.941 170.500 178.981  1.00  0.00     0.047 A 
ATOM     16  C   UNL     1     140.397 169.436 178.180  1.00  0.00     0.016 A 
ATOM     17  C   UNL     1     138.523 170.915 177.781  1.00  0.00     0.016 A 
BRANCH  13  18
ATOM     18  O   UNL     1     137.947 169.163 180.983  1.00  0.00    -0.497 OA
ATOM     19  C   UNL     1     138.525 169.298 182.276  1.00  0.00     0.278 C 
ENDBRANCH  13  18
ENDBRANCH   1  12
BRANCH   8  20
ATOM     20  O   UNL     1     144.323 169.751 175.450  1.00  0.00    -0.490 OA
ATOM     21  C   UNL     1     144.369 168.335 175.599  1.00  0.00     0.278 C 
ENDBRANCH   8  20
BRANCH  11  22
ATOM     22  O   UNL     1     141.579 172.789 171.578  1.00  0.00    -0.492 OA
ATOM     23  C   UNL     1     140.959 172.209 170.434  1.00  0.00     0.278 C 
ENDBRANCH  11  22
BRANCH   9  24
ATOM     24  O   UNL     1     145.606 170.526 173.029  1.00  0.00    -0.490 OA
ATOM     25  C   UNL     1     146.101 169.326 172.444  1.00  0.00     0.279 C 
ENDBRANCH   9  24
BRANCH  10  26
ATOM     26  O   UNL     1     144.134 172.012 171.082  1.00  0.00    -0.490 OA
ATOM     27  C   UNL     1     144.296 171.211 169.917  1.00  0.00     0.278 C 
ENDBRANCH  10  26
TORSDOF 6
ENDMDL
MODEL 5
REMARK VINA RESULT:    -4.381      1.754      7.703
REMARK INTER + INTRA:          -6.523
REMARK INTER:                  -5.993
REMARK INTRA:                  -0.530
REMARK UNBOUND:                -0.606
REMARK SMILES COc1ccc(-c2cc(=O)c3c(OC)c(OC)c(OC)c(OC)c3o2)cc1
REMARK SMILES IDX 7 1 8 2 9 3 10 4 11 5 24 6 25 7 21 8 18 9 15 10 12 11 6 12
REMARK SMILES IDX 3 13 4 14 27 15 5 16 26 17 2 18 1 19 22 20 23 21 13 22 14 23
REMARK SMILES IDX 19 24 20 25 16 26 17 27
REMARK H PARENT
REMARK Flexibility Score: inf
ROOT
ATOM      1  C   UNL     1     141.545 156.740 175.174  1.00  0.00     0.138 A 
ATOM      2  C   UNL     1     140.898 157.272 174.055  1.00  0.00     0.100 A 
ATOM      3  C   UNL     1     139.605 156.854 173.755  1.00  0.00     0.197 A 
ATOM      4  O   UNL     1     139.030 157.347 172.747  1.00  0.00    -0.289 OA
ATOM      5  C   UNL     1     138.967 155.899 174.578  1.00  0.00     0.115 A 
ATOM      6  C   UNL     1     139.678 155.411 175.699  1.00  0.00     0.188 A 
ATOM      7  O   UNL     1     140.911 155.855 175.938  1.00  0.00    -0.452 OA
ATOM      8  C   UNL     1     139.091 154.445 176.555  1.00  0.00     0.209 A 
ATOM      9  C   UNL     1     137.774 153.979 176.288  1.00  0.00     0.211 A 
ATOM     10  C   UNL     1     137.065 154.482 175.166  1.00  0.00     0.208 A 
ATOM     11  C   UNL     1     137.672 155.413 174.309  1.00  0.00     0.179 A 
ENDROOT
BRANCH   1  12
ATOM     12  C   UNL     1     142.926 157.146 175.534  1.00  0.00     0.018 A 
ATOM     13  C   UNL     1     145.530 157.962 176.259  1.00  0.00     0.118 A 
ATOM     14  C   UNL     1     145.197 156.595 176.222  1.00  0.00     0.047 A 
ATOM     15  C   UNL     1     144.553 158.910 175.934  1.00  0.00     0.047 A 
ATOM     16  C   UNL     1     143.906 156.192 175.865  1.00  0.00     0.016 A 
ATOM     17  C   UNL     1     143.262 158.509 175.580  1.00  0.00     0.016 A 
BRANCH  13  18
ATOM     18  O   UNL     1     146.809 158.416 176.613  1.00  0.00    -0.497 OA
ATOM     19  C   UNL     1     147.125 159.051 177.847  1.00  0.00     0.278 C 
ENDBRANCH  13  18
ENDBRANCH   1  12
BRANCH   8  20
ATOM     20  O   UNL     1     139.774 153.915 177.667  1.00  0.00    -0.490 OA
ATOM     21  C   UNL     1     139.814 154.442 178.989  1.00  0.00     0.278 C 
ENDBRANCH   8  20
BRANCH  11  22
ATOM     22  O   UNL     1     136.969 155.876 173.190  1.00  0.00    -0.492 OA
ATOM     23  C   UNL     1     135.900 156.811 173.296  1.00  0.00     0.278 C 
ENDBRANCH  11  22
BRANCH   9  24
ATOM     24  O   UNL     1     137.127 153.030 177.103  1.00  0.00    -0.490 OA
ATOM     25  C   UNL     1     136.292 153.268 178.231  1.00  0.00     0.279 C 
ENDBRANCH   9  24
BRANCH  10  26
ATOM     26  O   UNL     1     135.741 154.114 174.852  1.00  0.00    -0.490 OA
ATOM     27  C   UNL     1     135.309 152.958 174.141  1.00  0.00     0.278 C 
ENDBRANCH  10  26
TORSDOF 6
ENDMDL
MODEL 6
REMARK VINA RESULT:    -4.360     14.007     15.371
REMARK INTER + INTRA:          -6.495
REMARK INTER:                  -5.944
REMARK INTRA:                  -0.551
REMARK UNBOUND:                -0.606
REMARK SMILES COc1ccc(-c2cc(=O)c3c(OC)c(OC)c(OC)c(OC)c3o2)cc1
REMARK SMILES IDX 7 1 8 2 9 3 10 4 11 5 24 6 25 7 21 8 18 9 15 10 12 11 6 12
REMARK SMILES IDX 3 13 4 14 27 15 5 16 26 17 2 18 1 19 22 20 23 21 13 22 14 23
REMARK SMILES IDX 19 24 20 25 16 26 17 27
REMARK H PARENT
REMARK Flexibility Score: inf
ROOT
ATOM      1  C   UNL     1     142.121 170.883 174.526  1.00  0.00     0.138 A 
ATOM      2  C   UNL     1     143.470 170.670 174.823  1.00  0.00     0.100 A 
ATOM      3  C   UNL     1     144.385 170.544 173.782  1.00  0.00     0.197 A 
ATOM      4  O   UNL     1     145.600 170.358 174.064  1.00  0.00    -0.289 OA
ATOM      5  C   UNL     1     143.940 170.631 172.444  1.00  0.00     0.115 A 
ATOM      6  C   UNL     1     142.562 170.858 172.217  1.00  0.00     0.188 A 
ATOM      7  O   UNL     1     141.738 170.976 173.256  1.00  0.00    -0.452 OA
ATOM      8  C   UNL     1     142.058 170.945 170.895  1.00  0.00     0.209 A 
ATOM      9  C   UNL     1     142.950 170.815 169.795  1.00  0.00     0.211 A 
ATOM     10  C   UNL     1     144.332 170.597 170.032  1.00  0.00     0.208 A 
ATOM     11  C   UNL     1     144.810 170.481 171.346  1.00  0.00     0.179 A 
ENDROOT
BRANCH   1  12
ATOM     12  C   UNL     1     141.105 171.016 175.599  1.00  0.00     0.018 A 
ATOM     13  C   UNL     1     139.174 171.206 177.649  1.00  0.00     0.118 A 
ATOM     14  C   UNL     1     140.269 172.090 177.619  1.00  0.00     0.047 A 
ATOM     15  C   UNL     1     139.056 170.233 176.651  1.00  0.00     0.047 A 
ATOM     16  C   UNL     1     141.226 171.993 176.605  1.00  0.00     0.016 A 
ATOM     17  C   UNL     1     140.013 170.134 175.638  1.00  0.00     0.016 A 
BRANCH  13  18
ATOM     18  O   UNL     1     138.189 171.262 178.647  1.00  0.00    -0.497 OA
ATOM     19  C   UNL     1     137.553 170.122 179.214  1.00  0.00     0.278 C 
ENDBRANCH  13  18
ENDBRANCH   1  12
BRANCH   8  20
ATOM     20  O   UNL     1     140.691 171.145 170.626  1.00  0.00    -0.490 OA
ATOM     21  C   UNL     1     140.043 172.372 170.304  1.00  0.00     0.278 C 
ENDBRANCH   8  20
BRANCH  11  22
ATOM     22  O   UNL     1     146.172 170.235 171.562  1.00  0.00    -0.492 OA
ATOM     23  C   UNL     1     146.760 168.958 171.333  1.00  0.00     0.278 C 
ENDBRANCH  11  22
BRANCH   9  24
ATOM     24  O   UNL     1     142.518 170.903 168.457  1.00  0.00    -0.490 OA
ATOM     25  C   UNL     1     142.091 169.847 167.602  1.00  0.00     0.279 C 
ENDBRANCH   9  24
BRANCH  10  26
ATOM     26  O   UNL     1     145.294 170.505 169.006  1.00  0.00    -0.490 OA
ATOM     27  C   UNL     1     145.897 171.574 168.285  1.00  0.00     0.278 C 
ENDBRANCH  10  26
TORSDOF 6
ENDMDL
MODEL 7
REMARK VINA RESULT:    -4.291      1.670      4.024
REMARK INTER + INTRA:          -6.402
REMARK INTER:                  -5.907
REMARK INTRA:                  -0.495
REMARK UNBOUND:                -0.606
REMARK SMILES COc1ccc(-c2cc(=O)c3c(OC)c(OC)c(OC)c(OC)c3o2)cc1
REMARK SMILES IDX 7 1 8 2 9 3 10 4 11 5 24 6 25 7 21 8 18 9 15 10 12 11 6 12
REMARK SMILES IDX 3 13 4 14 27 15 5 16 26 17 2 18 1 19 22 20 23 21 13 22 14 23
REMARK SMILES IDX 19 24 20 25 16 26 17 27
REMARK H PARENT
REMARK Flexibility Score: inf
ROOT
ATOM      1  C   UNL     1     139.397 156.119 174.971  1.00  0.00     0.138 A 
ATOM      2  C   UNL     1     140.261 155.887 176.045  1.00  0.00     0.100 A 
ATOM      3  C   UNL     1     141.381 156.698 176.205  1.00  0.00     0.197 A 
ATOM      4  O   UNL     1     142.148 156.482 177.183  1.00  0.00    -0.289 OA
ATOM      5  C   UNL     1     141.631 157.738 175.282  1.00  0.00     0.115 A 
ATOM      6  C   UNL     1     140.710 157.921 174.224  1.00  0.00     0.188 A 
ATOM      7  O   UNL     1     139.653 157.116 174.129  1.00  0.00    -0.452 OA
ATOM      8  C   UNL     1     140.915 158.943 173.264  1.00  0.00     0.209 A 
ATOM      9  C   UNL     1     142.049 159.794 173.378  1.00  0.00     0.211 A 
ATOM     10  C   UNL     1     142.963 159.608 174.447  1.00  0.00     0.208 A 
ATOM     11  C   UNL     1     142.763 158.572 175.371  1.00  0.00     0.179 A 
ENDROOT
BRANCH   1  12
ATOM     12  C   UNL     1     138.194 155.279 174.751  1.00  0.00     0.018 A 
ATOM     13  C   UNL     1     135.923 153.672 174.272  1.00  0.00     0.118 A 
ATOM     14  C   UNL     1     136.710 153.467 175.420  1.00  0.00     0.047 A 
ATOM     15  C   UNL     1     136.282 154.681 173.371  1.00  0.00     0.047 A 
ATOM     16  C   UNL     1     137.836 154.263 175.655  1.00  0.00     0.016 A 
ATOM     17  C   UNL     1     137.408 155.474 173.603  1.00  0.00     0.016 A 
BRANCH  13  18
ATOM     18  O   UNL     1     134.786 152.900 173.991  1.00  0.00    -0.497 OA
ATOM     19  C   UNL     1     133.611 152.875 174.794  1.00  0.00     0.278 C 
ENDBRANCH  13  18
ENDBRANCH   1  12
BRANCH   8  20
ATOM     20  O   UNL     1     140.036 159.143 172.183  1.00  0.00    -0.490 OA
ATOM     21  C   UNL     1     138.931 160.039 172.120  1.00  0.00     0.278 C 
ENDBRANCH   8  20
BRANCH  11  22
ATOM     22  O   UNL     1     143.691 158.383 176.404  1.00  0.00    -0.492 OA
ATOM     23  C   UNL     1     144.914 157.680 176.208  1.00  0.00     0.278 C 
ENDBRANCH  11  22
BRANCH   9  24
ATOM     24  O   UNL     1     142.307 160.836 172.465  1.00  0.00    -0.490 OA
ATOM     25  C   UNL     1     142.941 160.751 171.194  1.00  0.00     0.279 C 
ENDBRANCH   9  24
BRANCH  10  26
ATOM     26  O   UNL     1     144.085 160.433 174.666  1.00  0.00    -0.490 OA
ATOM     27  C   UNL     1     145.319 160.423 173.955  1.00  0.00     0.278 C 
ENDBRANCH  10  26
TORSDOF 6
ENDMDL
MODEL 8
REMARK VINA RESULT:    -4.274      2.391      7.720
REMARK INTER + INTRA:          -6.379
REMARK INTER:                  -5.896
REMARK INTRA:                  -0.483
REMARK UNBOUND:                -0.606
REMARK SMILES COc1ccc(-c2cc(=O)c3c(OC)c(OC)c(OC)c(OC)c3o2)cc1
REMARK SMILES IDX 7 1 8 2 9 3 10 4 11 5 24 6 25 7 21 8 18 9 15 10 12 11 6 12
REMARK SMILES IDX 3 13 4 14 27 15 5 16 26 17 2 18 1 19 22 20 23 21 13 22 14 23
REMARK SMILES IDX 19 24 20 25 16 26 17 27
REMARK H PARENT
REMARK Flexibility Score: inf
ROOT
ATOM      1  C   UNL     1     142.205 156.850 175.650  1.00  0.00     0.138 A 
ATOM      2  C   UNL     1     141.118 155.981 175.784  1.00  0.00     0.100 A 
ATOM      3  C   UNL     1     140.004 156.155 174.969  1.00  0.00     0.197 A 
ATOM      4  O   UNL     1     139.033 155.359 175.096  1.00  0.00    -0.289 OA
ATOM      5  C   UNL     1     139.983 157.204 174.024  1.00  0.00     0.115 A 
ATOM      6  C   UNL     1     141.121 158.040 173.936  1.00  0.00     0.188 A 
ATOM      7  O   UNL     1     142.160 157.819 174.739  1.00  0.00    -0.452 OA
ATOM      8  C   UNL     1     141.153 159.114 173.012  1.00  0.00     0.209 A 
ATOM      9  C   UNL     1     140.036 159.339 172.161  1.00  0.00     0.211 A 
ATOM     10  C   UNL     1     138.902 158.490 172.250  1.00  0.00     0.208 A 
ATOM     11  C   UNL     1     138.873 157.452 173.192  1.00  0.00     0.179 A 
ENDROOT
BRANCH   1  12
ATOM     12  C   UNL     1     143.414 156.713 176.499  1.00  0.00     0.018 A 
ATOM     13  C   UNL     1     145.682 156.414 178.154  1.00  0.00     0.118 A 
ATOM     14  C   UNL     1     145.798 156.285 176.758  1.00  0.00     0.047 A 
ATOM     15  C   UNL     1     144.428 156.692 178.711  1.00  0.00     0.047 A 
ATOM     16  C   UNL     1     144.673 156.431 175.940  1.00  0.00     0.016 A 
ATOM     17  C   UNL     1     143.303 156.835 177.894  1.00  0.00     0.016 A 
BRANCH  13  18
ATOM     18  O   UNL     1     146.779 156.275 179.018  1.00  0.00    -0.497 OA
ATOM     19  C   UNL     1     147.057 157.141 180.112  1.00  0.00     0.278 C 
ENDBRANCH  13  18
ENDBRANCH   1  12
BRANCH   8  20
ATOM     20  O   UNL     1     142.256 159.983 172.910  1.00  0.00    -0.490 OA
ATOM     21  C   UNL     1     142.494 161.169 173.661  1.00  0.00     0.278 C 
ENDBRANCH   8  20
BRANCH  11  22
ATOM     22  O   UNL     1     137.734 156.642 173.287  1.00  0.00    -0.492 OA
ATOM     23  C   UNL     1     136.574 157.043 174.010  1.00  0.00     0.278 C 
ENDBRANCH  11  22
BRANCH   9  24
ATOM     24  O   UNL     1     140.005 160.381 171.212  1.00  0.00    -0.490 OA
ATOM     25  C   UNL     1     139.596 161.730 171.405  1.00  0.00     0.279 C 
ENDBRANCH   9  24
BRANCH  10  26
ATOM     26  O   UNL     1     137.772 158.610 171.415  1.00  0.00    -0.490 OA
ATOM     27  C   UNL     1     136.713 159.555 171.521  1.00  0.00     0.278 C 
ENDBRANCH  10  26
TORSDOF 6
ENDMDL
MODEL 9
REMARK VINA RESULT:    -4.251      2.165      7.708
REMARK INTER + INTRA:          -6.348
REMARK INTER:                  -5.835
REMARK INTRA:                  -0.512
REMARK UNBOUND:                -0.606
REMARK SMILES COc1ccc(-c2cc(=O)c3c(OC)c(OC)c(OC)c(OC)c3o2)cc1
REMARK SMILES IDX 7 1 8 2 9 3 10 4 11 5 24 6 25 7 21 8 18 9 15 10 12 11 6 12
REMARK SMILES IDX 3 13 4 14 27 15 5 16 26 17 2 18 1 19 22 20 23 21 13 22 14 23
REMARK SMILES IDX 19 24 20 25 16 26 17 27
REMARK H PARENT
REMARK Flexibility Score: inf
ROOT
ATOM      1  C   UNL     1     142.070 156.242 176.690  1.00  0.00     0.138 A 
ATOM      2  C   UNL     1     141.906 156.882 175.458  1.00  0.00     0.100 A 
ATOM      3  C   UNL     1     140.716 156.714 174.756  1.00  0.00     0.197 A 
ATOM      4  O   UNL     1     140.579 157.303 173.649  1.00  0.00    -0.289 OA
ATOM      5  C   UNL     1     139.695 155.899 175.293  1.00  0.00     0.115 A 
ATOM      6  C   UNL     1     139.925 155.289 176.549  1.00  0.00     0.188 A 
ATOM      7  O   UNL     1     141.082 155.494 177.175  1.00  0.00    -0.452 OA
ATOM      8  C   UNL     1     138.939 154.454 177.132  1.00  0.00     0.209 A 
ATOM      9  C   UNL     1     137.708 154.243 176.452  1.00  0.00     0.211 A 
ATOM     10  C   UNL     1     137.483 154.866 175.197  1.00  0.00     0.208 A 
ATOM     11  C   UNL     1     138.481 155.663 174.617  1.00  0.00     0.179 A 
ENDROOT
BRANCH   1  12
ATOM     12  C   UNL     1     143.321 156.382 177.474  1.00  0.00     0.018 A 
ATOM     13  C   UNL     1     145.672 156.629 179.018  1.00  0.00     0.118 A 
ATOM     14  C   UNL     1     145.709 155.995 177.763  1.00  0.00     0.047 A 
ATOM     15  C   UNL     1     144.455 157.134 179.491  1.00  0.00     0.047 A 
ATOM     16  C   UNL     1     144.543 155.871 177.000  1.00  0.00     0.016 A 
ATOM     17  C   UNL     1     143.289 157.009 178.731  1.00  0.00     0.016 A 
BRANCH  13  18
ATOM     18  O   UNL     1     146.813 156.776 179.821  1.00  0.00    -0.497 OA
ATOM     19  C   UNL     1     146.954 157.752 180.847  1.00  0.00     0.278 C 
ENDBRANCH  13  18
ENDBRANCH   1  12
BRANCH   8  20
ATOM     20  O   UNL     1     139.138 153.809 178.367  1.00  0.00    -0.490 OA
ATOM     21  C   UNL     1     138.925 154.348 179.668  1.00  0.00     0.278 C 
ENDBRANCH   8  20
BRANCH  11  22
ATOM     22  O   UNL     1     138.254 156.246 173.364  1.00  0.00    -0.492 OA
ATOM     23  C   UNL     1     137.382 157.360 173.190  1.00  0.00     0.278 C 
ENDBRANCH  11  22
BRANCH   9  24
ATOM     24  O   UNL     1     136.681 153.435 176.979  1.00  0.00    -0.490 OA
ATOM     25  C   UNL     1     135.635 153.815 177.867  1.00  0.00     0.279 C 
ENDBRANCH   9  24
BRANCH  10  26
ATOM     26  O   UNL     1     136.276 154.752 174.475  1.00  0.00    -0.490 OA
ATOM     27  C   UNL     1     135.880 153.691 173.614  1.00  0.00     0.278 C 
ENDBRANCH  10  26
TORSDOF 6
ENDMDL
