MODEL 1
REMARK VINA RESULT:    -4.907      0.000      0.000
REMARK INTER + INTRA:          -5.895
REMARK INTER:                  -5.768
REMARK INTRA:                  -0.127
REMARK UNBOUND:                -0.127
REMARK SMILES O=C([O-])C=Cc1ccc(O)c(O)c1
REMARK SMILES IDX 6 1 13 2 7 3 11 4 8 5 9 6 5 7 4 8 2 9 1 10 3 11 12 12 10 14
REMARK H PARENT 12 13 10 15
REMARK Flexibility Score: inf
ROOT
ATOM      1  C   UNL     1       9.197  51.960  22.990  1.00  0.00    -0.022 A 
ATOM      2  C   UNL     1       9.739  52.731  21.948  1.00  0.00     0.058 A 
ATOM      3  C   UNL     1       7.797  51.830  23.084  1.00  0.00     0.012 A 
ATOM      4  C   UNL     1       8.902  53.383  21.031  1.00  0.00     0.157 A 
ATOM      5  C   UNL     1       6.964  52.479  22.169  1.00  0.00     0.051 A 
ATOM      6  C   UNL     1       7.513  53.259  21.143  1.00  0.00     0.157 A 
ENDROOT
BRANCH   1   7
ATOM      7  C   UNL     1      10.127  51.281  23.929  1.00  0.00     0.010 C 
ATOM      8  C   UNL     1      10.927  50.265  23.579  1.00  0.00     0.025 C 
BRANCH   8   9
ATOM      9  C   UNL     1      11.825  49.614  24.545  1.00  0.00     0.064 C 
ATOM     10  O   UNL     1      12.714  50.292  25.123  1.00  0.00    -0.545 OA
ATOM     11  O   UNL     1      11.707  48.259  24.834  1.00  0.00    -0.545 OA
ENDBRANCH   8   9
ENDBRANCH   1   7
BRANCH   4  12
ATOM     12  O   UNL     1       9.446  54.155  20.005  1.00  0.00    -0.504 OA
ATOM     13  H   UNL     1       9.158  54.034  19.041  1.00  0.00     0.293 HD
ENDBRANCH   4  12
BRANCH   6  14
ATOM     14  O   UNL     1       6.685  53.909  20.230  1.00  0.00    -0.504 OA
ATOM     15  H   UNL     1       5.951  53.415  19.735  1.00  0.00     0.293 HD
ENDBRANCH   6  14
TORSDOF 4
ENDMDL
MODEL 2
REMARK VINA RESULT:    -4.869      3.598      5.008
REMARK INTER + INTRA:          -5.850
REMARK INTER:                  -5.722
REMARK INTRA:                  -0.128
REMARK UNBOUND:                -0.127
REMARK SMILES O=C([O-])C=Cc1ccc(O)c(O)c1
REMARK SMILES IDX 6 1 13 2 7 3 11 4 8 5 9 6 5 7 4 8 2 9 1 10 3 11 12 12 10 14
REMARK H PARENT 12 13 10 15
REMARK Flexibility Score: inf
ROOT
ATOM      1  C   UNL     1       5.948  52.769  19.380  1.00  0.00    -0.022 A 
ATOM      2  C   UNL     1       6.492  52.714  18.086  1.00  0.00     0.058 A 
ATOM      3  C   UNL     1       4.674  53.345  19.560  1.00  0.00     0.012 A 
ATOM      4  C   UNL     1       5.794  53.248  16.994  1.00  0.00     0.157 A 
ATOM      5  C   UNL     1       3.979  53.875  18.470  1.00  0.00     0.051 A 
ATOM      6  C   UNL     1       4.537  53.831  17.185  1.00  0.00     0.157 A 
ENDROOT
BRANCH   1   7
ATOM      7  C   UNL     1       6.723  52.180  20.502  1.00  0.00     0.010 C 
ATOM      8  C   UNL     1       7.481  52.899  21.341  1.00  0.00     0.025 C 
BRANCH   8   9
ATOM      9  C   UNL     1       8.242  52.272  22.432  1.00  0.00     0.064 C 
ATOM     10  O   UNL     1       9.342  52.770  22.790  1.00  0.00    -0.545 OA
ATOM     11  O   UNL     1       7.766  51.137  23.079  1.00  0.00    -0.545 OA
ENDBRANCH   8   9
ENDBRANCH   1   7
BRANCH   4  12
ATOM     12  O   UNL     1       6.345  53.201  15.714  1.00  0.00    -0.504 OA
ATOM     13  H   UNL     1       6.097  53.882  15.005  1.00  0.00     0.293 HD
ENDBRANCH   4  12
BRANCH   6  14
ATOM     14  O   UNL     1       3.847  54.361  16.097  1.00  0.00    -0.504 OA
ATOM     15  H   UNL     1       3.182  55.118  16.209  1.00  0.00     0.293 HD
ENDBRANCH   6  14
TORSDOF 4
ENDMDL
MODEL 3
REMARK VINA RESULT:    -4.804      2.632      3.728
REMARK INTER + INTRA:          -5.773
REMARK INTER:                  -5.647
REMARK INTRA:                  -0.126
REMARK UNBOUND:                -0.127
REMARK SMILES O=C([O-])C=Cc1ccc(O)c(O)c1
REMARK SMILES IDX 6 1 13 2 7 3 11 4 8 5 9 6 5 7 4 8 2 9 1 10 3 11 12 12 10 14
REMARK H PARENT 12 13 10 15
REMARK Flexibility Score: inf
ROOT
ATOM      1  C   UNL     1       7.021  52.983  20.855  1.00  0.00    -0.022 A 
ATOM      2  C   UNL     1       6.786  52.004  19.876  1.00  0.00     0.058 A 
ATOM      3  C   UNL     1       6.095  54.036  21.001  1.00  0.00     0.012 A 
ATOM      4  C   UNL     1       5.665  52.084  19.038  1.00  0.00     0.157 A 
ATOM      5  C   UNL     1       4.977  54.115  20.166  1.00  0.00     0.051 A 
ATOM      6  C   UNL     1       4.760  53.142  19.181  1.00  0.00     0.157 A 
ENDROOT
BRANCH   1   7
ATOM      7  C   UNL     1       8.217  52.847  21.724  1.00  0.00     0.010 C 
ATOM      8  C   UNL     1       8.243  52.111  22.844  1.00  0.00     0.025 C 
BRANCH   8   9
ATOM      9  C   UNL     1       9.448  52.013  23.682  1.00  0.00     0.064 C 
ATOM     10  O   UNL     1      10.585  52.120  23.151  1.00  0.00    -0.545 OA
ATOM     11  O   UNL     1       9.354  51.806  25.053  1.00  0.00    -0.545 OA
ENDBRANCH   8   9
ENDBRANCH   1   7
BRANCH   4  12
ATOM     12  O   UNL     1       5.443  51.115  18.061  1.00  0.00    -0.504 OA
ATOM     13  H   UNL     1       4.999  50.231  18.282  1.00  0.00     0.293 HD
ENDBRANCH   4  12
BRANCH   6  14
ATOM     14  O   UNL     1       3.648  53.219  18.346  1.00  0.00    -0.504 OA
ATOM     15  H   UNL     1       2.837  52.628  18.488  1.00  0.00     0.293 HD
ENDBRANCH   6  14
TORSDOF 4
ENDMDL
MODEL 4
REMARK VINA RESULT:    -4.768      1.781      5.616
REMARK INTER + INTRA:          -5.731
REMARK INTER:                  -5.598
REMARK INTRA:                  -0.133
REMARK UNBOUND:                -0.127
REMARK SMILES O=C([O-])C=Cc1ccc(O)c(O)c1
REMARK SMILES IDX 6 1 13 2 7 3 11 4 8 5 9 6 5 7 4 8 2 9 1 10 3 11 12 12 10 14
REMARK H PARENT 12 13 10 15
REMARK Flexibility Score: inf
ROOT
ATOM      1  C   UNL     1       8.573  52.089  23.110  1.00  0.00    -0.022 A 
ATOM      2  C   UNL     1       9.808  52.245  22.460  1.00  0.00     0.058 A 
ATOM      3  C   UNL     1       8.561  51.678  24.458  1.00  0.00     0.012 A 
ATOM      4  C   UNL     1      11.009  51.971  23.129  1.00  0.00     0.157 A 
ATOM      5  C   UNL     1       9.758  51.405  25.125  1.00  0.00     0.051 A 
ATOM      6  C   UNL     1      10.985  51.548  24.462  1.00  0.00     0.157 A 
ENDROOT
BRANCH   1   7
ATOM      7  C   UNL     1       7.330  52.403  22.361  1.00  0.00     0.010 C 
ATOM      8  C   UNL     1       7.318  52.930  21.129  1.00  0.00     0.025 C 
BRANCH   8   9
ATOM      9  C   UNL     1       6.062  53.237  20.427  1.00  0.00     0.064 C 
ATOM     10  O   UNL     1       5.481  54.333  20.641  1.00  0.00    -0.545 OA
ATOM     11  O   UNL     1       5.504  52.335  19.528  1.00  0.00    -0.545 OA
ENDBRANCH   8   9
ENDBRANCH   1   7
BRANCH   4  12
ATOM     12  O   UNL     1      12.231  52.117  22.474  1.00  0.00    -0.504 OA
ATOM     13  H   UNL     1      12.329  52.716  21.663  1.00  0.00     0.293 HD
ENDBRANCH   4  12
BRANCH   6  14
ATOM     14  O   UNL     1      12.181  51.276  25.124  1.00  0.00    -0.504 OA
ATOM     15  H   UNL     1      12.860  52.004  25.312  1.00  0.00     0.293 HD
ENDBRANCH   6  14
TORSDOF 4
ENDMDL
MODEL 5
REMARK VINA RESULT:    -4.745      2.381      6.369
REMARK INTER + INTRA:          -5.704
REMARK INTER:                  -5.574
REMARK INTRA:                  -0.130
REMARK UNBOUND:                -0.127
REMARK SMILES O=C([O-])C=Cc1ccc(O)c(O)c1
REMARK SMILES IDX 6 1 13 2 7 3 11 4 8 5 9 6 5 7 4 8 2 9 1 10 3 11 12 12 10 14
REMARK H PARENT 12 13 10 15
REMARK Flexibility Score: inf
ROOT
ATOM      1  C   UNL     1       7.183  52.889  21.442  1.00  0.00    -0.022 A 
ATOM      2  C   UNL     1       8.322  53.395  20.793  1.00  0.00     0.058 A 
ATOM      3  C   UNL     1       7.346  52.179  22.648  1.00  0.00     0.012 A 
ATOM      4  C   UNL     1       9.602  53.174  21.319  1.00  0.00     0.157 A 
ATOM      5  C   UNL     1       8.622  51.960  23.172  1.00  0.00     0.051 A 
ATOM      6  C   UNL     1       9.753  52.454  22.509  1.00  0.00     0.157 A 
ENDROOT
BRANCH   1   7
ATOM      7  C   UNL     1       5.849  53.159  20.848  1.00  0.00     0.010 C 
ATOM      8  C   UNL     1       5.365  54.390  20.635  1.00  0.00     0.025 C 
BRANCH   8   9
ATOM      9  C   UNL     1       4.031  54.612  20.054  1.00  0.00     0.064 C 
ATOM     10  O   UNL     1       3.417  53.650  19.521  1.00  0.00    -0.545 OA
ATOM     11  O   UNL     1       3.434  55.867  20.085  1.00  0.00    -0.545 OA
ENDBRANCH   8   9
ENDBRANCH   1   7
BRANCH   4  12
ATOM     12  O   UNL     1      10.730  53.669  20.665  1.00  0.00    -0.504 OA
ATOM     13  H   UNL     1      11.095  54.592  20.864  1.00  0.00     0.293 HD
ENDBRANCH   4  12
BRANCH   6  14
ATOM     14  O   UNL     1      11.028  52.236  23.029  1.00  0.00    -0.504 OA
ATOM     15  H   UNL     1      11.643  53.007  23.265  1.00  0.00     0.293 HD
ENDBRANCH   6  14
TORSDOF 4
ENDMDL
MODEL 6
REMARK VINA RESULT:    -4.738      2.493      3.214
REMARK INTER + INTRA:          -5.696
REMARK INTER:                  -5.557
REMARK INTRA:                  -0.138
REMARK UNBOUND:                -0.127
REMARK SMILES O=C([O-])C=Cc1ccc(O)c(O)c1
REMARK SMILES IDX 6 1 13 2 7 3 11 4 8 5 9 6 5 7 4 8 2 9 1 10 3 11 12 12 10 14
REMARK H PARENT 12 13 10 15
REMARK Flexibility Score: inf
ROOT
ATOM      1  C   UNL     1      11.139  51.793  23.918  1.00  0.00    -0.022 A 
ATOM      2  C   UNL     1      10.433  51.923  22.710  1.00  0.00     0.058 A 
ATOM      3  C   UNL     1      10.414  51.679  25.121  1.00  0.00     0.012 A 
ATOM      4  C   UNL     1       9.032  51.967  22.701  1.00  0.00     0.157 A 
ATOM      5  C   UNL     1       9.017  51.721  25.111  1.00  0.00     0.051 A 
ATOM      6  C   UNL     1       8.322  51.868  23.903  1.00  0.00     0.157 A 
ENDROOT
BRANCH   1   7
ATOM      7  C   UNL     1      12.622  51.741  23.872  1.00  0.00     0.010 C 
ATOM      8  C   UNL     1      13.398  51.664  24.962  1.00  0.00     0.025 C 
BRANCH   8   9
ATOM      9  C   UNL     1      14.866  51.627  24.870  1.00  0.00     0.064 C 
ATOM     10  O   UNL     1      15.499  52.683  24.606  1.00  0.00    -0.545 OA
ATOM     11  O   UNL     1      15.568  50.445  25.071  1.00  0.00    -0.545 OA
ENDBRANCH   8   9
ENDBRANCH   1   7
BRANCH   4  12
ATOM     12  O   UNL     1       8.338  52.108  21.500  1.00  0.00    -0.504 OA
ATOM     13  H   UNL     1       7.325  52.143  21.475  1.00  0.00     0.293 HD
ENDBRANCH   4  12
BRANCH   6  14
ATOM     14  O   UNL     1       6.929  51.912  23.890  1.00  0.00    -0.504 OA
ATOM     15  H   UNL     1       6.429  52.721  23.541  1.00  0.00     0.293 HD
ENDBRANCH   6  14
TORSDOF 4
ENDMDL
MODEL 7
REMARK VINA RESULT:    -4.565      3.621      4.375
REMARK INTER + INTRA:          -5.493
REMARK INTER:                  -5.360
REMARK INTRA:                  -0.133
REMARK UNBOUND:                -0.127
REMARK SMILES O=C([O-])C=Cc1ccc(O)c(O)c1
REMARK SMILES IDX 6 1 13 2 7 3 11 4 8 5 9 6 5 7 4 8 2 9 1 10 3 11 12 12 10 14
REMARK H PARENT 12 13 10 15
REMARK Flexibility Score: inf
ROOT
ATOM      1  C   UNL     1       7.801  52.876  20.203  1.00  0.00    -0.022 A 
ATOM      2  C   UNL     1       7.186  52.108  19.200  1.00  0.00     0.058 A 
ATOM      3  C   UNL     1       6.993  53.635  21.072  1.00  0.00     0.012 A 
ATOM      4  C   UNL     1       5.792  52.116  19.047  1.00  0.00     0.157 A 
ATOM      5  C   UNL     1       5.604  53.642  20.919  1.00  0.00     0.051 A 
ATOM      6  C   UNL     1       5.000  52.886  19.906  1.00  0.00     0.157 A 
ENDROOT
BRANCH   1   7
ATOM      7  C   UNL     1       9.280  52.824  20.330  1.00  0.00     0.010 C 
ATOM      8  C   UNL     1      10.073  52.121  19.510  1.00  0.00     0.025 C 
BRANCH   8   9
ATOM      9  C   UNL     1      11.534  52.088  19.680  1.00  0.00     0.064 C 
ATOM     10  O   UNL     1      12.130  50.980  19.728  1.00  0.00    -0.545 OA
ATOM     11  O   UNL     1      12.270  53.263  19.786  1.00  0.00    -0.545 OA
ENDBRANCH   8   9
ENDBRANCH   1   7
BRANCH   4  12
ATOM     12  O   UNL     1       5.188  51.361  18.043  1.00  0.00    -0.504 OA
ATOM     13  H   UNL     1       4.467  50.680  18.253  1.00  0.00     0.293 HD
ENDBRANCH   4  12
BRANCH   6  14
ATOM     14  O   UNL     1       3.615  52.892  19.750  1.00  0.00    -0.504 OA
ATOM     15  H   UNL     1       3.183  53.130  18.865  1.00  0.00     0.293 HD
ENDBRANCH   6  14
TORSDOF 4
ENDMDL
MODEL 8
REMARK VINA RESULT:    -4.546      3.312      4.977
REMARK INTER + INTRA:          -5.470
REMARK INTER:                  -5.336
REMARK INTRA:                  -0.134
REMARK UNBOUND:                -0.127
REMARK SMILES O=C([O-])C=Cc1ccc(O)c(O)c1
REMARK SMILES IDX 6 1 13 2 7 3 11 4 8 5 9 6 5 7 4 8 2 9 1 10 3 11 12 12 10 14
REMARK H PARENT 12 13 10 15
REMARK Flexibility Score: inf
ROOT
ATOM      1  C   UNL     1       6.180  52.881  19.773  1.00  0.00    -0.022 A 
ATOM      2  C   UNL     1       5.002  53.648  19.761  1.00  0.00     0.058 A 
ATOM      3  C   UNL     1       6.767  52.515  18.545  1.00  0.00     0.012 A 
ATOM      4  C   UNL     1       4.404  54.021  18.549  1.00  0.00     0.157 A 
ATOM      5  C   UNL     1       6.171  52.889  17.338  1.00  0.00     0.051 A 
ATOM      6  C   UNL     1       4.988  53.640  17.336  1.00  0.00     0.157 A 
ENDROOT
BRANCH   1   7
ATOM      7  C   UNL     1       6.779  52.521  21.083  1.00  0.00     0.010 C 
ATOM      8  C   UNL     1       8.022  52.859  21.451  1.00  0.00     0.025 C 
BRANCH   8   9
ATOM      9  C   UNL     1       8.579  52.470  22.756  1.00  0.00     0.064 C 
ATOM     10  O   UNL     1       7.804  52.120  23.684  1.00  0.00    -0.545 OA
ATOM     11  O   UNL     1       9.951  52.481  22.982  1.00  0.00    -0.545 OA
ENDBRANCH   8   9
ENDBRANCH   1   7
BRANCH   4  12
ATOM     12  O   UNL     1       3.230  54.773  18.544  1.00  0.00    -0.504 OA
ATOM     13  H   UNL     1       2.331  54.349  18.344  1.00  0.00     0.293 HD
ENDBRANCH   4  12
BRANCH   6  14
ATOM     14  O   UNL     1       4.390  54.013  16.133  1.00  0.00    -0.504 OA
ATOM     15  H   UNL     1       4.154  54.978  15.936  1.00  0.00     0.293 HD
ENDBRANCH   6  14
TORSDOF 4
ENDMDL
