MODEL 1
REMARK VINA RESULT:    -4.679      0.000      0.000
REMARK INTER + INTRA:          -7.097
REMARK INTER:                  -6.593
REMARK INTRA:                  -0.503
REMARK UNBOUND:                -0.503
REMARK SMILES CCCCCCCCC(=O)[O-]
REMARK SMILES IDX 6 1 7 2 8 3 9 4 10 5 11 6 5 7 4 8 3 9 2 10 1 11
REMARK H PARENT
REMARK Flexibility Score: inf
ROOT
ATOM      1  C   UNL     1      16.646  17.884  37.117  1.00  0.00     0.000 C 
ENDROOT
BRANCH   1   2
ATOM      2  C   UNL     1      16.399  16.378  36.947  1.00  0.00     0.006 C 
BRANCH   2   3
ATOM      3  C   UNL     1      15.804  15.740  38.209  1.00  0.00     0.053 C 
BRANCH   3   4
ATOM      4  C   UNL     1      14.856  14.629  37.874  1.00  0.00     0.041 C 
ATOM      5  O   UNL     1      14.843  13.577  38.564  1.00  0.00    -0.550 OA
ATOM      6  O   UNL     1      13.966  14.771  36.817  1.00  0.00    -0.550 OA
ENDBRANCH   3   4
ENDBRANCH   2   3
ENDBRANCH   1   2
BRANCH   1   7
ATOM      7  C   UNL     1      17.066  18.525  35.785  1.00  0.00     0.000 C 
BRANCH   7   8
ATOM      8  C   UNL     1      17.133  17.509  34.633  1.00  0.00    -0.000 C 
BRANCH   8   9
ATOM      9  C   UNL     1      18.350  17.728  33.722  1.00  0.00    -0.000 C 
BRANCH   9  10
ATOM     10  C   UNL     1      19.522  16.836  34.151  1.00  0.00    -0.003 C 
ATOM     11  C   UNL     1      19.038  15.451  34.567  1.00  0.00     0.004 C 
ENDBRANCH   9  10
ENDBRANCH   8   9
ENDBRANCH   7   8
ENDBRANCH   1   7
TORSDOF 7
ENDMDL
MODEL 2
REMARK VINA RESULT:    -4.552      1.173      1.270
REMARK INTER + INTRA:          -6.918
REMARK INTER:                  -6.420
REMARK INTRA:                  -0.498
REMARK UNBOUND:                -0.503
REMARK SMILES CCCCCCCCC(=O)[O-]
REMARK SMILES IDX 6 1 7 2 8 3 9 4 10 5 11 6 5 7 4 8 3 9 2 10 1 11
REMARK H PARENT
REMARK Flexibility Score: inf
ROOT
ATOM      1  C   UNL     1      16.554  17.957  37.145  1.00  0.00     0.000 C 
ENDROOT
BRANCH   1   2
ATOM      2  C   UNL     1      16.689  16.441  36.940  1.00  0.00     0.006 C 
BRANCH   2   3
ATOM      3  C   UNL     1      15.874  15.640  37.964  1.00  0.00     0.053 C 
BRANCH   3   4
ATOM      4  C   UNL     1      14.400  15.802  37.748  1.00  0.00     0.041 C 
ATOM      5  O   UNL     1      13.690  16.365  38.622  1.00  0.00    -0.550 OA
ATOM      6  O   UNL     1      13.819  15.358  36.568  1.00  0.00    -0.550 OA
ENDBRANCH   3   4
ENDBRANCH   2   3
ENDBRANCH   1   2
BRANCH   1   7
ATOM      7  C   UNL     1      16.800  18.712  35.830  1.00  0.00     0.000 C 
BRANCH   7   8
ATOM      8  C   UNL     1      17.708  17.937  34.862  1.00  0.00    -0.000 C 
BRANCH   8   9
ATOM      9  C   UNL     1      19.035  18.661  34.586  1.00  0.00    -0.000 C 
BRANCH   9  10
ATOM     10  C   UNL     1      20.230  17.752  34.898  1.00  0.00    -0.003 C 
ATOM     11  C   UNL     1      20.002  16.340  34.367  1.00  0.00     0.004 C 
ENDBRANCH   9  10
ENDBRANCH   8   9
ENDBRANCH   7   8
ENDBRANCH   1   7
TORSDOF 7
ENDMDL
MODEL 3
REMARK VINA RESULT:    -4.525      1.227      1.671
REMARK INTER + INTRA:          -6.881
REMARK INTER:                  -6.325
REMARK INTRA:                  -0.556
REMARK UNBOUND:                -0.503
REMARK SMILES CCCCCCCCC(=O)[O-]
REMARK SMILES IDX 6 1 7 2 8 3 9 4 10 5 11 6 5 7 4 8 3 9 2 10 1 11
REMARK H PARENT
REMARK Flexibility Score: inf
ROOT
ATOM      1  C   UNL     1      16.671  18.302  36.482  1.00  0.00     0.000 C 
ENDROOT
BRANCH   1   2
ATOM      2  C   UNL     1      16.034  17.528  37.645  1.00  0.00     0.006 C 
BRANCH   2   3
ATOM      3  C   UNL     1      16.125  16.008  37.451  1.00  0.00     0.053 C 
BRANCH   3   4
ATOM      4  C   UNL     1      14.995  15.294  38.127  1.00  0.00     0.041 C 
ATOM      5  O   UNL     1      15.007  14.040  38.229  1.00  0.00    -0.550 OA
ATOM      6  O   UNL     1      13.942  16.019  38.671  1.00  0.00    -0.550 OA
ENDBRANCH   3   4
ENDBRANCH   2   3
ENDBRANCH   1   2
BRANCH   1   7
ATOM      7  C   UNL     1      16.417  17.591  35.145  1.00  0.00     0.000 C 
BRANCH   7   8
ATOM      8  C   UNL     1      17.675  17.518  34.264  1.00  0.00    -0.000 C 
BRANCH   8   9
ATOM      9  C   UNL     1      18.887  16.937  35.008  1.00  0.00    -0.000 C 
BRANCH   9  10
ATOM     10  C   UNL     1      20.093  17.879  34.909  1.00  0.00    -0.003 C 
ATOM     11  C   UNL     1      19.681  19.248  34.376  1.00  0.00     0.004 C 
ENDBRANCH   9  10
ENDBRANCH   8   9
ENDBRANCH   7   8
ENDBRANCH   1   7
TORSDOF 7
ENDMDL
MODEL 4
REMARK VINA RESULT:    -4.513      2.915      5.090
REMARK INTER + INTRA:          -6.864
REMARK INTER:                  -6.395
REMARK INTRA:                  -0.469
REMARK UNBOUND:                -0.503
REMARK SMILES CCCCCCCCC(=O)[O-]
REMARK SMILES IDX 6 1 7 2 8 3 9 4 10 5 11 6 5 7 4 8 3 9 2 10 1 11
REMARK H PARENT
REMARK Flexibility Score: inf
ROOT
ATOM      1  C   UNL     1      17.121  17.442  36.751  1.00  0.00     0.000 C 
ENDROOT
BRANCH   1   2
ATOM      2  C   UNL     1      17.296  18.306  35.493  1.00  0.00     0.006 C 
BRANCH   2   3
ATOM      3  C   UNL     1      17.812  17.493  34.297  1.00  0.00     0.053 C 
BRANCH   3   4
ATOM      4  C   UNL     1      19.173  16.924  34.560  1.00  0.00     0.041 C 
ATOM      5  O   UNL     1      20.107  17.670  34.955  1.00  0.00    -0.550 OA
ATOM      6  O   UNL     1      19.399  15.563  34.397  1.00  0.00    -0.550 OA
ENDBRANCH   3   4
ENDBRANCH   2   3
ENDBRANCH   1   2
BRANCH   1   7
ATOM      7  C   UNL     1      16.130  18.092  37.728  1.00  0.00     0.000 C 
BRANCH   7   8
ATOM      8  C   UNL     1      15.283  17.059  38.489  1.00  0.00    -0.000 C 
BRANCH   8   9
ATOM      9  C   UNL     1      15.743  15.616  38.236  1.00  0.00    -0.000 C 
BRANCH   9  10
ATOM     10  C   UNL     1      14.585  14.756  37.712  1.00  0.00    -0.003 C 
ATOM     11  C   UNL     1      13.866  15.446  36.557  1.00  0.00     0.004 C 
ENDBRANCH   9  10
ENDBRANCH   8   9
ENDBRANCH   7   8
ENDBRANCH   1   7
TORSDOF 7
ENDMDL
MODEL 5
REMARK VINA RESULT:    -4.359      3.379      5.136
REMARK INTER + INTRA:          -6.646
REMARK INTER:                  -6.050
REMARK INTRA:                  -0.596
REMARK UNBOUND:                -0.503
REMARK SMILES CCCCCCCCC(=O)[O-]
REMARK SMILES IDX 6 1 7 2 8 3 9 4 10 5 11 6 5 7 4 8 3 9 2 10 1 11
REMARK H PARENT
REMARK Flexibility Score: inf
ROOT
ATOM      1  C   UNL     1      16.677  17.336  35.114  1.00  0.00     0.000 C 
ENDROOT
BRANCH   1   2
ATOM      2  C   UNL     1      17.963  16.758  35.721  1.00  0.00     0.006 C 
BRANCH   2   3
ATOM      3  C   UNL     1      18.698  15.825  34.749  1.00  0.00     0.053 C 
BRANCH   3   4
ATOM      4  C   UNL     1      19.847  16.515  34.080  1.00  0.00     0.041 C 
ATOM      5  O   UNL     1      21.007  16.428  34.562  1.00  0.00    -0.550 OA
ATOM      6  O   UNL     1      19.640  17.229  32.907  1.00  0.00    -0.550 OA
ENDBRANCH   3   4
ENDBRANCH   2   3
ENDBRANCH   1   2
BRANCH   1   7
ATOM      7  C   UNL     1      16.076  18.415  36.027  1.00  0.00     0.000 C 
BRANCH   7   8
ATOM      8  C   UNL     1      16.360  18.158  37.516  1.00  0.00    -0.000 C 
BRANCH   8   9
ATOM      9  C   UNL     1      15.200  17.443  38.225  1.00  0.00    -0.000 C 
BRANCH   9  10
ATOM     10  C   UNL     1      15.473  15.938  38.340  1.00  0.00    -0.003 C 
ATOM     11  C   UNL     1      14.614  15.146  37.359  1.00  0.00     0.004 C 
ENDBRANCH   9  10
ENDBRANCH   8   9
ENDBRANCH   7   8
ENDBRANCH   1   7
TORSDOF 7
ENDMDL
MODEL 6
REMARK VINA RESULT:    -4.267      3.722      5.915
REMARK INTER + INTRA:          -6.517
REMARK INTER:                  -6.184
REMARK INTRA:                  -0.333
REMARK UNBOUND:                -0.503
REMARK SMILES CCCCCCCCC(=O)[O-]
REMARK SMILES IDX 6 1 7 2 8 3 9 4 10 5 11 6 5 7 4 8 3 9 2 10 1 11
REMARK H PARENT
REMARK Flexibility Score: inf
ROOT
ATOM      1  C   UNL     1      17.578  18.037  35.129  1.00  0.00     0.000 C 
ENDROOT
BRANCH   1   2
ATOM      2  C   UNL     1      18.939  18.427  34.534  1.00  0.00     0.006 C 
BRANCH   2   3
ATOM      3  C   UNL     1      19.158  17.827  33.139  1.00  0.00     0.053 C 
BRANCH   3   4
ATOM      4  C   UNL     1      20.414  17.014  33.075  1.00  0.00     0.041 C 
ATOM      5  O   UNL     1      21.151  17.063  32.055  1.00  0.00    -0.550 OA
ATOM      6  O   UNL     1      20.787  16.226  34.157  1.00  0.00    -0.550 OA
ENDBRANCH   3   4
ENDBRANCH   2   3
ENDBRANCH   1   2
BRANCH   1   7
ATOM      7  C   UNL     1      17.619  16.615  35.708  1.00  0.00     0.000 C 
BRANCH   7   8
ATOM      8  C   UNL     1      16.677  16.437  36.910  1.00  0.00    -0.000 C 
BRANCH   8   9
ATOM      9  C   UNL     1      16.134  17.772  37.440  1.00  0.00    -0.000 C 
BRANCH   9  10
ATOM     10  C   UNL     1      15.419  17.578  38.783  1.00  0.00    -0.003 C 
ATOM     11  C   UNL     1      13.978  17.120  38.579  1.00  0.00     0.004 C 
ENDBRANCH   9  10
ENDBRANCH   8   9
ENDBRANCH   7   8
ENDBRANCH   1   7
TORSDOF 7
ENDMDL
MODEL 7
REMARK VINA RESULT:    -4.264      7.740      8.418
REMARK INTER + INTRA:          -6.512
REMARK INTER:                  -6.052
REMARK INTRA:                  -0.460
REMARK UNBOUND:                -0.503
REMARK SMILES CCCCCCCCC(=O)[O-]
REMARK SMILES IDX 6 1 7 2 8 3 9 4 10 5 11 6 5 7 4 8 3 9 2 10 1 11
REMARK H PARENT
REMARK Flexibility Score: inf
ROOT
ATOM      1  C   UNL     1       9.489  17.323  34.697  1.00  0.00     0.000 C 
ENDROOT
BRANCH   1   2
ATOM      2  C   UNL     1       9.021  16.894  36.095  1.00  0.00     0.006 C 
BRANCH   2   3
ATOM      3  C   UNL     1       9.813  17.587  37.212  1.00  0.00     0.053 C 
BRANCH   3   4
ATOM      4  C   UNL     1       8.951  18.518  38.008  1.00  0.00     0.041 C 
ATOM      5  O   UNL     1       9.212  18.743  39.219  1.00  0.00    -0.550 OA
ATOM      6  O   UNL     1       7.878  19.159  37.403  1.00  0.00    -0.550 OA
ENDBRANCH   3   4
ENDBRANCH   2   3
ENDBRANCH   1   2
BRANCH   1   7
ATOM      7  C   UNL     1       8.386  18.098  33.962  1.00  0.00     0.000 C 
BRANCH   7   8
ATOM      8  C   UNL     1       8.818  19.521  33.574  1.00  0.00    -0.000 C 
BRANCH   8   9
ATOM      9  C   UNL     1       9.724  19.548  32.335  1.00  0.00    -0.000 C 
BRANCH   9  10
ATOM     10  C   UNL     1       9.037  18.876  31.139  1.00  0.00    -0.003 C 
ATOM     11  C   UNL     1       9.919  17.786  30.537  1.00  0.00     0.004 C 
ENDBRANCH   9  10
ENDBRANCH   8   9
ENDBRANCH   7   8
ENDBRANCH   1   7
TORSDOF 7
ENDMDL
MODEL 8
REMARK VINA RESULT:    -4.260      4.267      6.139
REMARK INTER + INTRA:          -6.506
REMARK INTER:                  -6.179
REMARK INTRA:                  -0.328
REMARK UNBOUND:                -0.503
REMARK SMILES CCCCCCCCC(=O)[O-]
REMARK SMILES IDX 6 1 7 2 8 3 9 4 10 5 11 6 5 7 4 8 3 9 2 10 1 11
REMARK H PARENT
REMARK Flexibility Score: inf
ROOT
ATOM      1  C   UNL     1      19.128  17.850  34.884  1.00  0.00     0.000 C 
ENDROOT
BRANCH   1   2
ATOM      2  C   UNL     1      19.804  16.558  34.401  1.00  0.00     0.006 C 
BRANCH   2   3
ATOM      3  C   UNL     1      21.334  16.631  34.496  1.00  0.00     0.053 C 
BRANCH   3   4
ATOM      4  C   UNL     1      21.949  17.067  33.202  1.00  0.00     0.041 C 
ATOM      5  O   UNL     1      21.311  16.946  32.123  1.00  0.00    -0.550 OA
ATOM      6  O   UNL     1      23.216  17.637  33.193  1.00  0.00    -0.550 OA
ENDBRANCH   3   4
ENDBRANCH   2   3
ENDBRANCH   1   2
BRANCH   1   7
ATOM      7  C   UNL     1      17.598  17.717  34.843  1.00  0.00     0.000 C 
BRANCH   7   8
ATOM      8  C   UNL     1      16.898  18.604  35.885  1.00  0.00    -0.000 C 
BRANCH   8   9
ATOM      9  C   UNL     1      16.586  17.852  37.187  1.00  0.00    -0.000 C 
BRANCH   9  10
ATOM     10  C   UNL     1      16.459  16.345  36.933  1.00  0.00    -0.003 C 
ATOM     11  C   UNL     1      15.750  15.648  38.090  1.00  0.00     0.004 C 
ENDBRANCH   9  10
ENDBRANCH   8   9
ENDBRANCH   7   8
ENDBRANCH   1   7
TORSDOF 7
ENDMDL
MODEL 9
REMARK VINA RESULT:    -4.240      2.090      2.953
REMARK INTER + INTRA:          -6.478
REMARK INTER:                  -5.948
REMARK INTRA:                  -0.530
REMARK UNBOUND:                -0.503
REMARK SMILES CCCCCCCCC(=O)[O-]
REMARK SMILES IDX 6 1 7 2 8 3 9 4 10 5 11 6 5 7 4 8 3 9 2 10 1 11
REMARK H PARENT
REMARK Flexibility Score: inf
ROOT
ATOM      1  C   UNL     1      15.426  16.453  38.389  1.00  0.00     0.000 C 
ENDROOT
BRANCH   1   2
ATOM      2  C   UNL     1      13.895  16.346  38.352  1.00  0.00     0.006 C 
BRANCH   2   3
ATOM      3  C   UNL     1      13.257  17.423  37.463  1.00  0.00     0.053 C 
BRANCH   3   4
ATOM      4  C   UNL     1      12.764  16.853  36.169  1.00  0.00     0.041 C 
ATOM      5  O   UNL     1      13.551  16.226  35.411  1.00  0.00    -0.550 OA
ATOM      6  O   UNL     1      11.428  16.988  35.814  1.00  0.00    -0.550 OA
ENDBRANCH   3   4
ENDBRANCH   2   3
ENDBRANCH   1   2
BRANCH   1   7
ATOM      7  C   UNL     1      15.892  17.831  37.893  1.00  0.00     0.000 C 
BRANCH   7   8
ATOM      8  C   UNL     1      16.863  17.737  36.705  1.00  0.00    -0.000 C 
BRANCH   8   9
ATOM      9  C   UNL     1      17.185  16.286  36.317  1.00  0.00    -0.000 C 
BRANCH   9  10
ATOM     10  C   UNL     1      18.133  16.239  35.113  1.00  0.00    -0.003 C 
ATOM     11  C   UNL     1      18.039  17.519  34.287  1.00  0.00     0.004 C 
ENDBRANCH   9  10
ENDBRANCH   8   9
ENDBRANCH   7   8
ENDBRANCH   1   7
TORSDOF 7
ENDMDL
