MODEL 1
REMARK VINA RESULT:    -5.117      0.000      0.000
REMARK INTER + INTRA:          -5.117
REMARK INTER:                  -5.117
REMARK INTRA:                   0.000
REMARK UNBOUND:                 0.000
REMARK SMILES CC(C)=C1CC[C@@H](C)CC1=O
REMARK SMILES IDX 8 1 7 2 6 3 5 4 4 5 2 6 1 7 3 8 10 9 11 10 9 11
REMARK H PARENT
REMARK Flexibility Score: inf
ROOT
ATOM      1  C   UNL     1       5.044  -5.069  57.620  1.00  0.00     0.008 C 
ATOM      2  C   UNL     1       5.902  -6.289  57.267  1.00  0.00    -0.006 C 
ATOM      3  C   UNL     1       7.123  -5.868  56.433  1.00  0.00     0.008 C 
ATOM      4  C   UNL     1       8.047  -7.062  56.156  1.00  0.00     0.039 C 
ATOM      5  C   UNL     1       7.305  -8.246  55.551  1.00  0.00    -0.006 C 
ATOM      6  C   UNL     1       7.919  -9.096  54.675  1.00  0.00    -0.070 C 
ATOM      7  C   UNL     1       7.178 -10.241  54.025  1.00  0.00     0.039 C 
ATOM      8  C   UNL     1       9.367  -8.906  54.283  1.00  0.00     0.039 C 
ATOM      9  C   UNL     1       5.922  -8.483  56.061  1.00  0.00     0.159 C 
ATOM     10  O   UNL     1       5.444  -9.647  56.142  1.00  0.00    -0.295 OA
ATOM     11  C   UNL     1       5.071  -7.325  56.495  1.00  0.00     0.084 C 
ENDROOT
TORSDOF 0
ENDMDL
MODEL 2
REMARK VINA RESULT:    -5.098     15.563     16.473
REMARK INTER + INTRA:          -5.098
REMARK INTER:                  -5.098
REMARK INTRA:                   0.000
REMARK UNBOUND:                 0.000
REMARK SMILES CC(C)=C1CC[C@@H](C)CC1=O
REMARK SMILES IDX 8 1 7 2 6 3 5 4 4 5 2 6 1 7 3 8 10 9 11 10 9 11
REMARK H PARENT
REMARK Flexibility Score: inf
ROOT
ATOM      1  C   UNL     1      15.704 -11.532  64.044  1.00  0.00     0.008 C 
ATOM      2  C   UNL     1      16.213 -11.488  65.489  1.00  0.00    -0.006 C 
ATOM      3  C   UNL     1      16.871 -10.131  65.790  1.00  0.00     0.008 C 
ATOM      4  C   UNL     1      17.295 -10.032  67.261  1.00  0.00     0.039 C 
ATOM      5  C   UNL     1      18.155 -11.209  67.702  1.00  0.00    -0.006 C 
ATOM      6  C   UNL     1      19.126 -11.062  68.651  1.00  0.00    -0.070 C 
ATOM      7  C   UNL     1      20.023 -12.208  69.056  1.00  0.00     0.039 C 
ATOM      8  C   UNL     1      19.376  -9.728  69.318  1.00  0.00     0.039 C 
ATOM      9  C   UNL     1      17.794 -12.537  67.124  1.00  0.00     0.159 C 
ATOM     10  O   UNL     1      17.959 -13.602  67.777  1.00  0.00    -0.295 OA
ATOM     11  C   UNL     1      17.216 -12.624  65.741  1.00  0.00     0.084 C 
ENDROOT
TORSDOF 0
ENDMDL
MODEL 3
REMARK VINA RESULT:    -5.007     12.186     13.503
REMARK INTER + INTRA:          -5.007
REMARK INTER:                  -5.007
REMARK INTRA:                   0.000
REMARK UNBOUND:                 0.000
REMARK SMILES CC(C)=C1CC[C@@H](C)CC1=O
REMARK SMILES IDX 8 1 7 2 6 3 5 4 4 5 2 6 1 7 3 8 10 9 11 10 9 11
REMARK H PARENT
REMARK Flexibility Score: inf
ROOT
ATOM      1  C   UNL     1       4.931  -0.183  66.757  1.00  0.00     0.008 C 
ATOM      2  C   UNL     1       4.942   0.729  65.525  1.00  0.00    -0.006 C 
ATOM      3  C   UNL     1       5.963   0.228  64.491  1.00  0.00     0.008 C 
ATOM      4  C   UNL     1       5.916   1.070  63.209  1.00  0.00     0.039 C 
ATOM      5  C   UNL     1       6.046   2.562  63.484  1.00  0.00    -0.006 C 
ATOM      6  C   UNL     1       6.650   3.398  62.589  1.00  0.00    -0.070 C 
ATOM      7  C   UNL     1       6.835   4.870  62.875  1.00  0.00     0.039 C 
ATOM      8  C   UNL     1       7.197   2.881  61.278  1.00  0.00     0.039 C 
ATOM      9  C   UNL     1       5.377   3.061  64.722  1.00  0.00     0.159 C 
ATOM     10  O   UNL     1       4.888   4.221  64.780  1.00  0.00    -0.295 OA
ATOM     11  C   UNL     1       5.270   2.174  65.929  1.00  0.00     0.084 C 
ENDROOT
TORSDOF 0
ENDMDL
MODEL 4
REMARK VINA RESULT:    -4.949      1.947      2.264
REMARK INTER + INTRA:          -4.949
REMARK INTER:                  -4.949
REMARK INTRA:                   0.000
REMARK UNBOUND:                 0.000
REMARK SMILES CC(C)=C1CC[C@@H](C)CC1=O
REMARK SMILES IDX 8 1 7 2 6 3 5 4 4 5 2 6 1 7 3 8 10 9 11 10 9 11
REMARK H PARENT
REMARK Flexibility Score: inf
ROOT
ATOM      1  C   UNL     1       4.888  -5.527  57.258  1.00  0.00     0.008 C 
ATOM      2  C   UNL     1       5.271  -7.005  57.129  1.00  0.00    -0.006 C 
ATOM      3  C   UNL     1       6.180  -7.432  58.294  1.00  0.00     0.008 C 
ATOM      4  C   UNL     1       6.492  -8.933  58.236  1.00  0.00     0.039 C 
ATOM      5  C   UNL     1       7.036  -9.365  56.882  1.00  0.00    -0.006 C 
ATOM      6  C   UNL     1       7.933 -10.390  56.771  1.00  0.00    -0.070 C 
ATOM      7  C   UNL     1       8.522 -10.790  55.439  1.00  0.00     0.039 C 
ATOM      8  C   UNL     1       8.409 -11.150  57.988  1.00  0.00     0.039 C 
ATOM      9  C   UNL     1       6.444  -8.686  55.691  1.00  0.00     0.159 C 
ATOM     10  O   UNL     1       6.320  -9.286  54.590  1.00  0.00    -0.295 OA
ATOM     11  C   UNL     1       5.980  -7.262  55.791  1.00  0.00     0.084 C 
ENDROOT
TORSDOF 0
ENDMDL
MODEL 5
REMARK VINA RESULT:    -4.906     14.045     14.972
REMARK INTER + INTRA:          -4.906
REMARK INTER:                  -4.906
REMARK INTRA:                   0.000
REMARK UNBOUND:                 0.000
REMARK SMILES CC(C)=C1CC[C@@H](C)CC1=O
REMARK SMILES IDX 8 1 7 2 6 3 5 4 4 5 2 6 1 7 3 8 10 9 11 10 9 11
REMARK H PARENT
REMARK Flexibility Score: inf
ROOT
ATOM      1  C   UNL     1      14.462 -11.577  64.664  1.00  0.00     0.008 C 
ATOM      2  C   UNL     1      15.731 -10.721  64.754  1.00  0.00    -0.006 C 
ATOM      3  C   UNL     1      16.636 -10.967  63.536  1.00  0.00     0.008 C 
ATOM      4  C   UNL     1      17.862 -10.045  63.558  1.00  0.00     0.039 C 
ATOM      5  C   UNL     1      18.623 -10.116  64.875  1.00  0.00    -0.006 C 
ATOM      6  C   UNL     1      19.976  -9.939  64.924  1.00  0.00    -0.070 C 
ATOM      7  C   UNL     1      20.749 -10.063  66.216  1.00  0.00     0.039 C 
ATOM      8  C   UNL     1      20.775  -9.648  63.673  1.00  0.00     0.039 C 
ATOM      9  C   UNL     1      17.790 -10.270  66.105  1.00  0.00     0.159 C 
ATOM     10  O   UNL     1      18.147  -9.766  67.204  1.00  0.00    -0.295 OA
ATOM     11  C   UNL     1      16.498 -11.032  66.048  1.00  0.00     0.084 C 
ENDROOT
TORSDOF 0
ENDMDL
MODEL 6
REMARK VINA RESULT:    -4.866      1.317      4.211
REMARK INTER + INTRA:          -4.866
REMARK INTER:                  -4.866
REMARK INTRA:                   0.000
REMARK UNBOUND:                 0.000
REMARK SMILES CC(C)=C1CC[C@@H](C)CC1=O
REMARK SMILES IDX 8 1 7 2 6 3 5 4 4 5 2 6 1 7 3 8 10 9 11 10 9 11
REMARK H PARENT
REMARK Flexibility Score: inf
ROOT
ATOM      1  C   UNL     1      10.688  -9.673  54.499  1.00  0.00     0.008 C 
ATOM      2  C   UNL     1       9.647  -8.582  54.772  1.00  0.00    -0.006 C 
ATOM      3  C   UNL     1       9.795  -8.038  56.202  1.00  0.00     0.008 C 
ATOM      4  C   UNL     1       8.827  -6.875  56.460  1.00  0.00     0.039 C 
ATOM      5  C   UNL     1       7.387  -7.227  56.115  1.00  0.00    -0.006 C 
ATOM      6  C   UNL     1       6.339  -6.683  56.802  1.00  0.00    -0.070 C 
ATOM      7  C   UNL     1       4.908  -7.067  56.506  1.00  0.00     0.039 C 
ATOM      8  C   UNL     1       6.566  -5.693  57.922  1.00  0.00     0.039 C 
ATOM      9  C   UNL     1       7.194  -8.100  54.919  1.00  0.00     0.159 C 
ATOM     10  O   UNL     1       6.174  -7.991  54.186  1.00  0.00    -0.295 OA
ATOM     11  C   UNL     1       8.227  -9.130  54.565  1.00  0.00     0.084 C 
ENDROOT
TORSDOF 0
ENDMDL
MODEL 7
REMARK VINA RESULT:    -4.862     10.459     13.313
REMARK INTER + INTRA:          -4.862
REMARK INTER:                  -4.862
REMARK INTRA:                   0.000
REMARK UNBOUND:                 0.000
REMARK SMILES CC(C)=C1CC[C@@H](C)CC1=O
REMARK SMILES IDX 8 1 7 2 6 3 5 4 4 5 2 6 1 7 3 8 10 9 11 10 9 11
REMARK H PARENT
REMARK Flexibility Score: inf
ROOT
ATOM      1  C   UNL     1       8.348  -1.129  62.655  1.00  0.00     0.008 C 
ATOM      2  C   UNL     1       8.116   0.298  63.165  1.00  0.00    -0.006 C 
ATOM      3  C   UNL     1       6.660   0.729  62.923  1.00  0.00     0.008 C 
ATOM      4  C   UNL     1       6.384   2.116  63.518  1.00  0.00     0.039 C 
ATOM      5  C   UNL     1       7.388   3.162  63.054  1.00  0.00    -0.006 C 
ATOM      6  C   UNL     1       7.030   4.471  62.900  1.00  0.00    -0.070 C 
ATOM      7  C   UNL     1       8.002   5.507  62.386  1.00  0.00     0.039 C 
ATOM      8  C   UNL     1       5.625   4.940  63.203  1.00  0.00     0.039 C 
ATOM      9  C   UNL     1       8.797   2.693  62.894  1.00  0.00     0.159 C 
ATOM     10  O   UNL     1       9.771   3.461  63.110  1.00  0.00    -0.295 OA
ATOM     11  C   UNL     1       9.075   1.278  62.474  1.00  0.00     0.084 C 
ENDROOT
TORSDOF 0
ENDMDL
MODEL 8
REMARK VINA RESULT:    -4.776     13.370     14.237
REMARK INTER + INTRA:          -4.776
REMARK INTER:                  -4.776
REMARK INTRA:                   0.000
REMARK UNBOUND:                 0.000
REMARK SMILES CC(C)=C1CC[C@@H](C)CC1=O
REMARK SMILES IDX 8 1 7 2 6 3 5 4 4 5 2 6 1 7 3 8 10 9 11 10 9 11
REMARK H PARENT
REMARK Flexibility Score: inf
ROOT
ATOM      1  C   UNL     1      18.412  -9.884  67.726  1.00  0.00     0.008 C 
ATOM      2  C   UNL     1      17.542 -10.201  66.505  1.00  0.00    -0.006 C 
ATOM      3  C   UNL     1      16.492 -11.270  66.851  1.00  0.00     0.008 C 
ATOM      4  C   UNL     1      15.548 -11.527  65.669  1.00  0.00     0.039 C 
ATOM      5  C   UNL     1      16.297 -11.839  64.380  1.00  0.00    -0.006 C 
ATOM      6  C   UNL     1      15.771 -12.678  63.440  1.00  0.00    -0.070 C 
ATOM      7  C   UNL     1      16.528 -13.039  62.183  1.00  0.00     0.039 C 
ATOM      8  C   UNL     1      14.415 -13.319  63.630  1.00  0.00     0.039 C 
ATOM      9  C   UNL     1      17.568 -11.086  64.162  1.00  0.00     0.159 C 
ATOM     10  O   UNL     1      17.952 -10.773  63.004  1.00  0.00    -0.295 OA
ATOM     11  C   UNL     1      18.414 -10.682  65.335  1.00  0.00     0.084 C 
ENDROOT
TORSDOF 0
ENDMDL
MODEL 9
REMARK VINA RESULT:    -4.697     14.214     15.121
REMARK INTER + INTRA:          -4.697
REMARK INTER:                  -4.697
REMARK INTRA:                   0.000
REMARK UNBOUND:                 0.000
REMARK SMILES CC(C)=C1CC[C@@H](C)CC1=O
REMARK SMILES IDX 8 1 7 2 6 3 5 4 4 5 2 6 1 7 3 8 10 9 11 10 9 11
REMARK H PARENT
REMARK Flexibility Score: inf
ROOT
ATOM      1  C   UNL     1      13.981 -11.604  64.749  1.00  0.00     0.008 C 
ATOM      2  C   UNL     1      15.485 -11.733  65.013  1.00  0.00    -0.006 C 
ATOM      3  C   UNL     1      15.800 -11.457  66.493  1.00  0.00     0.008 C 
ATOM      4  C   UNL     1      17.287 -11.681  66.797  1.00  0.00     0.039 C 
ATOM      5  C   UNL     1      18.199 -10.910  65.852  1.00  0.00    -0.006 C 
ATOM      6  C   UNL     1      19.412 -10.437  66.265  1.00  0.00    -0.070 C 
ATOM      7  C   UNL     1      20.300  -9.623  65.353  1.00  0.00     0.039 C 
ATOM      8  C   UNL     1      19.908 -10.674  67.673  1.00  0.00     0.039 C 
ATOM      9  C   UNL     1      17.740 -10.811  64.435  1.00  0.00     0.159 C 
ATOM     10  O   UNL     1      18.563 -10.771  63.481  1.00  0.00    -0.295 OA
ATOM     11  C   UNL     1      16.273 -10.763  64.120  1.00  0.00     0.084 C 
ENDROOT
TORSDOF 0
ENDMDL
