MODEL 1
REMARK VINA RESULT:    -6.095      0.000      0.000
REMARK INTER + INTRA:          -6.630
REMARK INTER:                  -6.630
REMARK INTRA:                   0.000
REMARK UNBOUND:                 0.000
REMARK SMILES Cc1cc(O)c2c(c1)C(=O)c1cc(O)cc(O)c1C2=O
REMARK SMILES IDX 1 1 2 2 8 3 7 4 6 5 4 6 3 7 19 8 20 9 18 10 11 11 9 12 10 13
REMARK SMILES IDX 12 14 13 15 15 16 16 17 5 18 17 20 14 22
REMARK H PARENT 5 19 17 21 14 23
REMARK Flexibility Score: inf
ROOT
ATOM      1  C   UNL     1      -6.788  14.060  -3.886  1.00  0.00     0.044 C 
ATOM      2  C   UNL     1      -7.498  14.663  -2.710  1.00  0.00    -0.047 A 
ATOM      3  C   UNL     1      -6.771  15.112  -1.604  1.00  0.00     0.016 A 
ATOM      4  C   UNL     1      -7.424  15.704  -0.509  1.00  0.00     0.038 A 
ATOM      5  C   UNL     1      -8.828  15.849  -0.524  1.00  0.00     0.076 A 
ATOM      6  C   UNL     1      -9.552  15.468  -1.683  1.00  0.00     0.127 A 
ATOM      7  C   UNL     1      -8.882  14.863  -2.751  1.00  0.00     0.050 A 
ATOM      8  C   UNL     1      -9.497  16.342   0.709  1.00  0.00     0.201 C 
ATOM      9  O   UNL     1     -10.671  15.970   0.977  1.00  0.00    -0.288 OA
ATOM     10  C   UNL     1      -8.718  17.114   1.712  1.00  0.00     0.076 A 
ATOM     11  C   UNL     1      -7.312  16.970   1.721  1.00  0.00     0.041 A 
ATOM     12  C   UNL     1      -6.644  16.186   0.656  1.00  0.00     0.194 C 
ATOM     13  O   UNL     1      -5.406  15.948   0.729  1.00  0.00    -0.289 OA
ATOM     14  C   UNL     1      -6.554  17.575   2.738  1.00  0.00     0.059 A 
ATOM     15  C   UNL     1      -7.179  18.332   3.732  1.00  0.00     0.120 A 
ATOM     16  C   UNL     1      -8.562  18.511   3.703  1.00  0.00     0.093 A 
ATOM     17  C   UNL     1      -9.336  17.935   2.691  1.00  0.00     0.131 A 
ENDROOT
BRANCH   6  18
ATOM     18  O   UNL     1     -10.921  15.705  -1.832  1.00  0.00    -0.507 OA
ATOM     19  H   UNL     1     -11.369  15.843  -2.727  1.00  0.00     0.293 HD
ENDBRANCH   6  18
BRANCH  17  20
ATOM     20  O   UNL     1     -10.701  18.234   2.676  1.00  0.00    -0.507 OA
ATOM     21  H   UNL     1     -11.124  18.942   3.261  1.00  0.00     0.293 HD
ENDBRANCH  17  20
BRANCH  15  22
ATOM     22  O   UNL     1      -6.433  18.923   4.750  1.00  0.00    -0.508 OA
ATOM     23  H   UNL     1      -5.966  18.366   5.457  1.00  0.00     0.293 HD
ENDBRANCH  15  22
TORSDOF 3
ENDMDL
MODEL 2
REMARK VINA RESULT:    -5.962      1.474      3.295
REMARK INTER + INTRA:          -6.485
REMARK INTER:                  -6.485
REMARK INTRA:                   0.000
REMARK UNBOUND:                 0.000
REMARK SMILES Cc1cc(O)c2c(c1)C(=O)c1cc(O)cc(O)c1C2=O
REMARK SMILES IDX 1 1 2 2 8 3 7 4 6 5 4 6 3 7 19 8 20 9 18 10 11 11 9 12 10 13
REMARK SMILES IDX 12 14 13 15 15 16 16 17 5 18 17 20 14 22
REMARK H PARENT 5 19 17 21 14 23
REMARK Flexibility Score: inf
ROOT
ATOM      1  C   UNL     1      -8.223  14.804  -5.019  1.00  0.00     0.044 C 
ATOM      2  C   UNL     1      -7.887  15.048  -3.578  1.00  0.00    -0.047 A 
ATOM      3  C   UNL     1      -8.765  15.769  -2.763  1.00  0.00     0.016 A 
ATOM      4  C   UNL     1      -8.473  15.978  -1.404  1.00  0.00     0.038 A 
ATOM      5  C   UNL     1      -7.282  15.456  -0.853  1.00  0.00     0.076 A 
ATOM      6  C   UNL     1      -6.437  14.656  -1.664  1.00  0.00     0.127 A 
ATOM      7  C   UNL     1      -6.739  14.478  -3.017  1.00  0.00     0.050 A 
ATOM      8  C   UNL     1      -6.935  15.823   0.545  1.00  0.00     0.201 C 
ATOM      9  O   UNL     1      -5.726  15.899   0.891  1.00  0.00    -0.288 OA
ATOM     10  C   UNL     1      -8.001  16.280   1.474  1.00  0.00     0.076 A 
ATOM     11  C   UNL     1      -9.193  16.798   0.919  1.00  0.00     0.041 A 
ATOM     12  C   UNL     1      -9.413  16.736  -0.545  1.00  0.00     0.194 C 
ATOM     13  O   UNL     1     -10.415  17.309  -1.057  1.00  0.00    -0.289 OA
ATOM     14  C   UNL     1     -10.166  17.365   1.760  1.00  0.00     0.059 A 
ATOM     15  C   UNL     1      -9.971  17.407   3.143  1.00  0.00     0.120 A 
ATOM     16  C   UNL     1      -8.814  16.860   3.698  1.00  0.00     0.093 A 
ATOM     17  C   UNL     1      -7.840  16.272   2.884  1.00  0.00     0.131 A 
ENDROOT
BRANCH   6  18
ATOM     18  O   UNL     1      -5.316  13.990  -1.161  1.00  0.00    -0.507 OA
ATOM     19  H   UNL     1      -5.364  13.107  -0.671  1.00  0.00     0.293 HD
ENDBRANCH   6  18
BRANCH  17  20
ATOM     20  O   UNL     1      -6.753  15.665   3.518  1.00  0.00    -0.507 OA
ATOM     21  H   UNL     1      -5.909  15.388   3.037  1.00  0.00     0.293 HD
ENDBRANCH  17  20
BRANCH  15  22
ATOM     22  O   UNL     1     -10.927  17.980   3.978  1.00  0.00    -0.508 OA
ATOM     23  H   UNL     1     -10.994  17.729   4.958  1.00  0.00     0.293 HD
ENDBRANCH  15  22
TORSDOF 3
ENDMDL
MODEL 3
REMARK VINA RESULT:    -5.667      2.038      5.992
REMARK INTER + INTRA:          -6.164
REMARK INTER:                  -6.164
REMARK INTRA:                   0.000
REMARK UNBOUND:                 0.000
REMARK SMILES Cc1cc(O)c2c(c1)C(=O)c1cc(O)cc(O)c1C2=O
REMARK SMILES IDX 1 1 2 2 8 3 7 4 6 5 4 6 3 7 19 8 20 9 18 10 11 11 9 12 10 13
REMARK SMILES IDX 12 14 13 15 15 16 16 17 5 18 17 20 14 22
REMARK H PARENT 5 19 17 21 14 23
REMARK Flexibility Score: inf
ROOT
ATOM      1  C   UNL     1     -11.653  18.763   3.580  1.00  0.00     0.044 C 
ATOM      2  C   UNL     1     -10.637  17.807   3.029  1.00  0.00    -0.047 A 
ATOM      3  C   UNL     1     -10.498  17.646   1.647  1.00  0.00     0.016 A 
ATOM      4  C   UNL     1      -9.530  16.773   1.120  1.00  0.00     0.038 A 
ATOM      5  C   UNL     1      -8.686  16.051   1.993  1.00  0.00     0.076 A 
ATOM      6  C   UNL     1      -8.775  16.282   3.390  1.00  0.00     0.127 A 
ATOM      7  C   UNL     1      -9.759  17.139   3.891  1.00  0.00     0.050 A 
ATOM      8  C   UNL     1      -7.779  15.030   1.408  1.00  0.00     0.201 C 
ATOM      9  O   UNL     1      -7.459  14.015   2.082  1.00  0.00    -0.288 OA
ATOM     10  C   UNL     1      -7.404  15.113  -0.028  1.00  0.00     0.076 A 
ATOM     11  C   UNL     1      -8.249  15.840  -0.898  1.00  0.00     0.041 A 
ATOM     12  C   UNL     1      -9.384  16.615  -0.346  1.00  0.00     0.194 C 
ATOM     13  O   UNL     1     -10.214  17.161  -1.126  1.00  0.00    -0.289 OA
ATOM     14  C   UNL     1      -8.004  15.826  -2.282  1.00  0.00     0.059 A 
ATOM     15  C   UNL     1      -6.923  15.113  -2.804  1.00  0.00     0.120 A 
ATOM     16  C   UNL     1      -6.063  14.428  -1.945  1.00  0.00     0.093 A 
ATOM     17  C   UNL     1      -6.274  14.442  -0.562  1.00  0.00     0.131 A 
ENDROOT
BRANCH   6  18
ATOM     18  O   UNL     1      -7.887  15.714   4.308  1.00  0.00    -0.507 OA
ATOM     19  H   UNL     1      -8.081  15.637   5.297  1.00  0.00     0.293 HD
ENDBRANCH   6  18
BRANCH  17  20
ATOM     20  O   UNL     1      -5.320  13.810   0.240  1.00  0.00    -0.507 OA
ATOM     21  H   UNL     1      -5.551  13.137   0.958  1.00  0.00     0.293 HD
ENDBRANCH  17  20
BRANCH  15  22
ATOM     22  O   UNL     1      -6.685  15.087  -4.176  1.00  0.00    -0.508 OA
ATOM     23  H   UNL     1      -7.075  14.362  -4.768  1.00  0.00     0.293 HD
ENDBRANCH  15  22
TORSDOF 3
ENDMDL
MODEL 4
REMARK VINA RESULT:    -5.652      3.300      7.559
REMARK INTER + INTRA:          -6.148
REMARK INTER:                  -6.148
REMARK INTRA:                   0.000
REMARK UNBOUND:                 0.000
REMARK SMILES Cc1cc(O)c2c(c1)C(=O)c1cc(O)cc(O)c1C2=O
REMARK SMILES IDX 1 1 2 2 8 3 7 4 6 5 4 6 3 7 19 8 20 9 18 10 11 11 9 12 10 13
REMARK SMILES IDX 12 14 13 15 15 16 16 17 5 18 17 20 14 22
REMARK H PARENT 5 19 17 21 14 23
REMARK Flexibility Score: inf
ROOT
ATOM      1  C   UNL     1      -7.686  16.537   1.344  1.00  0.00     0.044 C 
ATOM      2  C   UNL     1      -7.555  15.588   0.190  1.00  0.00    -0.047 A 
ATOM      3  C   UNL     1      -7.910  15.994  -1.100  1.00  0.00     0.016 A 
ATOM      4  C   UNL     1      -7.765  15.121  -2.192  1.00  0.00     0.038 A 
ATOM      5  C   UNL     1      -7.256  13.820  -1.988  1.00  0.00     0.076 A 
ATOM      6  C   UNL     1      -6.820  13.443  -0.692  1.00  0.00     0.127 A 
ATOM      7  C   UNL     1      -6.992  14.321   0.382  1.00  0.00     0.050 A 
ATOM      8  C   UNL     1      -7.256  12.878  -3.137  1.00  0.00     0.201 C 
ATOM      9  O   UNL     1      -7.375  11.640  -2.933  1.00  0.00    -0.288 OA
ATOM     10  C   UNL     1      -7.306  13.407  -4.525  1.00  0.00     0.076 A 
ATOM     11  C   UNL     1      -7.813  14.711  -4.725  1.00  0.00     0.041 A 
ATOM     12  C   UNL     1      -8.136  15.563  -3.557  1.00  0.00     0.194 C 
ATOM     13  O   UNL     1      -8.706  16.677  -3.727  1.00  0.00    -0.289 OA
ATOM     14  C   UNL     1      -8.003  15.194  -6.031  1.00  0.00     0.059 A 
ATOM     15  C   UNL     1      -7.680  14.400  -7.134  1.00  0.00     0.120 A 
ATOM     16  C   UNL     1      -7.141  13.128  -6.941  1.00  0.00     0.093 A 
ATOM     17  C   UNL     1      -6.924  12.632  -5.652  1.00  0.00     0.131 A 
ENDROOT
BRANCH   6  18
ATOM     18  O   UNL     1      -6.178  12.228  -0.434  1.00  0.00    -0.507 OA
ATOM     19  H   UNL     1      -5.910  11.924   0.492  1.00  0.00     0.293 HD
ENDBRANCH   6  18
BRANCH  17  20
ATOM     20  O   UNL     1      -6.297  11.389  -5.538  1.00  0.00    -0.507 OA
ATOM     21  H   UNL     1      -6.209  10.885  -4.666  1.00  0.00     0.293 HD
ENDBRANCH  17  20
BRANCH  15  22
ATOM     22  O   UNL     1      -7.880  14.871  -8.431  1.00  0.00    -0.508 OA
ATOM     23  H   UNL     1      -7.423  14.440  -9.227  1.00  0.00     0.293 HD
ENDBRANCH  15  22
TORSDOF 3
ENDMDL
MODEL 5
REMARK VINA RESULT:    -5.604      4.467      8.620
REMARK INTER + INTRA:          -6.095
REMARK INTER:                  -6.095
REMARK INTRA:                   0.000
REMARK UNBOUND:                 0.000
REMARK SMILES Cc1cc(O)c2c(c1)C(=O)c1cc(O)cc(O)c1C2=O
REMARK SMILES IDX 1 1 2 2 8 3 7 4 6 5 4 6 3 7 19 8 20 9 18 10 11 11 9 12 10 13
REMARK SMILES IDX 12 14 13 15 15 16 16 17 5 18 17 20 14 22
REMARK H PARENT 5 19 17 21 14 23
REMARK Flexibility Score: inf
ROOT
ATOM      1  C   UNL     1     -11.196  14.776  -0.184  1.00  0.00     0.044 C 
ATOM      2  C   UNL     1     -10.433  14.822  -1.474  1.00  0.00    -0.047 A 
ATOM      3  C   UNL     1     -10.488  13.744  -2.363  1.00  0.00     0.016 A 
ATOM      4  C   UNL     1      -9.799  13.789  -3.588  1.00  0.00     0.038 A 
ATOM      5  C   UNL     1      -9.044  14.934  -3.927  1.00  0.00     0.076 A 
ATOM      6  C   UNL     1      -9.060  16.056  -3.059  1.00  0.00     0.127 A 
ATOM      7  C   UNL     1      -9.736  15.979  -1.838  1.00  0.00     0.050 A 
ATOM      8  C   UNL     1      -8.211  14.887  -5.157  1.00  0.00     0.201 C 
ATOM      9  O   UNL     1      -7.145  15.555  -5.218  1.00  0.00    -0.288 OA
ATOM     10  C   UNL     1      -8.536  13.912  -6.231  1.00  0.00     0.076 A 
ATOM     11  C   UNL     1      -9.295  12.770  -5.888  1.00  0.00     0.041 A 
ATOM     12  C   UNL     1      -9.869  12.646  -4.528  1.00  0.00     0.194 C 
ATOM     13  O   UNL     1     -10.439  11.575  -4.179  1.00  0.00    -0.289 OA
ATOM     14  C   UNL     1      -9.506  11.760  -6.843  1.00  0.00     0.059 A 
ATOM     15  C   UNL     1      -8.984  11.883  -8.133  1.00  0.00     0.120 A 
ATOM     16  C   UNL     1      -8.269  13.027  -8.486  1.00  0.00     0.093 A 
ATOM     17  C   UNL     1      -8.062  14.055  -7.561  1.00  0.00     0.131 A 
ENDROOT
BRANCH   6  18
ATOM     18  O   UNL     1      -8.454  17.272  -3.385  1.00  0.00    -0.507 OA
ATOM     19  H   UNL     1      -8.886  17.970  -3.975  1.00  0.00     0.293 HD
ENDBRANCH   6  18
BRANCH  17  20
ATOM     20  O   UNL     1      -7.417  15.208  -8.014  1.00  0.00    -0.507 OA
ATOM     21  H   UNL     1      -6.468  15.216  -8.364  1.00  0.00     0.293 HD
ENDBRANCH  17  20
BRANCH  15  22
ATOM     22  O   UNL     1      -9.180  10.877  -9.077  1.00  0.00    -0.508 OA
ATOM     23  H   UNL     1     -10.094  10.695  -9.476  1.00  0.00     0.293 HD
ENDBRANCH  15  22
TORSDOF 3
ENDMDL
MODEL 6
REMARK VINA RESULT:    -5.491      2.842      4.417
REMARK INTER + INTRA:          -5.973
REMARK INTER:                  -5.973
REMARK INTRA:                   0.000
REMARK UNBOUND:                 0.000
REMARK SMILES Cc1cc(O)c2c(c1)C(=O)c1cc(O)cc(O)c1C2=O
REMARK SMILES IDX 1 1 2 2 8 3 7 4 6 5 4 6 3 7 19 8 20 9 18 10 11 11 9 12 10 13
REMARK SMILES IDX 12 14 13 15 15 16 16 17 5 18 17 20 14 22
REMARK H PARENT 5 19 17 21 14 23
REMARK Flexibility Score: inf
ROOT
ATOM      1  C   UNL     1      -7.955  12.737  -7.397  1.00  0.00     0.044 C 
ATOM      2  C   UNL     1      -8.007  13.437  -6.071  1.00  0.00    -0.047 A 
ATOM      3  C   UNL     1      -7.708  12.741  -4.896  1.00  0.00     0.016 A 
ATOM      4  C   UNL     1      -7.726  13.395  -3.652  1.00  0.00     0.038 A 
ATOM      5  C   UNL     1      -8.047  14.769  -3.585  1.00  0.00     0.076 A 
ATOM      6  C   UNL     1      -8.268  15.487  -4.788  1.00  0.00     0.127 A 
ATOM      7  C   UNL     1      -8.264  14.811  -6.011  1.00  0.00     0.050 A 
ATOM      8  C   UNL     1      -8.202  15.389  -2.243  1.00  0.00     0.201 C 
ATOM      9  O   UNL     1      -8.997  16.354  -2.086  1.00  0.00    -0.288 OA
ATOM     10  C   UNL     1      -7.565  14.755  -1.059  1.00  0.00     0.076 A 
ATOM     11  C   UNL     1      -7.241  13.381  -1.132  1.00  0.00     0.041 A 
ATOM     12  C   UNL     1      -7.399  12.652  -2.411  1.00  0.00     0.194 C 
ATOM     13  O   UNL     1      -7.232  11.401  -2.450  1.00  0.00    -0.289 OA
ATOM     14  C   UNL     1      -6.765  12.715   0.011  1.00  0.00     0.059 A 
ATOM     15  C   UNL     1      -6.595  13.404   1.214  1.00  0.00     0.120 A 
ATOM     16  C   UNL     1      -6.876  14.769   1.279  1.00  0.00     0.093 A 
ATOM     17  C   UNL     1      -7.332  15.459   0.151  1.00  0.00     0.131 A 
ENDROOT
BRANCH   6  18
ATOM     18  O   UNL     1      -8.454  16.872  -4.817  1.00  0.00    -0.507 OA
ATOM     19  H   UNL     1      -7.995  17.483  -5.479  1.00  0.00     0.293 HD
ENDBRANCH   6  18
BRANCH  17  20
ATOM     20  O   UNL     1      -7.503  16.840   0.268  1.00  0.00    -0.507 OA
ATOM     21  H   UNL     1      -6.754  17.478   0.499  1.00  0.00     0.293 HD
ENDBRANCH  17  20
BRANCH  15  22
ATOM     22  O   UNL     1      -6.137  12.744   2.352  1.00  0.00    -0.508 OA
ATOM     23  H   UNL     1      -5.425  13.149   2.950  1.00  0.00     0.293 HD
ENDBRANCH  15  22
TORSDOF 3
ENDMDL
MODEL 7
REMARK VINA RESULT:    -5.443      1.394      5.520
REMARK INTER + INTRA:          -5.920
REMARK INTER:                  -5.920
REMARK INTRA:                   0.000
REMARK UNBOUND:                 0.000
REMARK SMILES Cc1cc(O)c2c(c1)C(=O)c1cc(O)cc(O)c1C2=O
REMARK SMILES IDX 1 1 2 2 8 3 7 4 6 5 4 6 3 7 19 8 20 9 18 10 11 11 9 12 10 13
REMARK SMILES IDX 12 14 13 15 15 16 16 17 5 18 17 20 14 22
REMARK H PARENT 5 19 17 21 14 23
REMARK Flexibility Score: inf
ROOT
ATOM      1  C   UNL     1      -6.425  18.196   4.682  1.00  0.00     0.044 C 
ATOM      2  C   UNL     1      -7.213  17.770   3.478  1.00  0.00    -0.047 A 
ATOM      3  C   UNL     1      -6.607  17.012   2.472  1.00  0.00     0.016 A 
ATOM      4  C   UNL     1      -7.343  16.584   1.354  1.00  0.00     0.038 A 
ATOM      5  C   UNL     1      -8.710  16.922   1.243  1.00  0.00     0.076 A 
ATOM      6  C   UNL     1      -9.339  17.620   2.306  1.00  0.00     0.127 A 
ATOM      7  C   UNL     1      -8.581  18.051   3.398  1.00  0.00     0.050 A 
ATOM      8  C   UNL     1      -9.418  16.582  -0.019  1.00  0.00     0.201 C 
ATOM      9  O   UNL     1     -10.371  17.303  -0.417  1.00  0.00    -0.288 OA
ATOM     10  C   UNL     1      -8.881  15.512  -0.900  1.00  0.00     0.076 A 
ATOM     11  C   UNL     1      -7.514  15.174  -0.783  1.00  0.00     0.041 A 
ATOM     12  C   UNL     1      -6.695  15.774   0.296  1.00  0.00     0.194 C 
ATOM     13  O   UNL     1      -5.449  15.574   0.328  1.00  0.00    -0.289 OA
ATOM     14  C   UNL     1      -6.939  14.266  -1.689  1.00  0.00     0.059 A 
ATOM     15  C   UNL     1      -7.713  13.683  -2.696  1.00  0.00     0.120 A 
ATOM     16  C   UNL     1      -9.072  13.983  -2.789  1.00  0.00     0.093 A 
ATOM     17  C   UNL     1      -9.672  14.868  -1.887  1.00  0.00     0.131 A 
ENDROOT
BRANCH   6  18
ATOM     18  O   UNL     1     -10.714  17.871   2.336  1.00  0.00    -0.507 OA
ATOM     19  H   UNL     1     -11.115  18.747   2.641  1.00  0.00     0.293 HD
ENDBRANCH   6  18
BRANCH  17  20
ATOM     20  O   UNL     1     -11.053  15.048  -1.986  1.00  0.00    -0.507 OA
ATOM     21  H   UNL     1     -11.646  15.269  -1.198  1.00  0.00     0.293 HD
ENDBRANCH  17  20
BRANCH  15  22
ATOM     22  O   UNL     1      -7.143  12.793  -3.604  1.00  0.00    -0.508 OA
ATOM     23  H   UNL     1      -7.163  12.969  -4.602  1.00  0.00     0.293 HD
ENDBRANCH  15  22
TORSDOF 3
ENDMDL
MODEL 8
REMARK VINA RESULT:    -5.366      1.818      6.512
REMARK INTER + INTRA:          -5.837
REMARK INTER:                  -5.837
REMARK INTRA:                   0.000
REMARK UNBOUND:                 0.000
REMARK SMILES Cc1cc(O)c2c(c1)C(=O)c1cc(O)cc(O)c1C2=O
REMARK SMILES IDX 1 1 2 2 8 3 7 4 6 5 4 6 3 7 19 8 20 9 18 10 11 11 9 12 10 13
REMARK SMILES IDX 12 14 13 15 15 16 16 17 5 18 17 20 14 22
REMARK H PARENT 5 19 17 21 14 23
REMARK Flexibility Score: inf
ROOT
ATOM      1  C   UNL     1     -10.610  17.713   3.749  1.00  0.00     0.044 C 
ATOM      2  C   UNL     1      -9.813  17.166   2.602  1.00  0.00    -0.047 A 
ATOM      3  C   UNL     1     -10.455  16.496   1.555  1.00  0.00     0.016 A 
ATOM      4  C   UNL     1      -9.721  16.004   0.462  1.00  0.00     0.038 A 
ATOM      5  C   UNL     1      -8.321  16.186   0.417  1.00  0.00     0.076 A 
ATOM      6  C   UNL     1      -7.687  16.938   1.440  1.00  0.00     0.127 A 
ATOM      7  C   UNL     1      -8.436  17.400   2.527  1.00  0.00     0.050 A 
ATOM      8  C   UNL     1      -7.561  15.524  -0.675  1.00  0.00     0.201 C 
ATOM      9  O   UNL     1      -6.371  15.161  -0.480  1.00  0.00    -0.288 OA
ATOM     10  C   UNL     1      -8.261  15.126  -1.924  1.00  0.00     0.076 A 
ATOM     11  C   UNL     1      -9.663  14.949  -1.876  1.00  0.00     0.041 A 
ATOM     12  C   UNL     1     -10.410  15.303  -0.647  1.00  0.00     0.194 C 
ATOM     13  O   UNL     1     -11.639  15.029  -0.554  1.00  0.00    -0.289 OA
ATOM     14  C   UNL     1     -10.341  14.441  -2.998  1.00  0.00     0.059 A 
ATOM     15  C   UNL     1      -9.643  14.126  -4.166  1.00  0.00     0.120 A 
ATOM     16  C   UNL     1      -8.266  14.338  -4.231  1.00  0.00     0.093 A 
ATOM     17  C   UNL     1      -7.571  14.860  -3.135  1.00  0.00     0.131 A 
ENDROOT
BRANCH   6  18
ATOM     18  O   UNL     1      -6.333  17.280   1.398  1.00  0.00    -0.507 OA
ATOM     19  H   UNL     1      -5.689  16.923   0.706  1.00  0.00     0.293 HD
ENDBRANCH   6  18
BRANCH  17  20
ATOM     20  O   UNL     1      -6.211  15.130  -3.306  1.00  0.00    -0.507 OA
ATOM     21  H   UNL     1      -5.735  15.903  -2.861  1.00  0.00     0.293 HD
ENDBRANCH  17  20
BRANCH  15  22
ATOM     22  O   UNL     1     -10.310  13.610  -5.275  1.00  0.00    -0.508 OA
ATOM     23  H   UNL     1     -11.042  12.915  -5.178  1.00  0.00     0.293 HD
ENDBRANCH  15  22
TORSDOF 3
ENDMDL
MODEL 9
REMARK VINA RESULT:    -5.319      2.477      4.210
REMARK INTER + INTRA:          -5.786
REMARK INTER:                  -5.786
REMARK INTRA:                   0.000
REMARK UNBOUND:                 0.000
REMARK SMILES Cc1cc(O)c2c(c1)C(=O)c1cc(O)cc(O)c1C2=O
REMARK SMILES IDX 1 1 2 2 8 3 7 4 6 5 4 6 3 7 19 8 20 9 18 10 11 11 9 12 10 13
REMARK SMILES IDX 12 14 13 15 15 16 16 17 5 18 17 20 14 22
REMARK H PARENT 5 19 17 21 14 23
REMARK Flexibility Score: inf
ROOT
ATOM      1  C   UNL     1      -7.808  14.727  -7.374  1.00  0.00     0.044 C 
ATOM      2  C   UNL     1      -7.801  14.444  -5.901  1.00  0.00    -0.047 A 
ATOM      3  C   UNL     1      -8.141  15.448  -4.990  1.00  0.00     0.016 A 
ATOM      4  C   UNL     1      -8.165  15.185  -3.609  1.00  0.00     0.038 A 
ATOM      5  C   UNL     1      -7.844  13.895  -3.134  1.00  0.00     0.076 A 
ATOM      6  C   UNL     1      -7.581  12.859  -4.068  1.00  0.00     0.127 A 
ATOM      7  C   UNL     1      -7.544  13.150  -5.435  1.00  0.00     0.050 A 
ATOM      8  C   UNL     1      -7.735  13.693  -1.666  1.00  0.00     0.201 C 
ATOM      9  O   UNL     1      -6.944  12.826  -1.209  1.00  0.00    -0.288 OA
ATOM     10  C   UNL     1      -8.413  14.637  -0.739  1.00  0.00     0.076 A 
ATOM     11  C   UNL     1      -8.736  15.927  -1.220  1.00  0.00     0.041 A 
ATOM     12  C   UNL     1      -8.535  16.254  -2.650  1.00  0.00     0.194 C 
ATOM     13  O   UNL     1      -8.702  17.437  -3.057  1.00  0.00    -0.289 OA
ATOM     14  C   UNL     1      -9.252  16.892  -0.337  1.00  0.00     0.059 A 
ATOM     15  C   UNL     1      -9.462  16.581   1.009  1.00  0.00     0.120 A 
ATOM     16  C   UNL     1      -9.182  15.297   1.477  1.00  0.00     0.093 A 
ATOM     17  C   UNL     1      -8.687  14.314   0.615  1.00  0.00     0.131 A 
ENDROOT
BRANCH   6  18
ATOM     18  O   UNL     1      -7.392  11.528  -3.687  1.00  0.00    -0.507 OA
ATOM     19  H   UNL     1      -7.164  10.788  -4.337  1.00  0.00     0.293 HD
ENDBRANCH   6  18
BRANCH  17  20
ATOM     20  O   UNL     1      -8.518  13.029   1.135  1.00  0.00    -0.507 OA
ATOM     21  H   UNL     1      -8.599  12.809   2.118  1.00  0.00     0.293 HD
ENDBRANCH  17  20
BRANCH  15  22
ATOM     22  O   UNL     1      -9.960  17.539   1.890  1.00  0.00    -0.508 OA
ATOM     23  H   UNL     1     -10.795  17.370   2.440  1.00  0.00     0.293 HD
ENDBRANCH  15  22
TORSDOF 3
ENDMDL
