MODEL 1
REMARK VINA RESULT:    -3.104      0.000      0.000
REMARK INTER + INTRA:          -4.406
REMARK INTER:                  -4.193
REMARK INTRA:                  -0.213
REMARK UNBOUND:                -0.213
REMARK SMILES CCCCCCCC=O
REMARK SMILES IDX 5 1 4 2 3 3 2 4 1 5 6 6 7 7 8 8 9 9
REMARK H PARENT
REMARK Flexibility Score: inf
ROOT
ATOM      1  C   UNL     1     168.608 167.016 170.177  1.00  0.00     0.000 C 
ENDROOT
BRANCH   1   2
ATOM      2  C   UNL     1     167.294 166.251 170.405  1.00  0.00     0.000 C 
BRANCH   2   3
ATOM      3  C   UNL     1     166.693 165.710 169.097  1.00  0.00    -0.000 C 
BRANCH   3   4
ATOM      4  C   UNL     1     165.162 165.594 169.158  1.00  0.00    -0.003 C 
ATOM      5  C   UNL     1     164.479 166.078 167.878  1.00  0.00     0.004 C 
ENDBRANCH   3   4
ENDBRANCH   2   3
ENDBRANCH   1   2
BRANCH   1   6
ATOM      6  C   UNL     1     169.158 166.840 168.750  1.00  0.00     0.008 C 
BRANCH   6   7
ATOM      7  C   UNL     1     170.545 167.478 168.583  1.00  0.00     0.072 C 
BRANCH   7   8
ATOM      8  C   UNL     1     170.537 168.949 168.890  1.00  0.00     0.224 C 
ATOM      9  O   UNL     1     170.390 169.757 167.988  1.00  0.00    -0.303 OA
ENDBRANCH   7   8
ENDBRANCH   6   7
ENDBRANCH   1   6
TORSDOF 6
ENDMDL
MODEL 2
REMARK VINA RESULT:    -3.004      5.080      7.504
REMARK INTER + INTRA:          -4.271
REMARK INTER:                  -4.036
REMARK INTRA:                  -0.235
REMARK UNBOUND:                -0.213
REMARK SMILES CCCCCCCC=O
REMARK SMILES IDX 5 1 4 2 3 3 2 4 1 5 6 6 7 7 8 8 9 9
REMARK H PARENT
REMARK Flexibility Score: inf
ROOT
ATOM      1  C   UNL     1     162.936 164.291 170.222  1.00  0.00     0.000 C 
ENDROOT
BRANCH   1   2
ATOM      2  C   UNL     1     164.320 164.906 170.487  1.00  0.00     0.000 C 
BRANCH   2   3
ATOM      3  C   UNL     1     164.937 165.534 169.226  1.00  0.00    -0.000 C 
BRANCH   3   4
ATOM      4  C   UNL     1     166.441 165.246 169.101  1.00  0.00    -0.003 C 
ATOM      5  C   UNL     1     166.897 165.087 167.650  1.00  0.00     0.004 C 
ENDBRANCH   3   4
ENDBRANCH   2   3
ENDBRANCH   1   2
BRANCH   1   6
ATOM      6  C   UNL     1     162.409 164.602 168.810  1.00  0.00     0.008 C 
BRANCH   6   7
ATOM      7  C   UNL     1     161.020 163.992 168.565  1.00  0.00     0.072 C 
BRANCH   7   8
ATOM      8  C   UNL     1     160.905 162.598 169.111  1.00  0.00     0.224 C 
ATOM      9  O   UNL     1     160.779 161.655 168.348  1.00  0.00    -0.303 OA
ENDBRANCH   7   8
ENDBRANCH   6   7
ENDBRANCH   1   6
TORSDOF 6
ENDMDL
MODEL 3
REMARK VINA RESULT:    -2.928      7.996      9.621
REMARK INTER + INTRA:          -4.168
REMARK INTER:                  -3.759
REMARK INTRA:                  -0.409
REMARK UNBOUND:                -0.213
REMARK SMILES CCCCCCCC=O
REMARK SMILES IDX 5 1 4 2 3 3 2 4 1 5 6 6 7 7 8 8 9 9
REMARK H PARENT
REMARK Flexibility Score: inf
ROOT
ATOM      1  C   UNL     1     162.155 171.950 170.331  1.00  0.00     0.000 C 
ENDROOT
BRANCH   1   2
ATOM      2  C   UNL     1     163.004 171.394 169.176  1.00  0.00     0.000 C 
BRANCH   2   3
ATOM      3  C   UNL     1     163.127 172.385 168.006  1.00  0.00    -0.000 C 
BRANCH   3   4
ATOM      4  C   UNL     1     162.822 173.831 168.426  1.00  0.00    -0.003 C 
ATOM      5  C   UNL     1     161.992 174.588 167.388  1.00  0.00     0.004 C 
ENDBRANCH   3   4
ENDBRANCH   2   3
ENDBRANCH   1   2
BRANCH   1   6
ATOM      6  C   UNL     1     160.941 171.060 170.657  1.00  0.00     0.008 C 
BRANCH   6   7
ATOM      7  C   UNL     1     159.611 171.776 170.382  1.00  0.00     0.072 C 
BRANCH   7   8
ATOM      8  C   UNL     1     159.315 171.888 168.914  1.00  0.00     0.224 C 
ATOM      9  O   UNL     1     158.451 171.187 168.413  1.00  0.00    -0.303 OA
ENDBRANCH   7   8
ENDBRANCH   6   7
ENDBRANCH   1   6
TORSDOF 6
ENDMDL
MODEL 4
REMARK VINA RESULT:    -2.915      7.854      8.391
REMARK INTER + INTRA:          -4.151
REMARK INTER:                  -3.745
REMARK INTRA:                  -0.407
REMARK UNBOUND:                -0.213
REMARK SMILES CCCCCCCC=O
REMARK SMILES IDX 5 1 4 2 3 3 2 4 1 5 6 6 7 7 8 8 9 9
REMARK H PARENT
REMARK Flexibility Score: inf
ROOT
ATOM      1  C   UNL     1     169.277 159.493 170.670  1.00  0.00     0.000 C 
ENDROOT
BRANCH   1   2
ATOM      2  C   UNL     1     168.340 160.086 169.605  1.00  0.00     0.000 C 
BRANCH   2   3
ATOM      3  C   UNL     1     168.013 159.083 168.485  1.00  0.00    -0.000 C 
BRANCH   3   4
ATOM      4  C   UNL     1     168.372 157.638 168.866  1.00  0.00    -0.003 C 
ATOM      5  C   UNL     1     169.056 156.877 167.730  1.00  0.00     0.004 C 
ENDBRANCH   3   4
ENDBRANCH   2   3
ENDBRANCH   1   2
BRANCH   1   6
ATOM      6  C   UNL     1     170.534 160.351 170.899  1.00  0.00     0.008 C 
BRANCH   6   7
ATOM      7  C   UNL     1     171.821 159.600 170.528  1.00  0.00     0.072 C 
BRANCH   7   8
ATOM      8  C   UNL     1     171.937 159.361 169.049  1.00  0.00     0.224 C 
ATOM      9  O   UNL     1     172.758 159.983 168.396  1.00  0.00    -0.303 OA
ENDBRANCH   7   8
ENDBRANCH   6   7
ENDBRANCH   1   6
TORSDOF 6
ENDMDL
MODEL 5
REMARK VINA RESULT:    -2.845      7.366      8.417
REMARK INTER + INTRA:          -4.056
REMARK INTER:                  -3.728
REMARK INTRA:                  -0.327
REMARK UNBOUND:                -0.213
REMARK SMILES CCCCCCCC=O
REMARK SMILES IDX 5 1 4 2 3 3 2 4 1 5 6 6 7 7 8 8 9 9
REMARK H PARENT
REMARK Flexibility Score: inf
ROOT
ATOM      1  C   UNL     1     162.662 171.303 169.810  1.00  0.00     0.000 C 
ENDROOT
BRANCH   1   2
ATOM      2  C   UNL     1     161.439 172.003 170.424  1.00  0.00     0.000 C 
BRANCH   2   3
ATOM      3  C   UNL     1     160.238 171.055 170.587  1.00  0.00    -0.000 C 
BRANCH   3   4
ATOM      4  C   UNL     1     158.936 171.655 170.034  1.00  0.00    -0.003 C 
ATOM      5  C   UNL     1     158.953 171.810 168.513  1.00  0.00     0.004 C 
ENDBRANCH   3   4
ENDBRANCH   2   3
ENDBRANCH   1   2
BRANCH   1   6
ATOM      6  C   UNL     1     163.086 171.917 168.464  1.00  0.00     0.008 C 
BRANCH   6   7
ATOM      7  C   UNL     1     163.075 173.452 168.501  1.00  0.00     0.072 C 
BRANCH   7   8
ATOM      8  C   UNL     1     162.956 174.056 167.131  1.00  0.00     0.224 C 
ATOM      9  O   UNL     1     163.920 174.061 166.383  1.00  0.00    -0.303 OA
ENDBRANCH   7   8
ENDBRANCH   6   7
ENDBRANCH   1   6
TORSDOF 6
ENDMDL
MODEL 6
REMARK VINA RESULT:    -2.817      8.349      9.040
REMARK INTER + INTRA:          -4.018
REMARK INTER:                  -3.589
REMARK INTRA:                  -0.429
REMARK UNBOUND:                -0.213
REMARK SMILES CCCCCCCC=O
REMARK SMILES IDX 5 1 4 2 3 3 2 4 1 5 6 6 7 7 8 8 9 9
REMARK H PARENT
REMARK Flexibility Score: inf
ROOT
ATOM      1  C   UNL     1     169.142 156.978 168.627  1.00  0.00     0.000 C 
ENDROOT
BRANCH   1   2
ATOM      2  C   UNL     1     168.235 157.773 167.673  1.00  0.00     0.000 C 
BRANCH   2   3
ATOM      3  C   UNL     1     167.939 159.191 168.188  1.00  0.00    -0.000 C 
BRANCH   3   4
ATOM      4  C   UNL     1     167.765 159.238 169.714  1.00  0.00    -0.003 C 
ATOM      5  C   UNL     1     168.714 160.228 170.389  1.00  0.00     0.004 C 
ENDBRANCH   3   4
ENDBRANCH   2   3
ENDBRANCH   1   2
BRANCH   1   6
ATOM      6  C   UNL     1     170.623 157.017 168.211  1.00  0.00     0.008 C 
BRANCH   6   7
ATOM      7  C   UNL     1     171.441 157.983 169.080  1.00  0.00     0.072 C 
BRANCH   7   8
ATOM      8  C   UNL     1     172.484 158.720 168.288  1.00  0.00     0.224 C 
ATOM      9  O   UNL     1     172.633 159.920 168.448  1.00  0.00    -0.303 OA
ENDBRANCH   7   8
ENDBRANCH   6   7
ENDBRANCH   1   6
TORSDOF 6
ENDMDL
MODEL 7
REMARK VINA RESULT:    -2.783      7.781      8.746
REMARK INTER + INTRA:          -3.972
REMARK INTER:                  -3.695
REMARK INTRA:                  -0.277
REMARK UNBOUND:                -0.213
REMARK SMILES CCCCCCCC=O
REMARK SMILES IDX 5 1 4 2 3 3 2 4 1 5 6 6 7 7 8 8 9 9
REMARK H PARENT
REMARK Flexibility Score: inf
ROOT
ATOM      1  C   UNL     1     163.320 171.985 168.242  1.00  0.00     0.000 C 
ENDROOT
BRANCH   1   2
ATOM      2  C   UNL     1     162.744 171.326 169.506  1.00  0.00     0.000 C 
BRANCH   2   3
ATOM      3  C   UNL     1     161.541 172.097 170.075  1.00  0.00    -0.000 C 
BRANCH   3   4
ATOM      4  C   UNL     1     160.251 171.261 170.069  1.00  0.00    -0.003 C 
ATOM      5  C   UNL     1     159.232 171.749 169.039  1.00  0.00     0.004 C 
ENDBRANCH   3   4
ENDBRANCH   2   3
ENDBRANCH   1   2
BRANCH   1   6
ATOM      6  C   UNL     1     162.887 173.454 168.088  1.00  0.00     0.008 C 
BRANCH   6   7
ATOM      7  C   UNL     1     163.316 174.043 166.736  1.00  0.00     0.072 C 
BRANCH   7   8
ATOM      8  C   UNL     1     162.313 175.023 166.197  1.00  0.00     0.224 C 
ATOM      9  O   UNL     1     162.414 175.427 165.050  1.00  0.00    -0.303 OA
ENDBRANCH   7   8
ENDBRANCH   6   7
ENDBRANCH   1   6
TORSDOF 6
ENDMDL
MODEL 8
REMARK VINA RESULT:    -2.768      8.620     10.277
REMARK INTER + INTRA:          -3.952
REMARK INTER:                  -3.501
REMARK INTRA:                  -0.451
REMARK UNBOUND:                -0.213
REMARK SMILES CCCCCCCC=O
REMARK SMILES IDX 5 1 4 2 3 3 2 4 1 5 6 6 7 7 8 8 9 9
REMARK H PARENT
REMARK Flexibility Score: inf
ROOT
ATOM      1  C   UNL     1     160.930 174.473 169.444  1.00  0.00     0.000 C 
ENDROOT
BRANCH   1   2
ATOM      2  C   UNL     1     162.420 174.096 169.389  1.00  0.00     0.000 C 
BRANCH   2   3
ATOM      3  C   UNL     1     162.839 173.554 168.013  1.00  0.00    -0.000 C 
BRANCH   3   4
ATOM      4  C   UNL     1     163.227 172.068 168.060  1.00  0.00    -0.003 C 
ATOM      5  C   UNL     1     162.902 171.411 169.402  1.00  0.00     0.004 C 
ENDBRANCH   3   4
ENDBRANCH   2   3
ENDBRANCH   1   2
BRANCH   1   6
ATOM      6  C   UNL     1     160.239 174.366 168.073  1.00  0.00     0.008 C 
BRANCH   6   7
ATOM      7  C   UNL     1     158.952 173.531 168.138  1.00  0.00     0.072 C 
BRANCH   7   8
ATOM      8  C   UNL     1     159.170 172.198 168.797  1.00  0.00     0.224 C 
ATOM      9  O   UNL     1     158.502 171.236 168.457  1.00  0.00    -0.303 OA
ENDBRANCH   7   8
ENDBRANCH   6   7
ENDBRANCH   1   6
TORSDOF 6
ENDMDL
MODEL 9
REMARK VINA RESULT:    -2.747      8.834      9.865
REMARK INTER + INTRA:          -3.924
REMARK INTER:                  -3.451
REMARK INTRA:                  -0.473
REMARK UNBOUND:                -0.213
REMARK SMILES CCCCCCCC=O
REMARK SMILES IDX 5 1 4 2 3 3 2 4 1 5 6 6 7 7 8 8 9 9
REMARK H PARENT
REMARK Flexibility Score: inf
ROOT
ATOM      1  C   UNL     1     170.315 159.149 170.302  1.00  0.00     0.000 C 
ENDROOT
BRANCH   1   2
ATOM      2  C   UNL     1     171.570 159.936 169.889  1.00  0.00     0.000 C 
BRANCH   2   3
ATOM      3  C   UNL     1     172.294 159.302 168.690  1.00  0.00    -0.000 C 
BRANCH   3   4
ATOM      4  C   UNL     1     172.430 157.777 168.823  1.00  0.00    -0.003 C 
ATOM      5  C   UNL     1     172.029 157.032 167.550  1.00  0.00     0.004 C 
ENDBRANCH   3   4
ENDBRANCH   2   3
ENDBRANCH   1   2
BRANCH   1   6
ATOM      6  C   UNL     1     169.014 159.808 169.811  1.00  0.00     0.008 C 
BRANCH   6   7
ATOM      7  C   UNL     1     168.450 159.114 168.563  1.00  0.00     0.072 C 
BRANCH   7   8
ATOM      8  C   UNL     1     168.314 157.629 168.747  1.00  0.00     0.224 C 
ATOM      9  O   UNL     1     167.457 157.186 169.494  1.00  0.00    -0.303 OA
ENDBRANCH   7   8
ENDBRANCH   6   7
ENDBRANCH   1   6
TORSDOF 6
ENDMDL
