MODEL 1
REMARK VINA RESULT:    -4.843      0.000      0.000
REMARK INTER + INTRA:          -5.296
REMARK INTER:                  -5.268
REMARK INTRA:                  -0.029
REMARK UNBOUND:                -0.029
REMARK SMILES O=C([O-])c1ccc(O)cc1
REMARK SMILES IDX 4 1 5 2 10 3 6 4 9 5 7 6 2 7 1 8 3 9 8 10
REMARK H PARENT 8 11
REMARK Flexibility Score: inf
ROOT
ATOM      1  C   UNL     1     -14.431  -5.902  38.540  1.00  0.00    -0.003 A 
ATOM      2  C   UNL     1     -13.360  -6.525  39.207  1.00  0.00     0.014 A 
ATOM      3  C   UNL     1     -14.606  -6.136  37.164  1.00  0.00     0.014 A 
ATOM      4  C   UNL     1     -12.484  -7.364  38.511  1.00  0.00     0.047 A 
ATOM      5  C   UNL     1     -13.727  -6.976  36.472  1.00  0.00     0.047 A 
ATOM      6  C   UNL     1     -12.664  -7.591  37.144  1.00  0.00     0.115 A 
ENDROOT
BRANCH   1   7
ATOM      7  C   UNL     1     -15.361  -5.014  39.270  1.00  0.00     0.071 C 
ATOM      8  O   UNL     1     -14.937  -3.978  39.849  1.00  0.00    -0.545 OA
ATOM      9  O   UNL     1     -16.719  -5.310  39.328  1.00  0.00    -0.545 OA
ENDBRANCH   1   7
BRANCH   6  10
ATOM     10  O   UNL     1     -11.783  -8.430  36.464  1.00  0.00    -0.508 OA
ATOM     11  H   UNL     1     -11.578  -8.297  35.481  1.00  0.00     0.293 HD
ENDBRANCH   6  10
TORSDOF 2
ENDMDL
MODEL 2
REMARK VINA RESULT:    -4.829      0.072      1.533
REMARK INTER + INTRA:          -5.282
REMARK INTER:                  -5.253
REMARK INTRA:                  -0.029
REMARK UNBOUND:                -0.029
REMARK SMILES O=C([O-])c1ccc(O)cc1
REMARK SMILES IDX 4 1 5 2 10 3 6 4 9 5 7 6 2 7 1 8 3 9 8 10
REMARK H PARENT 8 11
REMARK Flexibility Score: inf
ROOT
ATOM      1  C   UNL     1     -14.393  -5.900  38.528  1.00  0.00    -0.003 A 
ATOM      2  C   UNL     1     -14.551  -6.171  37.157  1.00  0.00     0.014 A 
ATOM      3  C   UNL     1     -13.335  -6.508  39.227  1.00  0.00     0.014 A 
ATOM      4  C   UNL     1     -13.667  -7.033  36.500  1.00  0.00     0.047 A 
ATOM      5  C   UNL     1     -12.453  -7.369  38.566  1.00  0.00     0.047 A 
ATOM      6  C   UNL     1     -12.618  -7.634  37.200  1.00  0.00     0.115 A 
ENDROOT
BRANCH   1   7
ATOM      7  C   UNL     1     -15.324  -4.988  39.230  1.00  0.00     0.071 C 
ATOM      8  O   UNL     1     -14.895  -3.954  39.807  1.00  0.00    -0.545 OA
ATOM      9  O   UNL     1     -16.687  -5.261  39.261  1.00  0.00    -0.545 OA
ENDBRANCH   1   7
BRANCH   6  10
ATOM     10  O   UNL     1     -11.746  -8.491  36.533  1.00  0.00    -0.508 OA
ATOM     11  H   UNL     1     -11.947  -8.830  35.600  1.00  0.00     0.293 HD
ENDBRANCH   6  10
TORSDOF 2
ENDMDL
MODEL 3
REMARK VINA RESULT:    -4.755      2.133      3.240
REMARK INTER + INTRA:          -5.201
REMARK INTER:                  -5.165
REMARK INTRA:                  -0.036
REMARK UNBOUND:                -0.029
REMARK SMILES O=C([O-])c1ccc(O)cc1
REMARK SMILES IDX 4 1 5 2 10 3 6 4 9 5 7 6 2 7 1 8 3 9 8 10
REMARK H PARENT 8 11
REMARK Flexibility Score: inf
ROOT
ATOM      1  C   UNL     1     -12.862  -7.352  37.861  1.00  0.00    -0.003 A 
ATOM      2  C   UNL     1     -12.255  -8.336  37.060  1.00  0.00     0.014 A 
ATOM      3  C   UNL     1     -12.475  -7.235  39.208  1.00  0.00     0.014 A 
ATOM      4  C   UNL     1     -11.280  -9.183  37.596  1.00  0.00     0.047 A 
ATOM      5  C   UNL     1     -11.500  -8.084  39.740  1.00  0.00     0.047 A 
ATOM      6  C   UNL     1     -10.901  -9.061  38.935  1.00  0.00     0.115 A 
ENDROOT
BRANCH   1   7
ATOM      7  C   UNL     1     -13.894  -6.452  37.300  1.00  0.00     0.071 C 
ATOM      8  O   UNL     1     -14.172  -6.483  36.072  1.00  0.00    -0.545 OA
ATOM      9  O   UNL     1     -14.571  -5.558  38.122  1.00  0.00    -0.545 OA
ENDBRANCH   1   7
BRANCH   6  10
ATOM     10  O   UNL     1      -9.928  -9.912  39.456  1.00  0.00    -0.508 OA
ATOM     11  H   UNL     1     -10.101 -10.471  40.283  1.00  0.00     0.293 HD
ENDBRANCH   6  10
TORSDOF 2
ENDMDL
MODEL 4
REMARK VINA RESULT:    -4.707      1.041      4.436
REMARK INTER + INTRA:          -5.148
REMARK INTER:                  -5.120
REMARK INTRA:                  -0.028
REMARK UNBOUND:                -0.029
REMARK SMILES O=C([O-])c1ccc(O)cc1
REMARK SMILES IDX 4 1 5 2 10 3 6 4 9 5 7 6 2 7 1 8 3 9 8 10
REMARK H PARENT 8 11
REMARK Flexibility Score: inf
ROOT
ATOM      1  C   UNL     1     -12.413  -7.620  37.767  1.00  0.00    -0.003 A 
ATOM      2  C   UNL     1     -12.415  -7.218  39.115  1.00  0.00     0.014 A 
ATOM      3  C   UNL     1     -13.398  -7.112  36.902  1.00  0.00     0.014 A 
ATOM      4  C   UNL     1     -13.383  -6.325  39.587  1.00  0.00     0.047 A 
ATOM      5  C   UNL     1     -14.364  -6.219  37.377  1.00  0.00     0.047 A 
ATOM      6  C   UNL     1     -14.359  -5.825  38.721  1.00  0.00     0.115 A 
ENDROOT
BRANCH   1   7
ATOM      7  C   UNL     1     -11.391  -8.564  37.262  1.00  0.00     0.071 C 
ATOM      8  O   UNL     1     -11.382  -9.764  37.646  1.00  0.00    -0.545 OA
ATOM      9  O   UNL     1     -10.426  -8.138  36.356  1.00  0.00    -0.545 OA
ENDBRANCH   1   7
BRANCH   6  10
ATOM     10  O   UNL     1     -15.317  -4.936  39.205  1.00  0.00    -0.508 OA
ATOM     11  H   UNL     1     -15.800  -5.102  40.080  1.00  0.00     0.293 HD
ENDBRANCH   6  10
TORSDOF 2
ENDMDL
MODEL 5
REMARK VINA RESULT:    -4.700      1.043      4.684
REMARK INTER + INTRA:          -5.141
REMARK INTER:                  -5.113
REMARK INTRA:                  -0.028
REMARK UNBOUND:                -0.029
REMARK SMILES O=C([O-])c1ccc(O)cc1
REMARK SMILES IDX 4 1 5 2 10 3 6 4 9 5 7 6 2 7 1 8 3 9 8 10
REMARK H PARENT 8 11
REMARK Flexibility Score: inf
ROOT
ATOM      1  C   UNL     1     -12.421  -7.608  37.782  1.00  0.00    -0.003 A 
ATOM      2  C   UNL     1     -13.402  -7.092  36.915  1.00  0.00     0.014 A 
ATOM      3  C   UNL     1     -12.425  -7.210  39.131  1.00  0.00     0.014 A 
ATOM      4  C   UNL     1     -14.366  -6.197  37.390  1.00  0.00     0.047 A 
ATOM      5  C   UNL     1     -13.391  -6.314  39.601  1.00  0.00     0.047 A 
ATOM      6  C   UNL     1     -14.363  -5.805  38.731  1.00  0.00     0.115 A 
ENDROOT
BRANCH   1   7
ATOM      7  C   UNL     1     -11.399  -8.556  37.286  1.00  0.00     0.071 C 
ATOM      8  O   UNL     1     -11.400  -9.756  37.668  1.00  0.00    -0.545 OA
ATOM      9  O   UNL     1     -10.422  -8.133  36.392  1.00  0.00    -0.545 OA
ENDBRANCH   1   7
BRANCH   6  10
ATOM     10  O   UNL     1     -15.330  -4.913  39.190  1.00  0.00    -0.508 OA
ATOM     11  H   UNL     1     -16.112  -4.636  38.610  1.00  0.00     0.293 HD
ENDBRANCH   6  10
TORSDOF 2
ENDMDL
MODEL 6
REMARK VINA RESULT:    -4.575      1.588      1.885
REMARK INTER + INTRA:          -5.005
REMARK INTER:                  -4.978
REMARK INTRA:                  -0.027
REMARK UNBOUND:                -0.029
REMARK SMILES O=C([O-])c1ccc(O)cc1
REMARK SMILES IDX 4 1 5 2 10 3 6 4 9 5 7 6 2 7 1 8 3 9 8 10
REMARK H PARENT 8 11
REMARK Flexibility Score: inf
ROOT
ATOM      1  C   UNL     1     -14.009  -5.745  39.725  1.00  0.00    -0.003 A 
ATOM      2  C   UNL     1     -13.011  -6.694  39.437  1.00  0.00     0.014 A 
ATOM      3  C   UNL     1     -14.900  -5.362  38.707  1.00  0.00     0.014 A 
ATOM      4  C   UNL     1     -12.908  -7.248  38.157  1.00  0.00     0.047 A 
ATOM      5  C   UNL     1     -14.794  -5.918  37.428  1.00  0.00     0.047 A 
ATOM      6  C   UNL     1     -13.797  -6.862  37.150  1.00  0.00     0.115 A 
ENDROOT
BRANCH   1   7
ATOM      7  C   UNL     1     -14.123  -5.156  41.077  1.00  0.00     0.071 C 
ATOM      8  O   UNL     1     -13.625  -4.026  41.327  1.00  0.00    -0.545 OA
ATOM      9  O   UNL     1     -14.782  -5.842  42.091  1.00  0.00    -0.545 OA
ENDBRANCH   1   7
BRANCH   6  10
ATOM     10  O   UNL     1     -13.683  -7.422  35.879  1.00  0.00    -0.508 OA
ATOM     11  H   UNL     1     -14.032  -6.945  35.057  1.00  0.00     0.293 HD
ENDBRANCH   6  10
TORSDOF 2
ENDMDL
MODEL 7
REMARK VINA RESULT:    -4.570      3.015      5.116
REMARK INTER + INTRA:          -5.000
REMARK INTER:                  -4.964
REMARK INTRA:                  -0.036
REMARK UNBOUND:                -0.029
REMARK SMILES O=C([O-])c1ccc(O)cc1
REMARK SMILES IDX 4 1 5 2 10 3 6 4 9 5 7 6 2 7 1 8 3 9 8 10
REMARK H PARENT 8 11
REMARK Flexibility Score: inf
ROOT
ATOM      1  C   UNL     1     -10.884  -9.067  39.282  1.00  0.00    -0.003 A 
ATOM      2  C   UNL     1     -11.660  -7.974  39.708  1.00  0.00     0.014 A 
ATOM      3  C   UNL     1     -10.922  -9.444  37.927  1.00  0.00     0.014 A 
ATOM      4  C   UNL     1     -12.457  -7.273  38.797  1.00  0.00     0.047 A 
ATOM      5  C   UNL     1     -11.720  -8.740  37.019  1.00  0.00     0.047 A 
ATOM      6  C   UNL     1     -12.490  -7.653  37.452  1.00  0.00     0.115 A 
ENDROOT
BRANCH   1   7
ATOM      7  C   UNL     1     -10.039  -9.813  40.240  1.00  0.00     0.071 C 
ATOM      8  O   UNL     1      -9.168 -10.625  39.829  1.00  0.00    -0.545 OA
ATOM      9  O   UNL     1     -10.195  -9.626  41.610  1.00  0.00    -0.545 OA
ENDBRANCH   1   7
BRANCH   6  10
ATOM     10  O   UNL     1     -13.288  -6.946  36.556  1.00  0.00    -0.508 OA
ATOM     11  H   UNL     1     -13.024  -6.837  35.584  1.00  0.00     0.293 HD
ENDBRANCH   6  10
TORSDOF 2
ENDMDL
MODEL 8
REMARK VINA RESULT:    -4.495      9.210     10.315
REMARK INTER + INTRA:          -4.918
REMARK INTER:                  -4.882
REMARK INTRA:                  -0.036
REMARK UNBOUND:                -0.029
REMARK SMILES O=C([O-])c1ccc(O)cc1
REMARK SMILES IDX 4 1 5 2 10 3 6 4 9 5 7 6 2 7 1 8 3 9 8 10
REMARK H PARENT 8 11
REMARK Flexibility Score: inf
ROOT
ATOM      1  C   UNL     1     -15.609 -10.592  47.239  1.00  0.00    -0.003 A 
ATOM      2  C   UNL     1     -15.533 -10.957  45.883  1.00  0.00     0.014 A 
ATOM      3  C   UNL     1     -16.541  -9.615  47.631  1.00  0.00     0.014 A 
ATOM      4  C   UNL     1     -16.372 -10.356  44.939  1.00  0.00     0.047 A 
ATOM      5  C   UNL     1     -17.379  -9.016  46.684  1.00  0.00     0.047 A 
ATOM      6  C   UNL     1     -17.295  -9.385  45.336  1.00  0.00     0.115 A 
ENDROOT
BRANCH   1   7
ATOM      7  C   UNL     1     -14.725 -11.224  48.242  1.00  0.00     0.071 C 
ATOM      8  O   UNL     1     -14.851 -10.957  49.467  1.00  0.00    -0.545 OA
ATOM      9  O   UNL     1     -13.740 -12.123  47.847  1.00  0.00    -0.545 OA
ENDBRANCH   1   7
BRANCH   6  10
ATOM     10  O   UNL     1     -18.125  -8.795  44.385  1.00  0.00    -0.508 OA
ATOM     11  H   UNL     1     -18.947  -8.269  44.653  1.00  0.00     0.293 HD
ENDBRANCH   6  10
TORSDOF 2
ENDMDL
MODEL 9
REMARK VINA RESULT:    -4.462      9.167     10.251
REMARK INTER + INTRA:          -4.882
REMARK INTER:                  -4.846
REMARK INTRA:                  -0.036
REMARK UNBOUND:                -0.029
REMARK SMILES O=C([O-])c1ccc(O)cc1
REMARK SMILES IDX 4 1 5 2 10 3 6 4 9 5 7 6 2 7 1 8 3 9 8 10
REMARK H PARENT 8 11
REMARK Flexibility Score: inf
ROOT
ATOM      1  C   UNL     1     -15.638 -10.548  47.214  1.00  0.00    -0.003 A 
ATOM      2  C   UNL     1     -16.573  -9.572  47.603  1.00  0.00     0.014 A 
ATOM      3  C   UNL     1     -15.532 -10.888  45.854  1.00  0.00     0.014 A 
ATOM      4  C   UNL     1     -17.385  -8.949  46.650  1.00  0.00     0.047 A 
ATOM      5  C   UNL     1     -16.346 -10.262  44.903  1.00  0.00     0.047 A 
ATOM      6  C   UNL     1     -17.275  -9.292  45.299  1.00  0.00     0.115 A 
ENDROOT
BRANCH   1   7
ATOM      7  C   UNL     1     -14.776 -11.211  48.218  1.00  0.00     0.071 C 
ATOM      8  O   UNL     1     -13.980 -12.125  47.875  1.00  0.00    -0.545 OA
ATOM      9  O   UNL     1     -14.833 -10.832  49.555  1.00  0.00    -0.545 OA
ENDBRANCH   1   7
BRANCH   6  10
ATOM     10  O   UNL     1     -18.089  -8.663  44.361  1.00  0.00    -0.508 OA
ATOM     11  H   UNL     1     -17.801  -8.557  43.395  1.00  0.00     0.293 HD
ENDBRANCH   6  10
TORSDOF 2
ENDMDL
