MODEL 1
REMARK VINA RESULT:    12.733      0.000      0.000
REMARK INTER + INTRA:          28.647
REMARK INTER:                  29.110
REMARK INTRA:                  -0.463
REMARK UNBOUND:                -0.463
REMARK SMILES CCCCCCCCCCCCCCCCCCCCCCCC(=O)[O-]
REMARK SMILES IDX 13 1 14 2 15 3 16 4 17 5 18 6 19 7 20 8 21 9 22 10 23 11
REMARK SMILES IDX 24 12 25 13 26 14 12 15 11 16 10 17 9 18 8 19 7 20 6 21 5 22
REMARK SMILES IDX 4 23 3 24 2 25 1 26
REMARK H PARENT
REMARK Flexibility Score: inf
ROOT
ATOM      1  C   UNL     1     -14.561  30.904 -17.157  1.00  0.00     0.000 C 
ENDROOT
BRANCH   1   2
ATOM      2  C   UNL     1     -14.074  31.371 -18.545  1.00  0.00     0.000 C 
BRANCH   2   3
ATOM      3  C   UNL     1     -15.199  31.908 -19.452  1.00  0.00     0.000 C 
BRANCH   3   4
ATOM      4  C   UNL     1     -15.413  33.431 -19.386  1.00  0.00     0.000 C 
BRANCH   4   5
ATOM      5  C   UNL     1     -16.351  33.999 -20.468  1.00  0.00     0.000 C 
BRANCH   5   6
ATOM      6  C   UNL     1     -16.935  35.385 -20.115  1.00  0.00     0.000 C 
BRANCH   6   7
ATOM      7  C   UNL     1     -18.063  35.799 -21.071  1.00  0.00     0.000 C 
BRANCH   7   8
ATOM      8  C   UNL     1     -19.329  34.968 -20.829  1.00  0.00     0.000 C 
BRANCH   8   9
ATOM      9  C   UNL     1     -20.542  35.879 -20.588  1.00  0.00     0.000 C 
BRANCH   9  10
ATOM     10  C   UNL     1     -21.011  35.866 -19.124  1.00  0.00     0.006 C 
BRANCH  10  11
ATOM     11  C   UNL     1     -20.199  34.897 -18.256  1.00  0.00     0.053 C 
BRANCH  11  12
ATOM     12  C   UNL     1     -19.325  35.654 -17.307  1.00  0.00     0.041 C 
ATOM     13  O   UNL     1     -18.218  36.114 -17.693  1.00  0.00    -0.550 OA
ATOM     14  O   UNL     1     -19.753  35.892 -16.007  1.00  0.00    -0.550 OA
ENDBRANCH  11  12
ENDBRANCH  10  11
ENDBRANCH   9  10
ENDBRANCH   8   9
ENDBRANCH   7   8
ENDBRANCH   6   7
ENDBRANCH   5   6
ENDBRANCH   4   5
ENDBRANCH   3   4
ENDBRANCH   2   3
ENDBRANCH   1   2
BRANCH   1  15
ATOM     15  C   UNL     1     -14.592  29.370 -17.036  1.00  0.00     0.000 C 
BRANCH  15  16
ATOM     16  C   UNL     1     -13.406  28.817 -16.232  1.00  0.00     0.000 C 
BRANCH  16  17
ATOM     17  C   UNL     1     -12.492  27.906 -17.070  1.00  0.00     0.000 C 
BRANCH  17  18
ATOM     18  C   UNL     1     -12.409  28.362 -18.543  1.00  0.00    -0.000 C 
BRANCH  18  19
ATOM     19  C   UNL     1     -12.059  27.229 -19.528  1.00  0.00    -0.000 C 
BRANCH  19  20
ATOM     20  C   UNL     1     -11.294  26.045 -18.910  1.00  0.00    -0.000 C 
BRANCH  20  21
ATOM     21  C   UNL     1     -10.807  24.991 -19.922  1.00  0.00    -0.000 C 
BRANCH  21  22
ATOM     22  C   UNL     1     -11.900  23.990 -20.355  1.00  0.00    -0.000 C 
BRANCH  22  23
ATOM     23  C   UNL     1     -13.317  24.535 -20.105  1.00  0.00    -0.000 C 
BRANCH  23  24
ATOM     24  C   UNL     1     -14.405  23.447 -20.192  1.00  0.00    -0.000 C 
BRANCH  24  25
ATOM     25  C   UNL     1     -14.048  22.118 -19.503  1.00  0.00    -0.003 C 
ATOM     26  C   UNL     1     -14.423  20.891 -20.335  1.00  0.00     0.004 C 
ENDBRANCH  24  25
ENDBRANCH  23  24
ENDBRANCH  22  23
ENDBRANCH  21  22
ENDBRANCH  20  21
ENDBRANCH  19  20
ENDBRANCH  18  19
ENDBRANCH  17  18
ENDBRANCH  16  17
ENDBRANCH  15  16
ENDBRANCH   1  15
TORSDOF 22
ENDMDL
MODEL 2
REMARK VINA RESULT:    13.088      4.419     11.384
REMARK INTER + INTRA:          29.458
REMARK INTER:                  30.759
REMARK INTRA:                  -1.301
REMARK UNBOUND:                -0.463
REMARK SMILES CCCCCCCCCCCCCCCCCCCCCCCC(=O)[O-]
REMARK SMILES IDX 13 1 14 2 15 3 16 4 17 5 18 6 19 7 20 8 21 9 22 10 23 11
REMARK SMILES IDX 24 12 25 13 26 14 12 15 11 16 10 17 9 18 8 19 7 20 6 21 5 22
REMARK SMILES IDX 4 23 3 24 2 25 1 26
REMARK H PARENT
REMARK Flexibility Score: inf
ROOT
ATOM      1  C   UNL     1     -14.747  30.348 -17.829  1.00  0.00     0.000 C 
ENDROOT
BRANCH   1   2
ATOM      2  C   UNL     1     -14.257  30.387 -16.366  1.00  0.00     0.000 C 
BRANCH   2   3
ATOM      3  C   UNL     1     -13.743  29.030 -15.845  1.00  0.00     0.000 C 
BRANCH   3   4
ATOM      4  C   UNL     1     -13.641  27.925 -16.912  1.00  0.00     0.000 C 
BRANCH   4   5
ATOM      5  C   UNL     1     -12.233  27.727 -17.505  1.00  0.00     0.000 C 
BRANCH   5   6
ATOM      6  C   UNL     1     -12.038  28.406 -18.879  1.00  0.00     0.000 C 
BRANCH   6   7
ATOM      7  C   UNL     1     -11.731  27.391 -19.989  1.00  0.00     0.000 C 
BRANCH   7   8
ATOM      8  C   UNL     1     -12.002  25.956 -19.520  1.00  0.00     0.000 C 
BRANCH   8   9
ATOM      9  C   UNL     1     -12.930  25.226 -20.502  1.00  0.00     0.000 C 
BRANCH   9  10
ATOM     10  C   UNL     1     -13.957  24.329 -19.792  1.00  0.00     0.006 C 
BRANCH  10  11
ATOM     11  C   UNL     1     -14.063  22.938 -20.430  1.00  0.00     0.053 C 
BRANCH  11  12
ATOM     12  C   UNL     1     -14.297  21.899 -19.380  1.00  0.00     0.041 C 
ATOM     13  O   UNL     1     -14.538  20.708 -19.709  1.00  0.00    -0.550 OA
ATOM     14  O   UNL     1     -14.206  22.237 -18.035  1.00  0.00    -0.550 OA
ENDBRANCH  11  12
ENDBRANCH  10  11
ENDBRANCH   9  10
ENDBRANCH   8   9
ENDBRANCH   7   8
ENDBRANCH   6   7
ENDBRANCH   5   6
ENDBRANCH   4   5
ENDBRANCH   3   4
ENDBRANCH   2   3
ENDBRANCH   1   2
BRANCH   1  15
ATOM     15  C   UNL     1     -14.326  31.601 -18.618  1.00  0.00     0.000 C 
BRANCH  15  16
ATOM     16  C   UNL     1     -15.444  32.129 -19.529  1.00  0.00     0.000 C 
BRANCH  16  17
ATOM     17  C   UNL     1     -15.191  33.568 -20.009  1.00  0.00     0.000 C 
BRANCH  17  18
ATOM     18  C   UNL     1     -15.377  34.600 -18.875  1.00  0.00    -0.000 C 
BRANCH  18  19
ATOM     19  C   UNL     1     -16.523  35.601 -19.123  1.00  0.00    -0.000 C 
BRANCH  19  20
ATOM     20  C   UNL     1     -17.740  35.022 -19.868  1.00  0.00    -0.000 C 
BRANCH  20  21
ATOM     21  C   UNL     1     -19.082  35.703 -19.541  1.00  0.00    -0.000 C 
BRANCH  21  22
ATOM     22  C   UNL     1     -19.848  35.044 -18.373  1.00  0.00    -0.000 C 
BRANCH  22  23
ATOM     23  C   UNL     1     -20.591  36.079 -17.510  1.00  0.00    -0.000 C 
BRANCH  23  24
ATOM     24  C   UNL     1     -21.110  35.495 -16.183  1.00  0.00    -0.000 C 
BRANCH  24  25
ATOM     25  C   UNL     1     -20.496  36.116 -14.917  1.00  0.00    -0.003 C 
ATOM     26  C   UNL     1     -21.075  35.541 -13.624  1.00  0.00     0.004 C 
ENDBRANCH  24  25
ENDBRANCH  23  24
ENDBRANCH  22  23
ENDBRANCH  21  22
ENDBRANCH  20  21
ENDBRANCH  19  20
ENDBRANCH  18  19
ENDBRANCH  17  18
ENDBRANCH  16  17
ENDBRANCH  15  16
ENDBRANCH   1  15
TORSDOF 22
ENDMDL
MODEL 3
REMARK VINA RESULT:    14.076      6.852     13.497
REMARK INTER + INTRA:          31.717
REMARK INTER:                  32.416
REMARK INTRA:                  -0.699
REMARK UNBOUND:                -0.463
REMARK SMILES CCCCCCCCCCCCCCCCCCCCCCCC(=O)[O-]
REMARK SMILES IDX 13 1 14 2 15 3 16 4 17 5 18 6 19 7 20 8 21 9 22 10 23 11
REMARK SMILES IDX 24 12 25 13 26 14 12 15 11 16 10 17 9 18 8 19 7 20 6 21 5 22
REMARK SMILES IDX 4 23 3 24 2 25 1 26
REMARK H PARENT
REMARK Flexibility Score: inf
ROOT
ATOM      1  C   UNL     1     -14.173  28.857 -16.373  1.00  0.00     0.000 C 
ENDROOT
BRANCH   1   2
ATOM      2  C   UNL     1     -13.174  28.413 -15.284  1.00  0.00     0.000 C 
BRANCH   2   3
ATOM      3  C   UNL     1     -11.791  28.013 -15.833  1.00  0.00     0.000 C 
BRANCH   3   4
ATOM      4  C   UNL     1     -11.251  26.669 -15.311  1.00  0.00     0.000 C 
BRANCH   4   5
ATOM      5  C   UNL     1     -10.298  25.937 -16.275  1.00  0.00     0.000 C 
BRANCH   5   6
ATOM      6  C   UNL     1      -9.103  25.258 -15.569  1.00  0.00     0.000 C 
BRANCH   6   7
ATOM      7  C   UNL     1      -7.897  26.199 -15.437  1.00  0.00     0.000 C 
BRANCH   7   8
ATOM      8  C   UNL     1      -6.756  25.533 -14.659  1.00  0.00     0.000 C 
BRANCH   8   9
ATOM      9  C   UNL     1      -6.557  24.081 -15.119  1.00  0.00     0.000 C 
BRANCH   9  10
ATOM     10  C   UNL     1      -5.566  23.309 -14.232  1.00  0.00     0.006 C 
BRANCH  10  11
ATOM     11  C   UNL     1      -6.016  21.868 -13.964  1.00  0.00     0.053 C 
BRANCH  11  12
ATOM     12  C   UNL     1      -5.520  21.406 -12.631  1.00  0.00     0.041 C 
ATOM     13  O   UNL     1      -5.949  20.332 -12.131  1.00  0.00    -0.550 OA
ATOM     14  O   UNL     1      -4.550  22.138 -11.958  1.00  0.00    -0.550 OA
ENDBRANCH  11  12
ENDBRANCH  10  11
ENDBRANCH   9  10
ENDBRANCH   8   9
ENDBRANCH   7   8
ENDBRANCH   6   7
ENDBRANCH   5   6
ENDBRANCH   4   5
ENDBRANCH   3   4
ENDBRANCH   2   3
ENDBRANCH   1   2
BRANCH   1  15
ATOM     15  C   UNL     1     -14.071  30.362 -16.678  1.00  0.00     0.000 C 
BRANCH  15  16
ATOM     16  C   UNL     1     -14.226  30.674 -18.174  1.00  0.00     0.000 C 
BRANCH  16  17
ATOM     17  C   UNL     1     -15.207  31.828 -18.443  1.00  0.00     0.000 C 
BRANCH  17  18
ATOM     18  C   UNL     1     -14.629  32.864 -19.432  1.00  0.00    -0.000 C 
BRANCH  18  19
ATOM     19  C   UNL     1     -15.701  33.619 -20.242  1.00  0.00    -0.000 C 
BRANCH  19  20
ATOM     20  C   UNL     1     -16.088  34.998 -19.679  1.00  0.00    -0.000 C 
BRANCH  20  21
ATOM     21  C   UNL     1     -17.604  35.260 -19.595  1.00  0.00    -0.000 C 
BRANCH  21  22
ATOM     22  C   UNL     1     -18.255  34.747 -18.292  1.00  0.00    -0.000 C 
BRANCH  22  23
ATOM     23  C   UNL     1     -19.288  35.740 -17.732  1.00  0.00    -0.000 C 
BRANCH  23  24
ATOM     24  C   UNL     1     -20.525  35.896 -18.636  1.00  0.00    -0.000 C 
BRANCH  24  25
ATOM     25  C   UNL     1     -21.046  34.587 -19.253  1.00  0.00    -0.003 C 
ATOM     26  C   UNL     1     -20.668  34.425 -20.726  1.00  0.00     0.004 C 
ENDBRANCH  24  25
ENDBRANCH  23  24
ENDBRANCH  22  23
ENDBRANCH  21  22
ENDBRANCH  20  21
ENDBRANCH  19  20
ENDBRANCH  18  19
ENDBRANCH  17  18
ENDBRANCH  16  17
ENDBRANCH  15  16
ENDBRANCH   1  15
TORSDOF 22
ENDMDL
MODEL 4
REMARK VINA RESULT:    14.314      4.434     11.548
REMARK INTER + INTRA:          32.261
REMARK INTER:                  32.643
REMARK INTRA:                  -0.381
REMARK UNBOUND:                -0.463
REMARK SMILES CCCCCCCCCCCCCCCCCCCCCCCC(=O)[O-]
REMARK SMILES IDX 13 1 14 2 15 3 16 4 17 5 18 6 19 7 20 8 21 9 22 10 23 11
REMARK SMILES IDX 24 12 25 13 26 14 12 15 11 16 10 17 9 18 8 19 7 20 6 21 5 22
REMARK SMILES IDX 4 23 3 24 2 25 1 26
REMARK H PARENT
REMARK Flexibility Score: inf
ROOT
ATOM      1  C   UNL     1     -13.704  29.306 -16.324  1.00  0.00     0.000 C 
ENDROOT
BRANCH   1   2
ATOM      2  C   UNL     1     -12.490  28.556 -16.913  1.00  0.00     0.000 C 
BRANCH   2   3
ATOM      3  C   UNL     1     -12.339  28.717 -18.439  1.00  0.00     0.000 C 
BRANCH   3   4
ATOM      4  C   UNL     1     -11.601  27.563 -19.141  1.00  0.00     0.000 C 
BRANCH   4   5
ATOM      5  C   UNL     1     -12.454  26.304 -19.386  1.00  0.00     0.000 C 
BRANCH   5   6
ATOM      6  C   UNL     1     -11.749  25.236 -20.252  1.00  0.00     0.000 C 
BRANCH   6   7
ATOM      7  C   UNL     1     -12.312  23.829 -20.009  1.00  0.00     0.000 C 
BRANCH   7   8
ATOM      8  C   UNL     1     -13.682  23.656 -20.677  1.00  0.00     0.000 C 
BRANCH   8   9
ATOM      9  C   UNL     1     -14.616  22.811 -19.797  1.00  0.00     0.000 C 
BRANCH   9  10
ATOM     10  C   UNL     1     -14.241  21.320 -19.797  1.00  0.00     0.006 C 
BRANCH  10  11
ATOM     11  C   UNL     1     -15.260  20.459 -20.556  1.00  0.00     0.053 C 
BRANCH  11  12
ATOM     12  C   UNL     1     -16.602  20.543 -19.902  1.00  0.00     0.041 C 
ATOM     13  O   UNL     1     -17.083  19.540 -19.308  1.00  0.00    -0.550 OA
ATOM     14  O   UNL     1     -17.306  21.740 -19.909  1.00  0.00    -0.550 OA
ENDBRANCH  11  12
ENDBRANCH  10  11
ENDBRANCH   9  10
ENDBRANCH   8   9
ENDBRANCH   7   8
ENDBRANCH   6   7
ENDBRANCH   5   6
ENDBRANCH   4   5
ENDBRANCH   3   4
ENDBRANCH   2   3
ENDBRANCH   1   2
BRANCH   1  15
ATOM     15  C   UNL     1     -14.654  29.826 -17.417  1.00  0.00     0.000 C 
BRANCH  15  16
ATOM     16  C   UNL     1     -14.191  31.163 -18.014  1.00  0.00     0.000 C 
BRANCH  16  17
ATOM     17  C   UNL     1     -15.084  31.639 -19.173  1.00  0.00     0.000 C 
BRANCH  17  18
ATOM     18  C   UNL     1     -15.110  33.178 -19.293  1.00  0.00    -0.000 C 
BRANCH  18  19
ATOM     19  C   UNL     1     -16.522  33.788 -19.188  1.00  0.00    -0.000 C 
BRANCH  19  20
ATOM     20  C   UNL     1     -17.227  34.030 -20.535  1.00  0.00    -0.000 C 
BRANCH  20  21
ATOM     21  C   UNL     1     -17.623  35.494 -20.804  1.00  0.00    -0.000 C 
BRANCH  21  22
ATOM     22  C   UNL     1     -18.991  35.890 -20.208  1.00  0.00    -0.000 C 
BRANCH  22  23
ATOM     23  C   UNL     1     -19.936  34.683 -20.073  1.00  0.00    -0.000 C 
BRANCH  23  24
ATOM     24  C   UNL     1     -20.368  34.416 -18.619  1.00  0.00    -0.000 C 
BRANCH  24  25
ATOM     25  C   UNL     1     -20.926  35.642 -17.874  1.00  0.00    -0.003 C 
ATOM     26  C   UNL     1     -20.021  36.116 -16.737  1.00  0.00     0.004 C 
ENDBRANCH  24  25
ENDBRANCH  23  24
ENDBRANCH  22  23
ENDBRANCH  21  22
ENDBRANCH  20  21
ENDBRANCH  19  20
ENDBRANCH  18  19
ENDBRANCH  17  18
ENDBRANCH  16  17
ENDBRANCH  15  16
ENDBRANCH   1  15
TORSDOF 22
ENDMDL
MODEL 5
REMARK VINA RESULT:    14.503      4.494     11.427
REMARK INTER + INTRA:          32.692
REMARK INTER:                  33.540
REMARK INTRA:                  -0.849
REMARK UNBOUND:                -0.463
REMARK SMILES CCCCCCCCCCCCCCCCCCCCCCCC(=O)[O-]
REMARK SMILES IDX 13 1 14 2 15 3 16 4 17 5 18 6 19 7 20 8 21 9 22 10 23 11
REMARK SMILES IDX 24 12 25 13 26 14 12 15 11 16 10 17 9 18 8 19 7 20 6 21 5 22
REMARK SMILES IDX 4 23 3 24 2 25 1 26
REMARK H PARENT
REMARK Flexibility Score: inf
ROOT
ATOM      1  C   UNL     1     -14.740  30.064 -17.505  1.00  0.00     0.000 C 
ENDROOT
BRANCH   1   2
ATOM      2  C   UNL     1     -13.961  29.594 -16.259  1.00  0.00     0.000 C 
BRANCH   2   3
ATOM      3  C   UNL     1     -12.977  28.440 -16.538  1.00  0.00     0.000 C 
BRANCH   3   4
ATOM      4  C   UNL     1     -12.159  28.587 -17.834  1.00  0.00     0.000 C 
BRANCH   4   5
ATOM      5  C   UNL     1     -12.476  27.541 -18.920  1.00  0.00     0.000 C 
BRANCH   5   6
ATOM      6  C   UNL     1     -11.483  26.358 -18.949  1.00  0.00     0.000 C 
BRANCH   6   7
ATOM      7  C   UNL     1     -11.794  25.368 -20.081  1.00  0.00     0.000 C 
BRANCH   7   8
ATOM      8  C   UNL     1     -13.224  24.825 -19.967  1.00  0.00     0.000 C 
BRANCH   8   9
ATOM      9  C   UNL     1     -13.519  23.825 -21.095  1.00  0.00     0.000 C 
BRANCH   9  10
ATOM     10  C   UNL     1     -13.522  22.367 -20.608  1.00  0.00     0.006 C 
BRANCH  10  11
ATOM     11  C   UNL     1     -14.793  21.613 -21.018  1.00  0.00     0.053 C 
BRANCH  11  12
ATOM     12  C   UNL     1     -15.397  20.927 -19.834  1.00  0.00     0.041 C 
ATOM     13  O   UNL     1     -16.644  20.945 -19.658  1.00  0.00    -0.550 OA
ATOM     14  O   UNL     1     -14.587  20.229 -18.947  1.00  0.00    -0.550 OA
ENDBRANCH  11  12
ENDBRANCH  10  11
ENDBRANCH   9  10
ENDBRANCH   8   9
ENDBRANCH   7   8
ENDBRANCH   6   7
ENDBRANCH   5   6
ENDBRANCH   4   5
ENDBRANCH   3   4
ENDBRANCH   2   3
ENDBRANCH   1   2
BRANCH   1  15
ATOM     15  C   UNL     1     -14.564  31.570 -17.769  1.00  0.00     0.000 C 
BRANCH  15  16
ATOM     16  C   UNL     1     -15.191  32.014 -19.099  1.00  0.00     0.000 C 
BRANCH  16  17
ATOM     17  C   UNL     1     -14.985  33.512 -19.383  1.00  0.00     0.000 C 
BRANCH  17  18
ATOM     18  C   UNL     1     -15.545  33.924 -20.762  1.00  0.00    -0.000 C 
BRANCH  18  19
ATOM     19  C   UNL     1     -16.939  34.578 -20.700  1.00  0.00    -0.000 C 
BRANCH  19  20
ATOM     20  C   UNL     1     -17.090  35.686 -19.643  1.00  0.00    -0.000 C 
BRANCH  20  21
ATOM     21  C   UNL     1     -17.244  35.182 -18.195  1.00  0.00    -0.000 C 
BRANCH  21  22
ATOM     22  C   UNL     1     -18.678  34.735 -17.839  1.00  0.00    -0.000 C 
BRANCH  22  23
ATOM     23  C   UNL     1     -19.587  35.927 -17.493  1.00  0.00    -0.000 C 
BRANCH  23  24
ATOM     24  C   UNL     1     -20.797  36.056 -18.437  1.00  0.00    -0.000 C 
BRANCH  24  25
ATOM     25  C   UNL     1     -21.119  34.792 -19.254  1.00  0.00    -0.003 C 
ATOM     26  C   UNL     1     -20.469  34.790 -20.637  1.00  0.00     0.004 C 
ENDBRANCH  24  25
ENDBRANCH  23  24
ENDBRANCH  22  23
ENDBRANCH  21  22
ENDBRANCH  20  21
ENDBRANCH  19  20
ENDBRANCH  18  19
ENDBRANCH  17  18
ENDBRANCH  16  17
ENDBRANCH  15  16
ENDBRANCH   1  15
TORSDOF 22
ENDMDL
MODEL 6
REMARK VINA RESULT:    15.292      4.258      5.148
REMARK INTER + INTRA:          34.497
REMARK INTER:                  33.070
REMARK INTRA:                   1.427
REMARK UNBOUND:                -0.463
REMARK SMILES CCCCCCCCCCCCCCCCCCCCCCCC(=O)[O-]
REMARK SMILES IDX 13 1 14 2 15 3 16 4 17 5 18 6 19 7 20 8 21 9 22 10 23 11
REMARK SMILES IDX 24 12 25 13 26 14 12 15 11 16 10 17 9 18 8 19 7 20 6 21 5 22
REMARK SMILES IDX 4 23 3 24 2 25 1 26
REMARK H PARENT
REMARK Flexibility Score: inf
ROOT
ATOM      1  C   UNL     1     -14.295  29.187 -16.327  1.00  0.00     0.000 C 
ENDROOT
BRANCH   1   2
ATOM      2  C   UNL     1     -13.865  30.203 -17.407  1.00  0.00     0.000 C 
BRANCH   2   3
ATOM      3  C   UNL     1     -15.033  31.021 -17.992  1.00  0.00     0.000 C 
BRANCH   3   4
ATOM      4  C   UNL     1     -14.626  32.068 -19.045  1.00  0.00     0.000 C 
BRANCH   4   5
ATOM      5  C   UNL     1     -15.796  32.867 -19.648  1.00  0.00     0.000 C 
BRANCH   5   6
ATOM      6  C   UNL     1     -15.402  33.709 -20.881  1.00  0.00     0.000 C 
BRANCH   6   7
ATOM      7  C   UNL     1     -16.374  34.873 -21.124  1.00  0.00     0.000 C 
BRANCH   7   8
ATOM      8  C   UNL     1     -17.590  34.783 -20.194  1.00  0.00     0.000 C 
BRANCH   8   9
ATOM      9  C   UNL     1     -18.841  35.359 -20.875  1.00  0.00     0.000 C 
BRANCH   9  10
ATOM     10  C   UNL     1     -20.061  35.396 -19.939  1.00  0.00     0.006 C 
BRANCH  10  11
ATOM     11  C   UNL     1     -19.872  34.521 -18.693  1.00  0.00     0.053 C 
BRANCH  11  12
ATOM     12  C   UNL     1     -18.831  35.110 -17.795  1.00  0.00     0.041 C 
ATOM     13  O   UNL     1     -18.176  36.122 -18.161  1.00  0.00    -0.550 OA
ATOM     14  O   UNL     1     -18.614  34.569 -16.534  1.00  0.00    -0.550 OA
ENDBRANCH  11  12
ENDBRANCH  10  11
ENDBRANCH   9  10
ENDBRANCH   8   9
ENDBRANCH   7   8
ENDBRANCH   6   7
ENDBRANCH   5   6
ENDBRANCH   4   5
ENDBRANCH   3   4
ENDBRANCH   2   3
ENDBRANCH   1   2
BRANCH   1  15
ATOM     15  C   UNL     1     -13.108  28.703 -15.476  1.00  0.00     0.000 C 
BRANCH  15  16
ATOM     16  C   UNL     1     -12.394  27.491 -16.092  1.00  0.00     0.000 C 
BRANCH  16  17
ATOM     17  C   UNL     1     -10.941  27.346 -15.607  1.00  0.00     0.000 C 
BRANCH  17  18
ATOM     18  C   UNL     1     -10.589  25.884 -15.257  1.00  0.00    -0.000 C 
BRANCH  18  19
ATOM     19  C   UNL     1      -9.246  25.407 -15.845  1.00  0.00    -0.000 C 
BRANCH  19  20
ATOM     20  C   UNL     1      -8.057  26.351 -15.595  1.00  0.00    -0.000 C 
BRANCH  20  21
ATOM     21  C   UNL     1      -6.849  25.697 -14.896  1.00  0.00    -0.000 C 
BRANCH  21  22
ATOM     22  C   UNL     1      -6.986  24.170 -14.711  1.00  0.00    -0.000 C 
BRANCH  22  23
ATOM     23  C   UNL     1      -5.637  23.503 -14.391  1.00  0.00    -0.000 C 
BRANCH  23  24
ATOM     24  C   UNL     1      -5.781  22.032 -13.956  1.00  0.00    -0.000 C 
BRANCH  24  25
ATOM     25  C   UNL     1      -5.267  21.722 -12.539  1.00  0.00    -0.003 C 
ATOM     26  C   UNL     1      -6.141  20.715 -11.791  1.00  0.00     0.004 C 
ENDBRANCH  24  25
ENDBRANCH  23  24
ENDBRANCH  22  23
ENDBRANCH  21  22
ENDBRANCH  20  21
ENDBRANCH  19  20
ENDBRANCH  18  19
ENDBRANCH  17  18
ENDBRANCH  16  17
ENDBRANCH  15  16
ENDBRANCH   1  15
TORSDOF 22
ENDMDL
MODEL 7
REMARK VINA RESULT:    15.716      1.582      3.403
REMARK INTER + INTRA:          35.465
REMARK INTER:                  35.528
REMARK INTRA:                  -0.063
REMARK UNBOUND:                -0.463
REMARK SMILES CCCCCCCCCCCCCCCCCCCCCCCC(=O)[O-]
REMARK SMILES IDX 13 1 14 2 15 3 16 4 17 5 18 6 19 7 20 8 21 9 22 10 23 11
REMARK SMILES IDX 24 12 25 13 26 14 12 15 11 16 10 17 9 18 8 19 7 20 6 21 5 22
REMARK SMILES IDX 4 23 3 24 2 25 1 26
REMARK H PARENT
REMARK Flexibility Score: inf
ROOT
ATOM      1  C   UNL     1     -12.793  28.707 -15.999  1.00  0.00     0.000 C 
ENDROOT
BRANCH   1   2
ATOM      2  C   UNL     1     -14.313  28.476 -16.138  1.00  0.00     0.000 C 
BRANCH   2   3
ATOM      3  C   UNL     1     -15.020  29.505 -17.042  1.00  0.00     0.000 C 
BRANCH   3   4
ATOM      4  C   UNL     1     -14.083  30.523 -17.717  1.00  0.00     0.000 C 
BRANCH   4   5
ATOM      5  C   UNL     1     -14.685  31.929 -17.904  1.00  0.00     0.000 C 
BRANCH   5   6
ATOM      6  C   UNL     1     -14.793  32.364 -19.383  1.00  0.00     0.000 C 
BRANCH   6   7
ATOM      7  C   UNL     1     -15.886  33.422 -19.596  1.00  0.00     0.000 C 
BRANCH   7   8
ATOM      8  C   UNL     1     -15.755  34.568 -18.586  1.00  0.00     0.000 C 
BRANCH   8   9
ATOM      9  C   UNL     1     -16.271  35.885 -19.186  1.00  0.00     0.000 C 
BRANCH   9  10
ATOM     10  C   UNL     1     -17.804  35.986 -19.162  1.00  0.00     0.006 C 
BRANCH  10  11
ATOM     11  C   UNL     1     -18.442  35.009 -18.166  1.00  0.00     0.053 C 
BRANCH  11  12
ATOM     12  C   UNL     1     -19.793  34.583 -18.646  1.00  0.00     0.041 C 
ATOM     13  O   UNL     1     -20.829  34.938 -18.023  1.00  0.00    -0.550 OA
ATOM     14  O   UNL     1     -19.912  33.829 -19.807  1.00  0.00    -0.550 OA
ENDBRANCH  11  12
ENDBRANCH  10  11
ENDBRANCH   9  10
ENDBRANCH   8   9
ENDBRANCH   7   8
ENDBRANCH   6   7
ENDBRANCH   5   6
ENDBRANCH   4   5
ENDBRANCH   3   4
ENDBRANCH   2   3
ENDBRANCH   1   2
BRANCH   1  15
ATOM     15  C   UNL     1     -12.087  28.776 -17.364  1.00  0.00     0.000 C 
BRANCH  15  16
ATOM     16  C   UNL     1     -12.103  27.432 -18.106  1.00  0.00     0.000 C 
BRANCH  16  17
ATOM     17  C   UNL     1     -11.947  27.590 -19.629  1.00  0.00     0.000 C 
BRANCH  17  18
ATOM     18  C   UNL     1     -12.005  26.233 -20.363  1.00  0.00    -0.000 C 
BRANCH  18  19
ATOM     19  C   UNL     1     -12.814  25.154 -19.618  1.00  0.00    -0.000 C 
BRANCH  19  20
ATOM     20  C   UNL     1     -13.112  23.885 -20.437  1.00  0.00    -0.000 C 
BRANCH  20  21
ATOM     21  C   UNL     1     -14.380  23.122 -20.009  1.00  0.00    -0.000 C 
BRANCH  21  22
ATOM     22  C   UNL     1     -14.134  21.631 -19.690  1.00  0.00    -0.000 C 
BRANCH  22  23
ATOM     23  C   UNL     1     -14.831  20.701 -20.698  1.00  0.00    -0.000 C 
BRANCH  23  24
ATOM     24  C   UNL     1     -16.297  20.403 -20.328  1.00  0.00    -0.000 C 
BRANCH  24  25
ATOM     25  C   UNL     1     -16.487  19.601 -19.028  1.00  0.00    -0.003 C 
ATOM     26  C   UNL     1     -17.522  18.484 -19.158  1.00  0.00     0.004 C 
ENDBRANCH  24  25
ENDBRANCH  23  24
ENDBRANCH  22  23
ENDBRANCH  21  22
ENDBRANCH  20  21
ENDBRANCH  19  20
ENDBRANCH  18  19
ENDBRANCH  17  18
ENDBRANCH  16  17
ENDBRANCH  15  16
ENDBRANCH   1  15
TORSDOF 22
ENDMDL
