MODEL 1
REMARK VINA RESULT:    -7.693      0.000      0.000
REMARK INTER + INTRA:         -12.398
REMARK INTER:                 -11.740
REMARK INTRA:                  -0.658
REMARK UNBOUND:                -0.658
REMARK SMILES CC(=O)CCC=C(C)CCC=C(C)CCC=C(C)C
REMARK SMILES IDX 10 1 11 2 12 3 13 4 14 5 15 6 16 7 18 8 17 9 19 10 9 11 7 12
REMARK SMILES IDX 6 13 8 14 5 15 4 16 2 17 3 18 1 19
REMARK H PARENT
REMARK Flexibility Score: inf
ROOT
ATOM      1  C   UNL     1      14.698  17.555  30.859  1.00  0.00     0.032 C 
ENDROOT
BRANCH   1   2
ATOM      2  C   UNL     1      13.846  16.337  30.615  1.00  0.00    -0.028 C 
ATOM      3  C   UNL     1      12.582  16.372  30.135  1.00  0.00    -0.077 C 
ATOM      4  C   UNL     1      11.869  17.674  29.858  1.00  0.00     0.039 C 
BRANCH   3   5
ATOM      5  C   UNL     1      11.880  15.071  29.804  1.00  0.00     0.034 C 
BRANCH   5   6
ATOM      6  C   UNL     1      10.660  15.302  28.900  1.00  0.00     0.032 C 
BRANCH   6   7
ATOM      7  C   UNL     1      10.864  14.746  27.511  1.00  0.00    -0.028 C 
ATOM      8  C   UNL     1      11.147  13.034  25.774  1.00  0.00     0.039 C 
ATOM      9  C   UNL     1      10.869  13.432  27.200  1.00  0.00    -0.080 C 
ATOM     10  C   UNL     1      10.587  12.363  28.230  1.00  0.00     0.039 C 
ENDBRANCH   6   7
ENDBRANCH   5   6
ENDBRANCH   3   5
ENDBRANCH   1   2
BRANCH   1  11
ATOM     11  C   UNL     1      15.718  17.278  31.969  1.00  0.00     0.034 C 
BRANCH  11  12
ATOM     12  C   UNL     1      16.970  18.102  31.764  1.00  0.00    -0.077 C 
ATOM     13  C   UNL     1      16.854  19.435  31.570  1.00  0.00    -0.028 C 
ATOM     14  C   UNL     1      18.314  17.415  31.802  1.00  0.00     0.039 C 
BRANCH  13  15
ATOM     15  C   UNL     1      18.013  20.364  31.306  1.00  0.00     0.035 C 
BRANCH  15  16
ATOM     16  C   UNL     1      18.452  21.062  32.602  1.00  0.00     0.079 C 
BRANCH  16  17
ATOM     17  C   UNL     1      17.817  22.416  32.828  1.00  0.00     0.130 C 
ATOM     18  O   UNL     1      17.853  22.892  33.952  1.00  0.00    -0.300 OA
ATOM     19  C   UNL     1      17.138  23.196  31.735  1.00  0.00     0.087 C 
ENDBRANCH  16  17
ENDBRANCH  15  16
ENDBRANCH  13  15
ENDBRANCH  11  12
ENDBRANCH   1  11
TORSDOF 9
ENDMDL
MODEL 2
REMARK VINA RESULT:    -7.616      3.268      9.684
REMARK INTER + INTRA:         -12.281
REMARK INTER:                 -11.689
REMARK INTRA:                  -0.592
REMARK UNBOUND:                -0.658
REMARK SMILES CC(=O)CCC=C(C)CCC=C(C)CCC=C(C)C
REMARK SMILES IDX 10 1 11 2 12 3 13 4 14 5 15 6 16 7 18 8 17 9 19 10 9 11 7 12
REMARK SMILES IDX 6 13 8 14 5 15 4 16 2 17 3 18 1 19
REMARK H PARENT
REMARK Flexibility Score: inf
ROOT
ATOM      1  C   UNL     1      15.689  17.369  31.352  1.00  0.00     0.032 C 
ENDROOT
BRANCH   1   2
ATOM      2  C   UNL     1      16.456  18.666  31.350  1.00  0.00    -0.028 C 
ATOM      3  C   UNL     1      17.755  18.785  31.705  1.00  0.00    -0.077 C 
ATOM      4  C   UNL     1      18.556  17.610  32.214  1.00  0.00     0.039 C 
BRANCH   3   5
ATOM      5  C   UNL     1      18.450  20.119  31.528  1.00  0.00     0.034 C 
BRANCH   5   6
ATOM      6  C   UNL     1      18.113  21.089  32.670  1.00  0.00     0.032 C 
BRANCH   6   7
ATOM      7  C   UNL     1      17.660  22.437  32.161  1.00  0.00    -0.028 C 
ATOM      8  C   UNL     1      17.052  24.813  32.271  1.00  0.00     0.039 C 
ATOM      9  C   UNL     1      17.582  23.557  32.912  1.00  0.00    -0.080 C 
ATOM     10  C   UNL     1      18.027  23.587  34.355  1.00  0.00     0.039 C 
ENDBRANCH   6   7
ENDBRANCH   5   6
ENDBRANCH   3   5
ENDBRANCH   1   2
BRANCH   1  11
ATOM     11  C   UNL     1      14.338  17.547  30.651  1.00  0.00     0.034 C 
BRANCH  11  12
ATOM     12  C   UNL     1      13.537  16.265  30.697  1.00  0.00    -0.077 C 
ATOM     13  C   UNL     1      12.491  16.113  29.853  1.00  0.00    -0.028 C 
ATOM     14  C   UNL     1      13.941  15.183  31.670  1.00  0.00     0.039 C 
BRANCH  13  15
ATOM     15  C   UNL     1      11.582  14.909  29.828  1.00  0.00     0.035 C 
BRANCH  15  16
ATOM     16  C   UNL     1      10.829  14.831  28.492  1.00  0.00     0.079 C 
BRANCH  16  17
ATOM     17  C   UNL     1      10.945  13.497  27.786  1.00  0.00     0.130 C 
ATOM     18  O   UNL     1      10.875  12.479  28.457  1.00  0.00    -0.300 OA
ATOM     19  C   UNL     1      11.149  13.370  26.301  1.00  0.00     0.087 C 
ENDBRANCH  16  17
ENDBRANCH  15  16
ENDBRANCH  13  15
ENDBRANCH  11  12
ENDBRANCH   1  11
TORSDOF 9
ENDMDL
MODEL 3
REMARK VINA RESULT:    -6.851      2.774      9.339
REMARK INTER + INTRA:         -11.113
REMARK INTER:                 -10.237
REMARK INTRA:                  -0.876
REMARK UNBOUND:                -0.658
REMARK SMILES CC(=O)CCC=C(C)CCC=C(C)CCC=C(C)C
REMARK SMILES IDX 10 1 11 2 12 3 13 4 14 5 15 6 16 7 18 8 17 9 19 10 9 11 7 12
REMARK SMILES IDX 6 13 8 14 5 15 4 16 2 17 3 18 1 19
REMARK H PARENT
REMARK Flexibility Score: inf
ROOT
ATOM      1  C   UNL     1      18.000  18.029  31.653  1.00  0.00     0.032 C 
ENDROOT
BRANCH   1   2
ATOM      2  C   UNL     1      18.276  19.169  32.597  1.00  0.00    -0.028 C 
ATOM      3  C   UNL     1      18.283  20.473  32.238  1.00  0.00    -0.077 C 
ATOM      4  C   UNL     1      18.077  20.909  30.807  1.00  0.00     0.039 C 
BRANCH   3   5
ATOM      5  C   UNL     1      18.438  21.533  33.309  1.00  0.00     0.034 C 
BRANCH   5   6
ATOM      6  C   UNL     1      17.237  22.491  33.334  1.00  0.00     0.032 C 
BRANCH   6   7
ATOM      7  C   UNL     1      17.661  23.938  33.405  1.00  0.00    -0.028 C 
ATOM      8  C   UNL     1      17.950  26.255  32.644  1.00  0.00     0.039 C 
ATOM      9  C   UNL     1      17.407  24.862  32.454  1.00  0.00    -0.080 C 
ATOM     10  C   UNL     1      16.583  24.545  31.228  1.00  0.00     0.039 C 
ENDBRANCH   6   7
ENDBRANCH   5   6
ENDBRANCH   3   5
ENDBRANCH   1   2
BRANCH   1  11
ATOM     11  C   UNL     1      16.785  17.223  32.130  1.00  0.00     0.034 C 
BRANCH  11  12
ATOM     12  C   UNL     1      15.581  17.504  31.259  1.00  0.00    -0.077 C 
ATOM     13  C   UNL     1      14.467  16.754  31.418  1.00  0.00    -0.028 C 
ATOM     14  C   UNL     1      15.650  18.626  30.251  1.00  0.00     0.039 C 
BRANCH  13  15
ATOM     15  C   UNL     1      13.217  16.896  30.586  1.00  0.00     0.035 C 
BRANCH  15  16
ATOM     16  C   UNL     1      12.622  15.516  30.267  1.00  0.00     0.079 C 
BRANCH  16  17
ATOM     17  C   UNL     1      11.380  15.555  29.404  1.00  0.00     0.130 C 
ATOM     18  O   UNL     1      10.601  16.483  29.552  1.00  0.00    -0.300 OA
ATOM     19  C   UNL     1      11.059  14.500  28.381  1.00  0.00     0.087 C 
ENDBRANCH  16  17
ENDBRANCH  15  16
ENDBRANCH  13  15
ENDBRANCH  11  12
ENDBRANCH   1  11
TORSDOF 9
ENDMDL
MODEL 4
REMARK VINA RESULT:    -6.777      3.055      9.721
REMARK INTER + INTRA:         -11.000
REMARK INTER:                  -9.869
REMARK INTRA:                  -1.132
REMARK UNBOUND:                -0.658
REMARK SMILES CC(=O)CCC=C(C)CCC=C(C)CCC=C(C)C
REMARK SMILES IDX 10 1 11 2 12 3 13 4 14 5 15 6 16 7 18 8 17 9 19 10 9 11 7 12
REMARK SMILES IDX 6 13 8 14 5 15 4 16 2 17 3 18 1 19
REMARK H PARENT
REMARK Flexibility Score: inf
ROOT
ATOM      1  C   UNL     1      17.684  21.167  31.822  1.00  0.00     0.032 C 
ENDROOT
BRANCH   1   2
ATOM      2  C   UNL     1      18.034  22.168  32.892  1.00  0.00    -0.028 C 
ATOM      3  C   UNL     1      17.158  23.045  33.432  1.00  0.00    -0.077 C 
ATOM      4  C   UNL     1      15.731  23.149  32.950  1.00  0.00     0.039 C 
BRANCH   3   5
ATOM      5  C   UNL     1      17.598  23.906  34.598  1.00  0.00     0.034 C 
BRANCH   5   6
ATOM      6  C   UNL     1      18.351  25.158  34.125  1.00  0.00     0.032 C 
BRANCH   6   7
ATOM      7  C   UNL     1      17.414  26.288  33.770  1.00  0.00    -0.028 C 
ATOM      8  C   UNL     1      16.214  27.867  32.321  1.00  0.00     0.039 C 
ATOM      9  C   UNL     1      17.123  26.680  32.511  1.00  0.00    -0.080 C 
ATOM     10  C   UNL     1      17.662  25.954  31.300  1.00  0.00     0.039 C 
ENDBRANCH   6   7
ENDBRANCH   5   6
ENDBRANCH   3   5
ENDBRANCH   1   2
BRANCH   1  11
ATOM     11  C   UNL     1      18.732  20.048  31.775  1.00  0.00     0.034 C 
BRANCH  11  12
ATOM     12  C   UNL     1      18.080  18.696  31.958  1.00  0.00    -0.077 C 
ATOM     13  C   UNL     1      16.804  18.521  31.546  1.00  0.00    -0.028 C 
ATOM     14  C   UNL     1      18.880  17.574  32.577  1.00  0.00     0.039 C 
BRANCH  13  15
ATOM     15  C   UNL     1      16.021  17.242  31.712  1.00  0.00     0.035 C 
BRANCH  15  16
ATOM     16  C   UNL     1      14.619  17.385  31.101  1.00  0.00     0.079 C 
BRANCH  16  17
ATOM     17  C   UNL     1      13.804  16.110  31.103  1.00  0.00     0.130 C 
ATOM     18  O   UNL     1      14.155  15.199  31.837  1.00  0.00    -0.300 OA
ATOM     19  C   UNL     1      12.588  15.913  30.239  1.00  0.00     0.087 C 
ENDBRANCH  16  17
ENDBRANCH  15  16
ENDBRANCH  13  15
ENDBRANCH  11  12
ENDBRANCH   1  11
TORSDOF 9
ENDMDL
MODEL 5
REMARK VINA RESULT:    -6.750      1.439      3.064
REMARK INTER + INTRA:         -10.959
REMARK INTER:                  -9.882
REMARK INTRA:                  -1.077
REMARK UNBOUND:                -0.658
REMARK SMILES CC(=O)CCC=C(C)CCC=C(C)CCC=C(C)C
REMARK SMILES IDX 10 1 11 2 12 3 13 4 14 5 15 6 16 7 18 8 17 9 19 10 9 11 7 12
REMARK SMILES IDX 6 13 8 14 5 15 4 16 2 17 3 18 1 19
REMARK H PARENT
REMARK Flexibility Score: inf
ROOT
ATOM      1  C   UNL     1      18.075  17.776  31.562  1.00  0.00     0.032 C 
ENDROOT
BRANCH   1   2
ATOM      2  C   UNL     1      16.789  17.113  31.981  1.00  0.00    -0.028 C 
ATOM      3  C   UNL     1      15.604  17.280  31.353  1.00  0.00    -0.077 C 
ATOM      4  C   UNL     1      15.445  18.225  30.185  1.00  0.00     0.039 C 
BRANCH   3   5
ATOM      5  C   UNL     1      14.413  16.451  31.787  1.00  0.00     0.034 C 
BRANCH   5   6
ATOM      6  C   UNL     1      13.177  16.739  30.922  1.00  0.00     0.032 C 
BRANCH   6   7
ATOM      7  C   UNL     1      12.799  15.561  30.055  1.00  0.00    -0.028 C 
ATOM      8  C   UNL     1      11.365  14.154  28.643  1.00  0.00     0.039 C 
ATOM      9  C   UNL     1      11.614  15.419  29.424  1.00  0.00    -0.080 C 
ATOM     10  C   UNL     1      10.550  16.490  29.465  1.00  0.00     0.039 C 
ENDBRANCH   6   7
ENDBRANCH   5   6
ENDBRANCH   3   5
ENDBRANCH   1   2
BRANCH   1  11
ATOM     11  C   UNL     1      18.775  18.398  32.777  1.00  0.00     0.034 C 
BRANCH  11  12
ATOM     12  C   UNL     1      18.609  19.901  32.779  1.00  0.00    -0.077 C 
ATOM     13  C   UNL     1      17.987  20.495  31.736  1.00  0.00    -0.028 C 
ATOM     14  C   UNL     1      19.125  20.694  33.957  1.00  0.00     0.039 C 
BRANCH  13  15
ATOM     15  C   UNL     1      17.799  21.985  31.589  1.00  0.00     0.035 C 
BRANCH  15  16
ATOM     16  C   UNL     1      16.462  22.423  32.207  1.00  0.00     0.079 C 
BRANCH  16  17
ATOM     17  C   UNL     1      16.543  23.682  33.041  1.00  0.00     0.130 C 
ATOM     18  O   UNL     1      15.782  23.799  33.990  1.00  0.00    -0.300 OA
ATOM     19  C   UNL     1      17.510  24.798  32.752  1.00  0.00     0.087 C 
ENDBRANCH  16  17
ENDBRANCH  15  16
ENDBRANCH  13  15
ENDBRANCH  11  12
ENDBRANCH   1  11
TORSDOF 9
ENDMDL
MODEL 6
REMARK VINA RESULT:    -6.604      3.431      8.975
REMARK INTER + INTRA:         -10.736
REMARK INTER:                  -9.969
REMARK INTRA:                  -0.767
REMARK UNBOUND:                -0.658
REMARK SMILES CC(=O)CCC=C(C)CCC=C(C)CCC=C(C)C
REMARK SMILES IDX 10 1 11 2 12 3 13 4 14 5 15 6 16 7 18 8 17 9 19 10 9 11 7 12
REMARK SMILES IDX 6 13 8 14 5 15 4 16 2 17 3 18 1 19
REMARK H PARENT
REMARK Flexibility Score: inf
ROOT
ATOM      1  C   UNL     1      17.402  21.375  31.122  1.00  0.00     0.032 C 
ENDROOT
BRANCH   1   2
ATOM      2  C   UNL     1      16.970  22.104  32.367  1.00  0.00    -0.028 C 
ATOM      3  C   UNL     1      16.583  23.399  32.398  1.00  0.00    -0.077 C 
ATOM      4  C   UNL     1      16.615  24.272  31.166  1.00  0.00     0.039 C 
BRANCH   3   5
ATOM      5  C   UNL     1      16.039  23.978  33.688  1.00  0.00     0.034 C 
BRANCH   5   6
ATOM      6  C   UNL     1      15.263  25.280  33.440  1.00  0.00     0.032 C 
BRANCH   6   7
ATOM      7  C   UNL     1      14.051  25.401  34.333  1.00  0.00    -0.028 C 
ATOM      8  C   UNL     1      11.673  25.613  34.910  1.00  0.00     0.039 C 
ATOM      9  C   UNL     1      12.773  25.426  33.897  1.00  0.00    -0.080 C 
ATOM     10  C   UNL     1      12.420  25.252  32.438  1.00  0.00     0.039 C 
ENDBRANCH   6   7
ENDBRANCH   5   6
ENDBRANCH   3   5
ENDBRANCH   1   2
BRANCH   1  11
ATOM     11  C   UNL     1      18.473  20.331  31.460  1.00  0.00     0.034 C 
BRANCH  11  12
ATOM     12  C   UNL     1      17.840  18.989  31.755  1.00  0.00    -0.077 C 
ATOM     13  C   UNL     1      16.559  18.771  31.382  1.00  0.00    -0.028 C 
ATOM     14  C   UNL     1      18.664  17.925  32.440  1.00  0.00     0.039 C 
BRANCH  13  15
ATOM     15  C   UNL     1      15.794  17.501  31.657  1.00  0.00     0.035 C 
BRANCH  15  16
ATOM     16  C   UNL     1      14.586  17.383  30.715  1.00  0.00     0.079 C 
BRANCH  16  17
ATOM     17  C   UNL     1      13.767  16.126  30.903  1.00  0.00     0.130 C 
ATOM     18  O   UNL     1      14.150  15.302  31.719  1.00  0.00    -0.300 OA
ATOM     19  C   UNL     1      12.509  15.843  30.128  1.00  0.00     0.087 C 
ENDBRANCH  16  17
ENDBRANCH  15  16
ENDBRANCH  13  15
ENDBRANCH  11  12
ENDBRANCH   1  11
TORSDOF 9
ENDMDL
MODEL 7
REMARK VINA RESULT:    -6.502      3.051      9.670
REMARK INTER + INTRA:         -10.580
REMARK INTER:                  -9.588
REMARK INTRA:                  -0.992
REMARK UNBOUND:                -0.658
REMARK SMILES CC(=O)CCC=C(C)CCC=C(C)CCC=C(C)C
REMARK SMILES IDX 10 1 11 2 12 3 13 4 14 5 15 6 16 7 18 8 17 9 19 10 9 11 7 12
REMARK SMILES IDX 6 13 8 14 5 15 4 16 2 17 3 18 1 19
REMARK H PARENT
REMARK Flexibility Score: inf
ROOT
ATOM      1  C   UNL     1      17.236  21.635  31.221  1.00  0.00     0.032 C 
ENDROOT
BRANCH   1   2
ATOM      2  C   UNL     1      17.674  23.012  31.644  1.00  0.00    -0.028 C 
ATOM      3  C   UNL     1      17.039  23.765  32.571  1.00  0.00    -0.077 C 
ATOM      4  C   UNL     1      15.762  23.306  33.233  1.00  0.00     0.039 C 
BRANCH   3   5
ATOM      5  C   UNL     1      17.657  25.077  33.008  1.00  0.00     0.034 C 
BRANCH   5   6
ATOM      6  C   UNL     1      17.111  26.258  32.193  1.00  0.00     0.032 C 
BRANCH   6   7
ATOM      7  C   UNL     1      18.135  26.810  31.229  1.00  0.00    -0.028 C 
ATOM      8  C   UNL     1      19.125  27.379  29.056  1.00  0.00     0.039 C 
ATOM      9  C   UNL     1      17.985  26.852  29.888  1.00  0.00    -0.080 C 
ATOM     10  C   UNL     1      16.710  26.409  29.209  1.00  0.00     0.039 C 
ENDBRANCH   6   7
ENDBRANCH   5   6
ENDBRANCH   3   5
ENDBRANCH   1   2
BRANCH   1  11
ATOM     11  C   UNL     1      18.368  20.624  31.443  1.00  0.00     0.034 C 
BRANCH  11  12
ATOM     12  C   UNL     1      17.810  19.248  31.729  1.00  0.00    -0.077 C 
ATOM     13  C   UNL     1      16.509  18.998  31.459  1.00  0.00    -0.028 C 
ATOM     14  C   UNL     1      18.726  18.187  32.291  1.00  0.00     0.039 C 
BRANCH  13  15
ATOM     15  C   UNL     1      15.815  17.689  31.741  1.00  0.00     0.035 C 
BRANCH  15  16
ATOM     16  C   UNL     1      14.746  17.404  30.674  1.00  0.00     0.079 C 
BRANCH  16  17
ATOM     17  C   UNL     1      13.884  16.194  30.961  1.00  0.00     0.130 C 
ATOM     18  O   UNL     1      14.262  15.401  31.810  1.00  0.00    -0.300 OA
ATOM     19  C   UNL     1      12.590  15.921  30.244  1.00  0.00     0.087 C 
ENDBRANCH  16  17
ENDBRANCH  15  16
ENDBRANCH  13  15
ENDBRANCH  11  12
ENDBRANCH   1  11
TORSDOF 9
ENDMDL
MODEL 8
REMARK VINA RESULT:    -6.372      3.006      5.960
REMARK INTER + INTRA:         -10.382
REMARK INTER:                  -9.796
REMARK INTRA:                  -0.586
REMARK UNBOUND:                -0.658
REMARK SMILES CC(=O)CCC=C(C)CCC=C(C)CCC=C(C)C
REMARK SMILES IDX 10 1 11 2 12 3 13 4 14 5 15 6 16 7 18 8 17 9 19 10 9 11 7 12
REMARK SMILES IDX 6 13 8 14 5 15 4 16 2 17 3 18 1 19
REMARK H PARENT
REMARK Flexibility Score: inf
ROOT
ATOM      1  C   UNL     1      17.984  21.823  31.756  1.00  0.00     0.032 C 
ENDROOT
BRANCH   1   2
ATOM      2  C   UNL     1      17.705  20.426  31.265  1.00  0.00    -0.028 C 
ATOM      3  C   UNL     1      18.185  19.303  31.845  1.00  0.00    -0.077 C 
ATOM      4  C   UNL     1      19.125  19.353  33.026  1.00  0.00     0.039 C 
BRANCH   3   5
ATOM      5  C   UNL     1      17.720  17.953  31.340  1.00  0.00     0.034 C 
BRANCH   5   6
ATOM      6  C   UNL     1      16.471  17.468  32.090  1.00  0.00     0.032 C 
BRANCH   6   7
ATOM      7  C   UNL     1      15.205  17.692  31.298  1.00  0.00    -0.028 C 
ATOM      8  C   UNL     1      13.062  17.123  30.242  1.00  0.00     0.039 C 
ATOM      9  C   UNL     1      14.240  16.765  31.111  1.00  0.00    -0.080 C 
ATOM     10  C   UNL     1      14.301  15.402  31.758  1.00  0.00     0.039 C 
ENDBRANCH   6   7
ENDBRANCH   5   6
ENDBRANCH   3   5
ENDBRANCH   1   2
BRANCH   1  11
ATOM     11  C   UNL     1      17.228  22.090  33.063  1.00  0.00     0.034 C 
BRANCH  11  12
ATOM     12  C   UNL     1      17.822  23.274  33.793  1.00  0.00    -0.077 C 
ATOM     13  C   UNL     1      17.681  24.510  33.263  1.00  0.00    -0.028 C 
ATOM     14  C   UNL     1      18.537  23.045  35.103  1.00  0.00     0.039 C 
BRANCH  13  15
ATOM     15  C   UNL     1      18.264  25.767  33.860  1.00  0.00     0.035 C 
BRANCH  15  16
ATOM     16  C   UNL     1      18.230  26.915  32.840  1.00  0.00     0.079 C 
BRANCH  16  17
ATOM     17  C   UNL     1      17.224  26.732  31.726  1.00  0.00     0.130 C 
ATOM     18  O   UNL     1      16.048  26.957  31.963  1.00  0.00    -0.300 OA
ATOM     19  C   UNL     1      17.606  26.278  30.343  1.00  0.00     0.087 C 
ENDBRANCH  16  17
ENDBRANCH  15  16
ENDBRANCH  13  15
ENDBRANCH  11  12
ENDBRANCH   1  11
TORSDOF 9
ENDMDL
MODEL 9
REMARK VINA RESULT:    -6.336      4.818      8.552
REMARK INTER + INTRA:         -10.327
REMARK INTER:                  -9.455
REMARK INTRA:                  -0.872
REMARK UNBOUND:                -0.658
REMARK SMILES CC(=O)CCC=C(C)CCC=C(C)CCC=C(C)C
REMARK SMILES IDX 10 1 11 2 12 3 13 4 14 5 15 6 16 7 18 8 17 9 19 10 9 11 7 12
REMARK SMILES IDX 6 13 8 14 5 15 4 16 2 17 3 18 1 19
REMARK H PARENT
REMARK Flexibility Score: inf
ROOT
ATOM      1  C   UNL     1      16.460  24.326  31.551  1.00  0.00     0.032 C 
ENDROOT
BRANCH   1   2
ATOM      2  C   UNL     1      17.222  23.028  31.596  1.00  0.00    -0.028 C 
ATOM      3  C   UNL     1      17.766  22.501  32.717  1.00  0.00    -0.077 C 
ATOM      4  C   UNL     1      17.715  23.219  34.044  1.00  0.00     0.039 C 
BRANCH   3   5
ATOM      5  C   UNL     1      18.390  21.121  32.657  1.00  0.00     0.034 C 
BRANCH   5   6
ATOM      6  C   UNL     1      18.100  20.427  31.318  1.00  0.00     0.032 C 
BRANCH   6   7
ATOM      7  C   UNL     1      16.891  19.525  31.391  1.00  0.00    -0.028 C 
ATOM      8  C   UNL     1      15.641  17.427  31.645  1.00  0.00     0.039 C 
ATOM      9  C   UNL     1      16.931  18.204  31.668  1.00  0.00    -0.080 C 
ATOM     10  C   UNL     1      18.220  17.497  32.017  1.00  0.00     0.039 C 
ENDBRANCH   6   7
ENDBRANCH   5   6
ENDBRANCH   3   5
ENDBRANCH   1   2
BRANCH   1  11
ATOM     11  C   UNL     1      17.419  25.500  31.323  1.00  0.00     0.034 C 
BRANCH  11  12
ATOM     12  C   UNL     1      17.164  26.147  29.980  1.00  0.00    -0.077 C 
ATOM     13  C   UNL     1      15.942  26.026  29.414  1.00  0.00    -0.028 C 
ATOM     14  C   UNL     1      18.276  26.928  29.319  1.00  0.00     0.039 C 
BRANCH  13  15
ATOM     15  C   UNL     1      15.569  26.579  28.061  1.00  0.00     0.035 C 
BRANCH  15  16
ATOM     16  C   UNL     1      15.822  25.535  26.963  1.00  0.00     0.079 C 
BRANCH  16  17
ATOM     17  C   UNL     1      15.833  26.095  25.558  1.00  0.00     0.130 C 
ATOM     18  O   UNL     1      14.773  26.165  24.954  1.00  0.00    -0.300 OA
ATOM     19  C   UNL     1      17.087  26.562  24.870  1.00  0.00     0.087 C 
ENDBRANCH  16  17
ENDBRANCH  15  16
ENDBRANCH  13  15
ENDBRANCH  11  12
ENDBRANCH   1  11
TORSDOF 9
ENDMDL
