MODEL 1
REMARK VINA RESULT:    -5.857      0.000      0.000
REMARK INTER + INTRA:          -7.984
REMARK INTER:                  -7.398
REMARK INTRA:                  -0.587
REMARK UNBOUND:                -0.587
REMARK SMILES O=C(C=Cc1ccc(O)cc1)c1ccc(O)cc1O
REMARK SMILES IDX 4 1 3 2 5 3 6 4 7 5 8 6 11 7 10 8 9 9 2 11 1 12 12 13 18 14
REMARK SMILES IDX 13 15 17 16 14 17 15 18 19 19 16 21
REMARK H PARENT 9 10 19 20 16 22
REMARK Flexibility Score: inf
ROOT
ATOM      1  C   UNL     1      -2.872  -0.931  22.228  1.00  0.00     0.012 C 
ATOM      2  C   UNL     1      -1.586  -1.289  22.098  1.00  0.00     0.053 C 
ENDROOT
BRANCH   1   3
ATOM      3  C   UNL     1      -3.733  -0.514  21.093  1.00  0.00    -0.025 A 
ATOM      4  C   UNL     1      -3.233   0.189  19.978  1.00  0.00     0.012 A 
ATOM      5  C   UNL     1      -4.086   0.550  18.929  1.00  0.00     0.047 A 
ATOM      6  C   UNL     1      -5.443   0.209  18.975  1.00  0.00     0.115 A 
ATOM      7  C   UNL     1      -5.093  -0.864  21.119  1.00  0.00     0.012 A 
ATOM      8  C   UNL     1      -5.942  -0.500  20.070  1.00  0.00     0.047 A 
BRANCH   6   9
ATOM      9  O   UNL     1      -6.301   0.566  17.937  1.00  0.00    -0.508 OA
ATOM     10  H   UNL     1      -6.177   0.202  16.999  1.00  0.00     0.293 HD
ENDBRANCH   6   9
ENDBRANCH   1   3
BRANCH   2  11
ATOM     11  C   UNL     1      -0.750  -1.701  23.245  1.00  0.00     0.189 C 
ATOM     12  O   UNL     1      -0.891  -1.088  24.337  1.00  0.00    -0.289 OA
BRANCH  11  13
ATOM     13  C   UNL     1       0.245  -2.795  23.167  1.00  0.00     0.064 A 
ATOM     14  C   UNL     1       0.078  -3.996  23.889  1.00  0.00     0.130 A 
ATOM     15  C   UNL     1       1.400  -2.617  22.388  1.00  0.00     0.020 A 
ATOM     16  C   UNL     1       1.042  -5.010  23.788  1.00  0.00     0.093 A 
ATOM     17  C   UNL     1       2.357  -3.631  22.297  1.00  0.00     0.047 A 
ATOM     18  C   UNL     1       2.178  -4.832  22.994  1.00  0.00     0.119 A 
BRANCH  14  19
ATOM     19  O   UNL     1      -1.030  -4.172  24.719  1.00  0.00    -0.507 OA
ATOM     20  H   UNL     1      -0.930  -4.451  25.687  1.00  0.00     0.293 HD
ENDBRANCH  14  19
BRANCH  18  21
ATOM     21  O   UNL     1       3.124  -5.850  22.907  1.00  0.00    -0.508 OA
ATOM     22  H   UNL     1       4.116  -5.661  22.991  1.00  0.00     0.293 HD
ENDBRANCH  18  21
ENDBRANCH  11  13
ENDBRANCH   2  11
TORSDOF 6
ENDMDL
MODEL 2
REMARK VINA RESULT:    -5.767      1.621      2.254
REMARK INTER + INTRA:          -7.870
REMARK INTER:                  -7.252
REMARK INTRA:                  -0.618
REMARK UNBOUND:                -0.587
REMARK SMILES O=C(C=Cc1ccc(O)cc1)c1ccc(O)cc1O
REMARK SMILES IDX 4 1 3 2 5 3 6 4 7 5 8 6 11 7 10 8 9 9 2 11 1 12 12 13 18 14
REMARK SMILES IDX 13 15 17 16 14 17 15 18 19 19 16 21
REMARK H PARENT 9 10 19 20 16 22
REMARK Flexibility Score: inf
ROOT
ATOM      1  C   UNL     1      -1.733  -0.054  20.203  1.00  0.00     0.012 C 
ATOM      2  C   UNL     1      -1.445  -1.068  21.033  1.00  0.00     0.053 C 
ENDROOT
BRANCH   1   3
ATOM      3  C   UNL     1      -3.103   0.262  19.730  1.00  0.00    -0.025 A 
ATOM      4  C   UNL     1      -3.506   1.568  19.385  1.00  0.00     0.012 A 
ATOM      5  C   UNL     1      -4.808   1.811  18.934  1.00  0.00     0.047 A 
ATOM      6  C   UNL     1      -5.720   0.756  18.813  1.00  0.00     0.115 A 
ATOM      7  C   UNL     1      -4.024  -0.791  19.589  1.00  0.00     0.012 A 
ATOM      8  C   UNL     1      -5.324  -0.544  19.139  1.00  0.00     0.047 A 
BRANCH   6   9
ATOM      9  O   UNL     1      -7.020   0.987  18.367  1.00  0.00    -0.508 OA
ATOM     10  H   UNL     1      -7.369   0.567  17.514  1.00  0.00     0.293 HD
ENDBRANCH   6   9
ENDBRANCH   1   3
BRANCH   2  11
ATOM     11  C   UNL     1      -0.070  -1.362  21.490  1.00  0.00     0.189 C 
ATOM     12  O   UNL     1       0.853  -0.572  21.152  1.00  0.00    -0.289 OA
BRANCH  11  13
ATOM     13  C   UNL     1       0.271  -2.542  22.318  1.00  0.00     0.064 A 
ATOM     14  C   UNL     1       1.307  -3.425  21.950  1.00  0.00     0.130 A 
ATOM     15  C   UNL     1      -0.482  -2.808  23.474  1.00  0.00     0.020 A 
ATOM     16  C   UNL     1       1.601  -4.531  22.762  1.00  0.00     0.093 A 
ATOM     17  C   UNL     1      -0.185  -3.915  24.273  1.00  0.00     0.047 A 
ATOM     18  C   UNL     1       0.860  -4.777  23.921  1.00  0.00     0.119 A 
BRANCH  14  19
ATOM     19  O   UNL     1       2.028  -3.217  20.774  1.00  0.00    -0.507 OA
ATOM     20  H   UNL     1       2.041  -3.903  20.029  1.00  0.00     0.293 HD
ENDBRANCH  14  19
BRANCH  18  21
ATOM     21  O   UNL     1       1.167  -5.881  24.713  1.00  0.00    -0.508 OA
ATOM     22  H   UNL     1       0.582  -6.708  24.718  1.00  0.00     0.293 HD
ENDBRANCH  18  21
ENDBRANCH  11  13
ENDBRANCH   2  11
TORSDOF 6
ENDMDL
MODEL 3
REMARK VINA RESULT:    -5.602      3.767      4.969
REMARK INTER + INTRA:          -7.663
REMARK INTER:                  -6.974
REMARK INTRA:                  -0.689
REMARK UNBOUND:                -0.587
REMARK SMILES O=C(C=Cc1ccc(O)cc1)c1ccc(O)cc1O
REMARK SMILES IDX 4 1 3 2 5 3 6 4 7 5 8 6 11 7 10 8 9 9 2 11 1 12 12 13 18 14
REMARK SMILES IDX 13 15 17 16 14 17 15 18 19 19 16 21
REMARK H PARENT 9 10 19 20 16 22
REMARK Flexibility Score: inf
ROOT
ATOM      1  C   UNL     1      -0.140  -3.175  23.905  1.00  0.00     0.012 C 
ATOM      2  C   UNL     1       0.730  -2.449  23.186  1.00  0.00     0.053 C 
ENDROOT
BRANCH   1   3
ATOM      3  C   UNL     1      -1.392  -2.628  24.483  1.00  0.00    -0.025 A 
ATOM      4  C   UNL     1      -1.999  -3.171  25.635  1.00  0.00     0.012 A 
ATOM      5  C   UNL     1      -3.174  -2.610  26.145  1.00  0.00     0.047 A 
ATOM      6  C   UNL     1      -3.755  -1.499  25.522  1.00  0.00     0.115 A 
ATOM      7  C   UNL     1      -1.976  -1.503  23.876  1.00  0.00     0.012 A 
ATOM      8  C   UNL     1      -3.151  -0.947  24.389  1.00  0.00     0.047 A 
BRANCH   6   9
ATOM      9  O   UNL     1      -4.927  -0.935  26.021  1.00  0.00    -0.508 OA
ATOM     10  H   UNL     1      -5.397  -1.323  26.831  1.00  0.00     0.293 HD
ENDBRANCH   6   9
ENDBRANCH   1   3
BRANCH   2  11
ATOM     11  C   UNL     1       1.971  -3.018  22.619  1.00  0.00     0.189 C 
ATOM     12  O   UNL     1       3.045  -2.860  23.260  1.00  0.00    -0.289 OA
BRANCH  11  13
ATOM     13  C   UNL     1       2.009  -3.757  21.337  1.00  0.00     0.064 A 
ATOM     14  C   UNL     1       2.501  -5.077  21.261  1.00  0.00     0.130 A 
ATOM     15  C   UNL     1       1.582  -3.114  20.163  1.00  0.00     0.020 A 
ATOM     16  C   UNL     1       2.519  -5.745  20.028  1.00  0.00     0.093 A 
ATOM     17  C   UNL     1       1.609  -3.786  18.938  1.00  0.00     0.047 A 
ATOM     18  C   UNL     1       2.073  -5.105  18.868  1.00  0.00     0.119 A 
BRANCH  14  19
ATOM     19  O   UNL     1       2.988  -5.715  22.402  1.00  0.00    -0.507 OA
ATOM     20  H   UNL     1       2.370  -6.179  23.058  1.00  0.00     0.293 HD
ENDBRANCH  14  19
BRANCH  18  21
ATOM     21  O   UNL     1       2.100  -5.784  17.653  1.00  0.00    -0.508 OA
ATOM     22  H   UNL     1       2.019  -6.793  17.608  1.00  0.00     0.293 HD
ENDBRANCH  18  21
ENDBRANCH  11  13
ENDBRANCH   2  11
TORSDOF 6
ENDMDL
MODEL 4
REMARK VINA RESULT:    -5.594      4.658      6.578
REMARK INTER + INTRA:          -7.652
REMARK INTER:                  -7.088
REMARK INTRA:                  -0.564
REMARK UNBOUND:                -0.587
REMARK SMILES O=C(C=Cc1ccc(O)cc1)c1ccc(O)cc1O
REMARK SMILES IDX 4 1 3 2 5 3 6 4 7 5 8 6 11 7 10 8 9 9 2 11 1 12 12 13 18 14
REMARK SMILES IDX 13 15 17 16 14 17 15 18 19 19 16 21
REMARK H PARENT 9 10 19 20 16 22
REMARK Flexibility Score: inf
ROOT
ATOM      1  C   UNL     1       1.770  -3.744  22.745  1.00  0.00     0.012 C 
ATOM      2  C   UNL     1       0.654  -3.929  23.464  1.00  0.00     0.053 C 
ENDROOT
BRANCH   1   3
ATOM      3  C   UNL     1       1.907  -4.128  21.318  1.00  0.00    -0.025 A 
ATOM      4  C   UNL     1       2.464  -5.357  20.911  1.00  0.00     0.012 A 
ATOM      5  C   UNL     1       2.560  -5.674  19.552  1.00  0.00     0.047 A 
ATOM      6  C   UNL     1       2.095  -4.776  18.583  1.00  0.00     0.115 A 
ATOM      7  C   UNL     1       1.430  -3.242  20.337  1.00  0.00     0.012 A 
ATOM      8  C   UNL     1       1.528  -3.562  18.980  1.00  0.00     0.047 A 
BRANCH   6   9
ATOM      9  O   UNL     1       2.188  -5.082  17.227  1.00  0.00    -0.508 OA
ATOM     10  H   UNL     1       3.013  -4.846  16.687  1.00  0.00     0.293 HD
ENDBRANCH   6   9
ENDBRANCH   1   3
BRANCH   2  11
ATOM     11  C   UNL     1       0.543  -3.537  24.886  1.00  0.00     0.189 C 
ATOM     12  O   UNL     1       1.569  -3.634  25.612  1.00  0.00    -0.289 OA
BRANCH  11  13
ATOM     13  C   UNL     1      -0.715  -3.043  25.491  1.00  0.00     0.064 A 
ATOM     14  C   UNL     1      -0.707  -2.089  26.531  1.00  0.00     0.130 A 
ATOM     15  C   UNL     1      -1.941  -3.567  25.048  1.00  0.00     0.020 A 
ATOM     16  C   UNL     1      -1.919  -1.644  27.078  1.00  0.00     0.093 A 
ATOM     17  C   UNL     1      -3.143  -3.120  25.603  1.00  0.00     0.047 A 
ATOM     18  C   UNL     1      -3.136  -2.155  26.617  1.00  0.00     0.119 A 
BRANCH  14  19
ATOM     19  O   UNL     1       0.501  -1.600  27.030  1.00  0.00    -0.507 OA
ATOM     20  H   UNL     1       0.721  -1.637  28.019  1.00  0.00     0.293 HD
ENDBRANCH  14  19
BRANCH  18  21
ATOM     21  O   UNL     1      -4.329  -1.702  27.174  1.00  0.00    -0.508 OA
ATOM     22  H   UNL     1      -5.219  -2.120  26.932  1.00  0.00     0.293 HD
ENDBRANCH  18  21
ENDBRANCH  11  13
ENDBRANCH   2  11
TORSDOF 6
ENDMDL
MODEL 5
REMARK VINA RESULT:    -5.582      4.869      6.360
REMARK INTER + INTRA:          -7.638
REMARK INTER:                  -6.971
REMARK INTRA:                  -0.666
REMARK UNBOUND:                -0.587
REMARK SMILES O=C(C=Cc1ccc(O)cc1)c1ccc(O)cc1O
REMARK SMILES IDX 4 1 3 2 5 3 6 4 7 5 8 6 11 7 10 8 9 9 2 11 1 12 12 13 18 14
REMARK SMILES IDX 13 15 17 16 14 17 15 18 19 19 16 21
REMARK H PARENT 9 10 19 20 16 22
REMARK Flexibility Score: inf
ROOT
ATOM      1  C   UNL     1       2.042  -3.748  22.653  1.00  0.00     0.012 C 
ATOM      2  C   UNL     1       1.978  -2.473  23.066  1.00  0.00     0.053 C 
ENDROOT
BRANCH   1   3
ATOM      3  C   UNL     1       2.060  -4.154  21.225  1.00  0.00    -0.025 A 
ATOM      4  C   UNL     1       2.530  -5.412  20.798  1.00  0.00     0.012 A 
ATOM      5  C   UNL     1       2.516  -5.749  19.441  1.00  0.00     0.047 A 
ATOM      6  C   UNL     1       2.026  -4.841  18.494  1.00  0.00     0.115 A 
ATOM      7  C   UNL     1       1.555  -3.258  20.268  1.00  0.00     0.012 A 
ATOM      8  C   UNL     1       1.544  -3.598  18.912  1.00  0.00     0.047 A 
BRANCH   6   9
ATOM      9  O   UNL     1       2.009  -5.166  17.140  1.00  0.00    -0.508 OA
ATOM     10  H   UNL     1       1.277  -5.745  16.743  1.00  0.00     0.293 HD
ENDBRANCH   6   9
ENDBRANCH   1   3
BRANCH   2  11
ATOM     11  C   UNL     1       1.961  -2.095  24.495  1.00  0.00     0.189 C 
ATOM     12  O   UNL     1       3.061  -1.850  25.060  1.00  0.00    -0.289 OA
BRANCH  11  13
ATOM     13  C   UNL     1       0.716  -1.999  25.291  1.00  0.00     0.064 A 
ATOM     14  C   UNL     1       0.409  -2.939  26.297  1.00  0.00     0.130 A 
ATOM     15  C   UNL     1      -0.200  -0.971  25.008  1.00  0.00     0.020 A 
ATOM     16  C   UNL     1      -0.780  -2.813  27.030  1.00  0.00     0.093 A 
ATOM     17  C   UNL     1      -1.384  -0.856  25.741  1.00  0.00     0.047 A 
ATOM     18  C   UNL     1      -1.675  -1.775  26.757  1.00  0.00     0.119 A 
BRANCH  14  19
ATOM     19  O   UNL     1       1.273  -4.004  26.553  1.00  0.00    -0.507 OA
ATOM     20  H   UNL     1       0.929  -4.950  26.675  1.00  0.00     0.293 HD
ENDBRANCH  14  19
BRANCH  18  21
ATOM     21  O   UNL     1      -2.851  -1.668  27.495  1.00  0.00    -0.508 OA
ATOM     22  H   UNL     1      -3.125  -0.795  27.930  1.00  0.00     0.293 HD
ENDBRANCH  18  21
ENDBRANCH  11  13
ENDBRANCH   2  11
TORSDOF 6
ENDMDL
MODEL 6
REMARK VINA RESULT:    -5.427      5.214      6.397
REMARK INTER + INTRA:          -7.441
REMARK INTER:                  -6.854
REMARK INTRA:                  -0.587
REMARK UNBOUND:                -0.587
REMARK SMILES O=C(C=Cc1ccc(O)cc1)c1ccc(O)cc1O
REMARK SMILES IDX 4 1 3 2 5 3 6 4 7 5 8 6 11 7 10 8 9 9 2 11 1 12 12 13 18 14
REMARK SMILES IDX 13 15 17 16 14 17 15 18 19 19 16 21
REMARK H PARENT 9 10 19 20 16 22
REMARK Flexibility Score: inf
ROOT
ATOM      1  C   UNL     1       1.971  -2.841  22.429  1.00  0.00     0.012 C 
ATOM      2  C   UNL     1       2.753  -3.066  23.496  1.00  0.00     0.053 C 
ENDROOT
BRANCH   1   3
ATOM      3  C   UNL     1       2.008  -3.657  21.190  1.00  0.00    -0.025 A 
ATOM      4  C   UNL     1       2.395  -5.012  21.183  1.00  0.00     0.012 A 
ATOM      5  C   UNL     1       2.403  -5.738  19.987  1.00  0.00     0.047 A 
ATOM      6  C   UNL     1       2.017  -5.128  18.788  1.00  0.00     0.115 A 
ATOM      7  C   UNL     1       1.607  -3.059  19.983  1.00  0.00     0.012 A 
ATOM      8  C   UNL     1       1.617  -3.789  18.790  1.00  0.00     0.047 A 
BRANCH   6   9
ATOM      9  O   UNL     1       2.023  -5.842  17.592  1.00  0.00    -0.508 OA
ATOM     10  H   UNL     1       1.946  -5.374  16.696  1.00  0.00     0.293 HD
ENDBRANCH   6   9
ENDBRANCH   1   3
BRANCH   2  11
ATOM     11  C   UNL     1       2.696  -2.238  24.719  1.00  0.00     0.189 C 
ATOM     12  O   UNL     1       3.038  -1.028  24.637  1.00  0.00    -0.289 OA
BRANCH  11  13
ATOM     13  C   UNL     1       2.262  -2.767  26.032  1.00  0.00     0.064 A 
ATOM     14  C   UNL     1       1.019  -2.410  26.596  1.00  0.00     0.130 A 
ATOM     15  C   UNL     1       3.125  -3.612  26.750  1.00  0.00     0.020 A 
ATOM     16  C   UNL     1       0.642  -2.933  27.842  1.00  0.00     0.093 A 
ATOM     17  C   UNL     1       2.742  -4.125  27.992  1.00  0.00     0.047 A 
ATOM     18  C   UNL     1       1.499  -3.790  28.540  1.00  0.00     0.119 A 
BRANCH  14  19
ATOM     19  O   UNL     1       0.172  -1.523  25.931  1.00  0.00    -0.507 OA
ATOM     20  H   UNL     1      -0.803  -1.743  25.763  1.00  0.00     0.293 HD
ENDBRANCH  14  19
BRANCH  18  21
ATOM     21  O   UNL     1       1.107  -4.298  29.776  1.00  0.00    -0.508 OA
ATOM     22  H   UNL     1       1.733  -4.858  30.341  1.00  0.00     0.293 HD
ENDBRANCH  18  21
ENDBRANCH  11  13
ENDBRANCH   2  11
TORSDOF 6
ENDMDL
MODEL 7
REMARK VINA RESULT:    -5.366      1.698      7.645
REMARK INTER + INTRA:          -7.364
REMARK INTER:                  -7.290
REMARK INTRA:                  -0.075
REMARK UNBOUND:                -0.587
REMARK SMILES O=C(C=Cc1ccc(O)cc1)c1ccc(O)cc1O
REMARK SMILES IDX 4 1 3 2 5 3 6 4 7 5 8 6 11 7 10 8 9 9 2 11 1 12 12 13 18 14
REMARK SMILES IDX 13 15 17 16 14 17 15 18 19 19 16 21
REMARK H PARENT 9 10 19 20 16 22
REMARK Flexibility Score: inf
ROOT
ATOM      1  C   UNL     1       0.324  -1.515  21.693  1.00  0.00     0.012 C 
ATOM      2  C   UNL     1      -0.454  -1.518  20.601  1.00  0.00     0.053 C 
ENDROOT
BRANCH   1   3
ATOM      3  C   UNL     1       1.034  -2.713  22.206  1.00  0.00    -0.025 A 
ATOM      4  C   UNL     1       0.945  -3.134  23.548  1.00  0.00     0.012 A 
ATOM      5  C   UNL     1       1.627  -4.278  23.977  1.00  0.00     0.047 A 
ATOM      6  C   UNL     1       2.397  -5.020  23.074  1.00  0.00     0.115 A 
ATOM      7  C   UNL     1       1.798  -3.476  21.305  1.00  0.00     0.012 A 
ATOM      8  C   UNL     1       2.478  -4.617  21.738  1.00  0.00     0.047 A 
BRANCH   6   9
ATOM      9  O   UNL     1       3.082  -6.160  23.492  1.00  0.00    -0.508 OA
ATOM     10  H   UNL     1       2.902  -6.583  24.395  1.00  0.00     0.293 HD
ENDBRANCH   6   9
ENDBRANCH   1   3
BRANCH   2  11
ATOM     11  C   UNL     1      -1.150  -0.309  20.111  1.00  0.00     0.189 C 
ATOM     12  O   UNL     1      -0.452   0.678  19.755  1.00  0.00    -0.289 OA
BRANCH  11  13
ATOM     13  C   UNL     1      -2.625  -0.206  20.026  1.00  0.00     0.064 A 
ATOM     14  C   UNL     1      -3.452  -0.565  21.110  1.00  0.00     0.130 A 
ATOM     15  C   UNL     1      -3.213   0.221  18.824  1.00  0.00     0.020 A 
ATOM     16  C   UNL     1      -4.845  -0.451  20.992  1.00  0.00     0.093 A 
ATOM     17  C   UNL     1      -4.603   0.326  18.714  1.00  0.00     0.047 A 
ATOM     18  C   UNL     1      -5.422  -0.006  19.799  1.00  0.00     0.119 A 
BRANCH  14  19
ATOM     19  O   UNL     1      -2.894  -1.050  22.293  1.00  0.00    -0.507 OA
ATOM     20  H   UNL     1      -3.190  -1.930  22.700  1.00  0.00     0.293 HD
ENDBRANCH  14  19
BRANCH  18  21
ATOM     21  O   UNL     1      -6.807   0.098  19.701  1.00  0.00    -0.508 OA
ATOM     22  H   UNL     1      -7.269   0.192  18.804  1.00  0.00     0.293 HD
ENDBRANCH  18  21
ENDBRANCH  11  13
ENDBRANCH   2  11
TORSDOF 6
ENDMDL
MODEL 8
REMARK VINA RESULT:    -5.353      2.224      3.166
REMARK INTER + INTRA:          -7.347
REMARK INTER:                  -6.651
REMARK INTRA:                  -0.696
REMARK UNBOUND:                -0.587
REMARK SMILES O=C(C=Cc1ccc(O)cc1)c1ccc(O)cc1O
REMARK SMILES IDX 4 1 3 2 5 3 6 4 7 5 8 6 11 7 10 8 9 9 2 11 1 12 12 13 18 14
REMARK SMILES IDX 13 15 17 16 14 17 15 18 19 19 16 21
REMARK H PARENT 9 10 19 20 16 22
REMARK Flexibility Score: inf
ROOT
ATOM      1  C   UNL     1      -0.130  -1.995  21.988  1.00  0.00     0.012 C 
ATOM      2  C   UNL     1       0.897  -2.620  21.394  1.00  0.00     0.053 C 
ENDROOT
BRANCH   1   3
ATOM      3  C   UNL     1      -1.046  -1.061  21.286  1.00  0.00    -0.025 A 
ATOM      4  C   UNL     1      -0.669  -0.353  20.128  1.00  0.00     0.012 A 
ATOM      5  C   UNL     1      -1.575   0.508  19.499  1.00  0.00     0.047 A 
ATOM      6  C   UNL     1      -2.869   0.666  20.010  1.00  0.00     0.115 A 
ATOM      7  C   UNL     1      -2.353  -0.906  21.781  1.00  0.00     0.012 A 
ATOM      8  C   UNL     1      -3.255  -0.045  21.150  1.00  0.00     0.047 A 
BRANCH   6   9
ATOM      9  O   UNL     1      -3.778   1.522  19.393  1.00  0.00    -0.508 OA
ATOM     10  H   UNL     1      -3.493   2.425  19.031  1.00  0.00     0.293 HD
ENDBRANCH   6   9
ENDBRANCH   1   3
BRANCH   2  11
ATOM     11  C   UNL     1       1.795  -3.546  22.116  1.00  0.00     0.189 C 
ATOM     12  O   UNL     1       2.377  -4.448  21.456  1.00  0.00    -0.289 OA
BRANCH  11  13
ATOM     13  C   UNL     1       2.036  -3.465  23.575  1.00  0.00     0.064 A 
ATOM     14  C   UNL     1       1.411  -4.353  24.475  1.00  0.00     0.130 A 
ATOM     15  C   UNL     1       2.873  -2.454  24.076  1.00  0.00     0.020 A 
ATOM     16  C   UNL     1       1.665  -4.245  25.851  1.00  0.00     0.093 A 
ATOM     17  C   UNL     1       3.116  -2.352  25.449  1.00  0.00     0.047 A 
ATOM     18  C   UNL     1       2.516  -3.249  26.339  1.00  0.00     0.119 A 
BRANCH  14  19
ATOM     19  O   UNL     1       0.526  -5.325  24.008  1.00  0.00    -0.507 OA
ATOM     20  H   UNL     1      -0.348  -5.520  24.480  1.00  0.00     0.293 HD
ENDBRANCH  14  19
BRANCH  18  21
ATOM     21  O   UNL     1       2.754  -3.158  27.708  1.00  0.00    -0.508 OA
ATOM     22  H   UNL     1       3.608  -2.750  28.071  1.00  0.00     0.293 HD
ENDBRANCH  18  21
ENDBRANCH  11  13
ENDBRANCH   2  11
TORSDOF 6
ENDMDL
MODEL 9
REMARK VINA RESULT:    -5.207      2.028      2.855
REMARK INTER + INTRA:          -7.164
REMARK INTER:                  -6.607
REMARK INTRA:                  -0.556
REMARK UNBOUND:                -0.587
REMARK SMILES O=C(C=Cc1ccc(O)cc1)c1ccc(O)cc1O
REMARK SMILES IDX 4 1 3 2 5 3 6 4 7 5 8 6 11 7 10 8 9 9 2 11 1 12 12 13 18 14
REMARK SMILES IDX 13 15 17 16 14 17 15 18 19 19 16 21
REMARK H PARENT 9 10 19 20 16 22
REMARK Flexibility Score: inf
ROOT
ATOM      1  C   UNL     1      -3.281  -1.270  23.285  1.00  0.00     0.012 C 
ATOM      2  C   UNL     1      -3.432  -2.402  23.989  1.00  0.00     0.053 C 
ENDROOT
BRANCH   1   3
ATOM      3  C   UNL     1      -4.096  -0.923  22.094  1.00  0.00    -0.025 A 
ATOM      4  C   UNL     1      -5.503  -1.000  22.086  1.00  0.00     0.012 A 
ATOM      5  C   UNL     1      -6.224  -0.651  20.940  1.00  0.00     0.047 A 
ATOM      6  C   UNL     1      -5.554  -0.212  19.792  1.00  0.00     0.115 A 
ATOM      7  C   UNL     1      -3.435  -0.466  20.940  1.00  0.00     0.012 A 
ATOM      8  C   UNL     1      -4.160  -0.119  19.796  1.00  0.00     0.047 A 
BRANCH   6   9
ATOM      9  O   UNL     1      -6.263   0.136  18.644  1.00  0.00    -0.508 OA
ATOM     10  H   UNL     1      -5.800   0.242  17.748  1.00  0.00     0.293 HD
ENDBRANCH   6   9
ENDBRANCH   1   3
BRANCH   2  11
ATOM     11  C   UNL     1      -2.607  -2.724  25.173  1.00  0.00     0.189 C 
ATOM     12  O   UNL     1      -3.173  -3.250  26.169  1.00  0.00    -0.289 OA
BRANCH  11  13
ATOM     13  C   UNL     1      -1.153  -2.452  25.241  1.00  0.00     0.064 A 
ATOM     14  C   UNL     1      -0.206  -3.387  24.773  1.00  0.00     0.130 A 
ATOM     15  C   UNL     1      -0.707  -1.254  25.822  1.00  0.00     0.020 A 
ATOM     16  C   UNL     1       1.163  -3.093  24.853  1.00  0.00     0.093 A 
ATOM     17  C   UNL     1       0.660  -0.971  25.902  1.00  0.00     0.047 A 
ATOM     18  C   UNL     1       1.598  -1.888  25.415  1.00  0.00     0.119 A 
BRANCH  14  19
ATOM     19  O   UNL     1      -0.623  -4.611  24.249  1.00  0.00    -0.507 OA
ATOM     20  H   UNL     1      -1.484  -4.699  23.723  1.00  0.00     0.293 HD
ENDBRANCH  14  19
BRANCH  18  21
ATOM     21  O   UNL     1       2.962  -1.615  25.486  1.00  0.00    -0.508 OA
ATOM     22  H   UNL     1       3.352  -1.061  26.239  1.00  0.00     0.293 HD
ENDBRANCH  18  21
ENDBRANCH  11  13
ENDBRANCH   2  11
TORSDOF 6
ENDMDL
