MODEL 1
REMARK VINA RESULT:    -6.852      0.000      0.000
REMARK INTER + INTRA:         -10.534
REMARK INTER:                 -10.057
REMARK INTRA:                  -0.477
REMARK UNBOUND:                -0.477
REMARK SMILES O=c1c(O[C@@H]2O[C@H](CO)[C@@H](O)[C@H](O)[C@@H]2O)c(-c2ccc(O)c(O)c2)oc2cc(O)cc(O)c12
REMARK SMILES IDX 4 1 3 2 16 3 25 4 2 5 26 6 1 7 33 8 27 9 31 10 28 11 30 12
REMARK SMILES IDX 17 13 18 14 19 15 20 16 24 17 22 18 21 19 23 21 32 23 29 25
REMARK SMILES IDX 5 27 14 28 6 29 12 30 7 31 10 32 15 33 13 35 8 37 9 38 11 40
REMARK H PARENT 21 20 23 22 32 24 29 26 15 34 13 36 9 39 11 41
REMARK Flexibility Score: inf
ROOT
ATOM      1  O   UNL     1      96.358 100.873  98.664  1.00  0.00    -0.454 OA
ENDROOT
BRANCH   1   2
ATOM      2  C   UNL     1      97.498 101.379  99.325  1.00  0.00     0.214 A 
ATOM      3  C   UNL     1      97.799 102.756  99.498  1.00  0.00     0.180 A 
ATOM      4  O   UNL     1      98.833 103.119 100.249  1.00  0.00    -0.452 OA
ATOM      5  C   UNL     1      98.382 100.439  99.875  1.00  0.00     0.239 A 
ATOM      6  C   UNL     1      99.657 102.256 100.828  1.00  0.00     0.146 A 
ATOM      7  O   UNL     1      98.164  99.211  99.685  1.00  0.00    -0.285 OA
ATOM      8  C   UNL     1      99.479 100.865 100.650  1.00  0.00     0.111 A 
ATOM      9  C   UNL     1     100.714 102.737 101.606  1.00  0.00     0.094 A 
ATOM     10  C   UNL     1     100.389  99.970 101.262  1.00  0.00     0.134 A 
ATOM     11  C   UNL     1     101.607 101.852 102.210  1.00  0.00     0.123 A 
ATOM     12  C   UNL     1     101.445 100.473 102.037  1.00  0.00     0.093 A 
BRANCH   3  13
ATOM     13  C   UNL     1      97.057 103.838  98.839  1.00  0.00     0.025 A 
ATOM     14  C   UNL     1      96.930 103.851  97.443  1.00  0.00     0.016 A 
ATOM     15  C   UNL     1      96.261 104.902  96.811  1.00  0.00     0.051 A 
ATOM     16  C   UNL     1      95.732 105.958  97.566  1.00  0.00     0.157 A 
ATOM     17  C   UNL     1      96.560 104.909  99.592  1.00  0.00     0.062 A 
ATOM     18  C   UNL     1      95.887 105.963  98.964  1.00  0.00     0.158 A 
BRANCH  16  19
ATOM     19  O   UNL     1      95.058 107.002  96.935  1.00  0.00    -0.504 OA
ATOM     20  H   UNL     1      95.301 107.300  95.996  1.00  0.00     0.293 HD
ENDBRANCH  16  19
BRANCH  18  21
ATOM     21  O   UNL     1      95.383 107.005  99.740  1.00  0.00    -0.504 OA
ATOM     22  H   UNL     1      95.988 107.647 100.238  1.00  0.00     0.293 HD
ENDBRANCH  18  21
ENDBRANCH   3  13
BRANCH  10  23
ATOM     23  O   UNL     1     100.251  98.589 101.110  1.00  0.00    -0.507 OA
ATOM     24  H   UNL     1      99.421  98.178 100.699  1.00  0.00     0.293 HD
ENDBRANCH  10  23
BRANCH  11  25
ATOM     25  O   UNL     1     102.655 102.352 102.981  1.00  0.00    -0.508 OA
ATOM     26  H   UNL     1     103.094 101.795 103.703  1.00  0.00     0.293 HD
ENDBRANCH  11  25
ENDBRANCH   1   2
BRANCH   1  27
ATOM     27  C   UNL     1      95.899  99.518  98.618  1.00  0.00     0.339 C 
ATOM     28  C   UNL     1      94.627  99.340  99.460  1.00  0.00     0.214 C 
ATOM     29  O   UNL     1      95.749  99.048  97.284  1.00  0.00    -0.332 OA
ATOM     30  C   UNL     1      93.419  99.999  98.789  1.00  0.00     0.180 C 
ATOM     31  C   UNL     1      94.639  99.591  96.574  1.00  0.00     0.179 C 
ATOM     32  C   UNL     1      93.295  99.495  97.341  1.00  0.00     0.177 C 
BRANCH  28  33
ATOM     33  O   UNL     1      94.829  99.880 100.742  1.00  0.00    -0.384 OA
ATOM     34  H   UNL     1      95.806  99.853 100.913  1.00  0.00     0.211 HD
ENDBRANCH  28  33
BRANCH  30  35
ATOM     35  O   UNL     1      93.542 101.397  98.827  1.00  0.00    -0.387 OA
ATOM     36  H   UNL     1      94.393 101.623  98.369  1.00  0.00     0.211 HD
ENDBRANCH  30  35
BRANCH  31  37
ATOM     37  C   UNL     1      94.935 100.988  96.000  1.00  0.00     0.191 C 
BRANCH  37  38
ATOM     38  O   UNL     1      96.204 101.003  95.406  1.00  0.00    -0.394 OA
ATOM     39  H   UNL     1      96.661 101.815  95.750  1.00  0.00     0.210 HD
ENDBRANCH  37  38
ENDBRANCH  31  37
BRANCH  32  40
ATOM     40  O   UNL     1      92.875  98.153  97.344  1.00  0.00    -0.387 OA
ATOM     41  H   UNL     1      92.697  97.901  96.400  1.00  0.00     0.211 HD
ENDBRANCH  32  40
ENDBRANCH   1  27
TORSDOF 12
ENDMDL
MODEL 2
REMARK VINA RESULT:    -6.495      0.970      1.675
REMARK INTER + INTRA:         -10.010
REMARK INTER:                  -8.591
REMARK INTRA:                  -1.418
REMARK UNBOUND:                -0.477
REMARK SMILES O=c1c(O[C@@H]2O[C@H](CO)[C@@H](O)[C@H](O)[C@@H]2O)c(-c2ccc(O)c(O)c2)oc2cc(O)cc(O)c12
REMARK SMILES IDX 4 1 3 2 16 3 25 4 2 5 26 6 1 7 33 8 27 9 31 10 28 11 30 12
REMARK SMILES IDX 17 13 18 14 19 15 20 16 24 17 22 18 21 19 23 21 32 23 29 25
REMARK SMILES IDX 5 27 14 28 6 29 12 30 7 31 10 32 15 33 13 35 8 37 9 38 11 40
REMARK H PARENT 21 20 23 22 32 24 29 26 15 34 13 36 9 39 11 41
REMARK Flexibility Score: inf
ROOT
ATOM      1  O   UNL     1      96.180 101.041  98.961  1.00  0.00    -0.454 OA
ENDROOT
BRANCH   1   2
ATOM      2  C   UNL     1      97.386 101.517  99.519  1.00  0.00     0.214 A 
ATOM      3  C   UNL     1      97.767 102.883  99.595  1.00  0.00     0.180 A 
ATOM      4  O   UNL     1      98.867 103.228 100.258  1.00  0.00    -0.452 OA
ATOM      5  C   UNL     1      98.254 100.561 100.066  1.00  0.00     0.239 A 
ATOM      6  C   UNL     1      99.680 102.352 100.832  1.00  0.00     0.146 A 
ATOM      7  O   UNL     1      97.960  99.338  99.959  1.00  0.00    -0.285 OA
ATOM      8  C   UNL     1      99.420 100.966 100.745  1.00  0.00     0.111 A 
ATOM      9  C   UNL     1     100.810 102.816 101.514  1.00  0.00     0.094 A 
ATOM     10  C   UNL     1     100.321 100.056 101.348  1.00  0.00     0.134 A 
ATOM     11  C   UNL     1     101.693 101.916 102.110  1.00  0.00     0.123 A 
ATOM     12  C   UNL     1     101.450 100.540 102.025  1.00  0.00     0.093 A 
BRANCH   3  13
ATOM     13  C   UNL     1      97.041 103.967  98.924  1.00  0.00     0.025 A 
ATOM     14  C   UNL     1      96.962 103.997  97.524  1.00  0.00     0.016 A 
ATOM     15  C   UNL     1      96.307 105.050  96.882  1.00  0.00     0.051 A 
ATOM     16  C   UNL     1      95.745 106.094  97.631  1.00  0.00     0.157 A 
ATOM     17  C   UNL     1      96.510 105.026  99.672  1.00  0.00     0.062 A 
ATOM     18  C   UNL     1      95.852 106.083  99.033  1.00  0.00     0.158 A 
BRANCH  16  19
ATOM     19  O   UNL     1      95.085 107.141  96.989  1.00  0.00    -0.504 OA
ATOM     20  H   UNL     1      95.471 107.583  96.162  1.00  0.00     0.293 HD
ENDBRANCH  16  19
BRANCH  18  21
ATOM     21  O   UNL     1      95.314 107.112  99.804  1.00  0.00    -0.504 OA
ATOM     22  H   UNL     1      95.609 107.281 100.758  1.00  0.00     0.293 HD
ENDBRANCH  18  21
ENDBRANCH   3  13
BRANCH  10  23
ATOM     23  O   UNL     1     100.102  98.679 101.283  1.00  0.00    -0.507 OA
ATOM     24  H   UNL     1     100.520  98.040 101.950  1.00  0.00     0.293 HD
ENDBRANCH  10  23
BRANCH  11  25
ATOM     25  O   UNL     1     102.814 102.398 102.784  1.00  0.00    -0.508 OA
ATOM     26  H   UNL     1     103.516 102.956 102.313  1.00  0.00     0.293 HD
ENDBRANCH  11  25
ENDBRANCH   1   2
BRANCH   1  27
ATOM     27  C   UNL     1      95.847 100.907  97.575  1.00  0.00     0.339 C 
ATOM     28  C   UNL     1      95.610  99.434  97.207  1.00  0.00     0.214 C 
ATOM     29  O   UNL     1      94.766 101.752  97.199  1.00  0.00    -0.332 OA
ATOM     30  C   UNL     1      94.293  98.920  97.794  1.00  0.00     0.180 C 
ATOM     31  C   UNL     1      93.489 101.349  97.684  1.00  0.00     0.179 C 
ATOM     32  C   UNL     1      93.146  99.864  97.396  1.00  0.00     0.177 C 
BRANCH  28  33
ATOM     33  O   UNL     1      96.687  98.654  97.661  1.00  0.00    -0.384 OA
ATOM     34  H   UNL     1      97.393  98.708  96.965  1.00  0.00     0.211 HD
ENDBRANCH  28  33
BRANCH  30  35
ATOM     35  O   UNL     1      94.393  98.809  99.190  1.00  0.00    -0.387 OA
ATOM     36  H   UNL     1      95.172  98.223  99.378  1.00  0.00     0.211 HD
ENDBRANCH  30  35
BRANCH  31  37
ATOM     37  C   UNL     1      93.254 101.775  99.145  1.00  0.00     0.191 C 
BRANCH  37  38
ATOM     38  O   UNL     1      93.691 103.092  99.336  1.00  0.00    -0.394 OA
ATOM     39  H   UNL     1      94.099 103.375  98.475  1.00  0.00     0.210 HD
ENDBRANCH  37  38
ENDBRANCH  31  37
BRANCH  32  40
ATOM     40  O   UNL     1      92.876  99.724  96.024  1.00  0.00    -0.387 OA
ATOM     41  H   UNL     1      92.581  98.788  95.879  1.00  0.00     0.211 HD
ENDBRANCH  32  40
ENDBRANCH   1  27
TORSDOF 12
ENDMDL
MODEL 3
REMARK VINA RESULT:    -5.930      1.479      5.046
REMARK INTER + INTRA:          -9.179
REMARK INTER:                  -8.341
REMARK INTRA:                  -0.838
REMARK UNBOUND:                -0.477
REMARK SMILES O=c1c(O[C@@H]2O[C@H](CO)[C@@H](O)[C@H](O)[C@@H]2O)c(-c2ccc(O)c(O)c2)oc2cc(O)cc(O)c12
REMARK SMILES IDX 4 1 3 2 16 3 25 4 2 5 26 6 1 7 33 8 27 9 31 10 28 11 30 12
REMARK SMILES IDX 17 13 18 14 19 15 20 16 24 17 22 18 21 19 23 21 32 23 29 25
REMARK SMILES IDX 5 27 14 28 6 29 12 30 7 31 10 32 15 33 13 35 8 37 9 38 11 40
REMARK H PARENT 21 20 23 22 32 24 29 26 15 34 13 36 9 39 11 41
REMARK Flexibility Score: inf
ROOT
ATOM      1  O   UNL     1      97.435 102.750  99.623  1.00  0.00    -0.454 OA
ENDROOT
BRANCH   1   2
ATOM      2  C   UNL     1      98.272 101.708 100.076  1.00  0.00     0.214 A 
ATOM      3  C   UNL     1      98.028 100.322  99.885  1.00  0.00     0.180 A 
ATOM      4  O   UNL     1      98.948  99.431 100.240  1.00  0.00    -0.452 OA
ATOM      5  C   UNL     1      99.450 102.082 100.740  1.00  0.00     0.239 A 
ATOM      6  C   UNL     1     100.095  99.756 100.821  1.00  0.00     0.146 A 
ATOM      7  O   UNL     1      99.658 103.305 100.970  1.00  0.00    -0.285 OA
ATOM      8  C   UNL     1     100.392 101.105 101.118  1.00  0.00     0.111 A 
ATOM      9  C   UNL     1     101.003  98.746 101.151  1.00  0.00     0.094 A 
ATOM     10  C   UNL     1     101.614 101.417 101.761  1.00  0.00     0.134 A 
ATOM     11  C   UNL     1     102.209  99.057 101.781  1.00  0.00     0.123 A 
ATOM     12  C   UNL     1     102.511 100.388 102.086  1.00  0.00     0.093 A 
BRANCH   3  13
ATOM     13  C   UNL     1      96.767  99.785  99.357  1.00  0.00     0.025 A 
ATOM     14  C   UNL     1      96.665  99.440  98.002  1.00  0.00     0.016 A 
ATOM     15  C   UNL     1      95.455  98.968  97.490  1.00  0.00     0.051 A 
ATOM     16  C   UNL     1      94.331  98.858  98.320  1.00  0.00     0.157 A 
ATOM     17  C   UNL     1      95.637  99.709 100.181  1.00  0.00     0.062 A 
ATOM     18  C   UNL     1      94.422  99.236  99.672  1.00  0.00     0.158 A 
BRANCH  16  19
ATOM     19  O   UNL     1      93.125  98.380  97.809  1.00  0.00    -0.504 OA
ATOM     20  H   UNL     1      93.046  97.446  97.421  1.00  0.00     0.293 HD
ENDBRANCH  16  19
BRANCH  18  21
ATOM     21  O   UNL     1      93.319  99.149 100.520  1.00  0.00    -0.504 OA
ATOM     22  H   UNL     1      92.407  99.499 100.254  1.00  0.00     0.293 HD
ENDBRANCH  18  21
ENDBRANCH   3  13
BRANCH  10  23
ATOM     23  O   UNL     1     101.946 102.736 102.074  1.00  0.00    -0.507 OA
ATOM     24  H   UNL     1     101.552 103.521 101.568  1.00  0.00     0.293 HD
ENDBRANCH  10  23
BRANCH  11  25
ATOM     25  O   UNL     1     103.099  98.034 102.102  1.00  0.00    -0.508 OA
ATOM     26  H   UNL     1     104.042  98.016 101.731  1.00  0.00     0.293 HD
ENDBRANCH  11  25
ENDBRANCH   1   2
BRANCH   1  27
ATOM     27  C   UNL     1      97.807 103.910  98.870  1.00  0.00     0.339 C 
ATOM     28  C   UNL     1      97.544 103.699  97.371  1.00  0.00     0.214 C 
ATOM     29  O   UNL     1      97.202 105.094  99.376  1.00  0.00    -0.332 OA
ATOM     30  C   UNL     1      96.045 103.713  97.062  1.00  0.00     0.180 C 
ATOM     31  C   UNL     1      95.804 105.211  99.125  1.00  0.00     0.179 C 
ATOM     32  C   UNL     1      95.410 104.988  97.642  1.00  0.00     0.177 C 
BRANCH  28  33
ATOM     33  O   UNL     1      98.118 102.485  96.957  1.00  0.00    -0.384 OA
ATOM     34  H   UNL     1      99.092 102.647  96.859  1.00  0.00     0.211 HD
ENDBRANCH  28  33
BRANCH  30  35
ATOM     35  O   UNL     1      95.429 102.563  97.581  1.00  0.00    -0.387 OA
ATOM     36  H   UNL     1      94.977 102.833  98.421  1.00  0.00     0.211 HD
ENDBRANCH  30  35
BRANCH  31  37
ATOM     37  C   UNL     1      94.957 104.405 100.126  1.00  0.00     0.191 C 
BRANCH  37  38
ATOM     38  O   UNL     1      94.007 103.638  99.440  1.00  0.00    -0.394 OA
ATOM     39  H   UNL     1      93.727 102.919 100.066  1.00  0.00     0.210 HD
ENDBRANCH  37  38
ENDBRANCH  31  37
BRANCH  32  40
ATOM     40  O   UNL     1      95.828 106.104  96.894  1.00  0.00    -0.387 OA
ATOM     41  H   UNL     1      95.152 106.246  96.181  1.00  0.00     0.211 HD
ENDBRANCH  32  40
ENDBRANCH   1  27
TORSDOF 12
ENDMDL
MODEL 4
REMARK VINA RESULT:    -5.618      2.799      6.988
REMARK INTER + INTRA:          -8.723
REMARK INTER:                  -8.239
REMARK INTRA:                  -0.484
REMARK UNBOUND:                -0.477
REMARK SMILES O=c1c(O[C@@H]2O[C@H](CO)[C@@H](O)[C@H](O)[C@@H]2O)c(-c2ccc(O)c(O)c2)oc2cc(O)cc(O)c12
REMARK SMILES IDX 4 1 3 2 16 3 25 4 2 5 26 6 1 7 33 8 27 9 31 10 28 11 30 12
REMARK SMILES IDX 17 13 18 14 19 15 20 16 24 17 22 18 21 19 23 21 32 23 29 25
REMARK SMILES IDX 5 27 14 28 6 29 12 30 7 31 10 32 15 33 13 35 8 37 9 38 11 40
REMARK H PARENT 21 20 23 22 32 24 29 26 15 34 13 36 9 39 11 41
REMARK Flexibility Score: inf
ROOT
ATOM      1  O   UNL     1      95.928 100.918  97.431  1.00  0.00    -0.454 OA
ENDROOT
BRANCH   1   2
ATOM      2  C   UNL     1      95.347  99.631  97.409  1.00  0.00     0.214 A 
ATOM      3  C   UNL     1      94.532  99.085  98.435  1.00  0.00     0.180 A 
ATOM      4  O   UNL     1      93.932  97.913  98.252  1.00  0.00    -0.452 OA
ATOM      5  C   UNL     1      95.576  98.851  96.266  1.00  0.00     0.239 A 
ATOM      6  C   UNL     1      94.084  97.176  97.160  1.00  0.00     0.146 A 
ATOM      7  O   UNL     1      96.343  99.294  95.368  1.00  0.00    -0.285 OA
ATOM      8  C   UNL     1      94.936  97.605  96.117  1.00  0.00     0.111 A 
ATOM      9  C   UNL     1      93.404  95.959  97.059  1.00  0.00     0.094 A 
ATOM     10  C   UNL     1      95.097  96.783  94.976  1.00  0.00     0.134 A 
ATOM     11  C   UNL     1      93.562  95.153  95.930  1.00  0.00     0.123 A 
ATOM     12  C   UNL     1      94.407  95.564  94.894  1.00  0.00     0.093 A 
BRANCH   3  13
ATOM     13  C   UNL     1      94.345  99.717  99.746  1.00  0.00     0.025 A 
ATOM     14  C   UNL     1      93.053 100.007 100.207  1.00  0.00     0.016 A 
ATOM     15  C   UNL     1      92.875 100.646 101.436  1.00  0.00     0.051 A 
ATOM     16  C   UNL     1      93.985 101.021 102.205  1.00  0.00     0.157 A 
ATOM     17  C   UNL     1      95.457 100.121 100.497  1.00  0.00     0.062 A 
ATOM     18  C   UNL     1      95.283 100.761 101.729  1.00  0.00     0.158 A 
BRANCH  16  19
ATOM     19  O   UNL     1      93.806 101.652 103.435  1.00  0.00    -0.504 OA
ATOM     20  H   UNL     1      94.273 101.323 104.273  1.00  0.00     0.293 HD
ENDBRANCH  16  19
BRANCH  18  21
ATOM     21  O   UNL     1      96.408 101.132 102.465  1.00  0.00    -0.504 OA
ATOM     22  H   UNL     1      97.032 100.448 102.874  1.00  0.00     0.293 HD
ENDBRANCH  18  21
ENDBRANCH   3  13
BRANCH  10  23
ATOM     23  O   UNL     1      95.930  97.168  93.924  1.00  0.00    -0.507 OA
ATOM     24  H   UNL     1      96.530  96.505  93.448  1.00  0.00     0.293 HD
ENDBRANCH  10  23
BRANCH  11  25
ATOM     25  O   UNL     1      92.875  93.943  95.849  1.00  0.00    -0.508 OA
ATOM     26  H   UNL     1      93.257  93.150  95.347  1.00  0.00     0.293 HD
ENDBRANCH  11  25
ENDBRANCH   1   2
BRANCH   1  27
ATOM     27  C   UNL     1      95.619 102.034  96.590  1.00  0.00     0.339 C 
ATOM     28  C   UNL     1      94.608 102.971  97.269  1.00  0.00     0.214 C 
ATOM     29  O   UNL     1      96.789 102.711  96.147  1.00  0.00    -0.332 OA
ATOM     30  C   UNL     1      95.254 103.743  98.423  1.00  0.00     0.180 C 
ATOM     31  C   UNL     1      97.459 103.475  97.147  1.00  0.00     0.179 C 
ATOM     32  C   UNL     1      96.530 104.443  97.926  1.00  0.00     0.177 C 
BRANCH  28  33
ATOM     33  O   UNL     1      93.510 102.226  97.732  1.00  0.00    -0.384 OA
ATOM     34  H   UNL     1      93.349 102.506  98.671  1.00  0.00     0.211 HD
ENDBRANCH  28  33
BRANCH  30  35
ATOM     35  O   UNL     1      95.538 102.876  99.491  1.00  0.00    -0.387 OA
ATOM     36  H   UNL     1      95.011 103.194 100.268  1.00  0.00     0.211 HD
ENDBRANCH  30  35
BRANCH  31  37
ATOM     37  C   UNL     1      98.356 102.608  98.048  1.00  0.00     0.191 C 
BRANCH  37  38
ATOM     38  O   UNL     1      98.306 103.077  99.367  1.00  0.00    -0.394 OA
ATOM     39  H   UNL     1      97.375 102.923  99.680  1.00  0.00     0.210 HD
ENDBRANCH  37  38
ENDBRANCH  31  37
BRANCH  32  40
ATOM     40  O   UNL     1      96.182 105.510  97.078  1.00  0.00    -0.387 OA
ATOM     41  H   UNL     1      96.659 105.368  96.220  1.00  0.00     0.211 HD
ENDBRANCH  32  40
ENDBRANCH   1  27
TORSDOF 12
ENDMDL
