MODEL 1
REMARK VINA RESULT:    19.610      0.000      0.000
REMARK INTER + INTRA:          22.729
REMARK INTER:                  23.049
REMARK INTRA:                  -0.320
REMARK UNBOUND:                -0.320
REMARK SMILES Oc1ccc(-c2[o+]c3cc(O)cc(O)c3cc2O)cc1
REMARK SMILES IDX 6 1 7 2 8 3 9 4 10 5 12 6 13 7 15 8 16 9 17 10 5 11 4 12
REMARK SMILES IDX 3 13 2 14 19 15 20 16 1 17 18 19 11 21 14 23
REMARK H PARENT 1 18 18 20 11 22 14 24
REMARK Flexibility Score: inf
ROOT
ATOM      1  C   UNL     1      -6.126   4.663  15.266  1.00  0.00     0.401 A 
ATOM      2  O   UNL     1      -5.327   4.137  14.341  1.00  0.00    -0.202 OA
ATOM      3  C   UNL     1      -4.529   3.098  14.570  1.00  0.00     0.368 A 
ATOM      4  C   UNL     1      -3.727   2.616  13.533  1.00  0.00     0.162 A 
ATOM      5  C   UNL     1      -2.881   1.522  13.746  1.00  0.00     0.128 A 
ATOM      6  C   UNL     1      -2.839   0.910  14.999  1.00  0.00     0.093 A 
ATOM      7  C   UNL     1      -3.633   1.375  16.055  1.00  0.00     0.136 A 
ATOM      8  C   UNL     1      -4.491   2.485  15.845  1.00  0.00     0.125 A 
ATOM      9  C   UNL     1      -5.313   3.028  16.848  1.00  0.00     0.078 A 
ATOM     10  C   UNL     1      -6.129   4.127  16.567  1.00  0.00     0.223 A 
ENDROOT
BRANCH   1  11
ATOM     11  C   UNL     1      -6.976   5.813  14.885  1.00  0.00     0.084 A 
ATOM     12  C   UNL     1      -6.466   7.117  15.004  1.00  0.00     0.022 A 
ATOM     13  C   UNL     1      -7.243   8.219  14.630  1.00  0.00     0.047 A 
ATOM     14  C   UNL     1      -8.531   8.031  14.120  1.00  0.00     0.115 A 
ATOM     15  C   UNL     1      -8.265   5.630  14.352  1.00  0.00     0.022 A 
ATOM     16  C   UNL     1      -9.038   6.733  13.978  1.00  0.00     0.047 A 
BRANCH  14  17
ATOM     17  O   UNL     1      -9.294   9.136  13.751  1.00  0.00    -0.508 OA
ATOM     18  H   UNL     1      -8.905  10.072  13.753  1.00  0.00     0.293 HD
ENDBRANCH  14  17
ENDBRANCH   1  11
BRANCH  10  19
ATOM     19  O   UNL     1      -6.907   4.696  17.575  1.00  0.00    -0.500 OA
ATOM     20  H   UNL     1      -7.265   4.145  18.347  1.00  0.00     0.294 HD
ENDBRANCH  10  19
BRANCH   5  21
ATOM     21  O   UNL     1      -2.078   1.036  12.716  1.00  0.00    -0.507 OA
ATOM     22  H   UNL     1      -1.119   1.344  12.603  1.00  0.00     0.293 HD
ENDBRANCH   5  21
BRANCH   7  23
ATOM     23  O   UNL     1      -3.536   0.704  17.279  1.00  0.00    -0.507 OA
ATOM     24  H   UNL     1      -2.822   0.880  17.969  1.00  0.00     0.293 HD
ENDBRANCH   7  23
TORSDOF 5
ENDMDL
MODEL 2
REMARK VINA RESULT:    20.678      2.001      6.505
REMARK INTER + INTRA:          23.984
REMARK INTER:                  24.078
REMARK INTRA:                  -0.094
REMARK UNBOUND:                -0.320
REMARK SMILES Oc1ccc(-c2[o+]c3cc(O)cc(O)c3cc2O)cc1
REMARK SMILES IDX 6 1 7 2 8 3 9 4 10 5 12 6 13 7 15 8 16 9 17 10 5 11 4 12
REMARK SMILES IDX 3 13 2 14 19 15 20 16 1 17 18 19 11 21 14 23
REMARK H PARENT 1 18 18 20 11 22 14 24
REMARK Flexibility Score: inf
ROOT
ATOM      1  C   UNL     1      -3.791   2.616  14.028  1.00  0.00     0.401 A 
ATOM      2  O   UNL     1      -4.843   3.300  13.587  1.00  0.00    -0.202 OA
ATOM      3  C   UNL     1      -5.853   3.670  14.370  1.00  0.00     0.368 A 
ATOM      4  C   UNL     1      -6.914   4.389  13.814  1.00  0.00     0.162 A 
ATOM      5  C   UNL     1      -7.987   4.794  14.615  1.00  0.00     0.128 A 
ATOM      6  C   UNL     1      -7.997   4.479  15.975  1.00  0.00     0.093 A 
ATOM      7  C   UNL     1      -6.945   3.759  16.556  1.00  0.00     0.136 A 
ATOM      8  C   UNL     1      -5.855   3.345  15.747  1.00  0.00     0.125 A 
ATOM      9  C   UNL     1      -4.764   2.609  16.239  1.00  0.00     0.078 A 
ATOM     10  C   UNL     1      -3.728   2.231  15.380  1.00  0.00     0.223 A 
ENDROOT
BRANCH   1  11
ATOM     11  C   UNL     1      -2.725   2.272  13.060  1.00  0.00     0.084 A 
ATOM     12  C   UNL     1      -2.024   3.301  12.409  1.00  0.00     0.022 A 
ATOM     13  C   UNL     1      -0.998   2.999  11.507  1.00  0.00     0.047 A 
ATOM     14  C   UNL     1      -0.651   1.669  11.255  1.00  0.00     0.115 A 
ATOM     15  C   UNL     1      -2.358   0.935  12.817  1.00  0.00     0.022 A 
ATOM     16  C   UNL     1      -1.331   0.637  11.915  1.00  0.00     0.047 A 
BRANCH  14  17
ATOM     17  O   UNL     1       0.371   1.383  10.354  1.00  0.00    -0.508 OA
ATOM     18  H   UNL     1       0.524   1.950   9.529  1.00  0.00     0.293 HD
ENDBRANCH  14  17
ENDBRANCH   1  11
BRANCH  10  19
ATOM     19  O   UNL     1      -2.670   1.458  15.857  1.00  0.00    -0.500 OA
ATOM     20  H   UNL     1      -2.802   0.498  16.153  1.00  0.00     0.294 HD
ENDBRANCH  10  19
BRANCH   5  21
ATOM     21  O   UNL     1      -9.050   5.510  14.069  1.00  0.00    -0.507 OA
ATOM     22  H   UNL     1      -9.052   5.795  13.096  1.00  0.00     0.293 HD
ENDBRANCH   5  21
BRANCH   7  23
ATOM     23  O   UNL     1      -7.028   3.488  17.925  1.00  0.00    -0.507 OA
ATOM     24  H   UNL     1      -7.223   4.180  18.632  1.00  0.00     0.293 HD
ENDBRANCH   7  23
TORSDOF 5
ENDMDL
MODEL 3
REMARK VINA RESULT:    21.047      1.478      6.973
REMARK INTER + INTRA:          24.418
REMARK INTER:                  24.734
REMARK INTRA:                  -0.316
REMARK UNBOUND:                -0.320
REMARK SMILES Oc1ccc(-c2[o+]c3cc(O)cc(O)c3cc2O)cc1
REMARK SMILES IDX 6 1 7 2 8 3 9 4 10 5 12 6 13 7 15 8 16 9 17 10 5 11 4 12
REMARK SMILES IDX 3 13 2 14 19 15 20 16 1 17 18 19 11 21 14 23
REMARK H PARENT 1 18 18 20 11 22 14 24
REMARK Flexibility Score: inf
ROOT
ATOM      1  C   UNL     1      -5.978   4.370  15.104  1.00  0.00     0.401 A 
ATOM      2  O   UNL     1      -5.742   5.552  15.668  1.00  0.00    -0.202 OA
ATOM      3  C   UNL     1      -6.477   6.634  15.431  1.00  0.00     0.368 A 
ATOM      4  C   UNL     1      -6.152   7.831  16.075  1.00  0.00     0.162 A 
ATOM      5  C   UNL     1      -6.911   8.983  15.846  1.00  0.00     0.128 A 
ATOM      6  C   UNL     1      -7.998   8.937  14.973  1.00  0.00     0.093 A 
ATOM      7  C   UNL     1      -8.345   7.750  14.316  1.00  0.00     0.136 A 
ATOM      8  C   UNL     1      -7.577   6.578  14.542  1.00  0.00     0.125 A 
ATOM      9  C   UNL     1      -7.843   5.348  13.918  1.00  0.00     0.078 A 
ATOM     10  C   UNL     1      -7.038   4.237  14.188  1.00  0.00     0.223 A 
ENDROOT
BRANCH   1  11
ATOM     11  C   UNL     1      -5.093   3.237  15.456  1.00  0.00     0.084 A 
ATOM     12  C   UNL     1      -3.943   2.994  14.687  1.00  0.00     0.022 A 
ATOM     13  C   UNL     1      -3.081   1.941  15.014  1.00  0.00     0.047 A 
ATOM     14  C   UNL     1      -3.349   1.130  16.120  1.00  0.00     0.115 A 
ATOM     15  C   UNL     1      -5.347   2.429  16.579  1.00  0.00     0.022 A 
ATOM     16  C   UNL     1      -4.483   1.379  16.904  1.00  0.00     0.047 A 
BRANCH  14  17
ATOM     17  O   UNL     1      -2.483   0.086  16.434  1.00  0.00    -0.508 OA
ATOM     18  H   UNL     1      -1.959  -0.401  15.717  1.00  0.00     0.293 HD
ENDBRANCH  14  17
ENDBRANCH   1  11
BRANCH  10  19
ATOM     19  O   UNL     1      -7.271   3.029  13.530  1.00  0.00    -0.500 OA
ATOM     20  H   UNL     1      -8.052   2.432  13.775  1.00  0.00     0.294 HD
ENDBRANCH  10  19
BRANCH   5  21
ATOM     21  O   UNL     1      -6.592  10.180  16.483  1.00  0.00    -0.507 OA
ATOM     22  H   UNL     1      -5.857  10.786  16.135  1.00  0.00     0.293 HD
ENDBRANCH   5  21
BRANCH   7  23
ATOM     23  O   UNL     1      -9.451   7.786  13.460  1.00  0.00    -0.507 OA
ATOM     24  H   UNL     1      -9.447   8.204  12.542  1.00  0.00     0.293 HD
ENDBRANCH   7  23
TORSDOF 5
ENDMDL
