MODEL 1
REMARK VINA RESULT:    -4.284      0.000      0.000
REMARK INTER + INTRA:          -9.261
REMARK INTER:                  -7.790
REMARK INTRA:                  -1.471
REMARK UNBOUND:                -1.471
REMARK SMILES CCCCCCCCCCCCCCCC(=O)[O-]
REMARK SMILES IDX 9 1 10 2 11 3 12 4 13 5 14 6 15 7 16 8 17 9 18 10 8 11 7 12
REMARK SMILES IDX 6 13 5 14 4 15 3 16 2 17 1 18
REMARK H PARENT
REMARK Flexibility Score: inf
ROOT
ATOM      1  C   UNL     1      50.877  -3.822  72.612  1.00  0.00     0.000 C 
ENDROOT
BRANCH   1   2
ATOM      2  C   UNL     1      51.551  -4.070  73.971  1.00  0.00     0.000 C 
BRANCH   2   3
ATOM      3  C   UNL     1      52.109  -2.785  74.602  1.00  0.00     0.000 C 
BRANCH   3   4
ATOM      4  C   UNL     1      53.645  -2.781  74.673  1.00  0.00     0.000 C 
BRANCH   4   5
ATOM      5  C   UNL     1      54.284  -3.959  73.917  1.00  0.00     0.000 C 
BRANCH   5   6
ATOM      6  C   UNL     1      54.994  -5.005  74.801  1.00  0.00     0.006 C 
BRANCH   6   7
ATOM      7  C   UNL     1      54.667  -6.464  74.435  1.00  0.00     0.053 C 
BRANCH   7   8
ATOM      8  C   UNL     1      55.853  -7.194  73.877  1.00  0.00     0.041 C 
ATOM      9  O   UNL     1      56.969  -6.616  73.790  1.00  0.00    -0.550 OA
ATOM     10  O   UNL     1      55.738  -8.524  73.495  1.00  0.00    -0.550 OA
ENDBRANCH   7   8
ENDBRANCH   6   7
ENDBRANCH   5   6
ENDBRANCH   4   5
ENDBRANCH   3   4
ENDBRANCH   2   3
ENDBRANCH   1   2
BRANCH   1  11
ATOM     11  C   UNL     1      49.356  -4.021  72.712  1.00  0.00     0.000 C 
BRANCH  11  12
ATOM     12  C   UNL     1      48.587  -2.693  72.793  1.00  0.00    -0.000 C 
BRANCH  12  13
ATOM     13  C   UNL     1      49.346  -1.529  72.133  1.00  0.00    -0.000 C 
BRANCH  13  14
ATOM     14  C   UNL     1      49.177  -0.201  72.892  1.00  0.00    -0.000 C 
BRANCH  14  15
ATOM     15  C   UNL     1      50.507   0.539  73.148  1.00  0.00    -0.000 C 
BRANCH  15  16
ATOM     16  C   UNL     1      51.672  -0.073  72.350  1.00  0.00    -0.000 C 
BRANCH  16  17
ATOM     17  C   UNL     1      52.470   0.983  71.568  1.00  0.00    -0.003 C 
ATOM     18  C   UNL     1      53.928   0.576  71.353  1.00  0.00     0.004 C 
ENDBRANCH  16  17
ENDBRANCH  15  16
ENDBRANCH  14  15
ENDBRANCH  13  14
ENDBRANCH  12  13
ENDBRANCH  11  12
ENDBRANCH   1  11
TORSDOF 14
ENDMDL
MODEL 2
REMARK VINA RESULT:    -4.243      2.900      5.882
REMARK INTER + INTRA:          -9.188
REMARK INTER:                  -8.021
REMARK INTRA:                  -1.166
REMARK UNBOUND:                -1.471
REMARK SMILES CCCCCCCCCCCCCCCC(=O)[O-]
REMARK SMILES IDX 9 1 10 2 11 3 12 4 13 5 14 6 15 7 16 8 17 9 18 10 8 11 7 12
REMARK SMILES IDX 6 13 5 14 4 15 3 16 2 17 1 18
REMARK H PARENT
REMARK Flexibility Score: inf
ROOT
ATOM      1  C   UNL     1      48.619  -1.770  72.575  1.00  0.00     0.000 C 
ENDROOT
BRANCH   1   2
ATOM      2  C   UNL     1      49.597  -0.836  71.843  1.00  0.00     0.000 C 
BRANCH   2   3
ATOM      3  C   UNL     1      50.694  -0.283  72.766  1.00  0.00     0.000 C 
BRANCH   3   4
ATOM      4  C   UNL     1      51.984   0.067  72.006  1.00  0.00     0.000 C 
BRANCH   4   5
ATOM      5  C   UNL     1      53.140  -0.902  72.306  1.00  0.00     0.000 C 
BRANCH   5   6
ATOM      6  C   UNL     1      52.886  -1.899  73.455  1.00  0.00     0.006 C 
BRANCH   6   7
ATOM      7  C   UNL     1      53.250  -3.356  73.116  1.00  0.00     0.053 C 
BRANCH   7   8
ATOM      8  C   UNL     1      54.185  -3.961  74.121  1.00  0.00     0.041 C 
ATOM      9  O   UNL     1      54.484  -5.182  74.052  1.00  0.00    -0.550 OA
ATOM     10  O   UNL     1      54.761  -3.168  75.105  1.00  0.00    -0.550 OA
ENDBRANCH   7   8
ENDBRANCH   6   7
ENDBRANCH   5   6
ENDBRANCH   4   5
ENDBRANCH   3   4
ENDBRANCH   2   3
ENDBRANCH   1   2
BRANCH   1  11
ATOM     11  C   UNL     1      49.375  -2.736  73.500  1.00  0.00     0.000 C 
BRANCH  11  12
ATOM     12  C   UNL     1      49.349  -4.188  72.993  1.00  0.00    -0.000 C 
BRANCH  12  13
ATOM     13  C   UNL     1      47.932  -4.660  72.629  1.00  0.00    -0.000 C 
BRANCH  13  14
ATOM     14  C   UNL     1      47.218  -5.362  73.798  1.00  0.00    -0.000 C 
BRANCH  14  15
ATOM     15  C   UNL     1      46.375  -6.581  73.366  1.00  0.00    -0.000 C 
BRANCH  15  16
ATOM     16  C   UNL     1      46.807  -7.126  71.994  1.00  0.00    -0.000 C 
BRANCH  16  17
ATOM     17  C   UNL     1      46.087  -8.432  71.625  1.00  0.00    -0.003 C 
ATOM     18  C   UNL     1      46.018  -8.658  70.114  1.00  0.00     0.004 C 
ENDBRANCH  16  17
ENDBRANCH  15  16
ENDBRANCH  14  15
ENDBRANCH  13  14
ENDBRANCH  12  13
ENDBRANCH  11  12
ENDBRANCH   1  11
TORSDOF 14
ENDMDL
MODEL 3
REMARK VINA RESULT:    -4.203      3.548      6.033
REMARK INTER + INTRA:          -9.115
REMARK INTER:                  -7.497
REMARK INTRA:                  -1.617
REMARK UNBOUND:                -1.471
REMARK SMILES CCCCCCCCCCCCCCCC(=O)[O-]
REMARK SMILES IDX 9 1 10 2 11 3 12 4 13 5 14 6 15 7 16 8 17 9 18 10 8 11 7 12
REMARK SMILES IDX 6 13 5 14 4 15 3 16 2 17 1 18
REMARK H PARENT
REMARK Flexibility Score: inf
ROOT
ATOM      1  C   UNL     1      48.953  -0.915  71.799  1.00  0.00     0.000 C 
ENDROOT
BRANCH   1   2
ATOM      2  C   UNL     1      49.147  -2.368  72.261  1.00  0.00     0.000 C 
BRANCH   2   3
ATOM      3  C   UNL     1      48.660  -2.606  73.699  1.00  0.00     0.000 C 
BRANCH   3   4
ATOM      4  C   UNL     1      48.569  -4.099  74.053  1.00  0.00     0.000 C 
BRANCH   4   5
ATOM      5  C   UNL     1      47.193  -4.709  73.734  1.00  0.00     0.000 C 
BRANCH   5   6
ATOM      6  C   UNL     1      47.142  -5.607  72.481  1.00  0.00     0.006 C 
BRANCH   6   7
ATOM      7  C   UNL     1      46.446  -6.962  72.706  1.00  0.00     0.053 C 
BRANCH   7   8
ATOM      8  C   UNL     1      46.989  -8.040  71.815  1.00  0.00     0.041 C 
ATOM      9  O   UNL     1      48.227  -8.266  71.777  1.00  0.00    -0.550 OA
ATOM     10  O   UNL     1      46.126  -8.823  71.061  1.00  0.00    -0.550 OA
ENDBRANCH   7   8
ENDBRANCH   6   7
ENDBRANCH   5   6
ENDBRANCH   4   5
ENDBRANCH   3   4
ENDBRANCH   2   3
ENDBRANCH   1   2
BRANCH   1  11
ATOM     11  C   UNL     1      49.088   0.057  72.981  1.00  0.00     0.000 C 
BRANCH  11  12
ATOM     12  C   UNL     1      50.552   0.387  73.315  1.00  0.00    -0.000 C 
BRANCH  12  13
ATOM     13  C   UNL     1      51.442   0.458  72.062  1.00  0.00    -0.000 C 
BRANCH  13  14
ATOM     14  C   UNL     1      52.613  -0.539  72.105  1.00  0.00    -0.000 C 
BRANCH  14  15
ATOM     15  C   UNL     1      52.526  -1.546  73.272  1.00  0.00    -0.000 C 
BRANCH  15  16
ATOM     16  C   UNL     1      53.045  -2.939  72.874  1.00  0.00    -0.000 C 
BRANCH  16  17
ATOM     17  C   UNL     1      52.392  -4.066  73.689  1.00  0.00    -0.003 C 
ATOM     18  C   UNL     1      52.250  -3.714  75.170  1.00  0.00     0.004 C 
ENDBRANCH  16  17
ENDBRANCH  15  16
ENDBRANCH  14  15
ENDBRANCH  13  14
ENDBRANCH  12  13
ENDBRANCH  11  12
ENDBRANCH   1  11
TORSDOF 14
ENDMDL
MODEL 4
REMARK VINA RESULT:    -4.171      3.724      5.044
REMARK INTER + INTRA:          -9.056
REMARK INTER:                  -6.664
REMARK INTRA:                  -2.392
REMARK UNBOUND:                -1.471
REMARK SMILES CCCCCCCCCCCCCCCC(=O)[O-]
REMARK SMILES IDX 9 1 10 2 11 3 12 4 13 5 14 6 15 7 16 8 17 9 18 10 8 11 7 12
REMARK SMILES IDX 6 13 5 14 4 15 3 16 2 17 1 18
REMARK H PARENT
REMARK Flexibility Score: inf
ROOT
ATOM      1  C   UNL     1      49.360  -4.706  72.744  1.00  0.00     0.000 C 
ENDROOT
BRANCH   1   2
ATOM      2  C   UNL     1      48.045  -3.969  73.044  1.00  0.00     0.000 C 
BRANCH   2   3
ATOM      3  C   UNL     1      47.566  -4.170  74.490  1.00  0.00     0.000 C 
BRANCH   3   4
ATOM      4  C   UNL     1      48.023  -3.041  75.427  1.00  0.00     0.000 C 
BRANCH   4   5
ATOM      5  C   UNL     1      48.796  -3.554  76.655  1.00  0.00     0.000 C 
BRANCH   5   6
ATOM      6  C   UNL     1      49.824  -4.668  76.370  1.00  0.00     0.006 C 
BRANCH   6   7
ATOM      7  C   UNL     1      51.074  -4.615  77.268  1.00  0.00     0.053 C 
BRANCH   7   8
ATOM      8  C   UNL     1      50.731  -4.436  78.718  1.00  0.00     0.041 C 
ATOM      9  O   UNL     1      50.972  -3.344  79.295  1.00  0.00    -0.550 OA
ATOM     10  O   UNL     1      50.105  -5.459  79.418  1.00  0.00    -0.550 OA
ENDBRANCH   7   8
ENDBRANCH   6   7
ENDBRANCH   5   6
ENDBRANCH   4   5
ENDBRANCH   3   4
ENDBRANCH   2   3
ENDBRANCH   1   2
BRANCH   1  11
ATOM     11  C   UNL     1      50.442  -3.722  72.271  1.00  0.00     0.000 C 
BRANCH  11  12
ATOM     12  C   UNL     1      51.632  -3.635  73.240  1.00  0.00    -0.000 C 
BRANCH  12  13
ATOM     13  C   UNL     1      51.825  -2.222  73.815  1.00  0.00    -0.000 C 
BRANCH  13  14
ATOM     14  C   UNL     1      52.219  -1.191  72.742  1.00  0.00    -0.000 C 
BRANCH  14  15
ATOM     15  C   UNL     1      51.144  -0.109  72.500  1.00  0.00    -0.000 C 
BRANCH  15  16
ATOM     16  C   UNL     1      50.082  -0.089  73.613  1.00  0.00    -0.000 C 
BRANCH  16  17
ATOM     17  C   UNL     1      48.651  -0.198  73.064  1.00  0.00    -0.003 C 
ATOM     18  C   UNL     1      48.615  -0.645  71.603  1.00  0.00     0.004 C 
ENDBRANCH  16  17
ENDBRANCH  15  16
ENDBRANCH  14  15
ENDBRANCH  13  14
ENDBRANCH  12  13
ENDBRANCH  11  12
ENDBRANCH   1  11
TORSDOF 14
ENDMDL
MODEL 5
REMARK VINA RESULT:    -4.167      2.231      5.173
REMARK INTER + INTRA:          -9.048
REMARK INTER:                  -7.280
REMARK INTRA:                  -1.767
REMARK UNBOUND:                -1.471
REMARK SMILES CCCCCCCCCCCCCCCC(=O)[O-]
REMARK SMILES IDX 9 1 10 2 11 3 12 4 13 5 14 6 15 7 16 8 17 9 18 10 8 11 7 12
REMARK SMILES IDX 6 13 5 14 4 15 3 16 2 17 1 18
REMARK H PARENT
REMARK Flexibility Score: inf
ROOT
ATOM      1  C   UNL     1      48.742   0.491  73.622  1.00  0.00     0.000 C 
ENDROOT
BRANCH   1   2
ATOM      2  C   UNL     1      48.603  -0.363  72.352  1.00  0.00     0.000 C 
BRANCH   2   3
ATOM      3  C   UNL     1      49.959  -0.708  71.716  1.00  0.00     0.000 C 
BRANCH   3   4
ATOM      4  C   UNL     1      51.129   0.042  72.374  1.00  0.00     0.000 C 
BRANCH   4   5
ATOM      5  C   UNL     1      52.439  -0.765  72.367  1.00  0.00     0.000 C 
BRANCH   5   6
ATOM      6  C   UNL     1      52.514  -1.912  73.396  1.00  0.00     0.006 C 
BRANCH   6   7
ATOM      7  C   UNL     1      53.337  -3.125  72.926  1.00  0.00     0.053 C 
BRANCH   7   8
ATOM      8  C   UNL     1      53.591  -4.108  74.030  1.00  0.00     0.041 C 
ATOM      9  O   UNL     1      54.622  -4.005  74.746  1.00  0.00    -0.550 OA
ATOM     10  O   UNL     1      52.668  -5.111  74.298  1.00  0.00    -0.550 OA
ENDBRANCH   7   8
ENDBRANCH   6   7
ENDBRANCH   5   6
ENDBRANCH   4   5
ENDBRANCH   3   4
ENDBRANCH   2   3
ENDBRANCH   1   2
BRANCH   1  11
ATOM     11  C   UNL     1      48.209  -0.265  74.849  1.00  0.00     0.000 C 
BRANCH  11  12
ATOM     12  C   UNL     1      49.120  -1.429  75.272  1.00  0.00    -0.000 C 
BRANCH  12  13
ATOM     13  C   UNL     1      48.450  -2.801  75.083  1.00  0.00    -0.000 C 
BRANCH  13  14
ATOM     14  C   UNL     1      49.400  -3.849  74.473  1.00  0.00    -0.000 C 
BRANCH  14  15
ATOM     15  C   UNL     1      49.233  -4.022  72.949  1.00  0.00    -0.000 C 
BRANCH  15  16
ATOM     16  C   UNL     1      48.244  -5.149  72.600  1.00  0.00    -0.000 C 
BRANCH  16  17
ATOM     17  C   UNL     1      47.525  -5.706  73.838  1.00  0.00    -0.003 C 
ATOM     18  C   UNL     1      46.003  -5.705  73.683  1.00  0.00     0.004 C 
ENDBRANCH  16  17
ENDBRANCH  15  16
ENDBRANCH  14  15
ENDBRANCH  13  14
ENDBRANCH  12  13
ENDBRANCH  11  12
ENDBRANCH   1  11
TORSDOF 14
ENDMDL
MODEL 6
REMARK VINA RESULT:    -4.149      4.089      5.988
REMARK INTER + INTRA:          -9.015
REMARK INTER:                  -6.934
REMARK INTRA:                  -2.081
REMARK UNBOUND:                -1.471
REMARK SMILES CCCCCCCCCCCCCCCC(=O)[O-]
REMARK SMILES IDX 9 1 10 2 11 3 12 4 13 5 14 6 15 7 16 8 17 9 18 10 8 11 7 12
REMARK SMILES IDX 6 13 5 14 4 15 3 16 2 17 1 18
REMARK H PARENT
REMARK Flexibility Score: inf
ROOT
ATOM      1  C   UNL     1      48.534  -2.965  75.213  1.00  0.00     0.000 C 
ENDROOT
BRANCH   1   2
ATOM      2  C   UNL     1      49.744  -3.719  74.641  1.00  0.00     0.000 C 
BRANCH   2   3
ATOM      3  C   UNL     1      49.483  -4.287  73.237  1.00  0.00     0.000 C 
BRANCH   3   4
ATOM      4  C   UNL     1      48.019  -4.120  72.795  1.00  0.00     0.000 C 
BRANCH   4   5
ATOM      5  C   UNL     1      47.294  -5.462  72.598  1.00  0.00     0.000 C 
BRANCH   5   6
ATOM      6  C   UNL     1      46.300  -5.846  73.712  1.00  0.00     0.006 C 
BRANCH   6   7
ATOM      7  C   UNL     1      46.464  -7.286  74.233  1.00  0.00     0.053 C 
BRANCH   7   8
ATOM      8  C   UNL     1      46.067  -8.313  73.213  1.00  0.00     0.041 C 
ATOM      9  O   UNL     1      44.855  -8.614  73.055  1.00  0.00    -0.550 OA
ATOM     10  O   UNL     1      47.031  -8.904  72.407  1.00  0.00    -0.550 OA
ENDBRANCH   7   8
ENDBRANCH   6   7
ENDBRANCH   5   6
ENDBRANCH   4   5
ENDBRANCH   3   4
ENDBRANCH   2   3
ENDBRANCH   1   2
BRANCH   1  11
ATOM     11  C   UNL     1      48.927  -1.540  75.633  1.00  0.00     0.000 C 
BRANCH  11  12
ATOM     12  C   UNL     1      48.057  -0.462  74.967  1.00  0.00    -0.000 C 
BRANCH  12  13
ATOM     13  C   UNL     1      48.794   0.277  73.837  1.00  0.00    -0.000 C 
BRANCH  13  14
ATOM     14  C   UNL     1      48.687  -0.446  72.483  1.00  0.00    -0.000 C 
BRANCH  14  15
ATOM     15  C   UNL     1      50.052  -0.861  71.895  1.00  0.00    -0.000 C 
BRANCH  15  16
ATOM     16  C   UNL     1      51.216  -0.531  72.846  1.00  0.00    -0.000 C 
BRANCH  16  17
ATOM     17  C   UNL     1      52.478  -1.353  72.540  1.00  0.00    -0.003 C 
ATOM     18  C   UNL     1      53.000  -2.106  73.764  1.00  0.00     0.004 C 
ENDBRANCH  16  17
ENDBRANCH  15  16
ENDBRANCH  14  15
ENDBRANCH  13  14
ENDBRANCH  12  13
ENDBRANCH  11  12
ENDBRANCH   1  11
TORSDOF 14
ENDMDL
MODEL 7
REMARK VINA RESULT:    -4.097      3.000      5.241
REMARK INTER + INTRA:          -8.920
REMARK INTER:                  -6.968
REMARK INTRA:                  -1.953
REMARK UNBOUND:                -1.471
REMARK SMILES CCCCCCCCCCCCCCCC(=O)[O-]
REMARK SMILES IDX 9 1 10 2 11 3 12 4 13 5 14 6 15 7 16 8 17 9 18 10 8 11 7 12
REMARK SMILES IDX 6 13 5 14 4 15 3 16 2 17 1 18
REMARK H PARENT
REMARK Flexibility Score: inf
ROOT
ATOM      1  C   UNL     1      50.777  -0.340  72.907  1.00  0.00     0.000 C 
ENDROOT
BRANCH   1   2
ATOM      2  C   UNL     1      52.098  -0.002  72.198  1.00  0.00     0.000 C 
BRANCH   2   3
ATOM      3  C   UNL     1      53.077  -1.187  72.167  1.00  0.00     0.000 C 
BRANCH   3   4
ATOM      4  C   UNL     1      53.143  -1.934  73.509  1.00  0.00     0.000 C 
BRANCH   4   5
ATOM      5  C   UNL     1      53.381  -3.445  73.343  1.00  0.00     0.000 C 
BRANCH   5   6
ATOM      6  C   UNL     1      53.428  -4.254  74.655  1.00  0.00     0.006 C 
BRANCH   6   7
ATOM      7  C   UNL     1      52.110  -4.971  75.000  1.00  0.00     0.053 C 
BRANCH   7   8
ATOM      8  C   UNL     1      51.360  -4.291  76.108  1.00  0.00     0.041 C 
ATOM      9  O   UNL     1      50.815  -3.174  75.910  1.00  0.00    -0.550 OA
ATOM     10  O   UNL     1      51.227  -4.910  77.344  1.00  0.00    -0.550 OA
ENDBRANCH   7   8
ENDBRANCH   6   7
ENDBRANCH   5   6
ENDBRANCH   4   5
ENDBRANCH   3   4
ENDBRANCH   2   3
ENDBRANCH   1   2
BRANCH   1  11
ATOM     11  C   UNL     1      49.880  -1.204  72.007  1.00  0.00     0.000 C 
BRANCH  11  12
ATOM     12  C   UNL     1      49.263  -2.399  72.754  1.00  0.00    -0.000 C 
BRANCH  12  13
ATOM     13  C   UNL     1      49.876  -3.743  72.325  1.00  0.00    -0.000 C 
BRANCH  13  14
ATOM     14  C   UNL     1      49.141  -4.953  72.930  1.00  0.00    -0.000 C 
BRANCH  14  15
ATOM     15  C   UNL     1      47.617  -4.935  72.687  1.00  0.00    -0.000 C 
BRANCH  15  16
ATOM     16  C   UNL     1      46.821  -5.012  74.002  1.00  0.00    -0.000 C 
BRANCH  16  17
ATOM     17  C   UNL     1      47.711  -4.832  75.241  1.00  0.00    -0.003 C 
ATOM     18  C   UNL     1      47.793  -6.099  76.094  1.00  0.00     0.004 C 
ENDBRANCH  16  17
ENDBRANCH  15  16
ENDBRANCH  14  15
ENDBRANCH  13  14
ENDBRANCH  12  13
ENDBRANCH  11  12
ENDBRANCH   1  11
TORSDOF 14
ENDMDL
MODEL 8
REMARK VINA RESULT:    -4.077      2.187      4.026
REMARK INTER + INTRA:          -8.885
REMARK INTER:                  -6.131
REMARK INTRA:                  -2.753
REMARK UNBOUND:                -1.471
REMARK SMILES CCCCCCCCCCCCCCCC(=O)[O-]
REMARK SMILES IDX 9 1 10 2 11 3 12 4 13 5 14 6 15 7 16 8 17 9 18 10 8 11 7 12
REMARK SMILES IDX 6 13 5 14 4 15 3 16 2 17 1 18
REMARK H PARENT
REMARK Flexibility Score: inf
ROOT
ATOM      1  C   UNL     1      49.448  -4.277  72.717  1.00  0.00     0.000 C 
ENDROOT
BRANCH   1   2
ATOM      2  C   UNL     1      48.277  -3.460  73.285  1.00  0.00     0.000 C 
BRANCH   2   3
ATOM      3  C   UNL     1      48.265  -3.424  74.821  1.00  0.00     0.000 C 
BRANCH   3   4
ATOM      4  C   UNL     1      49.615  -3.835  75.432  1.00  0.00     0.000 C 
BRANCH   4   5
ATOM      5  C   UNL     1      50.505  -2.630  75.787  1.00  0.00     0.000 C 
BRANCH   5   6
ATOM      6  C   UNL     1      51.967  -2.725  75.307  1.00  0.00     0.006 C 
BRANCH   6   7
ATOM      7  C   UNL     1      52.430  -4.156  74.977  1.00  0.00     0.053 C 
BRANCH   7   8
ATOM      8  C   UNL     1      53.596  -4.177  74.034  1.00  0.00     0.041 C 
ATOM      9  O   UNL     1      54.479  -5.069  74.138  1.00  0.00    -0.550 OA
ATOM     10  O   UNL     1      53.685  -3.240  73.012  1.00  0.00    -0.550 OA
ENDBRANCH   7   8
ENDBRANCH   6   7
ENDBRANCH   5   6
ENDBRANCH   4   5
ENDBRANCH   3   4
ENDBRANCH   2   3
ENDBRANCH   1   2
BRANCH   1  11
ATOM     11  C   UNL     1      50.402  -3.379  71.914  1.00  0.00     0.000 C 
BRANCH  11  12
ATOM     12  C   UNL     1      49.946  -1.911  71.876  1.00  0.00    -0.000 C 
BRANCH  12  13
ATOM     13  C   UNL     1      51.048  -0.939  72.331  1.00  0.00    -0.000 C 
BRANCH  13  14
ATOM     14  C   UNL     1      50.487   0.316  73.023  1.00  0.00    -0.000 C 
BRANCH  14  15
ATOM     15  C   UNL     1      49.006   0.184  73.437  1.00  0.00    -0.000 C 
BRANCH  15  16
ATOM     16  C   UNL     1      48.796   0.471  74.935  1.00  0.00    -0.000 C 
BRANCH  16  17
ATOM     17  C   UNL     1      47.325   0.338  75.359  1.00  0.00    -0.003 C 
ATOM     18  C   UNL     1      47.157  -0.461  76.652  1.00  0.00     0.004 C 
ENDBRANCH  16  17
ENDBRANCH  15  16
ENDBRANCH  14  15
ENDBRANCH  13  14
ENDBRANCH  12  13
ENDBRANCH  11  12
ENDBRANCH   1  11
TORSDOF 14
ENDMDL
MODEL 9
REMARK VINA RESULT:    -4.049      3.356      5.593
REMARK INTER + INTRA:          -8.834
REMARK INTER:                  -6.818
REMARK INTRA:                  -2.016
REMARK UNBOUND:                -1.471
REMARK SMILES CCCCCCCCCCCCCCCC(=O)[O-]
REMARK SMILES IDX 9 1 10 2 11 3 12 4 13 5 14 6 15 7 16 8 17 9 18 10 8 11 7 12
REMARK SMILES IDX 6 13 5 14 4 15 3 16 2 17 1 18
REMARK H PARENT
REMARK Flexibility Score: inf
ROOT
ATOM      1  C   UNL     1      49.769  -4.112  72.423  1.00  0.00     0.000 C 
ENDROOT
BRANCH   1   2
ATOM      2  C   UNL     1      48.245  -4.079  72.619  1.00  0.00     0.000 C 
BRANCH   2   3
ATOM      3  C   UNL     1      47.810  -4.599  73.998  1.00  0.00     0.000 C 
BRANCH   3   4
ATOM      4  C   UNL     1      46.710  -5.669  73.906  1.00  0.00     0.000 C 
BRANCH   4   5
ATOM      5  C   UNL     1      46.405  -6.094  72.460  1.00  0.00     0.000 C 
BRANCH   5   6
ATOM      6  C   UNL     1      46.827  -7.531  72.091  1.00  0.00     0.006 C 
BRANCH   6   7
ATOM      7  C   UNL     1      48.330  -7.811  72.270  1.00  0.00     0.053 C 
BRANCH   7   8
ATOM      8  C   UNL     1      48.598  -8.851  73.319  1.00  0.00     0.041 C 
ATOM      9  O   UNL     1      49.728  -9.400  73.391  1.00  0.00    -0.550 OA
ATOM     10  O   UNL     1      47.615  -9.180  74.242  1.00  0.00    -0.550 OA
ENDBRANCH   7   8
ENDBRANCH   6   7
ENDBRANCH   5   6
ENDBRANCH   4   5
ENDBRANCH   3   4
ENDBRANCH   2   3
ENDBRANCH   1   2
BRANCH   1  11
ATOM     11  C   UNL     1      50.490  -4.256  73.773  1.00  0.00     0.000 C 
BRANCH  11  12
ATOM     12  C   UNL     1      51.744  -3.373  73.874  1.00  0.00    -0.000 C 
BRANCH  12  13
ATOM     13  C   UNL     1      51.942  -2.485  72.634  1.00  0.00    -0.000 C 
BRANCH  13  14
ATOM     14  C   UNL     1      52.156  -1.003  72.989  1.00  0.00    -0.000 C 
BRANCH  14  15
ATOM     15  C   UNL     1      51.185  -0.047  72.264  1.00  0.00    -0.000 C 
BRANCH  15  16
ATOM     16  C   UNL     1      49.863  -0.740  71.889  1.00  0.00    -0.000 C 
BRANCH  16  17
ATOM     17  C   UNL     1      48.675  -0.230  72.719  1.00  0.00    -0.003 C 
ATOM     18  C   UNL     1      48.716  -0.721  74.167  1.00  0.00     0.004 C 
ENDBRANCH  16  17
ENDBRANCH  15  16
ENDBRANCH  14  15
ENDBRANCH  13  14
ENDBRANCH  12  13
ENDBRANCH  11  12
ENDBRANCH   1  11
TORSDOF 14
ENDMDL
