MODEL 1
REMARK VINA RESULT:     7.068      0.000      0.000
REMARK INTER + INTRA:          16.580
REMARK INTER:                  17.810
REMARK INTRA:                  -1.230
REMARK UNBOUND:                -1.230
REMARK SMILES CCCCCCCCCCCCCCCCCCCCCCCCCCCC(=O)[O-]
REMARK SMILES IDX 15 1 16 2 17 3 18 4 19 5 20 6 21 7 22 8 23 9 24 10 25 11
REMARK SMILES IDX 26 12 27 13 28 14 29 15 30 16 14 17 13 18 12 19 11 20 10 21
REMARK SMILES IDX 9 22 8 23 7 24 6 25 5 26 4 27 3 28 2 29 1 30
REMARK H PARENT
REMARK Flexibility Score: inf
ROOT
ATOM      1  C   UNL     1      29.245  48.771  26.076  1.00  0.00     0.000 C 
ENDROOT
BRANCH   1   2
ATOM      2  C   UNL     1      28.367  49.985  26.403  1.00  0.00     0.000 C 
BRANCH   2   3
ATOM      3  C   UNL     1      27.072  49.967  25.576  1.00  0.00     0.000 C 
BRANCH   3   4
ATOM      4  C   UNL     1      25.905  50.699  26.270  1.00  0.00     0.000 C 
BRANCH   4   5
ATOM      5  C   UNL     1      25.211  51.758  25.389  1.00  0.00     0.000 C 
BRANCH   5   6
ATOM      6  C   UNL     1      24.040  52.507  26.054  1.00  0.00     0.000 C 
BRANCH   6   7
ATOM      7  C   UNL     1      24.222  52.813  27.556  1.00  0.00     0.000 C 
BRANCH   7   8
ATOM      8  C   UNL     1      23.420  54.020  28.073  1.00  0.00     0.000 C 
BRANCH   8   9
ATOM      9  C   UNL     1      22.196  53.608  28.907  1.00  0.00     0.000 C 
BRANCH   9  10
ATOM     10  C   UNL     1      21.760  54.701  29.898  1.00  0.00     0.000 C 
BRANCH  10  11
ATOM     11  C   UNL     1      21.819  54.251  31.373  1.00  0.00     0.000 C 
BRANCH  11  12
ATOM     12  C   UNL     1      23.090  54.751  32.085  1.00  0.00     0.006 C 
BRANCH  12  13
ATOM     13  C   UNL     1      22.895  54.872  33.602  1.00  0.00     0.053 C 
BRANCH  13  14
ATOM     14  C   UNL     1      24.205  54.975  34.323  1.00  0.00     0.041 C 
ATOM     15  O   UNL     1      24.245  54.904  35.580  1.00  0.00    -0.550 OA
ATOM     16  O   UNL     1      25.384  55.116  33.605  1.00  0.00    -0.550 OA
ENDBRANCH  13  14
ENDBRANCH  12  13
ENDBRANCH  11  12
ENDBRANCH  10  11
ENDBRANCH   9  10
ENDBRANCH   8   9
ENDBRANCH   7   8
ENDBRANCH   6   7
ENDBRANCH   5   6
ENDBRANCH   4   5
ENDBRANCH   3   4
ENDBRANCH   2   3
ENDBRANCH   1   2
BRANCH   1  17
ATOM     17  C   UNL     1      30.736  49.124  26.189  1.00  0.00     0.000 C 
BRANCH  17  18
ATOM     18  C   UNL     1      31.642  47.889  26.050  1.00  0.00     0.000 C 
BRANCH  18  19
ATOM     19  C   UNL     1      33.135  48.256  26.118  1.00  0.00     0.000 C 
BRANCH  19  20
ATOM     20  C   UNL     1      34.042  47.024  26.265  1.00  0.00     0.000 C 
BRANCH  20  21
ATOM     21  C   UNL     1      33.916  46.044  25.085  1.00  0.00     0.000 C 
BRANCH  21  22
ATOM     22  C   UNL     1      34.328  46.673  23.737  1.00  0.00    -0.000 C 
BRANCH  22  23
ATOM     23  C   UNL     1      35.704  47.367  23.761  1.00  0.00    -0.000 C 
BRANCH  23  24
ATOM     24  C   UNL     1      36.893  46.484  23.338  1.00  0.00    -0.000 C 
BRANCH  24  25
ATOM     25  C   UNL     1      37.810  46.027  24.491  1.00  0.00    -0.000 C 
BRANCH  25  26
ATOM     26  C   UNL     1      38.550  44.696  24.250  1.00  0.00    -0.000 C 
BRANCH  26  27
ATOM     27  C   UNL     1      39.941  44.598  24.900  1.00  0.00    -0.000 C 
BRANCH  27  28
ATOM     28  C   UNL     1      41.069  45.058  23.965  1.00  0.00    -0.000 C 
BRANCH  28  29
ATOM     29  C   UNL     1      40.534  45.340  22.556  1.00  0.00    -0.003 C 
ATOM     30  C   UNL     1      40.730  46.805  22.175  1.00  0.00     0.004 C 
ENDBRANCH  28  29
ENDBRANCH  27  28
ENDBRANCH  26  27
ENDBRANCH  25  26
ENDBRANCH  24  25
ENDBRANCH  23  24
ENDBRANCH  22  23
ENDBRANCH  21  22
ENDBRANCH  20  21
ENDBRANCH  19  20
ENDBRANCH  18  19
ENDBRANCH  17  18
ENDBRANCH   1  17
TORSDOF 26
ENDMDL
MODEL 2
REMARK VINA RESULT:     7.107      7.246     17.544
REMARK INTER + INTRA:          16.679
REMARK INTER:                  17.718
REMARK INTRA:                  -1.039
REMARK UNBOUND:                -1.230
REMARK SMILES CCCCCCCCCCCCCCCCCCCCCCCCCCCC(=O)[O-]
REMARK SMILES IDX 15 1 16 2 17 3 18 4 19 5 20 6 21 7 22 8 23 9 24 10 25 11
REMARK SMILES IDX 26 12 27 13 28 14 29 15 30 16 14 17 13 18 12 19 11 20 10 21
REMARK SMILES IDX 9 22 8 23 7 24 6 25 5 26 4 27 3 28 2 29 1 30
REMARK H PARENT
REMARK Flexibility Score: inf
ROOT
ATOM      1  C   UNL     1      35.577  46.917  23.722  1.00  0.00     0.000 C 
ENDROOT
BRANCH   1   2
ATOM      2  C   UNL     1      37.007  46.436  23.450  1.00  0.00     0.000 C 
BRANCH   2   3
ATOM      3  C   UNL     1      37.626  45.809  24.709  1.00  0.00     0.000 C 
BRANCH   3   4
ATOM      4  C   UNL     1      39.121  45.468  24.539  1.00  0.00     0.000 C 
BRANCH   4   5
ATOM      5  C   UNL     1      39.517  45.067  23.103  1.00  0.00     0.000 C 
BRANCH   5   6
ATOM      6  C   UNL     1      40.427  46.066  22.364  1.00  0.00     0.000 C 
BRANCH   6   7
ATOM      7  C   UNL     1      41.065  45.539  21.061  1.00  0.00     0.000 C 
BRANCH   7   8
ATOM      8  C   UNL     1      41.125  44.006  20.943  1.00  0.00     0.000 C 
BRANCH   8   9
ATOM      9  C   UNL     1      41.101  43.520  19.486  1.00  0.00     0.000 C 
BRANCH   9  10
ATOM     10  C   UNL     1      40.923  41.996  19.372  1.00  0.00     0.000 C 
BRANCH  10  11
ATOM     11  C   UNL     1      39.501  41.573  18.948  1.00  0.00     0.000 C 
BRANCH  11  12
ATOM     12  C   UNL     1      39.516  40.487  17.857  1.00  0.00     0.006 C 
BRANCH  12  13
ATOM     13  C   UNL     1      40.030  39.141  18.385  1.00  0.00     0.053 C 
BRANCH  13  14
ATOM     14  C   UNL     1      38.958  38.383  19.108  1.00  0.00     0.041 C 
ATOM     15  O   UNL     1      38.880  37.131  18.996  1.00  0.00    -0.550 OA
ATOM     16  O   UNL     1      38.065  39.056  19.931  1.00  0.00    -0.550 OA
ENDBRANCH  13  14
ENDBRANCH  12  13
ENDBRANCH  11  12
ENDBRANCH  10  11
ENDBRANCH   9  10
ENDBRANCH   8   9
ENDBRANCH   7   8
ENDBRANCH   6   7
ENDBRANCH   5   6
ENDBRANCH   4   5
ENDBRANCH   3   4
ENDBRANCH   2   3
ENDBRANCH   1   2
BRANCH   1  17
ATOM     17  C   UNL     1      34.704  45.773  24.258  1.00  0.00     0.000 C 
BRANCH  17  18
ATOM     18  C   UNL     1      33.578  46.276  25.176  1.00  0.00     0.000 C 
BRANCH  18  19
ATOM     19  C   UNL     1      33.833  47.711  25.673  1.00  0.00     0.000 C 
BRANCH  19  20
ATOM     20  C   UNL     1      32.713  48.229  26.589  1.00  0.00     0.000 C 
BRANCH  20  21
ATOM     21  C   UNL     1      31.323  48.157  25.933  1.00  0.00     0.000 C 
BRANCH  21  22
ATOM     22  C   UNL     1      30.247  48.933  26.722  1.00  0.00    -0.000 C 
BRANCH  22  23
ATOM     23  C   UNL     1      29.187  49.617  25.837  1.00  0.00    -0.000 C 
BRANCH  23  24
ATOM     24  C   UNL     1      28.003  50.246  26.595  1.00  0.00    -0.000 C 
BRANCH  24  25
ATOM     25  C   UNL     1      26.614  49.958  25.990  1.00  0.00    -0.000 C 
BRANCH  25  26
ATOM     26  C   UNL     1      26.005  51.116  25.173  1.00  0.00    -0.000 C 
BRANCH  26  27
ATOM     27  C   UNL     1      24.898  51.907  25.893  1.00  0.00    -0.000 C 
BRANCH  27  28
ATOM     28  C   UNL     1      24.202  51.093  26.993  1.00  0.00    -0.000 C 
BRANCH  28  29
ATOM     29  C   UNL     1      23.292  51.985  27.844  1.00  0.00    -0.003 C 
ATOM     30  C   UNL     1      23.444  53.455  27.459  1.00  0.00     0.004 C 
ENDBRANCH  28  29
ENDBRANCH  27  28
ENDBRANCH  26  27
ENDBRANCH  25  26
ENDBRANCH  24  25
ENDBRANCH  23  24
ENDBRANCH  22  23
ENDBRANCH  21  22
ENDBRANCH  20  21
ENDBRANCH  19  20
ENDBRANCH  18  19
ENDBRANCH  17  18
ENDBRANCH   1  17
TORSDOF 26
ENDMDL
MODEL 3
REMARK VINA RESULT:     7.931      3.690      7.725
REMARK INTER + INTRA:          18.757
REMARK INTER:                  19.853
REMARK INTRA:                  -1.096
REMARK UNBOUND:                -1.230
REMARK SMILES CCCCCCCCCCCCCCCCCCCCCCCCCCCC(=O)[O-]
REMARK SMILES IDX 15 1 16 2 17 3 18 4 19 5 20 6 21 7 22 8 23 9 24 10 25 11
REMARK SMILES IDX 26 12 27 13 28 14 29 15 30 16 14 17 13 18 12 19 11 20 10 21
REMARK SMILES IDX 9 22 8 23 7 24 6 25 5 26 4 27 3 28 2 29 1 30
REMARK H PARENT
REMARK Flexibility Score: inf
ROOT
ATOM      1  C   UNL     1      34.846  46.693  22.881  1.00  0.00     0.000 C 
ENDROOT
BRANCH   1   2
ATOM      2  C   UNL     1      33.769  45.876  23.605  1.00  0.00     0.000 C 
BRANCH   2   3
ATOM      3  C   UNL     1      34.219  45.511  25.028  1.00  0.00     0.000 C 
BRANCH   3   4
ATOM      4  C   UNL     1      33.369  46.193  26.120  1.00  0.00     0.000 C 
BRANCH   4   5
ATOM      5  C   UNL     1      33.311  47.730  26.006  1.00  0.00     0.000 C 
BRANCH   5   6
ATOM      6  C   UNL     1      32.185  48.410  26.809  1.00  0.00     0.000 C 
BRANCH   6   7
ATOM      7  C   UNL     1      30.757  48.173  26.273  1.00  0.00     0.000 C 
BRANCH   7   8
ATOM      8  C   UNL     1      29.743  49.276  26.618  1.00  0.00     0.000 C 
BRANCH   8   9
ATOM      9  C   UNL     1      28.499  49.245  25.717  1.00  0.00     0.000 C 
BRANCH   9  10
ATOM     10  C   UNL     1      27.835  50.625  25.574  1.00  0.00     0.000 C 
BRANCH  10  11
ATOM     11  C   UNL     1      26.317  50.609  25.849  1.00  0.00     0.000 C 
BRANCH  11  12
ATOM     12  C   UNL     1      25.560  51.654  25.010  1.00  0.00     0.006 C 
BRANCH  12  13
ATOM     13  C   UNL     1      24.109  51.832  25.476  1.00  0.00     0.053 C 
BRANCH  13  14
ATOM     14  C   UNL     1      24.030  52.124  26.944  1.00  0.00     0.041 C 
ATOM     15  O   UNL     1      23.773  51.202  27.762  1.00  0.00    -0.550 OA
ATOM     16  O   UNL     1      24.272  53.409  27.410  1.00  0.00    -0.550 OA
ENDBRANCH  13  14
ENDBRANCH  12  13
ENDBRANCH  11  12
ENDBRANCH  10  11
ENDBRANCH   9  10
ENDBRANCH   8   9
ENDBRANCH   7   8
ENDBRANCH   6   7
ENDBRANCH   5   6
ENDBRANCH   4   5
ENDBRANCH   3   4
ENDBRANCH   2   3
ENDBRANCH   1   2
BRANCH   1  17
ATOM     17  C   UNL     1      36.028  46.995  23.813  1.00  0.00     0.000 C 
BRANCH  17  18
ATOM     18  C   UNL     1      37.353  46.422  23.284  1.00  0.00     0.000 C 
BRANCH  18  19
ATOM     19  C   UNL     1      38.156  45.705  24.384  1.00  0.00     0.000 C 
BRANCH  19  20
ATOM     20  C   UNL     1      39.514  45.186  23.886  1.00  0.00     0.000 C 
BRANCH  20  21
ATOM     21  C   UNL     1      39.819  45.607  22.437  1.00  0.00     0.000 C 
BRANCH  21  22
ATOM     22  C   UNL     1      41.124  44.986  21.894  1.00  0.00    -0.000 C 
BRANCH  22  23
ATOM     23  C   UNL     1      40.914  43.697  21.076  1.00  0.00    -0.000 C 
BRANCH  23  24
ATOM     24  C   UNL     1      40.888  43.885  19.548  1.00  0.00    -0.000 C 
BRANCH  24  25
ATOM     25  C   UNL     1      41.096  42.595  18.728  1.00  0.00    -0.000 C 
BRANCH  25  26
ATOM     26  C   UNL     1      39.841  41.712  18.570  1.00  0.00    -0.000 C 
BRANCH  26  27
ATOM     27  C   UNL     1      40.055  40.218  18.869  1.00  0.00    -0.000 C 
BRANCH  27  28
ATOM     28  C   UNL     1      38.763  39.505  19.295  1.00  0.00    -0.000 C 
BRANCH  28  29
ATOM     29  C   UNL     1      38.955  37.984  19.306  1.00  0.00    -0.003 C 
ATOM     30  C   UNL     1      37.681  37.270  19.749  1.00  0.00     0.004 C 
ENDBRANCH  28  29
ENDBRANCH  27  28
ENDBRANCH  26  27
ENDBRANCH  25  26
ENDBRANCH  24  25
ENDBRANCH  23  24
ENDBRANCH  22  23
ENDBRANCH  21  22
ENDBRANCH  20  21
ENDBRANCH  19  20
ENDBRANCH  18  19
ENDBRANCH  17  18
ENDBRANCH   1  17
TORSDOF 26
ENDMDL
MODEL 4
REMARK VINA RESULT:     7.993      1.083      1.733
REMARK INTER + INTRA:          18.912
REMARK INTER:                  18.651
REMARK INTRA:                   0.260
REMARK UNBOUND:                -1.230
REMARK SMILES CCCCCCCCCCCCCCCCCCCCCCCCCCCC(=O)[O-]
REMARK SMILES IDX 15 1 16 2 17 3 18 4 19 5 20 6 21 7 22 8 23 9 24 10 25 11
REMARK SMILES IDX 26 12 27 13 28 14 29 15 30 16 14 17 13 18 12 19 11 20 10 21
REMARK SMILES IDX 9 22 8 23 7 24 6 25 5 26 4 27 3 28 2 29 1 30
REMARK H PARENT
REMARK Flexibility Score: inf
ROOT
ATOM      1  C   UNL     1      29.295  48.657  26.005  1.00  0.00     0.000 C 
ENDROOT
BRANCH   1   2
ATOM      2  C   UNL     1      28.489  49.916  26.347  1.00  0.00     0.000 C 
BRANCH   2   3
ATOM      3  C   UNL     1      27.265  50.052  25.429  1.00  0.00     0.000 C 
BRANCH   3   4
ATOM      4  C   UNL     1      26.042  50.662  26.144  1.00  0.00     0.000 C 
BRANCH   4   5
ATOM      5  C   UNL     1      25.253  51.676  25.290  1.00  0.00     0.000 C 
BRANCH   5   6
ATOM      6  C   UNL     1      23.914  52.145  25.891  1.00  0.00     0.000 C 
BRANCH   6   7
ATOM      7  C   UNL     1      23.843  52.134  27.433  1.00  0.00     0.000 C 
BRANCH   7   8
ATOM      8  C   UNL     1      23.538  53.496  28.078  1.00  0.00     0.000 C 
BRANCH   8   9
ATOM      9  C   UNL     1      22.466  53.409  29.176  1.00  0.00     0.000 C 
BRANCH   9  10
ATOM     10  C   UNL     1      22.139  54.778  29.796  1.00  0.00     0.000 C 
BRANCH  10  11
ATOM     11  C   UNL     1      22.618  54.921  31.256  1.00  0.00     0.000 C 
BRANCH  11  12
ATOM     12  C   UNL     1      21.448  55.125  32.236  1.00  0.00     0.006 C 
BRANCH  12  13
ATOM     13  C   UNL     1      21.326  53.971  33.242  1.00  0.00     0.053 C 
BRANCH  13  14
ATOM     14  C   UNL     1      21.876  54.346  34.585  1.00  0.00     0.041 C 
ATOM     15  O   UNL     1      23.108  54.241  34.818  1.00  0.00    -0.550 OA
ATOM     16  O   UNL     1      21.030  54.841  35.568  1.00  0.00    -0.550 OA
ENDBRANCH  13  14
ENDBRANCH  12  13
ENDBRANCH  11  12
ENDBRANCH  10  11
ENDBRANCH   9  10
ENDBRANCH   8   9
ENDBRANCH   7   8
ENDBRANCH   6   7
ENDBRANCH   5   6
ENDBRANCH   4   5
ENDBRANCH   3   4
ENDBRANCH   2   3
ENDBRANCH   1   2
BRANCH   1  17
ATOM     17  C   UNL     1      30.803  48.951  26.011  1.00  0.00     0.000 C 
BRANCH  17  18
ATOM     18  C   UNL     1      31.634  47.741  26.472  1.00  0.00     0.000 C 
BRANCH  18  19
ATOM     19  C   UNL     1      33.147  48.005  26.372  1.00  0.00     0.000 C 
BRANCH  19  20
ATOM     20  C   UNL     1      33.990  46.802  26.823  1.00  0.00     0.000 C 
BRANCH  20  21
ATOM     21  C   UNL     1      33.718  45.537  25.990  1.00  0.00     0.000 C 
BRANCH  21  22
ATOM     22  C   UNL     1      33.798  45.791  24.470  1.00  0.00    -0.000 C 
BRANCH  22  23
ATOM     23  C   UNL     1      35.007  46.642  24.037  1.00  0.00    -0.000 C 
BRANCH  23  24
ATOM     24  C   UNL     1      35.086  46.953  22.530  1.00  0.00    -0.000 C 
BRANCH  24  25
ATOM     25  C   UNL     1      36.426  47.554  22.058  1.00  0.00    -0.000 C 
BRANCH  25  26
ATOM     26  C   UNL     1      37.685  46.883  22.643  1.00  0.00    -0.000 C 
BRANCH  26  27
ATOM     27  C   UNL     1      37.445  46.046  23.911  1.00  0.00    -0.000 C 
BRANCH  27  28
ATOM     28  C   UNL     1      38.730  45.397  24.449  1.00  0.00    -0.000 C 
BRANCH  28  29
ATOM     29  C   UNL     1      39.934  45.753  23.570  1.00  0.00    -0.003 C 
ATOM     30  C   UNL     1      40.777  44.518  23.262  1.00  0.00     0.004 C 
ENDBRANCH  28  29
ENDBRANCH  27  28
ENDBRANCH  26  27
ENDBRANCH  25  26
ENDBRANCH  24  25
ENDBRANCH  23  24
ENDBRANCH  22  23
ENDBRANCH  21  22
ENDBRANCH  20  21
ENDBRANCH  19  20
ENDBRANCH  18  19
ENDBRANCH  17  18
ENDBRANCH   1  17
TORSDOF 26
ENDMDL
MODEL 5
REMARK VINA RESULT:     7.995      6.787     10.629
REMARK INTER + INTRA:          18.916
REMARK INTER:                  20.449
REMARK INTRA:                  -1.533
REMARK UNBOUND:                -1.230
REMARK SMILES CCCCCCCCCCCCCCCCCCCCCCCCCCCC(=O)[O-]
REMARK SMILES IDX 15 1 16 2 17 3 18 4 19 5 20 6 21 7 22 8 23 9 24 10 25 11
REMARK SMILES IDX 26 12 27 13 28 14 29 15 30 16 14 17 13 18 12 19 11 20 10 21
REMARK SMILES IDX 9 22 8 23 7 24 6 25 5 26 4 27 3 28 2 29 1 30
REMARK H PARENT
REMARK Flexibility Score: inf
ROOT
ATOM      1  C   UNL     1      37.747  45.645  24.857  1.00  0.00     0.000 C 
ENDROOT
BRANCH   1   2
ATOM      2  C   UNL     1      37.335  46.315  23.541  1.00  0.00     0.000 C 
BRANCH   2   3
ATOM      3  C   UNL     1      36.125  47.239  23.748  1.00  0.00     0.000 C 
BRANCH   3   4
ATOM      4  C   UNL     1      35.568  47.806  22.425  1.00  0.00     0.000 C 
BRANCH   4   5
ATOM      5  C   UNL     1      34.176  47.263  22.043  1.00  0.00     0.000 C 
BRANCH   5   6
ATOM      6  C   UNL     1      33.788  45.923  22.697  1.00  0.00     0.000 C 
BRANCH   6   7
ATOM      7  C   UNL     1      32.802  46.029  23.880  1.00  0.00     0.000 C 
BRANCH   7   8
ATOM      8  C   UNL     1      33.139  45.137  25.086  1.00  0.00     0.000 C 
BRANCH   8   9
ATOM      9  C   UNL     1      34.386  45.612  25.848  1.00  0.00     0.000 C 
BRANCH   9  10
ATOM     10  C   UNL     1      34.132  46.893  26.661  1.00  0.00     0.000 C 
BRANCH  10  11
ATOM     11  C   UNL     1      33.917  48.145  25.784  1.00  0.00     0.000 C 
BRANCH  11  12
ATOM     12  C   UNL     1      32.778  49.038  26.310  1.00  0.00     0.006 C 
BRANCH  12  13
ATOM     13  C   UNL     1      31.692  48.228  27.031  1.00  0.00     0.053 C 
BRANCH  13  14
ATOM     14  C   UNL     1      30.415  48.192  26.248  1.00  0.00     0.041 C 
ATOM     15  O   UNL     1      29.332  47.886  26.813  1.00  0.00    -0.550 OA
ATOM     16  O   UNL     1      30.416  48.527  24.901  1.00  0.00    -0.550 OA
ENDBRANCH  13  14
ENDBRANCH  12  13
ENDBRANCH  11  12
ENDBRANCH  10  11
ENDBRANCH   9  10
ENDBRANCH   8   9
ENDBRANCH   7   8
ENDBRANCH   6   7
ENDBRANCH   5   6
ENDBRANCH   4   5
ENDBRANCH   3   4
ENDBRANCH   2   3
ENDBRANCH   1   2
BRANCH   1  17
ATOM     17  C   UNL     1      39.275  45.535  24.964  1.00  0.00     0.000 C 
BRANCH  17  18
ATOM     18  C   UNL     1      39.829  44.319  24.203  1.00  0.00     0.000 C 
BRANCH  18  19
ATOM     19  C   UNL     1      41.124  44.653  23.441  1.00  0.00     0.000 C 
BRANCH  19  20
ATOM     20  C   UNL     1      40.963  45.851  22.492  1.00  0.00     0.000 C 
BRANCH  20  21
ATOM     21  C   UNL     1      40.871  45.434  21.014  1.00  0.00     0.000 C 
BRANCH  21  22
ATOM     22  C   UNL     1      41.095  43.922  20.803  1.00  0.00    -0.000 C 
BRANCH  22  23
ATOM     23  C   UNL     1      40.493  43.372  19.495  1.00  0.00    -0.000 C 
BRANCH  23  24
ATOM     24  C   UNL     1      41.124  42.066  18.979  1.00  0.00    -0.000 C 
BRANCH  24  25
ATOM     25  C   UNL     1      40.196  40.833  19.019  1.00  0.00    -0.000 C 
BRANCH  25  26
ATOM     26  C   UNL     1      40.298  39.899  17.796  1.00  0.00    -0.000 C 
BRANCH  26  27
ATOM     27  C   UNL     1      39.877  38.442  18.054  1.00  0.00    -0.000 C 
BRANCH  27  28
ATOM     28  C   UNL     1      39.054  38.278  19.340  1.00  0.00    -0.000 C 
BRANCH  28  29
ATOM     29  C   UNL     1      37.611  38.754  19.133  1.00  0.00    -0.003 C 
ATOM     30  C   UNL     1      36.946  39.096  20.464  1.00  0.00     0.004 C 
ENDBRANCH  28  29
ENDBRANCH  27  28
ENDBRANCH  26  27
ENDBRANCH  25  26
ENDBRANCH  24  25
ENDBRANCH  23  24
ENDBRANCH  22  23
ENDBRANCH  21  22
ENDBRANCH  20  21
ENDBRANCH  19  20
ENDBRANCH  18  19
ENDBRANCH  17  18
ENDBRANCH   1  17
TORSDOF 26
ENDMDL
MODEL 6
REMARK VINA RESULT:     8.036      5.959     16.066
REMARK INTER + INTRA:          19.020
REMARK INTER:                  19.413
REMARK INTRA:                  -0.393
REMARK UNBOUND:                -1.230
REMARK SMILES CCCCCCCCCCCCCCCCCCCCCCCCCCCC(=O)[O-]
REMARK SMILES IDX 15 1 16 2 17 3 18 4 19 5 20 6 21 7 22 8 23 9 24 10 25 11
REMARK SMILES IDX 26 12 27 13 28 14 29 15 30 16 14 17 13 18 12 19 11 20 10 21
REMARK SMILES IDX 9 22 8 23 7 24 6 25 5 26 4 27 3 28 2 29 1 30
REMARK H PARENT
REMARK Flexibility Score: inf
ROOT
ATOM      1  C   UNL     1      30.388  48.247  26.568  1.00  0.00     0.000 C 
ENDROOT
BRANCH   1   2
ATOM      2  C   UNL     1      31.773  48.865  26.344  1.00  0.00     0.000 C 
BRANCH   2   3
ATOM      3  C   UNL     1      32.884  47.911  26.809  1.00  0.00     0.000 C 
BRANCH   3   4
ATOM      4  C   UNL     1      33.714  47.340  25.641  1.00  0.00     0.000 C 
BRANCH   4   5
ATOM      5  C   UNL     1      33.086  46.103  24.967  1.00  0.00     0.000 C 
BRANCH   5   6
ATOM      6  C   UNL     1      33.222  46.045  23.433  1.00  0.00     0.000 C 
BRANCH   6   7
ATOM      7  C   UNL     1      34.669  45.960  22.903  1.00  0.00     0.000 C 
BRANCH   7   8
ATOM      8  C   UNL     1      35.411  47.305  22.825  1.00  0.00     0.000 C 
BRANCH   8   9
ATOM      9  C   UNL     1      36.901  47.185  23.178  1.00  0.00     0.000 C 
BRANCH   9  10
ATOM     10  C   UNL     1      37.298  45.758  23.595  1.00  0.00     0.000 C 
BRANCH  10  11
ATOM     11  C   UNL     1      38.489  45.714  24.575  1.00  0.00     0.000 C 
BRANCH  11  12
ATOM     12  C   UNL     1      39.701  44.967  23.988  1.00  0.00     0.006 C 
BRANCH  12  13
ATOM     13  C   UNL     1      40.718  45.923  23.349  1.00  0.00     0.053 C 
BRANCH  13  14
ATOM     14  C   UNL     1      40.933  45.616  21.898  1.00  0.00     0.041 C 
ATOM     15  O   UNL     1      41.124  46.549  21.074  1.00  0.00    -0.550 OA
ATOM     16  O   UNL     1      40.954  44.299  21.462  1.00  0.00    -0.550 OA
ENDBRANCH  13  14
ENDBRANCH  12  13
ENDBRANCH  11  12
ENDBRANCH  10  11
ENDBRANCH   9  10
ENDBRANCH   8   9
ENDBRANCH   7   8
ENDBRANCH   6   7
ENDBRANCH   5   6
ENDBRANCH   4   5
ENDBRANCH   3   4
ENDBRANCH   2   3
ENDBRANCH   1   2
BRANCH   1  17
ATOM     17  C   UNL     1      29.345  48.880  25.635  1.00  0.00     0.000 C 
BRANCH  17  18
ATOM     18  C   UNL     1      28.409  49.850  26.375  1.00  0.00     0.000 C 
BRANCH  18  19
ATOM     19  C   UNL     1      27.108  50.110  25.595  1.00  0.00     0.000 C 
BRANCH  19  20
ATOM     20  C   UNL     1      26.100  50.958  26.387  1.00  0.00     0.000 C 
BRANCH  20  21
ATOM     21  C   UNL     1      24.865  51.349  25.555  1.00  0.00     0.000 C 
BRANCH  21  22
ATOM     22  C   UNL     1      23.936  52.338  26.290  1.00  0.00    -0.000 C 
BRANCH  22  23
ATOM     23  C   UNL     1      23.755  52.035  27.790  1.00  0.00    -0.000 C 
BRANCH  23  24
ATOM     24  C   UNL     1      23.757  53.267  28.715  1.00  0.00    -0.000 C 
BRANCH  24  25
ATOM     25  C   UNL     1      22.667  54.315  28.408  1.00  0.00    -0.000 C 
BRANCH  25  26
ATOM     26  C   UNL     1      21.573  54.454  29.487  1.00  0.00    -0.000 C 
BRANCH  26  27
ATOM     27  C   UNL     1      22.086  54.838  30.886  1.00  0.00    -0.000 C 
BRANCH  27  28
ATOM     28  C   UNL     1      23.605  54.669  31.031  1.00  0.00    -0.000 C 
BRANCH  28  29
ATOM     29  C   UNL     1      24.005  54.549  32.506  1.00  0.00    -0.003 C 
ATOM     30  C   UNL     1      22.782  54.338  33.394  1.00  0.00     0.004 C 
ENDBRANCH  28  29
ENDBRANCH  27  28
ENDBRANCH  26  27
ENDBRANCH  25  26
ENDBRANCH  24  25
ENDBRANCH  23  24
ENDBRANCH  22  23
ENDBRANCH  21  22
ENDBRANCH  20  21
ENDBRANCH  19  20
ENDBRANCH  18  19
ENDBRANCH  17  18
ENDBRANCH   1  17
TORSDOF 26
ENDMDL
MODEL 7
REMARK VINA RESULT:     8.139      5.161     15.758
REMARK INTER + INTRA:          19.281
REMARK INTER:                  20.548
REMARK INTRA:                  -1.267
REMARK UNBOUND:                -1.230
REMARK SMILES CCCCCCCCCCCCCCCCCCCCCCCCCCCC(=O)[O-]
REMARK SMILES IDX 15 1 16 2 17 3 18 4 19 5 20 6 21 7 22 8 23 9 24 10 25 11
REMARK SMILES IDX 26 12 27 13 28 14 29 15 30 16 14 17 13 18 12 19 11 20 10 21
REMARK SMILES IDX 9 22 8 23 7 24 6 25 5 26 4 27 3 28 2 29 1 30
REMARK H PARENT
REMARK Flexibility Score: inf
ROOT
ATOM      1  C   UNL     1      29.348  49.325  25.396  1.00  0.00     0.000 C 
ENDROOT
BRANCH   1   2
ATOM      2  C   UNL     1      30.001  48.061  25.969  1.00  0.00     0.000 C 
BRANCH   2   3
ATOM      3  C   UNL     1      31.208  48.415  26.852  1.00  0.00     0.000 C 
BRANCH   3   4
ATOM      4  C   UNL     1      32.556  48.260  26.118  1.00  0.00     0.000 C 
BRANCH   4   5
ATOM      5  C   UNL     1      33.568  47.352  26.846  1.00  0.00     0.000 C 
BRANCH   5   6
ATOM      6  C   UNL     1      33.962  46.066  26.094  1.00  0.00     0.000 C 
BRANCH   6   7
ATOM      7  C   UNL     1      33.221  45.829  24.761  1.00  0.00     0.000 C 
BRANCH   7   8
ATOM      8  C   UNL     1      34.067  46.063  23.498  1.00  0.00     0.000 C 
BRANCH   8   9
ATOM      9  C   UNL     1      35.166  47.117  23.704  1.00  0.00     0.000 C 
BRANCH   9  10
ATOM     10  C   UNL     1      35.780  47.600  22.380  1.00  0.00     0.000 C 
BRANCH  10  11
ATOM     11  C   UNL     1      37.263  47.206  22.210  1.00  0.00     0.000 C 
BRANCH  11  12
ATOM     12  C   UNL     1      37.642  45.982  23.063  1.00  0.00     0.006 C 
BRANCH  12  13
ATOM     13  C   UNL     1      39.160  45.764  23.122  1.00  0.00     0.053 C 
BRANCH  13  14
ATOM     14  C   UNL     1      39.598  45.267  24.467  1.00  0.00     0.041 C 
ATOM     15  O   UNL     1      40.610  44.525  24.570  1.00  0.00    -0.550 OA
ATOM     16  O   UNL     1      38.907  45.649  25.608  1.00  0.00    -0.550 OA
ENDBRANCH  13  14
ENDBRANCH  12  13
ENDBRANCH  11  12
ENDBRANCH  10  11
ENDBRANCH   9  10
ENDBRANCH   8   9
ENDBRANCH   7   8
ENDBRANCH   6   7
ENDBRANCH   5   6
ENDBRANCH   4   5
ENDBRANCH   3   4
ENDBRANCH   2   3
ENDBRANCH   1   2
BRANCH   1  17
ATOM     17  C   UNL     1      28.312  49.900  26.373  1.00  0.00     0.000 C 
BRANCH  17  18
ATOM     18  C   UNL     1      26.872  49.749  25.856  1.00  0.00     0.000 C 
BRANCH  18  19
ATOM     19  C   UNL     1      26.063  51.050  26.004  1.00  0.00     0.000 C 
BRANCH  19  20
ATOM     20  C   UNL     1      24.795  50.867  26.852  1.00  0.00     0.000 C 
BRANCH  20  21
ATOM     21  C   UNL     1      23.858  52.087  26.796  1.00  0.00     0.000 C 
BRANCH  21  22
ATOM     22  C   UNL     1      23.125  52.342  28.130  1.00  0.00    -0.000 C 
BRANCH  22  23
ATOM     23  C   UNL     1      23.060  53.826  28.539  1.00  0.00    -0.000 C 
BRANCH  23  24
ATOM     24  C   UNL     1      22.881  54.086  30.046  1.00  0.00    -0.000 C 
BRANCH  24  25
ATOM     25  C   UNL     1      24.090  54.745  30.744  1.00  0.00    -0.000 C 
BRANCH  25  26
ATOM     26  C   UNL     1      24.450  54.154  32.122  1.00  0.00    -0.000 C 
BRANCH  26  27
ATOM     27  C   UNL     1      24.221  55.100  33.314  1.00  0.00    -0.000 C 
BRANCH  27  28
ATOM     28  C   UNL     1      23.548  54.404  34.506  1.00  0.00    -0.000 C 
BRANCH  28  29
ATOM     29  C   UNL     1      22.060  54.766  34.583  1.00  0.00    -0.003 C 
ATOM     30  C   UNL     1      21.347  53.944  35.654  1.00  0.00     0.004 C 
ENDBRANCH  28  29
ENDBRANCH  27  28
ENDBRANCH  26  27
ENDBRANCH  25  26
ENDBRANCH  24  25
ENDBRANCH  23  24
ENDBRANCH  22  23
ENDBRANCH  21  22
ENDBRANCH  20  21
ENDBRANCH  19  20
ENDBRANCH  18  19
ENDBRANCH  17  18
ENDBRANCH   1  17
TORSDOF 26
ENDMDL
MODEL 8
REMARK VINA RESULT:     8.623     10.044     17.665
REMARK INTER + INTRA:          20.500
REMARK INTER:                  20.698
REMARK INTRA:                  -0.198
REMARK UNBOUND:                -1.230
REMARK SMILES CCCCCCCCCCCCCCCCCCCCCCCCCCCC(=O)[O-]
REMARK SMILES IDX 15 1 16 2 17 3 18 4 19 5 20 6 21 7 22 8 23 9 24 10 25 11
REMARK SMILES IDX 26 12 27 13 28 14 29 15 30 16 14 17 13 18 12 19 11 20 10 21
REMARK SMILES IDX 9 22 8 23 7 24 6 25 5 26 4 27 3 28 2 29 1 30
REMARK H PARENT
REMARK Flexibility Score: inf
ROOT
ATOM      1  C   UNL     1      41.124  43.689  20.320  1.00  0.00     0.000 C 
ENDROOT
BRANCH   1   2
ATOM      2  C   UNL     1      40.550  42.333  19.890  1.00  0.00     0.000 C 
BRANCH   2   3
ATOM      3  C   UNL     1      41.071  41.929  18.502  1.00  0.00     0.000 C 
BRANCH   3   4
ATOM      4  C   UNL     1      40.286  42.590  17.350  1.00  0.00     0.000 C 
BRANCH   4   5
ATOM      5  C   UNL     1      40.540  41.954  15.968  1.00  0.00     0.000 C 
BRANCH   5   6
ATOM      6  C   UNL     1      41.120  40.526  15.995  1.00  0.00     0.000 C 
BRANCH   6   7
ATOM      7  C   UNL     1      40.078  39.389  15.942  1.00  0.00     0.000 C 
BRANCH   7   8
ATOM      8  C   UNL     1      40.403  38.171  16.823  1.00  0.00     0.000 C 
BRANCH   8   9
ATOM      9  C   UNL     1      39.193  37.685  17.637  1.00  0.00     0.000 C 
BRANCH   9  10
ATOM     10  C   UNL     1      39.582  37.196  19.043  1.00  0.00     0.000 C 
BRANCH  10  11
ATOM     11  C   UNL     1      38.587  36.178  19.636  1.00  0.00     0.000 C 
BRANCH  11  12
ATOM     12  C   UNL     1      37.462  36.859  20.438  1.00  0.00     0.006 C 
BRANCH  12  13
ATOM     13  C   UNL     1      37.918  38.184  21.063  1.00  0.00     0.053 C 
BRANCH  13  14
ATOM     14  C   UNL     1      37.351  39.365  20.335  1.00  0.00     0.041 C 
ATOM     15  O   UNL     1      38.052  39.990  19.496  1.00  0.00    -0.550 OA
ATOM     16  O   UNL     1      36.038  39.755  20.559  1.00  0.00    -0.550 OA
ENDBRANCH  13  14
ENDBRANCH  12  13
ENDBRANCH  11  12
ENDBRANCH  10  11
ENDBRANCH   9  10
ENDBRANCH   8   9
ENDBRANCH   7   8
ENDBRANCH   6   7
ENDBRANCH   5   6
ENDBRANCH   4   5
ENDBRANCH   3   4
ENDBRANCH   2   3
ENDBRANCH   1   2
BRANCH   1  17
ATOM     17  C   UNL     1      41.111  43.832  21.849  1.00  0.00     0.000 C 
BRANCH  17  18
ATOM     18  C   UNL     1      40.905  45.288  22.298  1.00  0.00     0.000 C 
BRANCH  18  19
ATOM     19  C   UNL     1      40.977  46.275  21.119  1.00  0.00     0.000 C 
BRANCH  19  20
ATOM     20  C   UNL     1      39.869  47.339  21.166  1.00  0.00     0.000 C 
BRANCH  20  21
ATOM     21  C   UNL     1      40.384  48.719  21.613  1.00  0.00     0.000 C 
BRANCH  21  22
ATOM     22  C   UNL     1      39.247  49.735  21.851  1.00  0.00    -0.000 C 
BRANCH  22  23
ATOM     23  C   UNL     1      37.857  49.240  21.405  1.00  0.00    -0.000 C 
BRANCH  23  24
ATOM     24  C   UNL     1      36.827  49.064  22.536  1.00  0.00    -0.000 C 
BRANCH  24  25
ATOM     25  C   UNL     1      35.811  47.922  22.321  1.00  0.00    -0.000 C 
BRANCH  25  26
ATOM     26  C   UNL     1      34.839  47.685  23.494  1.00  0.00    -0.000 C 
BRANCH  26  27
ATOM     27  C   UNL     1      34.022  46.384  23.408  1.00  0.00    -0.000 C 
BRANCH  27  28
ATOM     28  C   UNL     1      34.267  45.446  24.599  1.00  0.00    -0.000 C 
BRANCH  28  29
ATOM     29  C   UNL     1      33.835  46.104  25.914  1.00  0.00    -0.003 C 
ATOM     30  C   UNL     1      33.433  47.560  25.697  1.00  0.00     0.004 C 
ENDBRANCH  28  29
ENDBRANCH  27  28
ENDBRANCH  26  27
ENDBRANCH  25  26
ENDBRANCH  24  25
ENDBRANCH  23  24
ENDBRANCH  22  23
ENDBRANCH  21  22
ENDBRANCH  20  21
ENDBRANCH  19  20
ENDBRANCH  18  19
ENDBRANCH  17  18
ENDBRANCH   1  17
TORSDOF 26
ENDMDL
MODEL 9
REMARK VINA RESULT:     8.872      4.419      9.301
REMARK INTER + INTRA:          21.127
REMARK INTER:                  22.380
REMARK INTRA:                  -1.253
REMARK UNBOUND:                -1.230
REMARK SMILES CCCCCCCCCCCCCCCCCCCCCCCCCCCC(=O)[O-]
REMARK SMILES IDX 15 1 16 2 17 3 18 4 19 5 20 6 21 7 22 8 23 9 24 10 25 11
REMARK SMILES IDX 26 12 27 13 28 14 29 15 30 16 14 17 13 18 12 19 11 20 10 21
REMARK SMILES IDX 9 22 8 23 7 24 6 25 5 26 4 27 3 28 2 29 1 30
REMARK H PARENT
REMARK Flexibility Score: inf
ROOT
ATOM      1  C   UNL     1      37.339  46.195  24.719  1.00  0.00     0.000 C 
ENDROOT
BRANCH   1   2
ATOM      2  C   UNL     1      36.885  46.744  23.361  1.00  0.00     0.000 C 
BRANCH   2   3
ATOM      3  C   UNL     1      35.353  46.717  23.240  1.00  0.00     0.000 C 
BRANCH   3   4
ATOM      4  C   UNL     1      34.720  45.471  23.893  1.00  0.00     0.000 C 
BRANCH   4   5
ATOM      5  C   UNL     1      33.864  45.778  25.138  1.00  0.00     0.000 C 
BRANCH   5   6
ATOM      6  C   UNL     1      34.140  47.137  25.811  1.00  0.00     0.000 C 
BRANCH   6   7
ATOM      7  C   UNL     1      33.246  47.464  27.026  1.00  0.00     0.000 C 
BRANCH   7   8
ATOM      8  C   UNL     1      32.349  48.701  26.857  1.00  0.00     0.000 C 
BRANCH   8   9
ATOM      9  C   UNL     1      30.987  48.368  26.228  1.00  0.00     0.000 C 
BRANCH   9  10
ATOM     10  C   UNL     1      29.891  49.374  26.619  1.00  0.00     0.000 C 
BRANCH  10  11
ATOM     11  C   UNL     1      28.702  49.400  25.636  1.00  0.00     0.000 C 
BRANCH  11  12
ATOM     12  C   UNL     1      27.761  50.592  25.888  1.00  0.00     0.006 C 
BRANCH  12  13
ATOM     13  C   UNL     1      26.418  50.434  25.164  1.00  0.00     0.053 C 
BRANCH  13  14
ATOM     14  C   UNL     1      25.297  51.074  25.926  1.00  0.00     0.041 C 
ATOM     15  O   UNL     1      25.173  50.869  27.162  1.00  0.00    -0.550 OA
ATOM     16  O   UNL     1      24.411  51.922  25.278  1.00  0.00    -0.550 OA
ENDBRANCH  13  14
ENDBRANCH  12  13
ENDBRANCH  11  12
ENDBRANCH  10  11
ENDBRANCH   9  10
ENDBRANCH   8   9
ENDBRANCH   7   8
ENDBRANCH   6   7
ENDBRANCH   5   6
ENDBRANCH   4   5
ENDBRANCH   3   4
ENDBRANCH   2   3
ENDBRANCH   1   2
BRANCH   1  17
ATOM     17  C   UNL     1      38.601  45.333  24.569  1.00  0.00     0.000 C 
BRANCH  17  18
ATOM     18  C   UNL     1      39.112  45.288  23.119  1.00  0.00     0.000 C 
BRANCH  18  19
ATOM     19  C   UNL     1      40.633  45.505  23.033  1.00  0.00     0.000 C 
BRANCH  19  20
ATOM     20  C   UNL     1      41.028  46.522  21.950  1.00  0.00     0.000 C 
BRANCH  20  21
ATOM     21  C   UNL     1      40.923  45.948  20.526  1.00  0.00     0.000 C 
BRANCH  21  22
ATOM     22  C   UNL     1      41.124  44.419  20.480  1.00  0.00    -0.000 C 
BRANCH  22  23
ATOM     23  C   UNL     1      41.083  43.821  19.060  1.00  0.00    -0.000 C 
BRANCH  23  24
ATOM     24  C   UNL     1      41.120  42.283  18.993  1.00  0.00    -0.000 C 
BRANCH  24  25
ATOM     25  C   UNL     1      39.937  41.571  19.682  1.00  0.00    -0.000 C 
BRANCH  25  26
ATOM     26  C   UNL     1      39.142  40.606  18.781  1.00  0.00    -0.000 C 
BRANCH  26  27
ATOM     27  C   UNL     1      39.929  39.380  18.287  1.00  0.00    -0.000 C 
BRANCH  27  28
ATOM     28  C   UNL     1      39.824  39.176  16.768  1.00  0.00    -0.000 C 
BRANCH  28  29
ATOM     29  C   UNL     1      40.939  38.254  16.260  1.00  0.00    -0.003 C 
ATOM     30  C   UNL     1      40.658  36.798  16.621  1.00  0.00     0.004 C 
ENDBRANCH  28  29
ENDBRANCH  27  28
ENDBRANCH  26  27
ENDBRANCH  25  26
ENDBRANCH  24  25
ENDBRANCH  23  24
ENDBRANCH  22  23
ENDBRANCH  21  22
ENDBRANCH  20  21
ENDBRANCH  19  20
ENDBRANCH  18  19
ENDBRANCH  17  18
ENDBRANCH   1  17
TORSDOF 26
ENDMDL
