MODEL 1
REMARK VINA RESULT:    -3.631      0.000      0.000
REMARK INTER + INTRA:          -5.558
REMARK INTER:                  -5.117
REMARK INTRA:                  -0.442
REMARK UNBOUND:                -0.442
REMARK SMILES CCCCCCCCC(=O)[O-]
REMARK SMILES IDX 6 1 7 2 8 3 9 4 10 5 11 6 5 7 4 8 3 9 2 10 1 11
REMARK H PARENT
REMARK Flexibility Score: inf
ROOT
ATOM      1  C   UNL     1      22.093   3.580  13.592  1.00  0.00     0.000 C 
ENDROOT
BRANCH   1   2
ATOM      2  C   UNL     1      22.525   2.122  13.841  1.00  0.00     0.006 C 
BRANCH   2   3
ATOM      3  C   UNL     1      23.711   1.967  14.806  1.00  0.00     0.053 C 
BRANCH   3   4
ATOM      4  C   UNL     1      23.642   0.688  15.582  1.00  0.00     0.041 C 
ATOM      5  O   UNL     1      23.795   0.696  16.832  1.00  0.00    -0.550 OA
ATOM      6  O   UNL     1      23.445  -0.518  14.920  1.00  0.00    -0.550 OA
ENDBRANCH   3   4
ENDBRANCH   2   3
ENDBRANCH   1   2
BRANCH   1   7
ATOM      7  C   UNL     1      22.562   4.116  12.231  1.00  0.00     0.000 C 
BRANCH   7   8
ATOM      8  C   UNL     1      23.367   5.413  12.401  1.00  0.00    -0.000 C 
BRANCH   8   9
ATOM      9  C   UNL     1      24.828   5.161  12.821  1.00  0.00    -0.000 C 
BRANCH   9  10
ATOM     10  C   UNL     1      25.244   5.822  14.147  1.00  0.00    -0.003 C 
ATOM     11  C   UNL     1      25.890   7.194  13.956  1.00  0.00     0.004 C 
ENDBRANCH   9  10
ENDBRANCH   8   9
ENDBRANCH   7   8
ENDBRANCH   1   7
TORSDOF 7
ENDMDL
MODEL 2
REMARK VINA RESULT:    -3.512      1.013      1.412
REMARK INTER + INTRA:          -5.391
REMARK INTER:                  -5.025
REMARK INTRA:                  -0.365
REMARK UNBOUND:                -0.442
REMARK SMILES CCCCCCCCC(=O)[O-]
REMARK SMILES IDX 6 1 7 2 8 3 9 4 10 5 11 6 5 7 4 8 3 9 2 10 1 11
REMARK H PARENT
REMARK Flexibility Score: inf
ROOT
ATOM      1  C   UNL     1      23.160   3.433  14.032  1.00  0.00     0.000 C 
ENDROOT
BRANCH   1   2
ATOM      2  C   UNL     1      22.636   1.995  14.206  1.00  0.00     0.006 C 
BRANCH   2   3
ATOM      3  C   UNL     1      23.574   1.069  14.998  1.00  0.00     0.053 C 
BRANCH   3   4
ATOM      4  C   UNL     1      23.182  -0.371  14.871  1.00  0.00     0.041 C 
ATOM      5  O   UNL     1      22.429  -0.743  13.933  1.00  0.00    -0.550 OA
ATOM      6  O   UNL     1      23.619  -1.296  15.811  1.00  0.00    -0.550 OA
ENDBRANCH   3   4
ENDBRANCH   2   3
ENDBRANCH   1   2
BRANCH   1   7
ATOM      7  C   UNL     1      22.823   4.027  12.656  1.00  0.00     0.000 C 
BRANCH   7   8
ATOM      8  C   UNL     1      23.742   5.214  12.332  1.00  0.00    -0.000 C 
BRANCH   8   9
ATOM      9  C   UNL     1      25.061   5.186  13.127  1.00  0.00    -0.000 C 
BRANCH   9  10
ATOM     10  C   UNL     1      25.462   6.528  13.766  1.00  0.00    -0.003 C 
ATOM     11  C   UNL     1      25.019   6.654  15.223  1.00  0.00     0.004 C 
ENDBRANCH   9  10
ENDBRANCH   8   9
ENDBRANCH   7   8
ENDBRANCH   1   7
TORSDOF 7
ENDMDL
MODEL 3
REMARK VINA RESULT:    -3.503      2.007      2.951
REMARK INTER + INTRA:          -5.378
REMARK INTER:                  -4.760
REMARK INTRA:                  -0.617
REMARK UNBOUND:                -0.442
REMARK SMILES CCCCCCCCC(=O)[O-]
REMARK SMILES IDX 6 1 7 2 8 3 9 4 10 5 11 6 5 7 4 8 3 9 2 10 1 11
REMARK H PARENT
REMARK Flexibility Score: inf
ROOT
ATOM      1  C   UNL     1      22.821   2.145  15.177  1.00  0.00     0.000 C 
ENDROOT
BRANCH   1   2
ATOM      2  C   UNL     1      24.169   1.497  15.545  1.00  0.00     0.006 C 
BRANCH   2   3
ATOM      3  C   UNL     1      25.317   2.497  15.759  1.00  0.00     0.053 C 
BRANCH   3   4
ATOM      4  C   UNL     1      25.691   2.623  17.204  1.00  0.00     0.041 C 
ATOM      5  O   UNL     1      24.840   3.009  18.048  1.00  0.00    -0.550 OA
ATOM      6  O   UNL     1      26.991   2.348  17.613  1.00  0.00    -0.550 OA
ENDBRANCH   3   4
ENDBRANCH   2   3
ENDBRANCH   1   2
BRANCH   1   7
ATOM      7  C   UNL     1      22.323   1.734  13.783  1.00  0.00     0.000 C 
BRANCH   7   8
ATOM      8  C   UNL     1      21.979   2.969  12.938  1.00  0.00    -0.000 C 
BRANCH   8   9
ATOM      9  C   UNL     1      22.598   4.266  13.492  1.00  0.00    -0.000 C 
BRANCH   9  10
ATOM     10  C   UNL     1      23.590   4.966  12.545  1.00  0.00    -0.003 C 
ATOM     11  C   UNL     1      24.988   5.116  13.146  1.00  0.00     0.004 C 
ENDBRANCH   9  10
ENDBRANCH   8   9
ENDBRANCH   7   8
ENDBRANCH   1   7
TORSDOF 7
ENDMDL
MODEL 4
REMARK VINA RESULT:    -3.497      1.541      2.057
REMARK INTER + INTRA:          -5.370
REMARK INTER:                  -4.653
REMARK INTRA:                  -0.718
REMARK UNBOUND:                -0.442
REMARK SMILES CCCCCCCCC(=O)[O-]
REMARK SMILES IDX 6 1 7 2 8 3 9 4 10 5 11 6 5 7 4 8 3 9 2 10 1 11
REMARK H PARENT
REMARK Flexibility Score: inf
ROOT
ATOM      1  C   UNL     1      22.461   3.059  15.062  1.00  0.00     0.000 C 
ENDROOT
BRANCH   1   2
ATOM      2  C   UNL     1      23.522   2.050  14.583  1.00  0.00     0.006 C 
BRANCH   2   3
ATOM      3  C   UNL     1      23.123   0.577  14.764  1.00  0.00     0.053 C 
BRANCH   3   4
ATOM      4  C   UNL     1      21.800   0.270  14.133  1.00  0.00     0.041 C 
ATOM      5  O   UNL     1      20.872  -0.234  14.819  1.00  0.00    -0.550 OA
ATOM      6  O   UNL     1      21.603   0.509  12.778  1.00  0.00    -0.550 OA
ENDBRANCH   3   4
ENDBRANCH   2   3
ENDBRANCH   1   2
BRANCH   1   7
ATOM      7  C   UNL     1      21.930   3.949  13.928  1.00  0.00     0.000 C 
BRANCH   7   8
ATOM      8  C   UNL     1      22.854   3.884  12.703  1.00  0.00    -0.000 C 
BRANCH   8   9
ATOM      9  C   UNL     1      23.562   5.222  12.414  1.00  0.00    -0.000 C 
BRANCH   9  10
ATOM     10  C   UNL     1      24.998   5.326  12.959  1.00  0.00    -0.003 C 
ATOM     11  C   UNL     1      25.065   5.920  14.365  1.00  0.00     0.004 C 
ENDBRANCH   9  10
ENDBRANCH   8   9
ENDBRANCH   7   8
ENDBRANCH   1   7
TORSDOF 7
ENDMDL
MODEL 5
REMARK VINA RESULT:    -3.419      5.308      6.833
REMARK INTER + INTRA:          -5.259
REMARK INTER:                  -4.955
REMARK INTRA:                  -0.304
REMARK UNBOUND:                -0.442
REMARK SMILES CCCCCCCCC(=O)[O-]
REMARK SMILES IDX 6 1 7 2 8 3 9 4 10 5 11 6 5 7 4 8 3 9 2 10 1 11
REMARK H PARENT
REMARK Flexibility Score: inf
ROOT
ATOM      1  C   UNL     1      22.543  -2.835  15.078  1.00  0.00     0.000 C 
ENDROOT
BRANCH   1   2
ATOM      2  C   UNL     1      23.843  -3.414  15.668  1.00  0.00     0.006 C 
BRANCH   2   3
ATOM      3  C   UNL     1      24.185  -2.902  17.076  1.00  0.00     0.053 C 
BRANCH   3   4
ATOM      4  C   UNL     1      24.409  -4.023  18.044  1.00  0.00     0.041 C 
ATOM      5  O   UNL     1      24.490  -5.210  17.632  1.00  0.00    -0.550 OA
ATOM      6  O   UNL     1      24.493  -3.760  19.406  1.00  0.00    -0.550 OA
ENDBRANCH   3   4
ENDBRANCH   2   3
ENDBRANCH   1   2
BRANCH   1   7
ATOM      7  C   UNL     1      22.792  -1.928  13.864  1.00  0.00     0.000 C 
BRANCH   7   8
ATOM      8  C   UNL     1      22.151  -0.547  14.071  1.00  0.00    -0.000 C 
BRANCH   8   9
ATOM      9  C   UNL     1      21.393  -0.046  12.828  1.00  0.00    -0.000 C 
BRANCH   9  10
ATOM     10  C   UNL     1      21.113  -1.121  11.762  1.00  0.00    -0.003 C 
ATOM     11  C   UNL     1      19.630  -1.471  11.639  1.00  0.00     0.004 C 
ENDBRANCH   9  10
ENDBRANCH   8   9
ENDBRANCH   7   8
ENDBRANCH   1   7
TORSDOF 7
ENDMDL
MODEL 6
REMARK VINA RESULT:    -3.416      5.120      7.415
REMARK INTER + INTRA:          -5.255
REMARK INTER:                  -4.865
REMARK INTRA:                  -0.391
REMARK UNBOUND:                -0.442
REMARK SMILES CCCCCCCCC(=O)[O-]
REMARK SMILES IDX 6 1 7 2 8 3 9 4 10 5 11 6 5 7 4 8 3 9 2 10 1 11
REMARK H PARENT
REMARK Flexibility Score: inf
ROOT
ATOM      1  C   UNL     1      20.367  -1.454  11.697  1.00  0.00     0.000 C 
ENDROOT
BRANCH   1   2
ATOM      2  C   UNL     1      21.244  -0.387  12.379  1.00  0.00     0.006 C 
BRANCH   2   3
ATOM      3  C   UNL     1      21.397  -0.567  13.897  1.00  0.00     0.053 C 
BRANCH   3   4
ATOM      4  C   UNL     1      22.710  -1.192  14.260  1.00  0.00     0.041 C 
ATOM      5  O   UNL     1      23.010  -2.334  13.825  1.00  0.00    -0.550 OA
ATOM      6  O   UNL     1      23.587  -0.525  15.108  1.00  0.00    -0.550 OA
ENDBRANCH   3   4
ENDBRANCH   2   3
ENDBRANCH   1   2
BRANCH   1   7
ATOM      7  C   UNL     1      19.377  -2.120  12.665  1.00  0.00     0.000 C 
BRANCH   7   8
ATOM      8  C   UNL     1      17.938  -2.008  12.140  1.00  0.00    -0.000 C 
BRANCH   8   9
ATOM      9  C   UNL     1      17.836  -1.185  10.842  1.00  0.00    -0.000 C 
BRANCH   9  10
ATOM     10  C   UNL     1      16.406  -1.004  10.300  1.00  0.00    -0.003 C 
ATOM     11  C   UNL     1      15.842   0.394  10.554  1.00  0.00     0.004 C 
ENDBRANCH   9  10
ENDBRANCH   8   9
ENDBRANCH   7   8
ENDBRANCH   1   7
TORSDOF 7
ENDMDL
MODEL 7
REMARK VINA RESULT:    -3.410      5.031      6.829
REMARK INTER + INTRA:          -5.247
REMARK INTER:                  -4.531
REMARK INTRA:                  -0.716
REMARK UNBOUND:                -0.442
REMARK SMILES CCCCCCCCC(=O)[O-]
REMARK SMILES IDX 6 1 7 2 8 3 9 4 10 5 11 6 5 7 4 8 3 9 2 10 1 11
REMARK H PARENT
REMARK Flexibility Score: inf
ROOT
ATOM      1  C   UNL     1      22.411  -0.607  13.976  1.00  0.00     0.000 C 
ENDROOT
BRANCH   1   2
ATOM      2  C   UNL     1      22.712  -2.116  13.901  1.00  0.00     0.006 C 
BRANCH   2   3
ATOM      3  C   UNL     1      22.043  -2.953  15.002  1.00  0.00     0.053 C 
BRANCH   3   4
ATOM      4  C   UNL     1      23.017  -3.378  16.057  1.00  0.00     0.041 C 
ATOM      5  O   UNL     1      22.665  -4.184  16.958  1.00  0.00    -0.550 OA
ATOM      6  O   UNL     1      24.306  -2.857  16.065  1.00  0.00    -0.550 OA
ENDBRANCH   3   4
ENDBRANCH   2   3
ENDBRANCH   1   2
BRANCH   1   7
ATOM      7  C   UNL     1      21.247  -0.185  13.068  1.00  0.00     0.000 C 
BRANCH   7   8
ATOM      8  C   UNL     1      21.270  -0.971  11.748  1.00  0.00    -0.000 C 
BRANCH   8   9
ATOM      9  C   UNL     1      19.916  -1.627  11.417  1.00  0.00    -0.000 C 
BRANCH   9  10
ATOM     10  C   UNL     1      19.009  -1.890  12.633  1.00  0.00    -0.003 C 
ATOM     11  C   UNL     1      18.923  -3.369  13.009  1.00  0.00     0.004 C 
ENDBRANCH   9  10
ENDBRANCH   8   9
ENDBRANCH   7   8
ENDBRANCH   1   7
TORSDOF 7
ENDMDL
MODEL 8
REMARK VINA RESULT:    -3.406      1.671      2.439
REMARK INTER + INTRA:          -5.242
REMARK INTER:                  -4.705
REMARK INTRA:                  -0.537
REMARK UNBOUND:                -0.442
REMARK SMILES CCCCCCCCC(=O)[O-]
REMARK SMILES IDX 6 1 7 2 8 3 9 4 10 5 11 6 5 7 4 8 3 9 2 10 1 11
REMARK H PARENT
REMARK Flexibility Score: inf
ROOT
ATOM      1  C   UNL     1      21.966   2.408  12.899  1.00  0.00     0.000 C 
ENDROOT
BRANCH   1   2
ATOM      2  C   UNL     1      21.951   1.303  13.972  1.00  0.00     0.006 C 
BRANCH   2   3
ATOM      3  C   UNL     1      21.773  -0.119  13.417  1.00  0.00     0.053 C 
BRANCH   3   4
ATOM      4  C   UNL     1      22.584  -1.125  14.174  1.00  0.00     0.041 C 
ATOM      5  O   UNL     1      23.461  -0.745  14.994  1.00  0.00    -0.550 OA
ATOM      6  O   UNL     1      22.397  -2.483  13.947  1.00  0.00    -0.550 OA
ENDBRANCH   3   4
ENDBRANCH   2   3
ENDBRANCH   1   2
BRANCH   1   7
ATOM      7  C   UNL     1      22.232   3.803  13.484  1.00  0.00     0.000 C 
BRANCH   7   8
ATOM      8  C   UNL     1      23.494   4.424  12.867  1.00  0.00    -0.000 C 
BRANCH   8   9
ATOM      9  C   UNL     1      24.689   4.444  13.838  1.00  0.00    -0.000 C 
BRANCH   9  10
ATOM     10  C   UNL     1      24.388   3.902  15.247  1.00  0.00    -0.003 C 
ATOM     11  C   UNL     1      25.097   2.580  15.545  1.00  0.00     0.004 C 
ENDBRANCH   9  10
ENDBRANCH   8   9
ENDBRANCH   7   8
ENDBRANCH   1   7
TORSDOF 7
ENDMDL
MODEL 9
REMARK VINA RESULT:    -3.392      1.360      2.525
REMARK INTER + INTRA:          -5.222
REMARK INTER:                  -4.651
REMARK INTRA:                  -0.571
REMARK UNBOUND:                -0.442
REMARK SMILES CCCCCCCCC(=O)[O-]
REMARK SMILES IDX 6 1 7 2 8 3 9 4 10 5 11 6 5 7 4 8 3 9 2 10 1 11
REMARK H PARENT
REMARK Flexibility Score: inf
ROOT
ATOM      1  C   UNL     1      24.955   3.627  16.178  1.00  0.00     0.000 C 
ENDROOT
BRANCH   1   2
ATOM      2  C   UNL     1      24.821   2.233  15.537  1.00  0.00     0.006 C 
BRANCH   2   3
ATOM      3  C   UNL     1      23.567   2.053  14.667  1.00  0.00     0.053 C 
BRANCH   3   4
ATOM      4  C   UNL     1      23.046   0.649  14.714  1.00  0.00     0.041 C 
ATOM      5  O   UNL     1      23.695  -0.248  15.313  1.00  0.00    -0.550 OA
ATOM      6  O   UNL     1      21.860   0.325  14.066  1.00  0.00    -0.550 OA
ENDBRANCH   3   4
ENDBRANCH   2   3
ENDBRANCH   1   2
BRANCH   1   7
ATOM      7  C   UNL     1      24.026   4.670  15.538  1.00  0.00     0.000 C 
BRANCH   7   8
ATOM      8  C   UNL     1      24.832   5.713  14.751  1.00  0.00    -0.000 C 
BRANCH   8   9
ATOM      9  C   UNL     1      25.145   5.267  13.310  1.00  0.00    -0.000 C 
BRANCH   9  10
ATOM     10  C   UNL     1      23.910   5.040  12.419  1.00  0.00    -0.003 C 
ATOM     11  C   UNL     1      22.974   6.248  12.374  1.00  0.00     0.004 C 
ENDBRANCH   9  10
ENDBRANCH   8   9
ENDBRANCH   7   8
ENDBRANCH   1   7
TORSDOF 7
ENDMDL
