MODEL 1
REMARK VINA RESULT:    -7.213      0.000      0.000
REMARK INTER + INTRA:         -11.421
REMARK INTER:                 -10.165
REMARK INTRA:                  -1.256
REMARK UNBOUND:                -1.256
REMARK SMILES COc1c(O[C@H]2O[C@H](C(=O)[O-])[C@H](O)[C@@H](O)[C@@H]2O)cc(O)c2c(=O)cc(-c3ccccc3)oc12
REMARK SMILES IDX 5 1 6 2 8 3 12 4 7 5 14 6 16 7 9 8 10 9 11 10 13 11 15 13
REMARK SMILES IDX 17 15 4 17 3 18 18 19 33 20 19 21 21 22 32 23 22 24 25 25
REMARK SMILES IDX 24 26 23 27 2 28 1 29 20 30 26 32 27 33 31 34 28 35 30 36
REMARK SMILES IDX 29 37
REMARK H PARENT 13 12 15 14 17 16 20 31
REMARK Flexibility Score: inf
ROOT
ATOM      1  O   UNL     1      26.303  10.657  60.162  1.00  0.00    -0.458 OA
ENDROOT
BRANCH   1   2
ATOM      2  C   UNL     1      26.872   9.704  59.256  1.00  0.00     0.339 C 
ATOM      3  C   UNL     1      24.851   9.505  58.076  1.00  0.00     0.199 C 
ATOM      4  C   UNL     1      25.412  10.167  56.800  1.00  0.00     0.180 C 
ATOM      5  O   UNL     1      25.872   8.815  58.783  1.00  0.00    -0.328 OA
ATOM      6  C   UNL     1      26.571  11.113  57.161  1.00  0.00     0.181 C 
ATOM      7  C   UNL     1      27.591  10.401  58.079  1.00  0.00     0.214 C 
BRANCH   3   8
ATOM      8  C   UNL     1      23.762   8.535  57.720  1.00  0.00     0.073 C 
ATOM      9  O   UNL     1      22.931   8.825  56.820  1.00  0.00    -0.547 OA
ATOM     10  O   UNL     1      23.710   7.283  58.330  1.00  0.00    -0.547 OA
ENDBRANCH   3   8
BRANCH   4  11
ATOM     11  O   UNL     1      25.858   9.179  55.904  1.00  0.00    -0.387 OA
ATOM     12  H   UNL     1      26.625   9.567  55.406  1.00  0.00     0.211 HD
ENDBRANCH   4  11
BRANCH   6  13
ATOM     13  O   UNL     1      26.059  12.254  57.801  1.00  0.00    -0.387 OA
ATOM     14  H   UNL     1      25.440  11.934  58.512  1.00  0.00     0.211 HD
ENDBRANCH   6  13
BRANCH   7  15
ATOM     15  O   UNL     1      28.308   9.439  57.350  1.00  0.00    -0.384 OA
ATOM     16  H   UNL     1      28.411   8.649  57.943  1.00  0.00     0.211 HD
ENDBRANCH   7  15
ENDBRANCH   1   2
BRANCH   1  17
ATOM     17  C   UNL     1      26.913  11.158  61.326  1.00  0.00     0.172 A 
ATOM     18  C   UNL     1      26.700  10.467  62.523  1.00  0.00     0.205 A 
ATOM     19  C   UNL     1      27.699  12.316  61.314  1.00  0.00     0.097 A 
ATOM     20  C   UNL     1      27.303  10.929  63.719  1.00  0.00     0.188 A 
ATOM     21  C   UNL     1      28.271  12.815  62.485  1.00  0.00     0.134 A 
ATOM     22  C   UNL     1      28.119  12.097  63.705  1.00  0.00     0.111 A 
ATOM     23  O   UNL     1      27.108  10.271  64.858  1.00  0.00    -0.452 OA
ATOM     24  C   UNL     1      28.759  12.453  64.916  1.00  0.00     0.197 A 
ATOM     25  C   UNL     1      27.636  10.632  66.022  1.00  0.00     0.138 A 
ATOM     26  C   UNL     1      28.495  11.733  66.077  1.00  0.00     0.100 A 
ATOM     27  O   UNL     1      29.598  13.391  64.979  1.00  0.00    -0.289 OA
BRANCH  18  28
ATOM     28  O   UNL     1      25.863   9.336  62.453  1.00  0.00    -0.490 OA
ATOM     29  C   UNL     1      26.281   7.976  62.351  1.00  0.00     0.278 C 
ENDBRANCH  18  28
BRANCH  21  30
ATOM     30  O   UNL     1      28.946  14.035  62.378  1.00  0.00    -0.507 OA
ATOM     31  H   UNL     1      28.529  14.896  62.058  1.00  0.00     0.293 HD
ENDBRANCH  21  30
BRANCH  25  32
ATOM     32  C   UNL     1      27.309   9.851  67.238  1.00  0.00     0.017 A 
ATOM     33  C   UNL     1      27.969   8.638  67.525  1.00  0.00     0.012 A 
ATOM     34  C   UNL     1      26.351  10.336  68.147  1.00  0.00     0.012 A 
ATOM     35  C   UNL     1      27.676   7.935  68.698  1.00  0.00     0.001 A 
ATOM     36  C   UNL     1      26.064   9.627  69.318  1.00  0.00     0.001 A 
ATOM     37  C   UNL     1      26.726   8.431  69.595  1.00  0.00     0.000 A 
ENDBRANCH  25  32
ENDBRANCH   1  17
TORSDOF 9
ENDMDL
MODEL 2
REMARK VINA RESULT:    -7.009      0.987      2.274
REMARK INTER + INTRA:         -11.133
REMARK INTER:                  -9.876
REMARK INTRA:                  -1.257
REMARK UNBOUND:                -1.256
REMARK SMILES COc1c(O[C@H]2O[C@H](C(=O)[O-])[C@H](O)[C@@H](O)[C@@H]2O)cc(O)c2c(=O)cc(-c3ccccc3)oc12
REMARK SMILES IDX 5 1 6 2 8 3 12 4 7 5 14 6 16 7 9 8 10 9 11 10 13 11 15 13
REMARK SMILES IDX 17 15 4 17 3 18 18 19 33 20 19 21 21 22 32 23 22 24 25 25
REMARK SMILES IDX 24 26 23 27 2 28 1 29 20 30 26 32 27 33 31 34 28 35 30 36
REMARK SMILES IDX 29 37
REMARK H PARENT 13 12 15 14 17 16 20 31
REMARK Flexibility Score: inf
ROOT
ATOM      1  O   UNL     1      26.508  10.940  60.119  1.00  0.00    -0.458 OA
ENDROOT
BRANCH   1   2
ATOM      2  C   UNL     1      26.871  11.343  58.792  1.00  0.00     0.339 C 
ATOM      3  C   UNL     1      27.774   9.228  58.316  1.00  0.00     0.199 C 
ATOM      4  C   UNL     1      26.687   8.884  57.276  1.00  0.00     0.180 C 
ATOM      5  O   UNL     1      28.017  10.627  58.357  1.00  0.00    -0.328 OA
ATOM      6  C   UNL     1      25.394   9.662  57.587  1.00  0.00     0.181 C 
ATOM      7  C   UNL     1      25.698  11.162  57.804  1.00  0.00     0.214 C 
BRANCH   3   8
ATOM      8  C   UNL     1      29.053   8.519  57.979  1.00  0.00     0.073 C 
ATOM      9  O   UNL     1      30.098   8.759  58.638  1.00  0.00    -0.547 OA
ATOM     10  O   UNL     1      29.074   7.542  56.984  1.00  0.00    -0.547 OA
ENDBRANCH   3   8
BRANCH   4  11
ATOM     11  O   UNL     1      27.141   9.203  55.984  1.00  0.00    -0.387 OA
ATOM     12  H   UNL     1      27.364   8.344  55.537  1.00  0.00     0.211 HD
ENDBRANCH   4  11
BRANCH   6  13
ATOM     13  O   UNL     1      24.790   9.120  58.733  1.00  0.00    -0.387 OA
ATOM     14  H   UNL     1      25.360   8.361  59.030  1.00  0.00     0.211 HD
ENDBRANCH   6  13
BRANCH   7  15
ATOM     15  O   UNL     1      26.034  11.768  56.583  1.00  0.00    -0.384 OA
ATOM     16  H   UNL     1      26.136  11.037  55.919  1.00  0.00     0.211 HD
ENDBRANCH   7  15
ENDBRANCH   1   2
BRANCH   1  17
ATOM     17  C   UNL     1      27.112  11.378  61.310  1.00  0.00     0.172 A 
ATOM     18  C   UNL     1      26.854  10.651  62.478  1.00  0.00     0.205 A 
ATOM     19  C   UNL     1      27.936  12.509  61.355  1.00  0.00     0.097 A 
ATOM     20  C   UNL     1      27.450  11.050  63.700  1.00  0.00     0.188 A 
ATOM     21  C   UNL     1      28.503  12.945  62.554  1.00  0.00     0.134 A 
ATOM     22  C   UNL     1      28.304  12.189  63.743  1.00  0.00     0.111 A 
ATOM     23  O   UNL     1      27.212  10.357  64.811  1.00  0.00    -0.452 OA
ATOM     24  C   UNL     1      28.934  12.480  64.978  1.00  0.00     0.197 A 
ATOM     25  C   UNL     1      27.731  10.658  65.996  1.00  0.00     0.138 A 
ATOM     26  C   UNL     1      28.624  11.727  66.106  1.00  0.00     0.100 A 
ATOM     27  O   UNL     1      29.801  13.386  65.090  1.00  0.00    -0.289 OA
BRANCH  18  28
ATOM     28  O   UNL     1      25.982   9.553  62.351  1.00  0.00    -0.490 OA
ATOM     29  C   UNL     1      26.352   8.203  62.074  1.00  0.00     0.278 C 
ENDBRANCH  18  28
BRANCH  21  30
ATOM     30  O   UNL     1      29.219  14.145  62.503  1.00  0.00    -0.507 OA
ATOM     31  H   UNL     1      29.093  14.861  61.804  1.00  0.00     0.293 HD
ENDBRANCH  21  30
BRANCH  25  32
ATOM     32  C   UNL     1      27.355   9.845  67.176  1.00  0.00     0.017 A 
ATOM     33  C   UNL     1      27.988   8.613  67.444  1.00  0.00     0.012 A 
ATOM     34  C   UNL     1      26.379  10.318  68.073  1.00  0.00     0.012 A 
ATOM     35  C   UNL     1      27.649   7.878  68.585  1.00  0.00     0.001 A 
ATOM     36  C   UNL     1      26.046   9.577  69.212  1.00  0.00     0.001 A 
ATOM     37  C   UNL     1      26.681   8.363  69.470  1.00  0.00     0.000 A 
ENDBRANCH  25  32
ENDBRANCH   1  17
TORSDOF 9
ENDMDL
MODEL 3
REMARK VINA RESULT:    -6.964      3.634      6.113
REMARK INTER + INTRA:         -11.070
REMARK INTER:                  -9.601
REMARK INTRA:                  -1.469
REMARK UNBOUND:                -1.256
REMARK SMILES COc1c(O[C@H]2O[C@H](C(=O)[O-])[C@H](O)[C@@H](O)[C@@H]2O)cc(O)c2c(=O)cc(-c3ccccc3)oc12
REMARK SMILES IDX 5 1 6 2 8 3 12 4 7 5 14 6 16 7 9 8 10 9 11 10 13 11 15 13
REMARK SMILES IDX 17 15 4 17 3 18 18 19 33 20 19 21 21 22 32 23 22 24 25 25
REMARK SMILES IDX 24 26 23 27 2 28 1 29 20 30 26 32 27 33 31 34 28 35 30 36
REMARK SMILES IDX 29 37
REMARK H PARENT 13 12 15 14 17 16 20 31
REMARK Flexibility Score: inf
ROOT
ATOM      1  O   UNL     1      24.728   7.417  57.696  1.00  0.00    -0.458 OA
ENDROOT
BRANCH   1   2
ATOM      2  C   UNL     1      23.417   7.260  57.137  1.00  0.00     0.339 C 
ATOM      3  C   UNL     1      22.991   5.376  58.473  1.00  0.00     0.199 C 
ATOM      4  C   UNL     1      21.905   6.086  59.308  1.00  0.00     0.180 C 
ATOM      5  O   UNL     1      23.037   5.893  57.150  1.00  0.00    -0.328 OA
ATOM      6  C   UNL     1      22.154   7.606  59.316  1.00  0.00     0.181 C 
ATOM      7  C   UNL     1      22.378   8.130  57.879  1.00  0.00     0.214 C 
BRANCH   3   8
ATOM      8  C   UNL     1      22.715   3.902  58.412  1.00  0.00     0.073 C 
ATOM      9  O   UNL     1      22.045   3.349  59.323  1.00  0.00    -0.547 OA
ATOM     10  O   UNL     1      23.134   3.154  57.313  1.00  0.00    -0.547 OA
ENDBRANCH   3   8
BRANCH   4  11
ATOM     11  O   UNL     1      20.634   5.810  58.775  1.00  0.00    -0.387 OA
ATOM     12  H   UNL     1      20.047   6.574  59.018  1.00  0.00     0.211 HD
ENDBRANCH   4  11
BRANCH   6  13
ATOM     13  O   UNL     1      23.274   7.889  60.114  1.00  0.00    -0.387 OA
ATOM     14  H   UNL     1      22.942   8.021  61.043  1.00  0.00     0.211 HD
ENDBRANCH   6  13
BRANCH   7  15
ATOM     15  O   UNL     1      21.171   8.106  57.162  1.00  0.00    -0.384 OA
ATOM     16  H   UNL     1      20.869   7.160  57.142  1.00  0.00     0.211 HD
ENDBRANCH   7  15
ENDBRANCH   1   2
BRANCH   1  17
ATOM     17  C   UNL     1      25.517   8.579  57.638  1.00  0.00     0.172 A 
ATOM     18  C   UNL     1      26.159   8.991  58.811  1.00  0.00     0.205 A 
ATOM     19  C   UNL     1      25.659   9.325  56.461  1.00  0.00     0.097 A 
ATOM     20  C   UNL     1      26.972  10.151  58.797  1.00  0.00     0.188 A 
ATOM     21  C   UNL     1      26.422  10.493  56.432  1.00  0.00     0.134 A 
ATOM     22  C   UNL     1      27.133  10.900  57.596  1.00  0.00     0.111 A 
ATOM     23  O   UNL     1      27.589  10.542  59.909  1.00  0.00    -0.452 OA
ATOM     24  C   UNL     1      28.027  11.997  57.632  1.00  0.00     0.197 A 
ATOM     25  C   UNL     1      28.371  11.613  59.984  1.00  0.00     0.138 A 
ATOM     26  C   UNL     1      28.623  12.365  58.834  1.00  0.00     0.100 A 
ATOM     27  O   UNL     1      28.335  12.644  56.596  1.00  0.00    -0.289 OA
BRANCH  18  28
ATOM     28  O   UNL     1      25.929   8.207  59.958  1.00  0.00    -0.490 OA
ATOM     29  C   UNL     1      26.792   7.201  60.484  1.00  0.00     0.278 C 
ENDBRANCH  18  28
BRANCH  21  30
ATOM     30  O   UNL     1      26.407  11.216  55.235  1.00  0.00    -0.507 OA
ATOM     31  H   UNL     1      25.667  11.180  54.551  1.00  0.00     0.293 HD
ENDBRANCH  21  30
BRANCH  25  32
ATOM     32  C   UNL     1      28.966  11.982  61.290  1.00  0.00     0.017 A 
ATOM     33  C   UNL     1      28.228  12.705  62.250  1.00  0.00     0.012 A 
ATOM     34  C   UNL     1      30.278  11.578  61.603  1.00  0.00     0.012 A 
ATOM     35  C   UNL     1      28.792  13.009  63.493  1.00  0.00     0.001 A 
ATOM     36  C   UNL     1      30.835  11.886  62.849  1.00  0.00     0.001 A 
ATOM     37  C   UNL     1      30.094  12.597  63.793  1.00  0.00     0.000 A 
ENDBRANCH  25  32
ENDBRANCH   1  17
TORSDOF 9
ENDMDL
MODEL 4
REMARK VINA RESULT:    -6.927      2.855      5.630
REMARK INTER + INTRA:         -11.018
REMARK INTER:                  -9.638
REMARK INTRA:                  -1.380
REMARK UNBOUND:                -1.256
REMARK SMILES COc1c(O[C@H]2O[C@H](C(=O)[O-])[C@H](O)[C@@H](O)[C@@H]2O)cc(O)c2c(=O)cc(-c3ccccc3)oc12
REMARK SMILES IDX 5 1 6 2 8 3 12 4 7 5 14 6 16 7 9 8 10 9 11 10 13 11 15 13
REMARK SMILES IDX 17 15 4 17 3 18 18 19 33 20 19 21 21 22 32 23 22 24 25 25
REMARK SMILES IDX 24 26 23 27 2 28 1 29 20 30 26 32 27 33 31 34 28 35 30 36
REMARK SMILES IDX 29 37
REMARK H PARENT 13 12 15 14 17 16 20 31
REMARK Flexibility Score: inf
ROOT
ATOM      1  O   UNL     1      25.982   7.382  57.039  1.00  0.00    -0.458 OA
ENDROOT
BRANCH   1   2
ATOM      2  C   UNL     1      24.707   7.198  56.409  1.00  0.00     0.339 C 
ATOM      3  C   UNL     1      25.299   5.048  55.670  1.00  0.00     0.199 C 
ATOM      4  C   UNL     1      24.283   4.340  56.590  1.00  0.00     0.180 C 
ATOM      5  O   UNL     1      24.832   6.335  55.289  1.00  0.00    -0.328 OA
ATOM      6  C   UNL     1      23.992   5.212  57.826  1.00  0.00     0.181 C 
ATOM      7  C   UNL     1      23.655   6.661  57.405  1.00  0.00     0.214 C 
BRANCH   3   8
ATOM      8  C   UNL     1      25.536   4.229  54.435  1.00  0.00     0.073 C 
ATOM      9  O   UNL     1      24.566   3.891  53.708  1.00  0.00    -0.547 OA
ATOM     10  O   UNL     1      26.835   3.901  54.048  1.00  0.00    -0.547 OA
ENDBRANCH   3   8
BRANCH   4  11
ATOM     11  O   UNL     1      23.092   4.091  55.886  1.00  0.00    -0.387 OA
ATOM     12  H   UNL     1      22.531   4.907  55.970  1.00  0.00     0.211 HD
ENDBRANCH   4  11
BRANCH   6  13
ATOM     13  O   UNL     1      25.111   5.203  58.675  1.00  0.00    -0.387 OA
ATOM     14  H   UNL     1      24.947   5.887  59.379  1.00  0.00     0.211 HD
ENDBRANCH   6  13
BRANCH   7  15
ATOM     15  O   UNL     1      22.390   6.706  56.798  1.00  0.00    -0.384 OA
ATOM     16  H   UNL     1      21.912   5.879  57.072  1.00  0.00     0.211 HD
ENDBRANCH   7  15
ENDBRANCH   1   2
BRANCH   1  17
ATOM     17  C   UNL     1      26.569   8.616  57.368  1.00  0.00     0.172 A 
ATOM     18  C   UNL     1      26.760   8.907  58.723  1.00  0.00     0.205 A 
ATOM     19  C   UNL     1      26.945   9.546  56.391  1.00  0.00     0.097 A 
ATOM     20  C   UNL     1      27.358  10.134  59.102  1.00  0.00     0.188 A 
ATOM     21  C   UNL     1      27.499  10.778  56.739  1.00  0.00     0.134 A 
ATOM     22  C   UNL     1      27.758  11.073  58.108  1.00  0.00     0.111 A 
ATOM     23  O   UNL     1      27.546  10.412  60.389  1.00  0.00    -0.452 OA
ATOM     24  C   UNL     1      28.427  12.240  58.551  1.00  0.00     0.197 A 
ATOM     25  C   UNL     1      28.101  11.535  60.831  1.00  0.00     0.138 A 
ATOM     26  C   UNL     1      28.572  12.477  59.915  1.00  0.00     0.100 A 
ATOM     27  O   UNL     1      28.932  13.068  57.749  1.00  0.00    -0.289 OA
BRANCH  18  28
ATOM     28  O   UNL     1      26.315   7.935  59.641  1.00  0.00    -0.490 OA
ATOM     29  C   UNL     1      25.208   8.053  60.531  1.00  0.00     0.278 C 
ENDBRANCH  18  28
BRANCH  21  30
ATOM     30  O   UNL     1      27.737  11.672  55.691  1.00  0.00    -0.507 OA
ATOM     31  H   UNL     1      27.616  11.457  54.713  1.00  0.00     0.293 HD
ENDBRANCH  21  30
BRANCH  25  32
ATOM     32  C   UNL     1      28.215  11.758  62.292  1.00  0.00     0.017 A 
ATOM     33  C   UNL     1      27.538  10.930  63.210  1.00  0.00     0.012 A 
ATOM     34  C   UNL     1      29.040  12.788  62.782  1.00  0.00     0.012 A 
ATOM     35  C   UNL     1      27.689  11.130  64.587  1.00  0.00     0.001 A 
ATOM     36  C   UNL     1      29.186  12.981  64.160  1.00  0.00     0.001 A 
ATOM     37  C   UNL     1      28.516  12.153  65.061  1.00  0.00     0.000 A 
ENDBRANCH  25  32
ENDBRANCH   1  17
TORSDOF 9
ENDMDL
MODEL 5
REMARK VINA RESULT:    -6.910      2.414      4.647
REMARK INTER + INTRA:         -10.994
REMARK INTER:                  -9.559
REMARK INTRA:                  -1.435
REMARK UNBOUND:                -1.256
REMARK SMILES COc1c(O[C@H]2O[C@H](C(=O)[O-])[C@H](O)[C@@H](O)[C@@H]2O)cc(O)c2c(=O)cc(-c3ccccc3)oc12
REMARK SMILES IDX 5 1 6 2 8 3 12 4 7 5 14 6 16 7 9 8 10 9 11 10 13 11 15 13
REMARK SMILES IDX 17 15 4 17 3 18 18 19 33 20 19 21 21 22 32 23 22 24 25 25
REMARK SMILES IDX 24 26 23 27 2 28 1 29 20 30 26 32 27 33 31 34 28 35 30 36
REMARK SMILES IDX 29 37
REMARK H PARENT 13 12 15 14 17 16 20 31
REMARK Flexibility Score: inf
ROOT
ATOM      1  O   UNL     1      24.973   8.577  57.825  1.00  0.00    -0.458 OA
ENDROOT
BRANCH   1   2
ATOM      2  C   UNL     1      25.304   7.495  56.944  1.00  0.00     0.339 C 
ATOM      3  C   UNL     1      24.203   5.940  58.317  1.00  0.00     0.199 C 
ATOM      4  C   UNL     1      23.093   5.659  57.284  1.00  0.00     0.180 C 
ATOM      5  O   UNL     1      25.423   6.284  57.675  1.00  0.00    -0.328 OA
ATOM      6  C   UNL     1      22.908   6.879  56.362  1.00  0.00     0.181 C 
ATOM      7  C   UNL     1      24.269   7.354  55.806  1.00  0.00     0.214 C 
BRANCH   3   8
ATOM      8  C   UNL     1      24.428   4.730  59.176  1.00  0.00     0.073 C 
ATOM      9  O   UNL     1      23.489   3.915  59.373  1.00  0.00    -0.547 OA
ATOM     10  O   UNL     1      25.693   4.464  59.698  1.00  0.00    -0.547 OA
ENDBRANCH   3   8
BRANCH   4  11
ATOM     11  O   UNL     1      23.423   4.525  56.521  1.00  0.00    -0.387 OA
ATOM     12  H   UNL     1      23.438   4.812  55.569  1.00  0.00     0.211 HD
ENDBRANCH   4  11
BRANCH   6  13
ATOM     13  O   UNL     1      22.290   7.916  57.081  1.00  0.00    -0.387 OA
ATOM     14  H   UNL     1      21.542   8.253  56.519  1.00  0.00     0.211 HD
ENDBRANCH   6  13
BRANCH   7  15
ATOM     15  O   UNL     1      24.754   6.434  54.862  1.00  0.00    -0.384 OA
ATOM     16  H   UNL     1      24.274   5.580  55.025  1.00  0.00     0.211 HD
ENDBRANCH   7  15
ENDBRANCH   1   2
BRANCH   1  17
ATOM     17  C   UNL     1      25.833   9.618  58.215  1.00  0.00     0.172 A 
ATOM     18  C   UNL     1      26.104   9.763  59.580  1.00  0.00     0.205 A 
ATOM     19  C   UNL     1      26.401  10.501  57.290  1.00  0.00     0.097 A 
ATOM     20  C   UNL     1      26.973  10.792  60.019  1.00  0.00     0.188 A 
ATOM     21  C   UNL     1      27.228  11.547  57.700  1.00  0.00     0.134 A 
ATOM     22  C   UNL     1      27.566  11.680  59.076  1.00  0.00     0.111 A 
ATOM     23  O   UNL     1      27.237  10.929  61.316  1.00  0.00    -0.452 OA
ATOM     24  C   UNL     1      28.491  12.630  59.574  1.00  0.00     0.197 A 
ATOM     25  C   UNL     1      28.042  11.862  61.813  1.00  0.00     0.138 A 
ATOM     26  C   UNL     1      28.705  12.733  60.945  1.00  0.00     0.100 A 
ATOM     27  O   UNL     1      29.162  13.373  58.812  1.00  0.00    -0.289 OA
BRANCH  18  28
ATOM     28  O   UNL     1      25.459   8.858  60.446  1.00  0.00    -0.490 OA
ATOM     29  C   UNL     1      26.047   7.720  61.074  1.00  0.00     0.278 C 
ENDBRANCH  18  28
BRANCH  21  30
ATOM     30  O   UNL     1      27.652  12.433  56.704  1.00  0.00    -0.507 OA
ATOM     31  H   UNL     1      27.058  13.104  56.241  1.00  0.00     0.293 HD
ENDBRANCH  21  30
BRANCH  25  32
ATOM     32  C   UNL     1      28.223  11.953  63.280  1.00  0.00     0.017 A 
ATOM     33  C   UNL     1      27.706  10.962  64.141  1.00  0.00     0.012 A 
ATOM     34  C   UNL     1      28.954  13.021  63.833  1.00  0.00     0.012 A 
ATOM     35  C   UNL     1      27.922  11.043  65.521  1.00  0.00     0.001 A 
ATOM     36  C   UNL     1      29.165  13.094  65.214  1.00  0.00     0.001 A 
ATOM     37  C   UNL     1      28.654  12.106  66.056  1.00  0.00     0.000 A 
ENDBRANCH  25  32
ENDBRANCH   1  17
TORSDOF 9
ENDMDL
MODEL 6
REMARK VINA RESULT:    -6.820      2.329      4.385
REMARK INTER + INTRA:         -10.867
REMARK INTER:                  -9.447
REMARK INTRA:                  -1.420
REMARK UNBOUND:                -1.256
REMARK SMILES COc1c(O[C@H]2O[C@H](C(=O)[O-])[C@H](O)[C@@H](O)[C@@H]2O)cc(O)c2c(=O)cc(-c3ccccc3)oc12
REMARK SMILES IDX 5 1 6 2 8 3 12 4 7 5 14 6 16 7 9 8 10 9 11 10 13 11 15 13
REMARK SMILES IDX 17 15 4 17 3 18 18 19 33 20 19 21 21 22 32 23 22 24 25 25
REMARK SMILES IDX 24 26 23 27 2 28 1 29 20 30 26 32 27 33 31 34 28 35 30 36
REMARK SMILES IDX 29 37
REMARK H PARENT 13 12 15 14 17 16 20 31
REMARK Flexibility Score: inf
ROOT
ATOM      1  O   UNL     1      27.076  11.123  60.727  1.00  0.00    -0.458 OA
ENDROOT
BRANCH   1   2
ATOM      2  C   UNL     1      26.336  10.251  59.863  1.00  0.00     0.339 C 
ATOM      3  C   UNL     1      27.444  11.072  57.961  1.00  0.00     0.199 C 
ATOM      4  C   UNL     1      28.181   9.743  57.690  1.00  0.00     0.180 C 
ATOM      5  O   UNL     1      26.186  10.841  58.580  1.00  0.00    -0.328 OA
ATOM      6  C   UNL     1      28.346   8.955  59.003  1.00  0.00     0.181 C 
ATOM      7  C   UNL     1      27.000   8.860  59.757  1.00  0.00     0.214 C 
BRANCH   3   8
ATOM      8  C   UNL     1      27.226  11.813  56.674  1.00  0.00     0.073 C 
ATOM      9  O   UNL     1      28.075  12.655  56.281  1.00  0.00    -0.547 OA
ATOM     10  O   UNL     1      26.123  11.520  55.873  1.00  0.00    -0.547 OA
ENDBRANCH   3   8
BRANCH   4  11
ATOM     11  O   UNL     1      27.462   8.977  56.756  1.00  0.00    -0.387 OA
ATOM     12  H   UNL     1      28.129   8.570  56.143  1.00  0.00     0.211 HD
ENDBRANCH   4  11
BRANCH   6  13
ATOM     13  O   UNL     1      29.309   9.587  59.807  1.00  0.00    -0.387 OA
ATOM     14  H   UNL     1      29.367  10.532  59.500  1.00  0.00     0.211 HD
ENDBRANCH   6  13
BRANCH   7  15
ATOM     15  O   UNL     1      26.129   7.990  59.083  1.00  0.00    -0.384 OA
ATOM     16  H   UNL     1      25.555   8.555  58.501  1.00  0.00     0.211 HD
ENDBRANCH   7  15
ENDBRANCH   1   2
BRANCH   1  17
ATOM     17  C   UNL     1      27.232  10.973  62.116  1.00  0.00     0.172 A 
ATOM     18  C   UNL     1      28.414  11.447  62.695  1.00  0.00     0.205 A 
ATOM     19  C   UNL     1      26.257  10.358  62.912  1.00  0.00     0.097 A 
ATOM     20  C   UNL     1      28.609  11.326  64.093  1.00  0.00     0.188 A 
ATOM     21  C   UNL     1      26.443  10.191  64.284  1.00  0.00     0.134 A 
ATOM     22  C   UNL     1      27.609  10.718  64.907  1.00  0.00     0.111 A 
ATOM     23  O   UNL     1      29.729  11.781  64.649  1.00  0.00    -0.452 OA
ATOM     24  C   UNL     1      27.832  10.707  66.305  1.00  0.00     0.197 A 
ATOM     25  C   UNL     1      29.992  11.711  65.949  1.00  0.00     0.138 A 
ATOM     26  C   UNL     1      29.035  11.182  66.818  1.00  0.00     0.100 A 
ATOM     27  O   UNL     1      26.957  10.310  67.119  1.00  0.00    -0.289 OA
BRANCH  18  28
ATOM     28  O   UNL     1      29.358  12.013  61.817  1.00  0.00    -0.490 OA
ATOM     29  C   UNL     1      29.631  13.402  61.647  1.00  0.00     0.278 C 
ENDBRANCH  18  28
BRANCH  21  30
ATOM     30  O   UNL     1      25.456   9.470  64.963  1.00  0.00    -0.507 OA
ATOM     31  H   UNL     1      24.478   9.714  64.985  1.00  0.00     0.293 HD
ENDBRANCH  21  30
BRANCH  25  32
ATOM     32  C   UNL     1      31.296  12.206  66.449  1.00  0.00     0.017 A 
ATOM     33  C   UNL     1      32.496  11.531  66.147  1.00  0.00     0.012 A 
ATOM     34  C   UNL     1      31.352  13.390  67.208  1.00  0.00     0.012 A 
ATOM     35  C   UNL     1      33.722  12.036  66.594  1.00  0.00     0.001 A 
ATOM     36  C   UNL     1      32.583  13.888  67.651  1.00  0.00     0.001 A 
ATOM     37  C   UNL     1      33.765  13.216  67.343  1.00  0.00     0.000 A 
ENDBRANCH  25  32
ENDBRANCH   1  17
TORSDOF 9
ENDMDL
MODEL 7
REMARK VINA RESULT:    -6.646      1.968      8.183
REMARK INTER + INTRA:         -10.622
REMARK INTER:                  -9.257
REMARK INTRA:                  -1.365
REMARK UNBOUND:                -1.256
REMARK SMILES COc1c(O[C@H]2O[C@H](C(=O)[O-])[C@H](O)[C@@H](O)[C@@H]2O)cc(O)c2c(=O)cc(-c3ccccc3)oc12
REMARK SMILES IDX 5 1 6 2 8 3 12 4 7 5 14 6 16 7 9 8 10 9 11 10 13 11 15 13
REMARK SMILES IDX 17 15 4 17 3 18 18 19 33 20 19 21 21 22 32 23 22 24 25 25
REMARK SMILES IDX 24 26 23 27 2 28 1 29 20 30 26 32 27 33 31 34 28 35 30 36
REMARK SMILES IDX 29 37
REMARK H PARENT 13 12 15 14 17 16 20 31
REMARK Flexibility Score: inf
ROOT
ATOM      1  O   UNL     1      28.860  11.402  62.912  1.00  0.00    -0.458 OA
ENDROOT
BRANCH   1   2
ATOM      2  C   UNL     1      28.345  12.192  63.991  1.00  0.00     0.339 C 
ATOM      3  C   UNL     1      28.529  10.396  65.493  1.00  0.00     0.199 C 
ATOM      4  C   UNL     1      29.646  11.067  66.320  1.00  0.00     0.180 C 
ATOM      5  O   UNL     1      27.663  11.367  64.923  1.00  0.00    -0.328 OA
ATOM      6  C   UNL     1      30.430  12.058  65.440  1.00  0.00     0.181 C 
ATOM      7  C   UNL     1      29.464  13.001  64.685  1.00  0.00     0.214 C 
BRANCH   3   8
ATOM      8  C   UNL     1      27.724   9.476  66.365  1.00  0.00     0.073 C 
ATOM      9  O   UNL     1      28.011   8.251  66.421  1.00  0.00    -0.547 OA
ATOM     10  O   UNL     1      26.705   9.983  67.169  1.00  0.00    -0.547 OA
ENDBRANCH   3   8
BRANCH   4  11
ATOM     11  O   UNL     1      29.090  11.737  67.423  1.00  0.00    -0.387 OA
ATOM     12  H   UNL     1      29.245  12.708  67.278  1.00  0.00     0.211 HD
ENDBRANCH   4  11
BRANCH   6  13
ATOM     13  O   UNL     1      31.222  11.344  64.526  1.00  0.00    -0.387 OA
ATOM     14  H   UNL     1      30.615  10.724  64.039  1.00  0.00     0.211 HD
ENDBRANCH   6  13
BRANCH   7  15
ATOM     15  O   UNL     1      28.879  13.910  65.580  1.00  0.00    -0.384 OA
ATOM     16  H   UNL     1      28.919  14.803  65.147  1.00  0.00     0.211 HD
ENDBRANCH   7  15
ENDBRANCH   1   2
BRANCH   1  17
ATOM     17  C   UNL     1      28.414  11.433  61.579  1.00  0.00     0.172 A 
ATOM     18  C   UNL     1      27.356  10.588  61.226  1.00  0.00     0.205 A 
ATOM     19  C   UNL     1      29.003  12.261  60.616  1.00  0.00     0.097 A 
ATOM     20  C   UNL     1      26.867  10.593  59.896  1.00  0.00     0.188 A 
ATOM     21  C   UNL     1      28.566  12.255  59.291  1.00  0.00     0.134 A 
ATOM     22  C   UNL     1      27.453  11.449  58.920  1.00  0.00     0.111 A 
ATOM     23  O   UNL     1      25.857   9.795  59.558  1.00  0.00    -0.452 OA
ATOM     24  C   UNL     1      26.860  11.466  57.634  1.00  0.00     0.197 A 
ATOM     25  C   UNL     1      25.336   9.738  58.337  1.00  0.00     0.138 A 
ATOM     26  C   UNL     1      25.818  10.591  57.342  1.00  0.00     0.100 A 
ATOM     27  O   UNL     1      27.220  12.277  56.741  1.00  0.00    -0.289 OA
BRANCH  18  28
ATOM     28  O   UNL     1      26.850   9.758  62.245  1.00  0.00    -0.490 OA
ATOM     29  C   UNL     1      27.237   8.411  62.512  1.00  0.00     0.278 C 
ENDBRANCH  18  28
BRANCH  21  30
ATOM     30  O   UNL     1      29.294  13.040  58.392  1.00  0.00    -0.507 OA
ATOM     31  H   UNL     1      29.840  12.679  57.625  1.00  0.00     0.293 HD
ENDBRANCH  21  30
BRANCH  25  32
ATOM     32  C   UNL     1      24.244   8.775  58.063  1.00  0.00     0.017 A 
ATOM     33  C   UNL     1      23.573   8.115  59.113  1.00  0.00     0.012 A 
ATOM     34  C   UNL     1      23.837   8.535  56.737  1.00  0.00     0.012 A 
ATOM     35  C   UNL     1      22.518   7.239  58.837  1.00  0.00     0.001 A 
ATOM     36  C   UNL     1      22.780   7.657  56.469  1.00  0.00     0.001 A 
ATOM     37  C   UNL     1      22.120   7.014  57.516  1.00  0.00     0.000 A 
ENDBRANCH  25  32
ENDBRANCH   1  17
TORSDOF 9
ENDMDL
MODEL 8
REMARK VINA RESULT:    -6.617      1.117      2.338
REMARK INTER + INTRA:         -10.581
REMARK INTER:                  -9.485
REMARK INTRA:                  -1.096
REMARK UNBOUND:                -1.256
REMARK SMILES COc1c(O[C@H]2O[C@H](C(=O)[O-])[C@H](O)[C@@H](O)[C@@H]2O)cc(O)c2c(=O)cc(-c3ccccc3)oc12
REMARK SMILES IDX 5 1 6 2 8 3 12 4 7 5 14 6 16 7 9 8 10 9 11 10 13 11 15 13
REMARK SMILES IDX 17 15 4 17 3 18 18 19 33 20 19 21 21 22 32 23 22 24 25 25
REMARK SMILES IDX 24 26 23 27 2 28 1 29 20 30 26 32 27 33 31 34 28 35 30 36
REMARK SMILES IDX 29 37
REMARK H PARENT 13 12 15 14 17 16 20 31
REMARK Flexibility Score: inf
ROOT
ATOM      1  O   UNL     1      27.366   9.847  60.393  1.00  0.00    -0.458 OA
ENDROOT
BRANCH   1   2
ATOM      2  C   UNL     1      26.109   9.877  59.705  1.00  0.00     0.339 C 
ATOM      3  C   UNL     1      27.129  10.591  57.714  1.00  0.00     0.199 C 
ATOM      4  C   UNL     1      26.832   9.273  56.968  1.00  0.00     0.180 C 
ATOM      5  O   UNL     1      26.129  10.864  58.685  1.00  0.00    -0.328 OA
ATOM      6  C   UNL     1      26.707   8.113  57.975  1.00  0.00     0.181 C 
ATOM      7  C   UNL     1      25.747   8.491  59.126  1.00  0.00     0.214 C 
BRANCH   3   8
ATOM      8  C   UNL     1      27.189  11.732  56.741  1.00  0.00     0.073 C 
ATOM      9  O   UNL     1      26.226  11.944  55.959  1.00  0.00    -0.547 OA
ATOM     10  O   UNL     1      28.277  12.604  56.748  1.00  0.00    -0.547 OA
ENDBRANCH   3   8
BRANCH   4  11
ATOM     11  O   UNL     1      25.644   9.397  56.228  1.00  0.00    -0.387 OA
ATOM     12  H   UNL     1      24.992   9.874  56.807  1.00  0.00     0.211 HD
ENDBRANCH   4  11
BRANCH   6  13
ATOM     13  O   UNL     1      27.978   7.803  58.487  1.00  0.00    -0.387 OA
ATOM     14  H   UNL     1      28.411   8.665  58.729  1.00  0.00     0.211 HD
ENDBRANCH   6  13
BRANCH   7  15
ATOM     15  O   UNL     1      24.423   8.525  58.659  1.00  0.00    -0.384 OA
ATOM     16  H   UNL     1      23.879   8.000  59.303  1.00  0.00     0.211 HD
ENDBRANCH   7  15
ENDBRANCH   1   2
BRANCH   1  17
ATOM     17  C   UNL     1      27.677  10.540  61.575  1.00  0.00     0.172 A 
ATOM     18  C   UNL     1      27.398   9.911  62.794  1.00  0.00     0.205 A 
ATOM     19  C   UNL     1      28.235  11.825  61.560  1.00  0.00     0.097 A 
ATOM     20  C   UNL     1      27.705  10.569  64.011  1.00  0.00     0.188 A 
ATOM     21  C   UNL     1      28.509  12.509  62.745  1.00  0.00     0.134 A 
ATOM     22  C   UNL     1      28.290  11.868  63.996  1.00  0.00     0.111 A 
ATOM     23  O   UNL     1      27.446   9.971  65.171  1.00  0.00    -0.452 OA
ATOM     24  C   UNL     1      28.649  12.430  65.245  1.00  0.00     0.197 A 
ATOM     25  C   UNL     1      27.704  10.513  66.356  1.00  0.00     0.138 A 
ATOM     26  C   UNL     1      28.330  11.759  66.422  1.00  0.00     0.100 A 
ATOM     27  O   UNL     1      29.284  13.513  65.334  1.00  0.00    -0.289 OA
BRANCH  18  28
ATOM     28  O   UNL     1      26.800   8.639  62.718  1.00  0.00    -0.490 OA
ATOM     29  C   UNL     1      27.470   7.381  62.787  1.00  0.00     0.278 C 
ENDBRANCH  18  28
BRANCH  21  30
ATOM     30  O   UNL     1      28.963  13.825  62.613  1.00  0.00    -0.507 OA
ATOM     31  H   UNL     1      28.662  14.597  63.188  1.00  0.00     0.293 HD
ENDBRANCH  21  30
BRANCH  25  32
ATOM     32  C   UNL     1      27.326   9.775  67.585  1.00  0.00     0.017 A 
ATOM     33  C   UNL     1      27.942   8.551  67.918  1.00  0.00     0.012 A 
ATOM     34  C   UNL     1      26.365  10.315  68.460  1.00  0.00     0.012 A 
ATOM     35  C   UNL     1      27.602   7.889  69.102  1.00  0.00     0.001 A 
ATOM     36  C   UNL     1      26.031   9.646  69.643  1.00  0.00     0.001 A 
ATOM     37  C   UNL     1      26.650   8.438  69.966  1.00  0.00     0.000 A 
ENDBRANCH  25  32
ENDBRANCH   1  17
TORSDOF 9
ENDMDL
MODEL 9
REMARK VINA RESULT:    -6.579      2.173      3.807
REMARK INTER + INTRA:         -10.527
REMARK INTER:                  -9.245
REMARK INTRA:                  -1.282
REMARK UNBOUND:                -1.256
REMARK SMILES COc1c(O[C@H]2O[C@H](C(=O)[O-])[C@H](O)[C@@H](O)[C@@H]2O)cc(O)c2c(=O)cc(-c3ccccc3)oc12
REMARK SMILES IDX 5 1 6 2 8 3 12 4 7 5 14 6 16 7 9 8 10 9 11 10 13 11 15 13
REMARK SMILES IDX 17 15 4 17 3 18 18 19 33 20 19 21 21 22 32 23 22 24 25 25
REMARK SMILES IDX 24 26 23 27 2 28 1 29 20 30 26 32 27 33 31 34 28 35 30 36
REMARK SMILES IDX 29 37
REMARK H PARENT 13 12 15 14 17 16 20 31
REMARK Flexibility Score: inf
ROOT
ATOM      1  O   UNL     1      27.203  10.605  60.530  1.00  0.00    -0.458 OA
ENDROOT
BRANCH   1   2
ATOM      2  C   UNL     1      27.582   9.535  59.655  1.00  0.00     0.339 C 
ATOM      3  C   UNL     1      25.575   9.709  58.448  1.00  0.00     0.199 C 
ATOM      4  C   UNL     1      26.270  10.212  57.165  1.00  0.00     0.180 C 
ATOM      5  O   UNL     1      26.430   8.849  59.188  1.00  0.00    -0.328 OA
ATOM      6  C   UNL     1      27.591  10.919  57.523  1.00  0.00     0.181 C 
ATOM      7  C   UNL     1      28.439  10.044  58.475  1.00  0.00     0.214 C 
BRANCH   3   8
ATOM      8  C   UNL     1      24.320   8.964  58.096  1.00  0.00     0.073 C 
ATOM      9  O   UNL     1      23.798   8.180  58.931  1.00  0.00    -0.547 OA
ATOM     10  O   UNL     1      23.686   9.193  56.875  1.00  0.00    -0.547 OA
ENDBRANCH   3   8
BRANCH   4  11
ATOM     11  O   UNL     1      26.522   9.132  56.301  1.00  0.00    -0.387 OA
ATOM     12  H   UNL     1      25.928   9.249  55.513  1.00  0.00     0.211 HD
ENDBRANCH   4  11
BRANCH   6  13
ATOM     13  O   UNL     1      27.307  12.155  58.127  1.00  0.00    -0.387 OA
ATOM     14  H   UNL     1      28.047  12.343  58.766  1.00  0.00     0.211 HD
ENDBRANCH   6  13
BRANCH   7  15
ATOM     15  O   UNL     1      28.959   8.940  57.780  1.00  0.00    -0.384 OA
ATOM     16  H   UNL     1      28.711   9.060  56.826  1.00  0.00     0.211 HD
ENDBRANCH   7  15
ENDBRANCH   1   2
BRANCH   1  17
ATOM     17  C   UNL     1      27.301  10.601  61.932  1.00  0.00     0.172 A 
ATOM     18  C   UNL     1      28.464  11.125  62.506  1.00  0.00     0.205 A 
ATOM     19  C   UNL     1      26.289  10.081  62.748  1.00  0.00     0.097 A 
ATOM     20  C   UNL     1      28.603  11.151  63.915  1.00  0.00     0.188 A 
ATOM     21  C   UNL     1      26.418  10.058  64.137  1.00  0.00     0.134 A 
ATOM     22  C   UNL     1      27.565  10.639  64.747  1.00  0.00     0.111 A 
ATOM     23  O   UNL     1      29.705  11.654  64.465  1.00  0.00    -0.452 OA
ATOM     24  C   UNL     1      27.732  10.774  66.147  1.00  0.00     0.197 A 
ATOM     25  C   UNL     1      29.916  11.720  65.774  1.00  0.00     0.138 A 
ATOM     26  C   UNL     1      28.919  11.292  66.655  1.00  0.00     0.100 A 
ATOM     27  O   UNL     1      26.821  10.471  66.961  1.00  0.00    -0.289 OA
BRANCH  18  28
ATOM     28  O   UNL     1      29.449  11.589  61.612  1.00  0.00    -0.490 OA
ATOM     29  C   UNL     1      29.687  12.946  61.242  1.00  0.00     0.278 C 
ENDBRANCH  18  28
BRANCH  21  30
ATOM     30  O   UNL     1      25.397   9.419  64.847  1.00  0.00    -0.507 OA
ATOM     31  H   UNL     1      24.444   9.743  64.899  1.00  0.00     0.293 HD
ENDBRANCH  21  30
BRANCH  25  32
ATOM     32  C   UNL     1      31.204  12.256  66.273  1.00  0.00     0.017 A 
ATOM     33  C   UNL     1      32.420  11.589  66.014  1.00  0.00     0.012 A 
ATOM     34  C   UNL     1      31.231  13.470  66.985  1.00  0.00     0.012 A 
ATOM     35  C   UNL     1      33.631  12.131  66.457  1.00  0.00     0.001 A 
ATOM     36  C   UNL     1      32.447  14.005  67.424  1.00  0.00     0.001 A 
ATOM     37  C   UNL     1      33.644  13.340  67.159  1.00  0.00     0.000 A 
ENDBRANCH  25  32
ENDBRANCH   1  17
TORSDOF 9
ENDMDL
