MODEL 1
REMARK VINA RESULT:    -4.520      0.000      0.000
REMARK INTER + INTRA:          -6.200
REMARK INTER:                  -5.841
REMARK INTRA:                  -0.358
REMARK UNBOUND:                -0.358
REMARK SMILES C=CC(=O)CCCCC
REMARK SMILES IDX 6 1 7 2 8 3 9 4 5 5 3 6 4 7 2 8 1 9
REMARK H PARENT
REMARK Flexibility Score: inf
ROOT
ATOM      1  C   UNL     1      26.621  11.825  26.414  1.00  0.00     0.008 C 
ENDROOT
BRANCH   1   2
ATOM      2  C   UNL     1      27.179  12.996  25.589  1.00  0.00     0.000 C 
BRANCH   2   3
ATOM      3  C   UNL     1      27.832  12.537  24.277  1.00  0.00    -0.003 C 
ATOM      4  C   UNL     1      27.319  13.352  23.093  1.00  0.00     0.004 C 
ENDBRANCH   2   3
ENDBRANCH   1   2
BRANCH   1   5
ATOM      5  C   UNL     1      27.727  10.967  27.051  1.00  0.00     0.080 C 
BRANCH   5   6
ATOM      6  C   UNL     1      27.863   9.608  26.406  1.00  0.00     0.155 C 
ATOM      7  O   UNL     1      26.889   8.806  26.408  1.00  0.00    -0.295 OA
BRANCH   6   8
ATOM      8  C   UNL     1      29.124   9.166  25.775  1.00  0.00     0.039 C 
ATOM      9  C   UNL     1      30.207   9.938  25.673  1.00  0.00     0.012 C 
ENDBRANCH   6   8
ENDBRANCH   5   6
ENDBRANCH   1   5
TORSDOF 5
ENDMDL
MODEL 2
REMARK VINA RESULT:    -4.418      2.239      4.425
REMARK INTER + INTRA:          -6.068
REMARK INTER:                  -5.943
REMARK INTRA:                  -0.125
REMARK UNBOUND:                -0.358
REMARK SMILES C=CC(=O)CCCCC
REMARK SMILES IDX 6 1 7 2 8 3 9 4 5 5 3 6 4 7 2 8 1 9
REMARK H PARENT
REMARK Flexibility Score: inf
ROOT
ATOM      1  C   UNL     1      28.732  10.300  25.610  1.00  0.00     0.008 C 
ENDROOT
BRANCH   1   2
ATOM      2  C   UNL     1      29.854   9.258  25.756  1.00  0.00     0.000 C 
BRANCH   2   3
ATOM      3  C   UNL     1      31.252   9.864  25.569  1.00  0.00    -0.003 C 
ATOM      4  C   UNL     1      31.919  10.131  26.915  1.00  0.00     0.004 C 
ENDBRANCH   2   3
ENDBRANCH   1   2
BRANCH   1   5
ATOM      5  C   UNL     1      27.862  10.416  26.874  1.00  0.00     0.080 C 
BRANCH   5   6
ATOM      6  C   UNL     1      26.865  11.549  26.799  1.00  0.00     0.155 C 
ATOM      7  O   UNL     1      27.078  12.531  26.037  1.00  0.00    -0.295 OA
BRANCH   6   8
ATOM      8  C   UNL     1      25.634  11.559  27.617  1.00  0.00     0.039 C 
ATOM      9  C   UNL     1      24.750  12.557  27.608  1.00  0.00     0.012 C 
ENDBRANCH   6   8
ENDBRANCH   5   6
ENDBRANCH   1   5
TORSDOF 5
ENDMDL
MODEL 3
REMARK VINA RESULT:    -4.383      1.694      3.954
REMARK INTER + INTRA:          -6.022
REMARK INTER:                  -5.671
REMARK INTRA:                  -0.351
REMARK UNBOUND:                -0.358
REMARK SMILES C=CC(=O)CCCCC
REMARK SMILES IDX 6 1 7 2 8 3 9 4 5 5 3 6 4 7 2 8 1 9
REMARK H PARENT
REMARK Flexibility Score: inf
ROOT
ATOM      1  C   UNL     1      28.088  10.661  26.981  1.00  0.00     0.008 C 
ENDROOT
BRANCH   1   2
ATOM      2  C   UNL     1      28.385   9.254  26.438  1.00  0.00     0.000 C 
BRANCH   2   3
ATOM      3  C   UNL     1      29.601   9.226  25.500  1.00  0.00    -0.003 C 
ATOM      4  C   UNL     1      30.749  10.057  26.066  1.00  0.00     0.004 C 
ENDBRANCH   2   3
ENDBRANCH   1   2
BRANCH   1   5
ATOM      5  C   UNL     1      26.832  11.287  26.350  1.00  0.00     0.080 C 
BRANCH   5   6
ATOM      6  C   UNL     1      27.136  12.525  25.539  1.00  0.00     0.155 C 
ATOM      7  O   UNL     1      26.762  13.658  25.948  1.00  0.00    -0.295 OA
BRANCH   6   8
ATOM      8  C   UNL     1      27.854  12.456  24.249  1.00  0.00     0.039 C 
ATOM      9  C   UNL     1      27.492  13.144  23.166  1.00  0.00     0.012 C 
ENDBRANCH   6   8
ENDBRANCH   5   6
ENDBRANCH   1   5
TORSDOF 5
ENDMDL
MODEL 4
REMARK VINA RESULT:    -4.343      1.812      2.632
REMARK INTER + INTRA:          -5.971
REMARK INTER:                  -5.750
REMARK INTRA:                  -0.221
REMARK UNBOUND:                -0.358
REMARK SMILES C=CC(=O)CCCCC
REMARK SMILES IDX 6 1 7 2 8 3 9 4 5 5 3 6 4 7 2 8 1 9
REMARK H PARENT
REMARK Flexibility Score: inf
ROOT
ATOM      1  C   UNL     1      27.903  11.047  25.913  1.00  0.00     0.008 C 
ENDROOT
BRANCH   1   2
ATOM      2  C   UNL     1      27.024  12.129  26.561  1.00  0.00     0.000 C 
BRANCH   2   3
ATOM      3  C   UNL     1      26.005  11.549  27.553  1.00  0.00    -0.003 C 
ATOM      4  C   UNL     1      24.749  12.413  27.617  1.00  0.00     0.004 C 
ENDBRANCH   2   3
ENDBRANCH   1   2
BRANCH   1   5
ATOM      5  C   UNL     1      28.121   9.831  26.831  1.00  0.00     0.080 C 
BRANCH   5   6
ATOM      6  C   UNL     1      29.282   8.967  26.398  1.00  0.00     0.155 C 
ATOM      7  O   UNL     1      29.233   7.717  26.555  1.00  0.00    -0.295 OA
BRANCH   6   8
ATOM      8  C   UNL     1      30.504   9.546  25.803  1.00  0.00     0.039 C 
ATOM      9  C   UNL     1      31.526  10.011  26.522  1.00  0.00     0.012 C 
ENDBRANCH   6   8
ENDBRANCH   5   6
ENDBRANCH   1   5
TORSDOF 5
ENDMDL
MODEL 5
REMARK VINA RESULT:    -4.195      2.001      4.684
REMARK INTER + INTRA:          -5.780
REMARK INTER:                  -5.582
REMARK INTRA:                  -0.197
REMARK UNBOUND:                -0.358
REMARK SMILES C=CC(=O)CCCCC
REMARK SMILES IDX 6 1 7 2 8 3 9 4 5 5 3 6 4 7 2 8 1 9
REMARK H PARENT
REMARK Flexibility Score: inf
ROOT
ATOM      1  C   UNL     1      30.816   9.466  25.794  1.00  0.00     0.008 C 
ENDROOT
BRANCH   1   2
ATOM      2  C   UNL     1      31.548  10.212  26.920  1.00  0.00     0.000 C 
BRANCH   2   3
ATOM      3  C   UNL     1      33.049   9.889  26.965  1.00  0.00    -0.003 C 
ATOM      4  C   UNL     1      33.679  10.389  28.262  1.00  0.00     0.004 C 
ENDBRANCH   2   3
ENDBRANCH   1   2
BRANCH   1   5
ATOM      5  C   UNL     1      29.465  10.110  25.436  1.00  0.00     0.080 C 
BRANCH   5   6
ATOM      6  C   UNL     1      28.328   9.611  26.298  1.00  0.00     0.155 C 
ATOM      7  O   UNL     1      28.125   8.373  26.423  1.00  0.00    -0.295 OA
BRANCH   6   8
ATOM      8  C   UNL     1      27.416  10.539  26.998  1.00  0.00     0.039 C 
ATOM      9  C   UNL     1      27.221  11.804  26.625  1.00  0.00     0.012 C 
ENDBRANCH   6   8
ENDBRANCH   5   6
ENDBRANCH   1   5
TORSDOF 5
ENDMDL
MODEL 6
REMARK VINA RESULT:    -4.186      6.807      7.951
REMARK INTER + INTRA:          -5.768
REMARK INTER:                  -5.565
REMARK INTRA:                  -0.203
REMARK UNBOUND:                -0.358
REMARK SMILES C=CC(=O)CCCCC
REMARK SMILES IDX 6 1 7 2 8 3 9 4 5 5 3 6 4 7 2 8 1 9
REMARK H PARENT
REMARK Flexibility Score: inf
ROOT
ATOM      1  C   UNL     1      34.887  12.978  29.394  1.00  0.00     0.008 C 
ENDROOT
BRANCH   1   2
ATOM      2  C   UNL     1      35.112  14.328  28.694  1.00  0.00     0.000 C 
BRANCH   2   3
ATOM      3  C   UNL     1      34.390  15.487  29.396  1.00  0.00    -0.003 C 
ATOM      4  C   UNL     1      34.860  16.835  28.855  1.00  0.00     0.004 C 
ENDBRANCH   2   3
ENDBRANCH   1   2
BRANCH   1   5
ATOM      5  C   UNL     1      35.727  11.844  28.782  1.00  0.00     0.080 C 
BRANCH   5   6
ATOM      6  C   UNL     1      34.899  10.642  28.394  1.00  0.00     0.155 C 
ATOM      7  O   UNL     1      35.462   9.591  27.983  1.00  0.00    -0.295 OA
BRANCH   6   8
ATOM      8  C   UNL     1      33.422  10.658  28.461  1.00  0.00     0.039 C 
ATOM      9  C   UNL     1      32.634  10.317  27.441  1.00  0.00     0.012 C 
ENDBRANCH   6   8
ENDBRANCH   5   6
ENDBRANCH   1   5
TORSDOF 5
ENDMDL
MODEL 7
REMARK VINA RESULT:    -4.170      3.158      5.493
REMARK INTER + INTRA:          -5.747
REMARK INTER:                  -5.599
REMARK INTRA:                  -0.148
REMARK UNBOUND:                -0.358
REMARK SMILES C=CC(=O)CCCCC
REMARK SMILES IDX 6 1 7 2 8 3 9 4 5 5 3 6 4 7 2 8 1 9
REMARK H PARENT
REMARK Flexibility Score: inf
ROOT
ATOM      1  C   UNL     1      31.935  10.234  27.067  1.00  0.00     0.008 C 
ENDROOT
BRANCH   1   2
ATOM      2  C   UNL     1      33.427  10.165  27.428  1.00  0.00     0.000 C 
BRANCH   2   3
ATOM      3  C   UNL     1      33.707  10.599  28.874  1.00  0.00    -0.003 C 
ATOM      4  C   UNL     1      34.572  11.855  28.913  1.00  0.00     0.004 C 
ENDBRANCH   2   3
ENDBRANCH   1   2
BRANCH   1   5
ATOM      5  C   UNL     1      31.601   9.474  25.771  1.00  0.00     0.080 C 
BRANCH   5   6
ATOM      6  C   UNL     1      30.183   8.954  25.742  1.00  0.00     0.155 C 
ATOM      7  O   UNL     1      29.963   7.713  25.788  1.00  0.00    -0.295 OA
BRANCH   6   8
ATOM      8  C   UNL     1      29.022   9.862  25.641  1.00  0.00     0.039 C 
ATOM      9  C   UNL     1      28.172  10.087  26.643  1.00  0.00     0.012 C 
ENDBRANCH   6   8
ENDBRANCH   5   6
ENDBRANCH   1   5
TORSDOF 5
ENDMDL
MODEL 8
REMARK VINA RESULT:    -4.145      7.168      8.803
REMARK INTER + INTRA:          -5.715
REMARK INTER:                  -5.552
REMARK INTRA:                  -0.164
REMARK UNBOUND:                -0.358
REMARK SMILES C=CC(=O)CCCCC
REMARK SMILES IDX 6 1 7 2 8 3 9 4 5 5 3 6 4 7 2 8 1 9
REMARK H PARENT
REMARK Flexibility Score: inf
ROOT
ATOM      1  C   UNL     1      35.726  11.652  28.593  1.00  0.00     0.008 C 
ENDROOT
BRANCH   1   2
ATOM      2  C   UNL     1      34.920  10.486  28.000  1.00  0.00     0.000 C 
BRANCH   2   3
ATOM      3  C   UNL     1      33.460  10.472  28.478  1.00  0.00    -0.003 C 
ATOM      4  C   UNL     1      32.503  10.247  27.311  1.00  0.00     0.004 C 
ENDBRANCH   2   3
ENDBRANCH   1   2
BRANCH   1   5
ATOM      5  C   UNL     1      34.830  12.761  29.169  1.00  0.00     0.080 C 
BRANCH   5   6
ATOM      6  C   UNL     1      35.426  14.141  29.015  1.00  0.00     0.155 C 
ATOM      7  O   UNL     1      36.660  14.275  28.790  1.00  0.00    -0.295 OA
BRANCH   6   8
ATOM      8  C   UNL     1      34.606  15.363  29.138  1.00  0.00     0.039 C 
ATOM      9  C   UNL     1      35.007  16.565  28.724  1.00  0.00     0.012 C 
ENDBRANCH   6   8
ENDBRANCH   5   6
ENDBRANCH   1   5
TORSDOF 5
ENDMDL
MODEL 9
REMARK VINA RESULT:    -4.122      5.542      7.097
REMARK INTER + INTRA:          -5.685
REMARK INTER:                  -5.535
REMARK INTRA:                  -0.150
REMARK UNBOUND:                -0.358
REMARK SMILES C=CC(=O)CCCCC
REMARK SMILES IDX 6 1 7 2 8 3 9 4 5 5 3 6 4 7 2 8 1 9
REMARK H PARENT
REMARK Flexibility Score: inf
ROOT
ATOM      1  C   UNL     1      33.537  10.173  27.441  1.00  0.00     0.008 C 
ENDROOT
BRANCH   1   2
ATOM      2  C   UNL     1      32.028  10.275  27.166  1.00  0.00     0.000 C 
BRANCH   2   3
ATOM      3  C   UNL     1      31.631   9.674  25.810  1.00  0.00    -0.003 C 
ATOM      4  C   UNL     1      30.117   9.702  25.619  1.00  0.00     0.004 C 
ENDBRANCH   2   3
ENDBRANCH   1   2
BRANCH   1   5
ATOM      5  C   UNL     1      33.950  10.863  28.753  1.00  0.00     0.080 C 
BRANCH   5   6
ATOM      6  C   UNL     1      35.368  11.382  28.724  1.00  0.00     0.155 C 
ATOM      7  O   UNL     1      36.329  10.587  28.536  1.00  0.00    -0.295 OA
BRANCH   6   8
ATOM      8  C   UNL     1      35.680  12.811  28.930  1.00  0.00     0.039 C 
ATOM      9  C   UNL     1      34.752  13.767  28.990  1.00  0.00     0.012 C 
ENDBRANCH   6   8
ENDBRANCH   5   6
ENDBRANCH   1   5
TORSDOF 5
ENDMDL
