MODEL 1
REMARK VINA RESULT:    -4.153      0.000      0.000
REMARK INTER + INTRA:          -4.551
REMARK INTER:                  -4.517
REMARK INTRA:                  -0.035
REMARK UNBOUND:                -0.035
REMARK SMILES O=C([O-])c1ccc(O)cc1
REMARK SMILES IDX 7 1 6 2 9 3 5 4 10 5 4 6 8 7 2 9 1 10 3 11
REMARK H PARENT 8 8
REMARK Flexibility Score: inf
ROOT
ATOM      1  C   UNL     1       1.098  -1.276  -0.008  1.00  0.00     0.115 A 
ATOM      2  C   UNL     1       0.936   0.078  -0.314  1.00  0.00     0.047 A 
ATOM      3  C   UNL     1       0.003  -2.022   0.444  1.00  0.00     0.047 A 
ATOM      4  C   UNL     1      -0.315   0.688  -0.170  1.00  0.00     0.014 A 
ATOM      5  C   UNL     1      -1.249  -1.417   0.590  1.00  0.00     0.014 A 
ATOM      6  C   UNL     1      -1.421  -0.055   0.284  1.00  0.00    -0.003 A 
ENDROOT
BRANCH   1   7
ATOM      7  O   UNL     1       2.351  -1.868  -0.156  1.00  0.00    -0.508 OA
ATOM      8  H   UNL     1       2.677  -2.197  -1.057  1.00  0.00     0.293 HD
ENDBRANCH   1   7
BRANCH   6   9
ATOM      9  C   UNL     1      -2.746   0.583   0.439  1.00  0.00     0.071 C 
ATOM     10  O   UNL     1      -2.843   1.831   0.591  1.00  0.00    -0.545 OA
ATOM     11  O   UNL     1      -3.905  -0.185   0.417  1.00  0.00    -0.545 OA
ENDBRANCH   6   9
TORSDOF 2
ENDMDL
MODEL 2
REMARK VINA RESULT:    -4.150      0.025      1.532
REMARK INTER + INTRA:          -4.548
REMARK INTER:                  -4.514
REMARK INTRA:                  -0.035
REMARK UNBOUND:                -0.035
REMARK SMILES O=C([O-])c1ccc(O)cc1
REMARK SMILES IDX 7 1 6 2 9 3 5 4 10 5 4 6 8 7 2 9 1 10 3 11
REMARK H PARENT 8 8
REMARK Flexibility Score: inf
ROOT
ATOM      1  C   UNL     1       1.108  -1.272  -0.040  1.00  0.00     0.115 A 
ATOM      2  C   UNL     1       0.022  -2.023   0.420  1.00  0.00     0.047 A 
ATOM      3  C   UNL     1       0.936   0.084  -0.342  1.00  0.00     0.047 A 
ATOM      4  C   UNL     1      -1.233  -1.425   0.578  1.00  0.00     0.014 A 
ATOM      5  C   UNL     1      -0.317   0.687  -0.185  1.00  0.00     0.014 A 
ATOM      6  C   UNL     1      -1.414  -0.062   0.276  1.00  0.00    -0.003 A 
ENDROOT
BRANCH   1   7
ATOM      7  O   UNL     1       2.351  -1.883  -0.192  1.00  0.00    -0.508 OA
ATOM      8  H   UNL     1       3.211  -1.390   0.013  1.00  0.00     0.293 HD
ENDBRANCH   1   7
BRANCH   6   9
ATOM      9  C   UNL     1      -2.738   0.577   0.441  1.00  0.00     0.071 C 
ATOM     10  O   UNL     1      -2.834   1.825   0.582  1.00  0.00    -0.545 OA
ATOM     11  O   UNL     1      -3.896  -0.192   0.440  1.00  0.00    -0.545 OA
ENDBRANCH   6   9
TORSDOF 2
ENDMDL
MODEL 3
REMARK VINA RESULT:    -4.089     10.256     11.592
REMARK INTER + INTRA:          -4.482
REMARK INTER:                  -4.447
REMARK INTRA:                  -0.036
REMARK UNBOUND:                -0.035
REMARK SMILES O=C([O-])c1ccc(O)cc1
REMARK SMILES IDX 7 1 6 2 9 3 5 4 10 5 4 6 8 7 2 9 1 10 3 11
REMARK H PARENT 8 8
REMARK Flexibility Score: inf
ROOT
ATOM      1  C   UNL     1      -7.970   1.886  -9.468  1.00  0.00     0.115 A 
ATOM      2  C   UNL     1      -7.726   0.817  -8.601  1.00  0.00     0.047 A 
ATOM      3  C   UNL     1      -6.895   2.547 -10.075  1.00  0.00     0.047 A 
ATOM      4  C   UNL     1      -6.414   0.406  -8.340  1.00  0.00     0.014 A 
ATOM      5  C   UNL     1      -5.582   2.139  -9.817  1.00  0.00     0.014 A 
ATOM      6  C   UNL     1      -5.328   1.065  -8.946  1.00  0.00    -0.003 A 
ENDROOT
BRANCH   1   7
ATOM      7  O   UNL     1      -9.282   2.284  -9.718  1.00  0.00    -0.508 OA
ATOM      8  H   UNL     1      -9.861   1.800 -10.394  1.00  0.00     0.293 HD
ENDBRANCH   1   7
BRANCH   6   9
ATOM      9  C   UNL     1      -3.939   0.636  -8.673  1.00  0.00     0.071 C 
ATOM     10  O   UNL     1      -2.981   1.104  -9.345  1.00  0.00    -0.545 OA
ATOM     11  O   UNL     1      -3.671  -0.289  -7.671  1.00  0.00    -0.545 OA
ENDBRANCH   6   9
TORSDOF 2
ENDMDL
MODEL 4
REMARK VINA RESULT:    -3.896     10.437     11.362
REMARK INTER + INTRA:          -4.273
REMARK INTER:                  -4.236
REMARK INTRA:                  -0.036
REMARK UNBOUND:                -0.035
REMARK SMILES O=C([O-])c1ccc(O)cc1
REMARK SMILES IDX 7 1 6 2 9 3 5 4 10 5 4 6 8 7 2 9 1 10 3 11
REMARK H PARENT 8 8
REMARK Flexibility Score: inf
ROOT
ATOM      1  C   UNL     1      -5.096   1.337  -9.039  1.00  0.00     0.115 A 
ATOM      2  C   UNL     1      -5.692   0.255  -8.385  1.00  0.00     0.047 A 
ATOM      3  C   UNL     1      -5.898   2.351  -9.576  1.00  0.00     0.047 A 
ATOM      4  C   UNL     1      -7.085   0.183  -8.267  1.00  0.00     0.014 A 
ATOM      5  C   UNL     1      -7.290   2.284  -9.460  1.00  0.00     0.014 A 
ATOM      6  C   UNL     1      -7.898   1.198  -8.804  1.00  0.00    -0.003 A 
ENDROOT
BRANCH   1   7
ATOM      7  O   UNL     1      -3.708   1.393  -9.149  1.00  0.00    -0.508 OA
ATOM      8  H   UNL     1      -3.216   2.278  -9.184  1.00  0.00     0.293 HD
ENDBRANCH   1   7
BRANCH   6   9
ATOM      9  C   UNL     1      -9.370   1.129  -8.683  1.00  0.00     0.071 C 
ATOM     10  O   UNL     1     -10.099   2.009  -9.213  1.00  0.00    -0.545 OA
ATOM     11  O   UNL     1      -9.971   0.089  -7.982  1.00  0.00    -0.545 OA
ENDBRANCH   6   9
TORSDOF 2
ENDMDL
MODEL 5
REMARK VINA RESULT:    -3.877      1.154      1.985
REMARK INTER + INTRA:          -4.252
REMARK INTER:                  -4.219
REMARK INTRA:                  -0.033
REMARK UNBOUND:                -0.035
REMARK SMILES O=C([O-])c1ccc(O)cc1
REMARK SMILES IDX 7 1 6 2 9 3 5 4 10 5 4 6 8 7 2 9 1 10 3 11
REMARK H PARENT 8 8
REMARK Flexibility Score: inf
ROOT
ATOM      1  C   UNL     1       0.419  -2.392  -0.116  1.00  0.00     0.115 A 
ATOM      2  C   UNL     1      -0.918  -2.400   0.295  1.00  0.00     0.047 A 
ATOM      3  C   UNL     1       1.093  -1.174  -0.262  1.00  0.00     0.047 A 
ATOM      4  C   UNL     1      -1.581  -1.197   0.559  1.00  0.00     0.014 A 
ATOM      5  C   UNL     1       0.434   0.031   0.001  1.00  0.00     0.014 A 
ATOM      6  C   UNL     1      -0.910   0.032   0.414  1.00  0.00    -0.003 A 
ENDROOT
BRANCH   1   7
ATOM      7  O   UNL     1       1.065  -3.599  -0.376  1.00  0.00    -0.508 OA
ATOM      8  H   UNL     1       1.574  -4.093   0.348  1.00  0.00     0.293 HD
ENDBRANCH   1   7
BRANCH   6   9
ATOM      9  C   UNL     1      -1.605   1.308   0.692  1.00  0.00     0.071 C 
ATOM     10  O   UNL     1      -0.967   2.303   1.127  1.00  0.00    -0.545 OA
ATOM     11  O   UNL     1      -2.973   1.427   0.474  1.00  0.00    -0.545 OA
ENDBRANCH   6   9
TORSDOF 2
ENDMDL
MODEL 6
REMARK VINA RESULT:    -3.865      1.155      1.418
REMARK INTER + INTRA:          -4.238
REMARK INTER:                  -4.206
REMARK INTRA:                  -0.033
REMARK UNBOUND:                -0.035
REMARK SMILES O=C([O-])c1ccc(O)cc1
REMARK SMILES IDX 7 1 6 2 9 3 5 4 10 5 4 6 8 7 2 9 1 10 3 11
REMARK H PARENT 8 8
REMARK Flexibility Score: inf
ROOT
ATOM      1  C   UNL     1       0.465  -2.395  -0.111  1.00  0.00     0.115 A 
ATOM      2  C   UNL     1       1.132  -1.180  -0.290  1.00  0.00     0.047 A 
ATOM      3  C   UNL     1      -0.863  -2.400   0.333  1.00  0.00     0.047 A 
ATOM      4  C   UNL     1       0.477   0.029  -0.027  1.00  0.00     0.014 A 
ATOM      5  C   UNL     1      -1.521  -1.195   0.597  1.00  0.00     0.014 A 
ATOM      6  C   UNL     1      -0.857   0.033   0.420  1.00  0.00    -0.003 A 
ENDROOT
BRANCH   1   7
ATOM      7  O   UNL     1       1.131  -3.590  -0.377  1.00  0.00    -0.508 OA
ATOM      8  H   UNL     1       0.945  -4.430   0.159  1.00  0.00     0.293 HD
ENDBRANCH   1   7
BRANCH   6   9
ATOM      9  C   UNL     1      -1.555   1.306   0.700  1.00  0.00     0.071 C 
ATOM     10  O   UNL     1      -0.928   2.289   1.179  1.00  0.00    -0.545 OA
ATOM     11  O   UNL     1      -2.914   1.438   0.437  1.00  0.00    -0.545 OA
ENDBRANCH   6   9
TORSDOF 2
ENDMDL
MODEL 7
REMARK VINA RESULT:    -3.862      9.647      9.967
REMARK INTER + INTRA:          -4.235
REMARK INTER:                  -4.204
REMARK INTRA:                  -0.031
REMARK UNBOUND:                -0.035
REMARK SMILES O=C([O-])c1ccc(O)cc1
REMARK SMILES IDX 7 1 6 2 9 3 5 4 10 5 4 6 8 7 2 9 1 10 3 11
REMARK H PARENT 8 8
REMARK Flexibility Score: inf
ROOT
ATOM      1  C   UNL     1      -3.520  -1.805  -8.912  1.00  0.00     0.115 A 
ATOM      2  C   UNL     1      -3.028  -0.654  -8.289  1.00  0.00     0.047 A 
ATOM      3  C   UNL     1      -4.806  -1.800  -9.464  1.00  0.00     0.047 A 
ATOM      4  C   UNL     1      -3.817   0.499  -8.216  1.00  0.00     0.014 A 
ATOM      5  C   UNL     1      -5.598  -0.650  -9.393  1.00  0.00     0.014 A 
ATOM      6  C   UNL     1      -5.111   0.512  -8.768  1.00  0.00    -0.003 A 
ENDROOT
BRANCH   1   7
ATOM      7  O   UNL     1      -2.722  -2.946  -8.977  1.00  0.00    -0.508 OA
ATOM      8  H   UNL     1      -1.808  -2.928  -9.414  1.00  0.00     0.293 HD
ENDBRANCH   1   7
BRANCH   6   9
ATOM      9  C   UNL     1      -5.950   1.728  -8.694  1.00  0.00     0.071 C 
ATOM     10  O   UNL     1      -7.168   1.648  -8.378  1.00  0.00    -0.545 OA
ATOM     11  O   UNL     1      -5.407   2.978  -8.970  1.00  0.00    -0.545 OA
ENDBRANCH   6   9
TORSDOF 2
ENDMDL
MODEL 8
REMARK VINA RESULT:    -3.764      1.194      4.194
REMARK INTER + INTRA:          -4.129
REMARK INTER:                  -4.102
REMARK INTRA:                  -0.027
REMARK UNBOUND:                -0.035
REMARK SMILES O=C([O-])c1ccc(O)cc1
REMARK SMILES IDX 7 1 6 2 9 3 5 4 10 5 4 6 8 7 2 9 1 10 3 11
REMARK H PARENT 8 8
REMARK Flexibility Score: inf
ROOT
ATOM      1  C   UNL     1      -2.594   1.082   0.440  1.00  0.00     0.115 A 
ATOM      2  C   UNL     1      -1.378   1.741   0.640  1.00  0.00     0.047 A 
ATOM      3  C   UNL     1      -2.622  -0.316   0.359  1.00  0.00     0.047 A 
ATOM      4  C   UNL     1      -0.191   1.010   0.759  1.00  0.00     0.014 A 
ATOM      5  C   UNL     1      -1.438  -1.051   0.478  1.00  0.00     0.014 A 
ATOM      6  C   UNL     1      -0.210  -0.395   0.679  1.00  0.00    -0.003 A 
ENDROOT
BRANCH   1   7
ATOM      7  O   UNL     1      -3.768   1.825   0.322  1.00  0.00    -0.508 OA
ATOM      8  H   UNL     1      -3.968   2.599   0.944  1.00  0.00     0.293 HD
ENDBRANCH   1   7
BRANCH   6   9
ATOM      9  C   UNL     1       1.041  -1.174   0.804  1.00  0.00     0.071 C 
ATOM     10  O   UNL     1       1.497  -1.477   1.939  1.00  0.00    -0.545 OA
ATOM     11  O   UNL     1       1.731  -1.585  -0.331  1.00  0.00    -0.545 OA
ENDBRANCH   6   9
TORSDOF 2
ENDMDL
MODEL 9
REMARK VINA RESULT:    -3.511      1.468      4.168
REMARK INTER + INTRA:          -3.853
REMARK INTER:                  -3.821
REMARK INTRA:                  -0.032
REMARK UNBOUND:                -0.035
REMARK SMILES O=C([O-])c1ccc(O)cc1
REMARK SMILES IDX 7 1 6 2 9 3 5 4 10 5 4 6 8 7 2 9 1 10 3 11
REMARK H PARENT 8 8
REMARK Flexibility Score: inf
ROOT
ATOM      1  C   UNL     1      -2.650   1.121   0.473  1.00  0.00     0.115 A 
ATOM      2  C   UNL     1      -1.256   1.212   0.529  1.00  0.00     0.047 A 
ATOM      3  C   UNL     1      -3.262  -0.137   0.415  1.00  0.00     0.047 A 
ATOM      4  C   UNL     1      -0.474   0.053   0.526  1.00  0.00     0.014 A 
ATOM      5  C   UNL     1      -2.484  -1.299   0.413  1.00  0.00     0.014 A 
ATOM      6  C   UNL     1      -1.081  -1.216   0.468  1.00  0.00    -0.003 A 
ENDROOT
BRANCH   1   7
ATOM      7  O   UNL     1      -3.416   2.286   0.475  1.00  0.00    -0.508 OA
ATOM      8  H   UNL     1      -3.819   2.652   1.330  1.00  0.00     0.293 HD
ENDBRANCH   1   7
BRANCH   6   9
ATOM      9  C   UNL     1      -0.260  -2.446   0.465  1.00  0.00     0.071 C 
ATOM     10  O   UNL     1      -0.632  -3.467   1.103  1.00  0.00    -0.545 OA
ATOM     11  O   UNL     1       0.936  -2.493  -0.243  1.00  0.00    -0.545 OA
ENDBRANCH   6   9
TORSDOF 2
ENDMDL
