MODEL 1
REMARK VINA RESULT:    -6.066      0.000      0.000
REMARK INTER + INTRA:          -6.641
REMARK INTER:                  -6.598
REMARK INTRA:                  -0.043
REMARK UNBOUND:                -0.043
REMARK SMILES COc1cc2ccc(=O)oc2cc1O
REMARK SMILES IDX 3 1 13 2 12 3 11 4 5 5 4 6 6 7 7 8 8 9 9 10 10 11 2 12 1 13
REMARK SMILES IDX 14 14
REMARK H PARENT 14 15
REMARK Flexibility Score: inf
ROOT
ATOM      1  C   UNL     1      12.526  10.729  14.188  1.00  0.00     0.161 A 
ATOM      2  C   UNL     1      11.895  11.462  15.212  1.00  0.00     0.161 A 
ATOM      3  C   UNL     1      10.523  11.318  15.439  1.00  0.00     0.098 A 
ATOM      4  C   UNL     1       9.763  10.446  14.655  1.00  0.00     0.142 A 
ATOM      5  C   UNL     1      10.385   9.707  13.628  1.00  0.00     0.022 A 
ATOM      6  C   UNL     1      11.761   9.848  13.397  1.00  0.00     0.062 A 
ATOM      7  C   UNL     1       9.600   8.841  12.859  1.00  0.00     0.019 A 
ATOM      8  C   UNL     1       8.236   8.735  13.128  1.00  0.00     0.094 A 
ATOM      9  C   UNL     1       7.687   9.500  14.164  1.00  0.00     0.336 A 
ATOM     10  O   UNL     1       6.459   9.418  14.422  1.00  0.00    -0.246 OA
ATOM     11  O   UNL     1       8.458  10.315  14.879  1.00  0.00    -0.423 OA
ENDROOT
BRANCH   1  12
ATOM     12  O   UNL     1      13.906  10.899  13.987  1.00  0.00    -0.493 OA
ATOM     13  C   UNL     1      14.692  10.127  13.084  1.00  0.00     0.278 C 
ENDBRANCH   1  12
BRANCH   2  14
ATOM     14  O   UNL     1      12.619  12.344  16.016  1.00  0.00    -0.504 OA
ATOM     15  H   UNL     1      13.052  12.053  16.883  1.00  0.00     0.293 HD
ENDBRANCH   2  14
TORSDOF 2
ENDMDL
MODEL 2
REMARK VINA RESULT:    -5.460      1.507      4.676
REMARK INTER + INTRA:          -5.983
REMARK INTER:                  -5.939
REMARK INTRA:                  -0.043
REMARK UNBOUND:                -0.043
REMARK SMILES COc1cc2ccc(=O)oc2cc1O
REMARK SMILES IDX 3 1 13 2 12 3 11 4 5 5 4 6 6 7 7 8 8 9 9 10 10 11 2 12 1 13
REMARK SMILES IDX 14 14
REMARK H PARENT 14 15
REMARK Flexibility Score: inf
ROOT
ATOM      1  C   UNL     1       9.068   8.912  12.609  1.00  0.00     0.161 A 
ATOM      2  C   UNL     1       8.339   9.392  13.716  1.00  0.00     0.161 A 
ATOM      3  C   UNL     1       8.937  10.270  14.626  1.00  0.00     0.098 A 
ATOM      4  C   UNL     1      10.260  10.682  14.448  1.00  0.00     0.142 A 
ATOM      5  C   UNL     1      10.997  10.209  13.343  1.00  0.00     0.022 A 
ATOM      6  C   UNL     1      10.403   9.328  12.429  1.00  0.00     0.062 A 
ATOM      7  C   UNL     1      12.319  10.638  13.190  1.00  0.00     0.019 A 
ATOM      8  C   UNL     1      12.866  11.515  14.127  1.00  0.00     0.094 A 
ATOM      9  C   UNL     1      12.074  11.943  15.199  1.00  0.00     0.336 A 
ATOM     10  O   UNL     1      12.549  12.734  16.054  1.00  0.00    -0.246 OA
ATOM     11  O   UNL     1      10.819  11.518  15.319  1.00  0.00    -0.423 OA
ENDROOT
BRANCH   1  12
ATOM     12  O   UNL     1       8.437   8.032  11.715  1.00  0.00    -0.493 OA
ATOM     13  C   UNL     1       9.024   7.543  10.514  1.00  0.00     0.278 C 
ENDBRANCH   1  12
BRANCH   2  14
ATOM     14  O   UNL     1       7.016   9.003  13.928  1.00  0.00    -0.504 OA
ATOM     15  H   UNL     1       6.266   9.276  13.307  1.00  0.00     0.293 HD
ENDBRANCH   2  14
TORSDOF 2
ENDMDL
MODEL 3
REMARK VINA RESULT:    -5.425      1.731      4.821
REMARK INTER + INTRA:          -5.944
REMARK INTER:                  -5.891
REMARK INTRA:                  -0.053
REMARK UNBOUND:                -0.043
REMARK SMILES COc1cc2ccc(=O)oc2cc1O
REMARK SMILES IDX 3 1 13 2 12 3 11 4 5 5 4 6 6 7 7 8 8 9 9 10 10 11 2 12 1 13
REMARK SMILES IDX 14 14
REMARK H PARENT 14 15
REMARK Flexibility Score: inf
ROOT
ATOM      1  C   UNL     1       9.832   9.489  14.329  1.00  0.00     0.161 A 
ATOM      2  C   UNL     1      10.775  10.076  15.195  1.00  0.00     0.161 A 
ATOM      3  C   UNL     1      11.999  10.536  14.697  1.00  0.00     0.098 A 
ATOM      4  C   UNL     1      12.299  10.419  13.338  1.00  0.00     0.142 A 
ATOM      5  C   UNL     1      11.361   9.835  12.462  1.00  0.00     0.022 A 
ATOM      6  C   UNL     1      10.134   9.372  12.956  1.00  0.00     0.062 A 
ATOM      7  C   UNL     1      11.689   9.731  11.106  1.00  0.00     0.019 A 
ATOM      8  C   UNL     1      12.923  10.206  10.663  1.00  0.00     0.094 A 
ATOM      9  C   UNL     1      13.804  10.775  11.590  1.00  0.00     0.336 A 
ATOM     10  O   UNL     1      14.921  11.210  11.209  1.00  0.00    -0.246 OA
ATOM     11  O   UNL     1      13.465  10.860  12.874  1.00  0.00    -0.423 OA
ENDROOT
BRANCH   1  12
ATOM     12  O   UNL     1       8.613   9.038  14.862  1.00  0.00    -0.493 OA
ATOM     13  C   UNL     1       7.330   9.400  14.363  1.00  0.00     0.278 C 
ENDBRANCH   1  12
BRANCH   2  14
ATOM     14  O   UNL     1      10.513  10.209  16.559  1.00  0.00    -0.504 OA
ATOM     15  H   UNL     1      11.251  10.273  17.248  1.00  0.00     0.293 HD
ENDBRANCH   2  14
TORSDOF 2
ENDMDL
MODEL 4
REMARK VINA RESULT:    -5.313      2.286      3.215
REMARK INTER + INTRA:          -5.823
REMARK INTER:                  -5.763
REMARK INTRA:                  -0.060
REMARK UNBOUND:                -0.043
REMARK SMILES COc1cc2ccc(=O)oc2cc1O
REMARK SMILES IDX 3 1 13 2 12 3 11 4 5 5 4 6 6 7 7 8 8 9 9 10 10 11 2 12 1 13
REMARK SMILES IDX 14 14
REMARK H PARENT 14 15
REMARK Flexibility Score: inf
ROOT
ATOM      1  C   UNL     1      11.030  10.428  14.530  1.00  0.00     0.161 A 
ATOM      2  C   UNL     1       9.770   9.935  14.923  1.00  0.00     0.161 A 
ATOM      3  C   UNL     1       9.000   9.179  14.033  1.00  0.00     0.098 A 
ATOM      4  C   UNL     1       9.471   8.904  12.746  1.00  0.00     0.142 A 
ATOM      5  C   UNL     1      10.731   9.392  12.344  1.00  0.00     0.022 A 
ATOM      6  C   UNL     1      11.506  10.150  13.232  1.00  0.00     0.062 A 
ATOM      7  C   UNL     1      11.177   9.101  11.050  1.00  0.00     0.019 A 
ATOM      8  C   UNL     1      10.370   8.342  10.203  1.00  0.00     0.094 A 
ATOM      9  C   UNL     1       9.130   7.891  10.671  1.00  0.00     0.336 A 
ATOM     10  O   UNL     1       8.388   7.206   9.922  1.00  0.00    -0.246 OA
ATOM     11  O   UNL     1       8.731   8.183  11.907  1.00  0.00    -0.423 OA
ENDROOT
BRANCH   1  12
ATOM     12  O   UNL     1      11.776  11.184  15.449  1.00  0.00    -0.493 OA
ATOM     13  C   UNL     1      12.112  12.557  15.281  1.00  0.00     0.278 C 
ENDBRANCH   1  12
BRANCH   2  14
ATOM     14  O   UNL     1       9.265  10.189  16.198  1.00  0.00    -0.504 OA
ATOM     15  H   UNL     1       9.163   9.461  16.894  1.00  0.00     0.293 HD
ENDBRANCH   2  14
TORSDOF 2
ENDMDL
MODEL 5
REMARK VINA RESULT:    -5.177      1.633      5.226
REMARK INTER + INTRA:          -5.675
REMARK INTER:                  -5.631
REMARK INTRA:                  -0.044
REMARK UNBOUND:                -0.043
REMARK SMILES COc1cc2ccc(=O)oc2cc1O
REMARK SMILES IDX 3 1 13 2 12 3 11 4 5 5 4 6 6 7 7 8 8 9 9 10 10 11 2 12 1 13
REMARK SMILES IDX 14 14
REMARK H PARENT 14 15
REMARK Flexibility Score: inf
ROOT
ATOM      1  C   UNL     1      10.677   9.961  13.852  1.00  0.00     0.161 A 
ATOM      2  C   UNL     1      11.476  10.376  14.936  1.00  0.00     0.161 A 
ATOM      3  C   UNL     1      12.847  10.589  14.760  1.00  0.00     0.098 A 
ATOM      4  C   UNL     1      13.439  10.394  13.509  1.00  0.00     0.142 A 
ATOM      5  C   UNL     1      12.648   9.980  12.418  1.00  0.00     0.022 A 
ATOM      6  C   UNL     1      11.274   9.765  12.589  1.00  0.00     0.062 A 
ATOM      7  C   UNL     1      13.268   9.793  11.178  1.00  0.00     0.019 A 
ATOM      8  C   UNL     1      14.639  10.020  11.057  1.00  0.00     0.094 A 
ATOM      9  C   UNL     1      15.360  10.430  12.184  1.00  0.00     0.336 A 
ATOM     10  O   UNL     1      16.597  10.640  12.096  1.00  0.00    -0.246 OA
ATOM     11  O   UNL     1      14.744  10.600  13.352  1.00  0.00    -0.423 OA
ENDROOT
BRANCH   1  12
ATOM     12  O   UNL     1       9.304   9.756  14.064  1.00  0.00    -0.493 OA
ATOM     13  C   UNL     1       8.459   8.996  13.206  1.00  0.00     0.278 C 
ENDBRANCH   1  12
BRANCH   2  14
ATOM     14  O   UNL     1      10.922  10.580  16.200  1.00  0.00    -0.504 OA
ATOM     15  H   UNL     1      10.521  11.467  16.477  1.00  0.00     0.293 HD
ENDBRANCH   2  14
TORSDOF 2
ENDMDL
MODEL 6
REMARK VINA RESULT:    -5.156      1.802      2.792
REMARK INTER + INTRA:          -5.651
REMARK INTER:                  -5.597
REMARK INTRA:                  -0.054
REMARK UNBOUND:                -0.043
REMARK SMILES COc1cc2ccc(=O)oc2cc1O
REMARK SMILES IDX 3 1 13 2 12 3 11 4 5 5 4 6 6 7 7 8 8 9 9 10 10 11 2 12 1 13
REMARK SMILES IDX 14 14
REMARK H PARENT 14 15
REMARK Flexibility Score: inf
ROOT
ATOM      1  C   UNL     1      12.955   9.712  12.702  1.00  0.00     0.161 A 
ATOM      2  C   UNL     1      12.126   9.560  11.572  1.00  0.00     0.161 A 
ATOM      3  C   UNL     1      10.739   9.459  11.724  1.00  0.00     0.098 A 
ATOM      4  C   UNL     1      10.161   9.507  12.995  1.00  0.00     0.142 A 
ATOM      5  C   UNL     1      10.981   9.660  14.131  1.00  0.00     0.022 A 
ATOM      6  C   UNL     1      12.371   9.762  13.984  1.00  0.00     0.062 A 
ATOM      7  C   UNL     1      10.375   9.705  15.391  1.00  0.00     0.019 A 
ATOM      8  C   UNL     1       8.987   9.600  15.486  1.00  0.00     0.094 A 
ATOM      9  C   UNL     1       8.237   9.450  14.314  1.00  0.00     0.336 A 
ATOM     10  O   UNL     1       6.984   9.354  14.379  1.00  0.00    -0.246 OA
ATOM     11  O   UNL     1       8.841   9.410  13.129  1.00  0.00    -0.423 OA
ENDROOT
BRANCH   1  12
ATOM     12  O   UNL     1      14.343   9.811  12.513  1.00  0.00    -0.493 OA
ATOM     13  C   UNL     1      15.238   8.703  12.507  1.00  0.00     0.278 C 
ENDBRANCH   1  12
BRANCH   2  14
ATOM     14  O   UNL     1      12.666   9.507  10.287  1.00  0.00    -0.504 OA
ATOM     15  H   UNL     1      13.173   8.700   9.947  1.00  0.00     0.293 HD
ENDBRANCH   2  14
TORSDOF 2
ENDMDL
MODEL 7
REMARK VINA RESULT:    -5.119     11.820     12.820
REMARK INTER + INTRA:          -5.611
REMARK INTER:                  -5.568
REMARK INTRA:                  -0.043
REMARK UNBOUND:                -0.043
REMARK SMILES COc1cc2ccc(=O)oc2cc1O
REMARK SMILES IDX 3 1 13 2 12 3 11 4 5 5 4 6 6 7 7 8 8 9 9 10 10 11 2 12 1 13
REMARK SMILES IDX 14 14
REMARK H PARENT 14 15
REMARK Flexibility Score: inf
ROOT
ATOM      1  C   UNL     1       4.645   4.157  22.720  1.00  0.00     0.161 A 
ATOM      2  C   UNL     1       3.784   4.953  21.939  1.00  0.00     0.161 A 
ATOM      3  C   UNL     1       3.415   6.230  22.376  1.00  0.00     0.098 A 
ATOM      4  C   UNL     1       3.895   6.729  23.589  1.00  0.00     0.142 A 
ATOM      5  C   UNL     1       4.758   5.941  24.377  1.00  0.00     0.022 A 
ATOM      6  C   UNL     1       5.131   4.661  23.944  1.00  0.00     0.062 A 
ATOM      7  C   UNL     1       5.223   6.467  25.587  1.00  0.00     0.019 A 
ATOM      8  C   UNL     1       4.824   7.746  25.975  1.00  0.00     0.094 A 
ATOM      9  C   UNL     1       3.965   8.471  25.141  1.00  0.00     0.336 A 
ATOM     10  O   UNL     1       3.593   9.626  25.473  1.00  0.00    -0.246 OA
ATOM     11  O   UNL     1       3.538   7.945  23.995  1.00  0.00    -0.423 OA
ENDROOT
BRANCH   1  12
ATOM     12  O   UNL     1       4.996   2.880  22.251  1.00  0.00    -0.493 OA
ATOM     13  C   UNL     1       5.701   1.906  23.013  1.00  0.00     0.278 C 
ENDBRANCH   1  12
BRANCH   2  14
ATOM     14  O   UNL     1       3.283   4.489  20.722  1.00  0.00    -0.504 OA
ATOM     15  H   UNL     1       2.296   4.510  20.501  1.00  0.00     0.293 HD
ENDBRANCH   2  14
TORSDOF 2
ENDMDL
MODEL 8
REMARK VINA RESULT:    -4.958      1.996      5.212
REMARK INTER + INTRA:          -5.436
REMARK INTER:                  -5.392
REMARK INTRA:                  -0.044
REMARK UNBOUND:                -0.043
REMARK SMILES COc1cc2ccc(=O)oc2cc1O
REMARK SMILES IDX 3 1 13 2 12 3 11 4 5 5 4 6 6 7 7 8 8 9 9 10 10 11 2 12 1 13
REMARK SMILES IDX 14 14
REMARK H PARENT 14 15
REMARK Flexibility Score: inf
ROOT
ATOM      1  C   UNL     1      10.241   9.620  14.467  1.00  0.00     0.161 A 
ATOM      2  C   UNL     1       9.685   9.319  13.208  1.00  0.00     0.161 A 
ATOM      3  C   UNL     1      10.470   9.402  12.053  1.00  0.00     0.098 A 
ATOM      4  C   UNL     1      11.812   9.783  12.135  1.00  0.00     0.142 A 
ATOM      5  C   UNL     1      12.378  10.086  13.390  1.00  0.00     0.022 A 
ATOM      6  C   UNL     1      11.595  10.004  14.550  1.00  0.00     0.062 A 
ATOM      7  C   UNL     1      13.723  10.464  13.442  1.00  0.00     0.019 A 
ATOM      8  C   UNL     1      14.461  10.530  12.260  1.00  0.00     0.094 A 
ATOM      9  C   UNL     1      13.832  10.215  11.050  1.00  0.00     0.336 A 
ATOM     10  O   UNL     1      14.481  10.269   9.973  1.00  0.00    -0.246 OA
ATOM     11  O   UNL     1      12.551   9.859  11.031  1.00  0.00    -0.423 OA
ENDROOT
BRANCH   1  12
ATOM     12  O   UNL     1       9.424   9.527  15.606  1.00  0.00    -0.493 OA
ATOM     13  C   UNL     1       9.908   9.413  16.940  1.00  0.00     0.278 C 
ENDBRANCH   1  12
BRANCH   2  14
ATOM     14  O   UNL     1       8.349   8.936  13.085  1.00  0.00    -0.504 OA
ATOM     15  H   UNL     1       8.031   8.313  12.353  1.00  0.00     0.293 HD
ENDBRANCH   2  14
TORSDOF 2
ENDMDL
MODEL 9
REMARK VINA RESULT:    -4.923      1.949      2.921
REMARK INTER + INTRA:          -5.398
REMARK INTER:                  -5.352
REMARK INTRA:                  -0.047
REMARK UNBOUND:                -0.043
REMARK SMILES COc1cc2ccc(=O)oc2cc1O
REMARK SMILES IDX 3 1 13 2 12 3 11 4 5 5 4 6 6 7 7 8 8 9 9 10 10 11 2 12 1 13
REMARK SMILES IDX 14 14
REMARK H PARENT 14 15
REMARK Flexibility Score: inf
ROOT
ATOM      1  C   UNL     1      13.243  10.096  11.681  1.00  0.00     0.161 A 
ATOM      2  C   UNL     1      13.967  10.445  12.837  1.00  0.00     0.161 A 
ATOM      3  C   UNL     1      13.346  10.424  14.091  1.00  0.00     0.098 A 
ATOM      4  C   UNL     1      12.003  10.057  14.209  1.00  0.00     0.142 A 
ATOM      5  C   UNL     1      11.270   9.705  13.058  1.00  0.00     0.022 A 
ATOM      6  C   UNL     1      11.888   9.725  11.800  1.00  0.00     0.062 A 
ATOM      7  C   UNL     1       9.927   9.342  13.207  1.00  0.00     0.019 A 
ATOM      8  C   UNL     1       9.357   9.338  14.480  1.00  0.00     0.094 A 
ATOM      9  C   UNL     1      10.147   9.699  15.578  1.00  0.00     0.336 A 
ATOM     10  O   UNL     1       9.651   9.701  16.734  1.00  0.00    -0.246 OA
ATOM     11  O   UNL     1      11.422  10.040  15.406  1.00  0.00    -0.423 OA
ENDROOT
BRANCH   1  12
ATOM     12  O   UNL     1      13.898  10.128  10.438  1.00  0.00    -0.493 OA
ATOM     13  C   UNL     1      14.614   9.034   9.875  1.00  0.00     0.278 C 
ENDBRANCH   1  12
BRANCH   2  14
ATOM     14  O   UNL     1      15.310  10.817  12.760  1.00  0.00    -0.504 OA
ATOM     15  H   UNL     1      15.827  11.145  13.566  1.00  0.00     0.293 HD
ENDBRANCH   2  14
TORSDOF 2
ENDMDL
