MODEL 1
REMARK VINA RESULT:    -6.370      0.000      0.000
REMARK INTER + INTRA:          -6.370
REMARK INTER:                  -6.370
REMARK INTRA:                   0.000
REMARK UNBOUND:                 0.000
REMARK SMILES C=C1CCC[C@@]2(C)C=C3OC(=O)C(C)=C3C[C@@H]12
REMARK SMILES IDX 14 1 13 2 15 3 16 4 17 5 2 6 1 7 3 8 4 9 5 10 6 11 8 12 9 13
REMARK SMILES IDX 10 14 11 15 12 16 7 17
REMARK H PARENT
REMARK Flexibility Score: inf
ROOT
ATOM      1  C   UNL     1       6.174  39.583   6.738  1.00  0.00     0.053 C 
ATOM      2  C   UNL     1       5.838  39.550   8.195  1.00  0.00     0.041 C 
ATOM      3  C   UNL     1       5.790  38.472   8.972  1.00  0.00     0.005 C 
ATOM      4  C   UNL     1       6.016  37.038   8.612  1.00  0.00     0.049 C 
ATOM      5  C   UNL     1       6.329  36.211   9.890  1.00  0.00     0.029 C 
ATOM      6  C   UNL     1       7.788  36.378  10.301  1.00  0.00    -0.073 C 
ATOM      7  C   UNL     1       8.771  35.875   9.536  1.00  0.00     0.008 C 
ATOM      8  C   UNL     1       8.119  37.085  11.594  1.00  0.00     0.031 C 
ATOM      9  C   UNL     1       7.308  36.526  12.777  1.00  0.00     0.005 C 
ATOM     10  C   UNL     1       5.933  35.934  12.391  1.00  0.00     0.012 C 
ATOM     11  C   UNL     1       5.343  36.530  11.087  1.00  0.00    -0.004 C 
ATOM     12  C   UNL     1       5.109  38.027  11.280  1.00  0.00     0.027 C 
ATOM     13  C   UNL     1       5.299  38.875  10.275  1.00  0.00     0.131 C 
ATOM     14  O   UNL     1       5.063  40.242  10.299  1.00  0.00    -0.423 OA
ATOM     15  C   UNL     1       5.386  40.675   9.019  1.00  0.00     0.339 C 
ATOM     16  O   UNL     1       5.287  41.870   8.637  1.00  0.00    -0.246 OA
ATOM     17  C   UNL     1       3.972  35.875  10.822  1.00  0.00     0.016 C 
ENDROOT
TORSDOF 0
ENDMDL
MODEL 2
REMARK VINA RESULT:    -6.089     11.714     15.023
REMARK INTER + INTRA:          -6.089
REMARK INTER:                  -6.089
REMARK INTRA:                   0.000
REMARK UNBOUND:                 0.000
REMARK SMILES C=C1CCC[C@@]2(C)C=C3OC(=O)C(C)=C3C[C@@H]12
REMARK SMILES IDX 14 1 13 2 15 3 16 4 17 5 2 6 1 7 3 8 4 9 5 10 6 11 8 12 9 13
REMARK SMILES IDX 10 14 11 15 12 16 7 17
REMARK H PARENT
REMARK Flexibility Score: inf
ROOT
ATOM      1  C   UNL     1       4.744  47.494   1.797  1.00  0.00     0.053 C 
ATOM      2  C   UNL     1       6.239  47.459   1.844  1.00  0.00     0.041 C 
ATOM      3  C   UNL     1       7.069  47.818   0.868  1.00  0.00     0.005 C 
ATOM      4  C   UNL     1       6.752  48.306  -0.509  1.00  0.00     0.049 C 
ATOM      5  C   UNL     1       7.982  49.044  -1.109  1.00  0.00     0.029 C 
ATOM      6  C   UNL     1       8.069  50.472  -0.581  1.00  0.00    -0.073 C 
ATOM      7  C   UNL     1       7.144  51.383  -0.931  1.00  0.00     0.008 C 
ATOM      8  C   UNL     1       9.220  50.865   0.313  1.00  0.00     0.031 C 
ATOM      9  C   UNL     1      10.577  50.451  -0.285  1.00  0.00     0.005 C 
ATOM     10  C   UNL     1      10.523  49.209  -1.204  1.00  0.00     0.012 C 
ATOM     11  C   UNL     1       9.338  48.257  -0.892  1.00  0.00    -0.004 C 
ATOM     12  C   UNL     1       9.490  47.715   0.528  1.00  0.00     0.027 C 
ATOM     13  C   UNL     1       8.421  47.503   1.287  1.00  0.00     0.131 C 
ATOM     14  O   UNL     1       8.415  46.958   2.562  1.00  0.00    -0.423 OA
ATOM     15  C   UNL     1       7.073  46.919   2.920  1.00  0.00     0.339 C 
ATOM     16  O   UNL     1       6.652  46.466   4.017  1.00  0.00    -0.246 OA
ATOM     17  C   UNL     1       9.405  47.057  -1.858  1.00  0.00     0.016 C 
ENDROOT
TORSDOF 0
ENDMDL
MODEL 3
REMARK VINA RESULT:    -6.074      2.961      4.161
REMARK INTER + INTRA:          -6.074
REMARK INTER:                  -6.074
REMARK INTRA:                   0.000
REMARK UNBOUND:                 0.000
REMARK SMILES C=C1CCC[C@@]2(C)C=C3OC(=O)C(C)=C3C[C@@H]12
REMARK SMILES IDX 14 1 13 2 15 3 16 4 17 5 2 6 1 7 3 8 4 9 5 10 6 11 8 12 9 13
REMARK SMILES IDX 10 14 11 15 12 16 7 17
REMARK H PARENT
REMARK Flexibility Score: inf
ROOT
ATOM      1  C   UNL     1       8.158  35.876   5.612  1.00  0.00     0.053 C 
ATOM      2  C   UNL     1       8.514  36.742   6.779  1.00  0.00     0.041 C 
ATOM      3  C   UNL     1       7.668  37.426   7.544  1.00  0.00     0.005 C 
ATOM      4  C   UNL     1       6.181  37.543   7.435  1.00  0.00     0.049 C 
ATOM      5  C   UNL     1       5.585  38.029   8.786  1.00  0.00     0.029 C 
ATOM      6  C   UNL     1       5.460  36.873   9.772  1.00  0.00    -0.073 C 
ATOM      7  C   UNL     1       4.578  35.883   9.550  1.00  0.00     0.008 C 
ATOM      8  C   UNL     1       6.312  36.863  11.018  1.00  0.00     0.031 C 
ATOM      9  C   UNL     1       6.234  38.201  11.776  1.00  0.00     0.005 C 
ATOM     10  C   UNL     1       5.941  39.429  10.885  1.00  0.00     0.012 C 
ATOM     11  C   UNL     1       6.383  39.246   9.409  1.00  0.00    -0.004 C 
ATOM     12  C   UNL     1       7.897  39.050   9.360  1.00  0.00     0.027 C 
ATOM     13  C   UNL     1       8.443  38.228   8.470  1.00  0.00     0.131 C 
ATOM     14  O   UNL     1       9.799  38.010   8.278  1.00  0.00    -0.423 OA
ATOM     15  C   UNL     1       9.861  37.097   7.232  1.00  0.00     0.339 C 
ATOM     16  O   UNL     1      10.937  36.657   6.748  1.00  0.00    -0.246 OA
ATOM     17  C   UNL     1       6.055  40.538   8.633  1.00  0.00     0.016 C 
ENDROOT
TORSDOF 0
ENDMDL
MODEL 4
REMARK VINA RESULT:    -6.062      4.492      6.650
REMARK INTER + INTRA:          -6.062
REMARK INTER:                  -6.062
REMARK INTRA:                   0.000
REMARK UNBOUND:                 0.000
REMARK SMILES C=C1CCC[C@@]2(C)C=C3OC(=O)C(C)=C3C[C@@H]12
REMARK SMILES IDX 14 1 13 2 15 3 16 4 17 5 2 6 1 7 3 8 4 9 5 10 6 11 8 12 9 13
REMARK SMILES IDX 10 14 11 15 12 16 7 17
REMARK H PARENT
REMARK Flexibility Score: inf
ROOT
ATOM      1  C   UNL     1       3.924  44.145   5.266  1.00  0.00     0.053 C 
ATOM      2  C   UNL     1       5.107  44.524   6.098  1.00  0.00     0.041 C 
ATOM      3  C   UNL     1       5.274  44.278   7.394  1.00  0.00     0.005 C 
ATOM      4  C   UNL     1       4.344  43.609   8.355  1.00  0.00     0.049 C 
ATOM      5  C   UNL     1       5.129  43.121   9.605  1.00  0.00     0.029 C 
ATOM      6  C   UNL     1       5.841  41.803   9.317  1.00  0.00    -0.073 C 
ATOM      7  C   UNL     1       5.133  40.678   9.118  1.00  0.00     0.008 C 
ATOM      8  C   UNL     1       7.350  41.764   9.290  1.00  0.00     0.031 C 
ATOM      9  C   UNL     1       7.962  42.422  10.540  1.00  0.00     0.005 C 
ATOM     10  C   UNL     1       7.093  43.531  11.174  1.00  0.00     0.012 C 
ATOM     11  C   UNL     1       6.125  44.212  10.172  1.00  0.00    -0.004 C 
ATOM     12  C   UNL     1       6.939  44.900   9.077  1.00  0.00     0.027 C 
ATOM     13  C   UNL     1       6.496  44.929   7.825  1.00  0.00     0.131 C 
ATOM     14  O   UNL     1       7.102  45.570   6.755  1.00  0.00    -0.423 OA
ATOM     15  C   UNL     1       6.254  45.334   5.680  1.00  0.00     0.339 C 
ATOM     16  O   UNL     1       6.455  45.775   4.518  1.00  0.00    -0.246 OA
ATOM     17  C   UNL     1       5.333  45.305  10.918  1.00  0.00     0.016 C 
ENDROOT
TORSDOF 0
ENDMDL
MODEL 5
REMARK VINA RESULT:    -6.038      2.490      4.033
REMARK INTER + INTRA:          -6.038
REMARK INTER:                  -6.038
REMARK INTRA:                   0.000
REMARK UNBOUND:                 0.000
REMARK SMILES C=C1CCC[C@@]2(C)C=C3OC(=O)C(C)=C3C[C@@H]12
REMARK SMILES IDX 14 1 13 2 15 3 16 4 17 5 2 6 1 7 3 8 4 9 5 10 6 11 8 12 9 13
REMARK SMILES IDX 10 14 11 15 12 16 7 17
REMARK H PARENT
REMARK Flexibility Score: inf
ROOT
ATOM      1  C   UNL     1       8.497  41.361  11.340  1.00  0.00     0.053 C 
ATOM      2  C   UNL     1       8.448  39.868  11.279  1.00  0.00     0.041 C 
ATOM      3  C   UNL     1       7.448  39.128  10.809  1.00  0.00     0.005 C 
ATOM      4  C   UNL     1       6.127  39.565  10.261  1.00  0.00     0.049 C 
ATOM      5  C   UNL     1       5.500  38.427   9.410  1.00  0.00     0.029 C 
ATOM      6  C   UNL     1       6.111  38.394   8.013  1.00  0.00    -0.073 C 
ATOM      7  C   UNL     1       5.879  39.394   7.146  1.00  0.00     0.008 C 
ATOM      8  C   UNL     1       6.954  37.212   7.598  1.00  0.00     0.031 C 
ATOM      9  C   UNL     1       6.248  35.875   7.886  1.00  0.00     0.005 C 
ATOM     10  C   UNL     1       5.257  35.913   9.071  1.00  0.00     0.012 C 
ATOM     11  C   UNL     1       5.580  37.013  10.117  1.00  0.00    -0.004 C 
ATOM     12  C   UNL     1       6.950  36.733  10.731  1.00  0.00     0.027 C 
ATOM     13  C   UNL     1       7.760  37.734  11.058  1.00  0.00     0.131 C 
ATOM     14  O   UNL     1       8.996  37.621  11.678  1.00  0.00    -0.423 OA
ATOM     15  C   UNL     1       9.434  38.932  11.826  1.00  0.00     0.339 C 
ATOM     16  O   UNL     1      10.523  39.250  12.370  1.00  0.00    -0.246 OA
ATOM     17  C   UNL     1       4.537  36.936  11.250  1.00  0.00     0.016 C 
ENDROOT
TORSDOF 0
ENDMDL
MODEL 6
REMARK VINA RESULT:    -6.022     17.867     20.214
REMARK INTER + INTRA:          -6.022
REMARK INTER:                  -6.022
REMARK INTRA:                   0.000
REMARK UNBOUND:                 0.000
REMARK SMILES C=C1CCC[C@@]2(C)C=C3OC(=O)C(C)=C3C[C@@H]12
REMARK SMILES IDX 14 1 13 2 15 3 16 4 17 5 2 6 1 7 3 8 4 9 5 10 6 11 8 12 9 13
REMARK SMILES IDX 10 14 11 15 12 16 7 17
REMARK H PARENT
REMARK Flexibility Score: inf
ROOT
ATOM      1  C   UNL     1      11.362  51.656  -0.671  1.00  0.00     0.053 C 
ATOM      2  C   UNL     1      10.937  53.089  -0.723  1.00  0.00     0.041 C 
ATOM      3  C   UNL     1       9.721  53.543  -1.014  1.00  0.00     0.005 C 
ATOM      4  C   UNL     1       8.493  52.778  -1.391  1.00  0.00     0.049 C 
ATOM      5  C   UNL     1       7.230  53.656  -1.170  1.00  0.00     0.029 C 
ATOM      6  C   UNL     1       6.822  53.661   0.299  1.00  0.00    -0.073 C 
ATOM      7  C   UNL     1       6.348  52.543   0.876  1.00  0.00     0.008 C 
ATOM      8  C   UNL     1       6.924  54.940   1.094  1.00  0.00     0.031 C 
ATOM      9  C   UNL     1       6.255  56.121   0.368  1.00  0.00     0.005 C 
ATOM     10  C   UNL     1       6.249  56.007  -1.174  1.00  0.00     0.012 C 
ATOM     11  C   UNL     1       7.393  55.125  -1.737  1.00  0.00    -0.004 C 
ATOM     12  C   UNL     1       8.737  55.755  -1.374  1.00  0.00     0.027 C 
ATOM     13  C   UNL     1       9.782  54.990  -1.078  1.00  0.00     0.131 C 
ATOM     14  O   UNL     1      11.067  55.431  -0.795  1.00  0.00    -0.423 OA
ATOM     15  C   UNL     1      11.795  54.268  -0.578  1.00  0.00     0.339 C 
ATOM     16  O   UNL     1      13.025  54.250  -0.308  1.00  0.00    -0.246 OA
ATOM     17  C   UNL     1       7.288  55.106  -3.275  1.00  0.00     0.016 C 
ENDROOT
TORSDOF 0
ENDMDL
MODEL 7
REMARK VINA RESULT:    -5.966      1.552      2.949
REMARK INTER + INTRA:          -5.966
REMARK INTER:                  -5.966
REMARK INTRA:                   0.000
REMARK UNBOUND:                 0.000
REMARK SMILES C=C1CCC[C@@]2(C)C=C3OC(=O)C(C)=C3C[C@@H]12
REMARK SMILES IDX 14 1 13 2 15 3 16 4 17 5 2 6 1 7 3 8 4 9 5 10 6 11 8 12 9 13
REMARK SMILES IDX 10 14 11 15 12 16 7 17
REMARK H PARENT
REMARK Flexibility Score: inf
ROOT
ATOM      1  C   UNL     1       8.136  41.648  11.128  1.00  0.00     0.053 C 
ATOM      2  C   UNL     1       7.040  40.989  10.353  1.00  0.00     0.041 C 
ATOM      3  C   UNL     1       6.990  39.712   9.984  1.00  0.00     0.005 C 
ATOM      4  C   UNL     1       7.994  38.626  10.203  1.00  0.00     0.049 C 
ATOM      5  C   UNL     1       7.320  37.235  10.038  1.00  0.00     0.029 C 
ATOM      6  C   UNL     1       6.564  36.845  11.304  1.00  0.00    -0.073 C 
ATOM      7  C   UNL     1       7.234  36.570  12.437  1.00  0.00     0.008 C 
ATOM      8  C   UNL     1       5.059  36.738  11.268  1.00  0.00     0.031 C 
ATOM      9  C   UNL     1       4.574  35.875  10.088  1.00  0.00     0.005 C 
ATOM     10  C   UNL     1       5.515  35.875   8.862  1.00  0.00     0.012 C 
ATOM     11  C   UNL     1       6.397  37.147   8.755  1.00  0.00    -0.004 C 
ATOM     12  C   UNL     1       5.497  38.369   8.586  1.00  0.00     0.027 C 
ATOM     13  C   UNL     1       5.823  39.530   9.143  1.00  0.00     0.131 C 
ATOM     14  O   UNL     1       5.131  40.725   9.015  1.00  0.00    -0.423 OA
ATOM     15  C   UNL     1       5.873  41.639   9.753  1.00  0.00     0.339 C 
ATOM     16  O   UNL     1       5.572  42.856   9.867  1.00  0.00    -0.246 OA
ATOM     17  C   UNL     1       7.272  37.034   7.490  1.00  0.00     0.016 C 
ENDROOT
TORSDOF 0
ENDMDL
MODEL 8
REMARK VINA RESULT:    -5.938      5.563      7.347
REMARK INTER + INTRA:          -5.938
REMARK INTER:                  -5.938
REMARK INTRA:                   0.000
REMARK UNBOUND:                 0.000
REMARK SMILES C=C1CCC[C@@]2(C)C=C3OC(=O)C(C)=C3C[C@@H]12
REMARK SMILES IDX 14 1 13 2 15 3 16 4 17 5 2 6 1 7 3 8 4 9 5 10 6 11 8 12 9 13
REMARK SMILES IDX 10 14 11 15 12 16 7 17
REMARK H PARENT
REMARK Flexibility Score: inf
ROOT
ATOM      1  C   UNL     1       9.257  45.975   7.706  1.00  0.00     0.053 C 
ATOM      2  C   UNL     1       8.604  44.975   8.607  1.00  0.00     0.041 C 
ATOM      3  C   UNL     1       7.298  44.824   8.806  1.00  0.00     0.005 C 
ATOM      4  C   UNL     1       6.159  45.606   8.232  1.00  0.00     0.049 C 
ATOM      5  C   UNL     1       4.840  44.793   8.354  1.00  0.00     0.029 C 
ATOM      6  C   UNL     1       4.738  43.754   7.242  1.00  0.00    -0.073 C 
ATOM      7  C   UNL     1       4.575  44.140   5.965  1.00  0.00     0.008 C 
ATOM      8  C   UNL     1       4.787  42.286   7.590  1.00  0.00     0.031 C 
ATOM      9  C   UNL     1       3.806  41.932   8.722  1.00  0.00     0.005 C 
ATOM     10  C   UNL     1       3.511  43.089   9.703  1.00  0.00     0.012 C 
ATOM     11  C   UNL     1       4.648  44.141   9.783  1.00  0.00    -0.004 C 
ATOM     12  C   UNL     1       5.917  43.469  10.305  1.00  0.00     0.027 C 
ATOM     13  C   UNL     1       7.110  43.835   9.848  1.00  0.00     0.131 C 
ATOM     14  O   UNL     1       8.337  43.353  10.281  1.00  0.00    -0.423 OA
ATOM     15  C   UNL     1       9.272  44.051   9.527  1.00  0.00     0.339 C 
ATOM     16  O   UNL     1      10.517  43.904   9.642  1.00  0.00    -0.246 OA
ATOM     17  C   UNL     1       4.244  45.226  10.802  1.00  0.00     0.016 C 
ENDROOT
TORSDOF 0
ENDMDL
MODEL 9
REMARK VINA RESULT:    -5.880     17.017     19.821
REMARK INTER + INTRA:          -5.880
REMARK INTER:                  -5.880
REMARK INTRA:                   0.000
REMARK UNBOUND:                 0.000
REMARK SMILES C=C1CCC[C@@]2(C)C=C3OC(=O)C(C)=C3C[C@@H]12
REMARK SMILES IDX 14 1 13 2 15 3 16 4 17 5 2 6 1 7 3 8 4 9 5 10 6 11 8 12 9 13
REMARK SMILES IDX 10 14 11 15 12 16 7 17
REMARK H PARENT
REMARK Flexibility Score: inf
ROOT
ATOM      1  C   UNL     1      10.783  51.153  -0.615  1.00  0.00     0.053 C 
ATOM      2  C   UNL     1       9.339  51.527  -0.714  1.00  0.00     0.041 C 
ATOM      3  C   UNL     1       8.825  52.744  -0.559  1.00  0.00     0.005 C 
ATOM      4  C   UNL     1       9.517  54.025  -0.222  1.00  0.00     0.049 C 
ATOM      5  C   UNL     1       8.623  55.234  -0.614  1.00  0.00     0.029 C 
ATOM      6  C   UNL     1       8.728  55.526  -2.107  1.00  0.00    -0.073 C 
ATOM      7  C   UNL     1       9.875  55.994  -2.628  1.00  0.00     0.008 C 
ATOM      8  C   UNL     1       7.523  55.315  -2.992  1.00  0.00     0.031 C 
ATOM      9  C   UNL     1       6.266  55.993  -2.419  1.00  0.00     0.005 C 
ATOM     10  C   UNL     1       6.250  56.124  -0.879  1.00  0.00     0.012 C 
ATOM     11  C   UNL     1       7.117  55.060  -0.157  1.00  0.00    -0.004 C 
ATOM     12  C   UNL     1       6.561  53.670  -0.459  1.00  0.00     0.027 C 
ATOM     13  C   UNL     1       7.380  52.634  -0.608  1.00  0.00     0.131 C 
ATOM     14  O   UNL     1       7.004  51.316  -0.821  1.00  0.00    -0.423 OA
ATOM     15  C   UNL     1       8.204  50.616  -0.884  1.00  0.00     0.339 C 
ATOM     16  O   UNL     1       8.281  49.371  -1.052  1.00  0.00    -0.246 OA
ATOM     17  C   UNL     1       7.004  55.285   1.365  1.00  0.00     0.016 C 
ENDROOT
TORSDOF 0
ENDMDL
