MODEL 1
REMARK VINA RESULT:    21.542      0.000      0.000
REMARK INTER + INTRA:          55.421
REMARK INTER:                  56.803
REMARK INTRA:                  -1.381
REMARK UNBOUND:                -1.381
REMARK SMILES CCCCCCCCCCCCCCCCCCCCCCCCCCCCCC(=O)[O-]
REMARK SMILES IDX 16 1 17 2 18 3 19 4 20 5 21 6 22 7 23 8 24 9 25 10 26 11
REMARK SMILES IDX 27 12 28 13 29 14 30 15 31 16 32 17 15 18 14 19 13 20 12 21
REMARK SMILES IDX 11 22 10 23 9 24 8 25 7 26 6 27 5 28 4 29 3 30 2 31 1 32
REMARK H PARENT
REMARK Flexibility Score: inf
ROOT
ATOM      1  C   UNL     1      11.596 -12.687   6.134  1.00  0.00     0.000 C 
ENDROOT
BRANCH   1   2
ATOM      2  C   UNL     1      10.653 -11.590   5.622  1.00  0.00     0.000 C 
BRANCH   2   3
ATOM      3  C   UNL     1      11.279 -10.200   5.813  1.00  0.00     0.000 C 
BRANCH   3   4
ATOM      4  C   UNL     1      12.100  -9.740   4.590  1.00  0.00     0.000 C 
BRANCH   4   5
ATOM      5  C   UNL     1      13.127 -10.776   4.101  1.00  0.00     0.000 C 
BRANCH   5   6
ATOM      6  C   UNL     1      13.722 -10.422   2.729  1.00  0.00     0.000 C 
BRANCH   6   7
ATOM      7  C   UNL     1      15.248 -10.201   2.769  1.00  0.00     0.000 C 
BRANCH   7   8
ATOM      8  C   UNL     1      15.767  -9.015   1.932  1.00  0.00     0.000 C 
BRANCH   8   9
ATOM      9  C   UNL     1      15.529  -7.623   2.551  1.00  0.00     0.000 C 
BRANCH   9  10
ATOM     10  C   UNL     1      15.770  -7.543   4.072  1.00  0.00     0.000 C 
BRANCH  10  11
ATOM     11  C   UNL     1      16.265  -6.177   4.583  1.00  0.00     0.000 C 
BRANCH  11  12
ATOM     12  C   UNL     1      16.633  -6.124   6.079  1.00  0.00     0.000 C 
BRANCH  12  13
ATOM     13  C   UNL     1      15.620  -5.352   6.951  1.00  0.00     0.006 C 
BRANCH  13  14
ATOM     14  C   UNL     1      14.760  -4.370   6.141  1.00  0.00     0.053 C 
BRANCH  14  15
ATOM     15  C   UNL     1      14.940  -2.961   6.617  1.00  0.00     0.041 C 
ATOM     16  O   UNL     1      14.063  -2.088   6.378  1.00  0.00    -0.550 OA
ATOM     17  O   UNL     1      16.048  -2.627   7.387  1.00  0.00    -0.550 OA
ENDBRANCH  14  15
ENDBRANCH  13  14
ENDBRANCH  12  13
ENDBRANCH  11  12
ENDBRANCH  10  11
ENDBRANCH   9  10
ENDBRANCH   8   9
ENDBRANCH   7   8
ENDBRANCH   6   7
ENDBRANCH   5   6
ENDBRANCH   4   5
ENDBRANCH   3   4
ENDBRANCH   2   3
ENDBRANCH   1   2
BRANCH   1  18
ATOM     18  C   UNL     1      11.489 -13.962   5.283  1.00  0.00     0.000 C 
BRANCH  18  19
ATOM     19  C   UNL     1      10.047 -14.500   5.233  1.00  0.00     0.000 C 
BRANCH  19  20
ATOM     20  C   UNL     1       9.962 -15.843   4.485  1.00  0.00     0.000 C 
BRANCH  20  21
ATOM     21  C   UNL     1      10.649 -16.998   5.242  1.00  0.00     0.000 C 
BRANCH  21  22
ATOM     22  C   UNL     1      11.312 -18.044   4.328  1.00  0.00     0.000 C 
BRANCH  22  23
ATOM     23  C   UNL     1      12.286 -19.006   5.027  1.00  0.00     0.000 C 
BRANCH  23  24
ATOM     24  C   UNL     1      11.564 -20.122   5.803  1.00  0.00    -0.000 C 
BRANCH  24  25
ATOM     25  C   UNL     1      12.180 -20.389   7.188  1.00  0.00    -0.000 C 
BRANCH  25  26
ATOM     26  C   UNL     1      13.677 -20.044   7.326  1.00  0.00    -0.000 C 
BRANCH  26  27
ATOM     27  C   UNL     1      13.995 -18.563   7.609  1.00  0.00    -0.000 C 
BRANCH  27  28
ATOM     28  C   UNL     1      15.504 -18.266   7.623  1.00  0.00    -0.000 C 
BRANCH  28  29
ATOM     29  C   UNL     1      15.918 -17.269   6.527  1.00  0.00    -0.000 C 
BRANCH  29  30
ATOM     30  C   UNL     1      15.973 -15.820   7.032  1.00  0.00    -0.000 C 
BRANCH  30  31
ATOM     31  C   UNL     1      17.424 -15.330   7.135  1.00  0.00    -0.003 C 
ATOM     32  C   UNL     1      18.398 -16.373   6.596  1.00  0.00     0.004 C 
ENDBRANCH  30  31
ENDBRANCH  29  30
ENDBRANCH  28  29
ENDBRANCH  27  28
ENDBRANCH  26  27
ENDBRANCH  25  26
ENDBRANCH  24  25
ENDBRANCH  23  24
ENDBRANCH  22  23
ENDBRANCH  21  22
ENDBRANCH  20  21
ENDBRANCH  19  20
ENDBRANCH  18  19
ENDBRANCH   1  18
TORSDOF 28
ENDMDL
MODEL 2
REMARK VINA RESULT:    21.583      6.235     11.524
REMARK INTER + INTRA:          55.531
REMARK INTER:                  56.325
REMARK INTRA:                  -0.793
REMARK UNBOUND:                -1.381
REMARK SMILES CCCCCCCCCCCCCCCCCCCCCCCCCCCCCC(=O)[O-]
REMARK SMILES IDX 16 1 17 2 18 3 19 4 20 5 21 6 22 7 23 8 24 9 25 10 26 11
REMARK SMILES IDX 27 12 28 13 29 14 30 15 31 16 32 17 15 18 14 19 13 20 12 21
REMARK SMILES IDX 11 22 10 23 9 24 8 25 7 26 6 27 5 28 4 29 3 30 2 31 1 32
REMARK H PARENT
REMARK Flexibility Score: inf
ROOT
ATOM      1  C   UNL     1      10.045 -14.335   5.288  1.00  0.00     0.000 C 
ENDROOT
BRANCH   1   2
ATOM      2  C   UNL     1       9.755 -15.842   5.280  1.00  0.00     0.000 C 
BRANCH   2   3
ATOM      3  C   UNL     1      10.860 -16.605   4.534  1.00  0.00     0.000 C 
BRANCH   3   4
ATOM      4  C   UNL     1      11.462 -17.755   5.370  1.00  0.00     0.000 C 
BRANCH   4   5
ATOM      5  C   UNL     1      12.116 -18.864   4.527  1.00  0.00     0.000 C 
BRANCH   5   6
ATOM      6  C   UNL     1      13.023 -19.786   5.358  1.00  0.00     0.000 C 
BRANCH   6   7
ATOM      7  C   UNL     1      12.665 -19.796   6.858  1.00  0.00     0.000 C 
BRANCH   7   8
ATOM      8  C   UNL     1      13.340 -18.701   7.707  1.00  0.00     0.000 C 
BRANCH   8   9
ATOM      9  C   UNL     1      14.732 -18.258   7.216  1.00  0.00     0.000 C 
BRANCH   9  10
ATOM     10  C   UNL     1      14.896 -16.737   7.024  1.00  0.00     0.000 C 
BRANCH  10  11
ATOM     11  C   UNL     1      16.241 -16.297   6.415  1.00  0.00     0.000 C 
BRANCH  11  12
ATOM     12  C   UNL     1      17.456 -16.388   7.358  1.00  0.00     0.000 C 
BRANCH  12  13
ATOM     13  C   UNL     1      18.667 -17.135   6.759  1.00  0.00     0.006 C 
BRANCH  13  14
ATOM     14  C   UNL     1      19.122 -16.551   5.412  1.00  0.00     0.053 C 
BRANCH  14  15
ATOM     15  C   UNL     1      19.022 -17.563   4.313  1.00  0.00     0.041 C 
ATOM     16  O   UNL     1      19.121 -18.794   4.567  1.00  0.00    -0.550 OA
ATOM     17  O   UNL     1      18.753 -17.150   3.014  1.00  0.00    -0.550 OA
ENDBRANCH  14  15
ENDBRANCH  13  14
ENDBRANCH  12  13
ENDBRANCH  11  12
ENDBRANCH  10  11
ENDBRANCH   9  10
ENDBRANCH   8   9
ENDBRANCH   7   8
ENDBRANCH   6   7
ENDBRANCH   5   6
ENDBRANCH   4   5
ENDBRANCH   3   4
ENDBRANCH   2   3
ENDBRANCH   1   2
BRANCH   1  18
ATOM     18  C   UNL     1      11.554 -14.054   5.326  1.00  0.00     0.000 C 
BRANCH  18  19
ATOM     19  C   UNL     1      11.855 -12.576   5.641  1.00  0.00     0.000 C 
BRANCH  19  20
ATOM     20  C   UNL     1      10.704 -11.909   6.415  1.00  0.00     0.000 C 
BRANCH  20  21
ATOM     21  C   UNL     1       9.745 -11.117   5.502  1.00  0.00     0.000 C 
BRANCH  21  22
ATOM     22  C   UNL     1       8.527 -11.923   5.017  1.00  0.00     0.000 C 
BRANCH  22  23
ATOM     23  C   UNL     1       7.291 -11.863   5.930  1.00  0.00     0.000 C 
BRANCH  23  24
ATOM     24  C   UNL     1       6.492 -10.558   5.763  1.00  0.00    -0.000 C 
BRANCH  24  25
ATOM     25  C   UNL     1       5.873 -10.057   7.079  1.00  0.00    -0.000 C 
BRANCH  25  26
ATOM     26  C   UNL     1       4.445 -10.562   7.375  1.00  0.00    -0.000 C 
BRANCH  26  27
ATOM     27  C   UNL     1       4.256 -11.263   8.733  1.00  0.00    -0.000 C 
BRANCH  27  28
ATOM     28  C   UNL     1       2.850 -11.060   9.322  1.00  0.00    -0.000 C 
BRANCH  28  29
ATOM     29  C   UNL     1       2.885 -10.468  10.741  1.00  0.00    -0.000 C 
BRANCH  29  30
ATOM     30  C   UNL     1       1.966  -9.249  10.900  1.00  0.00    -0.000 C 
BRANCH  30  31
ATOM     31  C   UNL     1       1.095  -9.378  12.156  1.00  0.00    -0.003 C 
ATOM     32  C   UNL     1       1.262 -10.750  12.804  1.00  0.00     0.004 C 
ENDBRANCH  30  31
ENDBRANCH  29  30
ENDBRANCH  28  29
ENDBRANCH  27  28
ENDBRANCH  26  27
ENDBRANCH  25  26
ENDBRANCH  24  25
ENDBRANCH  23  24
ENDBRANCH  22  23
ENDBRANCH  21  22
ENDBRANCH  20  21
ENDBRANCH  19  20
ENDBRANCH  18  19
ENDBRANCH   1  18
TORSDOF 28
ENDMDL
MODEL 3
REMARK VINA RESULT:    21.588      4.692     11.686
REMARK INTER + INTRA:          55.543
REMARK INTER:                  56.058
REMARK INTRA:                  -0.514
REMARK UNBOUND:                -1.381
REMARK SMILES CCCCCCCCCCCCCCCCCCCCCCCCCCCCCC(=O)[O-]
REMARK SMILES IDX 16 1 17 2 18 3 19 4 20 5 21 6 22 7 23 8 24 9 25 10 26 11
REMARK SMILES IDX 27 12 28 13 29 14 30 15 31 16 32 17 15 18 14 19 13 20 12 21
REMARK SMILES IDX 11 22 10 23 9 24 8 25 7 26 6 27 5 28 4 29 3 30 2 31 1 32
REMARK H PARENT
REMARK Flexibility Score: inf
ROOT
ATOM      1  C   UNL     1      12.640 -10.551   5.056  1.00  0.00     0.000 C 
ENDROOT
BRANCH   1   2
ATOM      2  C   UNL     1      11.137 -10.256   5.140  1.00  0.00     0.000 C 
BRANCH   2   3
ATOM      3  C   UNL     1      10.438 -11.249   6.079  1.00  0.00     0.000 C 
BRANCH   3   4
ATOM      4  C   UNL     1       9.196 -11.905   5.439  1.00  0.00     0.000 C 
BRANCH   4   5
ATOM      5  C   UNL     1       9.477 -13.267   4.782  1.00  0.00     0.000 C 
BRANCH   5   6
ATOM      6  C   UNL     1      10.363 -14.175   5.650  1.00  0.00     0.000 C 
BRANCH   6   7
ATOM      7  C   UNL     1      11.810 -13.662   5.783  1.00  0.00     0.000 C 
BRANCH   7   8
ATOM      8  C   UNL     1      12.911 -14.707   5.514  1.00  0.00     0.000 C 
BRANCH   8   9
ATOM      9  C   UNL     1      14.143 -14.613   6.435  1.00  0.00     0.000 C 
BRANCH   9  10
ATOM     10  C   UNL     1      15.138 -15.783   6.305  1.00  0.00     0.000 C 
BRANCH  10  11
ATOM     11  C   UNL     1      15.629 -16.373   7.641  1.00  0.00     0.000 C 
BRANCH  11  12
ATOM     12  C   UNL     1      15.516 -17.904   7.770  1.00  0.00     0.000 C 
BRANCH  12  13
ATOM     13  C   UNL     1      14.415 -18.533   6.889  1.00  0.00     0.006 C 
BRANCH  13  14
ATOM     14  C   UNL     1      13.678 -19.686   7.589  1.00  0.00     0.053 C 
BRANCH  14  15
ATOM     15  C   UNL     1      12.439 -20.077   6.843  1.00  0.00     0.041 C 
ATOM     16  O   UNL     1      11.320 -19.596   7.165  1.00  0.00    -0.550 OA
ATOM     17  O   UNL     1      12.531 -20.924   5.745  1.00  0.00    -0.550 OA
ENDBRANCH  14  15
ENDBRANCH  13  14
ENDBRANCH  12  13
ENDBRANCH  11  12
ENDBRANCH  10  11
ENDBRANCH   9  10
ENDBRANCH   8   9
ENDBRANCH   7   8
ENDBRANCH   6   7
ENDBRANCH   5   6
ENDBRANCH   4   5
ENDBRANCH   3   4
ENDBRANCH   2   3
ENDBRANCH   1   2
BRANCH   1  18
ATOM     18  C   UNL     1      13.259  -9.960   3.781  1.00  0.00     0.000 C 
BRANCH  18  19
ATOM     19  C   UNL     1      14.222 -10.949   3.097  1.00  0.00     0.000 C 
BRANCH  19  20
ATOM     20  C   UNL     1      15.315 -10.221   2.293  1.00  0.00     0.000 C 
BRANCH  20  21
ATOM     21  C   UNL     1      15.503  -8.753   2.726  1.00  0.00     0.000 C 
BRANCH  21  22
ATOM     22  C   UNL     1      16.522  -7.971   1.877  1.00  0.00     0.000 C 
BRANCH  22  23
ATOM     23  C   UNL     1      17.211  -6.797   2.591  1.00  0.00     0.000 C 
BRANCH  23  24
ATOM     24  C   UNL     1      16.325  -6.158   3.675  1.00  0.00    -0.000 C 
BRANCH  24  25
ATOM     25  C   UNL     1      16.610  -6.702   5.086  1.00  0.00    -0.000 C 
BRANCH  25  26
ATOM     26  C   UNL     1      15.985  -5.898   6.245  1.00  0.00    -0.000 C 
BRANCH  26  27
ATOM     27  C   UNL     1      16.545  -4.477   6.447  1.00  0.00    -0.000 C 
BRANCH  27  28
ATOM     28  C   UNL     1      16.130  -3.855   7.791  1.00  0.00    -0.000 C 
BRANCH  28  29
ATOM     29  C   UNL     1      16.175  -2.317   7.767  1.00  0.00    -0.000 C 
BRANCH  29  30
ATOM     30  C   UNL     1      16.056  -1.742   6.348  1.00  0.00    -0.000 C 
BRANCH  30  31
ATOM     31  C   UNL     1      14.616  -1.303   6.054  1.00  0.00    -0.003 C 
ATOM     32  C   UNL     1      13.665  -2.496   6.055  1.00  0.00     0.004 C 
ENDBRANCH  30  31
ENDBRANCH  29  30
ENDBRANCH  28  29
ENDBRANCH  27  28
ENDBRANCH  26  27
ENDBRANCH  25  26
ENDBRANCH  24  25
ENDBRANCH  23  24
ENDBRANCH  22  23
ENDBRANCH  21  22
ENDBRANCH  20  21
ENDBRANCH  19  20
ENDBRANCH  18  19
ENDBRANCH   1  18
TORSDOF 28
ENDMDL
MODEL 4
REMARK VINA RESULT:    21.691      3.299     11.070
REMARK INTER + INTRA:          55.816
REMARK INTER:                  57.550
REMARK INTRA:                  -1.734
REMARK UNBOUND:                -1.381
REMARK SMILES CCCCCCCCCCCCCCCCCCCCCCCCCCCCCC(=O)[O-]
REMARK SMILES IDX 16 1 17 2 18 3 19 4 20 5 21 6 22 7 23 8 24 9 25 10 26 11
REMARK SMILES IDX 27 12 28 13 29 14 30 15 31 16 32 17 15 18 14 19 13 20 12 21
REMARK SMILES IDX 11 22 10 23 9 24 8 25 7 26 6 27 5 28 4 29 3 30 2 31 1 32
REMARK H PARENT
REMARK Flexibility Score: inf
ROOT
ATOM      1  C   UNL     1      10.738 -11.009   5.528  1.00  0.00     0.000 C 
ENDROOT
BRANCH   1   2
ATOM      2  C   UNL     1       9.872 -12.273   5.578  1.00  0.00     0.000 C 
BRANCH   2   3
ATOM      3  C   UNL     1      10.746 -13.536   5.538  1.00  0.00     0.000 C 
BRANCH   3   4
ATOM      4  C   UNL     1       9.939 -14.813   5.220  1.00  0.00     0.000 C 
BRANCH   4   5
ATOM      5  C   UNL     1      10.624 -15.749   4.209  1.00  0.00     0.000 C 
BRANCH   5   6
ATOM      6  C   UNL     1      11.486 -16.826   4.886  1.00  0.00     0.000 C 
BRANCH   6   7
ATOM      7  C   UNL     1      11.231 -18.243   4.334  1.00  0.00     0.000 C 
BRANCH   7   8
ATOM      8  C   UNL     1      12.378 -19.251   4.541  1.00  0.00     0.000 C 
BRANCH   8   9
ATOM      9  C   UNL     1      12.277 -20.104   5.821  1.00  0.00     0.000 C 
BRANCH   9  10
ATOM     10  C   UNL     1      12.500 -19.328   7.135  1.00  0.00     0.000 C 
BRANCH  10  11
ATOM     11  C   UNL     1      13.835 -19.619   7.846  1.00  0.00     0.000 C 
BRANCH  11  12
ATOM     12  C   UNL     1      14.744 -18.396   8.075  1.00  0.00     0.000 C 
BRANCH  12  13
ATOM     13  C   UNL     1      15.493 -17.920   6.812  1.00  0.00     0.006 C 
BRANCH  13  14
ATOM     14  C   UNL     1      16.705 -17.032   7.137  1.00  0.00     0.053 C 
BRANCH  14  15
ATOM     15  C   UNL     1      16.421 -15.590   6.849  1.00  0.00     0.041 C 
ATOM     16  O   UNL     1      17.365 -14.785   6.626  1.00  0.00    -0.550 OA
ATOM     17  O   UNL     1      15.107 -15.148   6.760  1.00  0.00    -0.550 OA
ENDBRANCH  14  15
ENDBRANCH  13  14
ENDBRANCH  12  13
ENDBRANCH  11  12
ENDBRANCH  10  11
ENDBRANCH   9  10
ENDBRANCH   8   9
ENDBRANCH   7   8
ENDBRANCH   6   7
ENDBRANCH   5   6
ENDBRANCH   4   5
ENDBRANCH   3   4
ENDBRANCH   2   3
ENDBRANCH   1   2
BRANCH   1  18
ATOM     18  C   UNL     1      12.230 -11.355   5.404  1.00  0.00     0.000 C 
BRANCH  18  19
ATOM     19  C   UNL     1      12.734 -11.218   3.955  1.00  0.00     0.000 C 
BRANCH  19  20
ATOM     20  C   UNL     1      13.760 -10.079   3.812  1.00  0.00     0.000 C 
BRANCH  20  21
ATOM     21  C   UNL     1      14.669 -10.241   2.576  1.00  0.00     0.000 C 
BRANCH  21  22
ATOM     22  C   UNL     1      15.023  -8.916   1.877  1.00  0.00     0.000 C 
BRANCH  22  23
ATOM     23  C   UNL     1      16.477  -8.446   2.051  1.00  0.00     0.000 C 
BRANCH  23  24
ATOM     24  C   UNL     1      16.596  -7.209   2.958  1.00  0.00    -0.000 C 
BRANCH  24  25
ATOM     25  C   UNL     1      15.298  -6.892   3.721  1.00  0.00    -0.000 C 
BRANCH  25  26
ATOM     26  C   UNL     1      15.477  -6.521   5.208  1.00  0.00    -0.000 C 
BRANCH  26  27
ATOM     27  C   UNL     1      16.876  -6.012   5.603  1.00  0.00    -0.000 C 
BRANCH  27  28
ATOM     28  C   UNL     1      16.828  -4.774   6.515  1.00  0.00    -0.000 C 
BRANCH  28  29
ATOM     29  C   UNL     1      15.395  -4.413   6.943  1.00  0.00    -0.000 C 
BRANCH  29  30
ATOM     30  C   UNL     1      15.039  -2.949   6.649  1.00  0.00    -0.000 C 
BRANCH  30  31
ATOM     31  C   UNL     1      15.829  -1.999   7.559  1.00  0.00    -0.003 C 
ATOM     32  C   UNL     1      16.860  -1.203   6.763  1.00  0.00     0.004 C 
ENDBRANCH  30  31
ENDBRANCH  29  30
ENDBRANCH  28  29
ENDBRANCH  27  28
ENDBRANCH  26  27
ENDBRANCH  25  26
ENDBRANCH  24  25
ENDBRANCH  23  24
ENDBRANCH  22  23
ENDBRANCH  21  22
ENDBRANCH  20  21
ENDBRANCH  19  20
ENDBRANCH  18  19
ENDBRANCH   1  18
TORSDOF 28
ENDMDL
MODEL 5
REMARK VINA RESULT:    21.894      6.191      8.824
REMARK INTER + INTRA:          56.350
REMARK INTER:                  56.934
REMARK INTRA:                  -0.584
REMARK UNBOUND:                -1.381
REMARK SMILES CCCCCCCCCCCCCCCCCCCCCCCCCCCCCC(=O)[O-]
REMARK SMILES IDX 16 1 17 2 18 3 19 4 20 5 21 6 22 7 23 8 24 9 25 10 26 11
REMARK SMILES IDX 27 12 28 13 29 14 30 15 31 16 32 17 15 18 14 19 13 20 12 21
REMARK SMILES IDX 11 22 10 23 9 24 8 25 7 26 6 27 5 28 4 29 3 30 2 31 1 32
REMARK H PARENT
REMARK Flexibility Score: inf
ROOT
ATOM      1  C   UNL     1       9.722 -13.840   5.311  1.00  0.00     0.000 C 
ENDROOT
BRANCH   1   2
ATOM      2  C   UNL     1      11.079 -13.182   5.592  1.00  0.00     0.000 C 
BRANCH   2   3
ATOM      3  C   UNL     1      10.924 -11.661   5.750  1.00  0.00     0.000 C 
BRANCH   3   4
ATOM      4  C   UNL     1       9.493 -11.244   6.147  1.00  0.00     0.000 C 
BRANCH   4   5
ATOM      5  C   UNL     1       8.447 -11.463   5.039  1.00  0.00     0.000 C 
BRANCH   5   6
ATOM      6  C   UNL     1       7.025 -11.646   5.592  1.00  0.00     0.000 C 
BRANCH   6   7
ATOM      7  C   UNL     1       6.655 -10.608   6.670  1.00  0.00     0.000 C 
BRANCH   7   8
ATOM      8  C   UNL     1       5.148 -10.321   6.823  1.00  0.00     0.000 C 
BRANCH   8   9
ATOM      9  C   UNL     1       4.420 -11.188   7.869  1.00  0.00     0.000 C 
BRANCH   9  10
ATOM     10  C   UNL     1       3.726 -10.397   8.995  1.00  0.00     0.000 C 
BRANCH  10  11
ATOM     11  C   UNL     1       2.198 -10.574   9.072  1.00  0.00     0.000 C 
BRANCH  11  12
ATOM     12  C   UNL     1       1.675 -11.266  10.345  1.00  0.00     0.000 C 
BRANCH  12  13
ATOM     13  C   UNL     1       2.636 -11.182  11.551  1.00  0.00     0.006 C 
BRANCH  13  14
ATOM     14  C   UNL     1       2.060 -10.365  12.718  1.00  0.00     0.053 C 
BRANCH  14  15
ATOM     15  C   UNL     1       1.489  -9.063  12.247  1.00  0.00     0.041 C 
ATOM     16  O   UNL     1       2.220  -8.041  12.151  1.00  0.00    -0.550 OA
ATOM     17  O   UNL     1       0.159  -8.994  11.849  1.00  0.00    -0.550 OA
ENDBRANCH  14  15
ENDBRANCH  13  14
ENDBRANCH  12  13
ENDBRANCH  11  12
ENDBRANCH  10  11
ENDBRANCH   9  10
ENDBRANCH   8   9
ENDBRANCH   7   8
ENDBRANCH   6   7
ENDBRANCH   5   6
ENDBRANCH   4   5
ENDBRANCH   3   4
ENDBRANCH   2   3
ENDBRANCH   1   2
BRANCH   1  18
ATOM     18  C   UNL     1       9.887 -15.313   4.906  1.00  0.00     0.000 C 
BRANCH  18  19
ATOM     19  C   UNL     1      11.356 -15.668   4.612  1.00  0.00     0.000 C 
BRANCH  19  20
ATOM     20  C   UNL     1      11.510 -17.126   4.141  1.00  0.00     0.000 C 
BRANCH  20  21
ATOM     21  C   UNL     1      11.103 -18.153   5.218  1.00  0.00     0.000 C 
BRANCH  21  22
ATOM     22  C   UNL     1      11.896 -19.471   5.164  1.00  0.00     0.000 C 
BRANCH  22  23
ATOM     23  C   UNL     1      11.965 -20.253   6.485  1.00  0.00     0.000 C 
BRANCH  23  24
ATOM     24  C   UNL     1      13.329 -20.116   7.185  1.00  0.00    -0.000 C 
BRANCH  24  25
ATOM     25  C   UNL     1      13.647 -18.672   7.610  1.00  0.00    -0.000 C 
BRANCH  25  26
ATOM     26  C   UNL     1      15.139 -18.280   7.565  1.00  0.00    -0.000 C 
BRANCH  26  27
ATOM     27  C   UNL     1      15.429 -16.806   7.226  1.00  0.00    -0.000 C 
BRANCH  27  28
ATOM     28  C   UNL     1      16.923 -16.452   7.321  1.00  0.00    -0.000 C 
BRANCH  28  29
ATOM     29  C   UNL     1      17.437 -15.725   6.067  1.00  0.00    -0.000 C 
BRANCH  29  30
ATOM     30  C   UNL     1      18.898 -16.067   5.740  1.00  0.00    -0.000 C 
BRANCH  30  31
ATOM     31  C   UNL     1      19.125 -17.584   5.764  1.00  0.00    -0.003 C 
ATOM     32  C   UNL     1      18.946 -18.191   4.375  1.00  0.00     0.004 C 
ENDBRANCH  30  31
ENDBRANCH  29  30
ENDBRANCH  28  29
ENDBRANCH  27  28
ENDBRANCH  26  27
ENDBRANCH  25  26
ENDBRANCH  24  25
ENDBRANCH  23  24
ENDBRANCH  22  23
ENDBRANCH  21  22
ENDBRANCH  20  21
ENDBRANCH  19  20
ENDBRANCH  18  19
ENDBRANCH   1  18
TORSDOF 28
ENDMDL
MODEL 6
REMARK VINA RESULT:    21.898      4.664     11.632
REMARK INTER + INTRA:          56.362
REMARK INTER:                  57.107
REMARK INTRA:                  -0.745
REMARK UNBOUND:                -1.381
REMARK SMILES CCCCCCCCCCCCCCCCCCCCCCCCCCCCCC(=O)[O-]
REMARK SMILES IDX 16 1 17 2 18 3 19 4 20 5 21 6 22 7 23 8 24 9 25 10 26 11
REMARK SMILES IDX 27 12 28 13 29 14 30 15 31 16 32 17 15 18 14 19 13 20 12 21
REMARK SMILES IDX 11 22 10 23 9 24 8 25 7 26 6 27 5 28 4 29 3 30 2 31 1 32
REMARK H PARENT
REMARK Flexibility Score: inf
ROOT
ATOM      1  C   UNL     1      11.323 -11.884   5.839  1.00  0.00     0.000 C 
ENDROOT
BRANCH   1   2
ATOM      2  C   UNL     1      12.172 -13.038   5.290  1.00  0.00     0.000 C 
BRANCH   2   3
ATOM      3  C   UNL     1      12.461 -14.072   6.388  1.00  0.00     0.000 C 
BRANCH   3   4
ATOM      4  C   UNL     1      13.937 -14.525   6.410  1.00  0.00     0.000 C 
BRANCH   4   5
ATOM      5  C   UNL     1      14.839 -13.672   7.320  1.00  0.00     0.000 C 
BRANCH   5   6
ATOM      6  C   UNL     1      16.207 -14.322   7.578  1.00  0.00     0.000 C 
BRANCH   6   7
ATOM      7  C   UNL     1      16.982 -14.638   6.283  1.00  0.00     0.000 C 
BRANCH   7   8
ATOM      8  C   UNL     1      17.916 -15.862   6.352  1.00  0.00     0.000 C 
BRANCH   8   9
ATOM      9  C   UNL     1      17.508 -16.939   7.377  1.00  0.00     0.000 C 
BRANCH   9  10
ATOM     10  C   UNL     1      16.294 -17.796   6.964  1.00  0.00     0.000 C 
BRANCH  10  11
ATOM     11  C   UNL     1      14.979 -17.458   7.693  1.00  0.00     0.000 C 
BRANCH  11  12
ATOM     12  C   UNL     1      13.794 -18.393   7.388  1.00  0.00     0.000 C 
BRANCH  12  13
ATOM     13  C   UNL     1      14.075 -19.884   7.671  1.00  0.00     0.006 C 
BRANCH  13  14
ATOM     14  C   UNL     1      12.849 -20.779   7.434  1.00  0.00     0.053 C 
BRANCH  14  15
ATOM     15  C   UNL     1      12.099 -20.367   6.205  1.00  0.00     0.041 C 
ATOM     16  O   UNL     1      11.207 -21.114   5.720  1.00  0.00    -0.550 OA
ATOM     17  O   UNL     1      12.338 -19.124   5.632  1.00  0.00    -0.550 OA
ENDBRANCH  14  15
ENDBRANCH  13  14
ENDBRANCH  12  13
ENDBRANCH  11  12
ENDBRANCH  10  11
ENDBRANCH   9  10
ENDBRANCH   8   9
ENDBRANCH   7   8
ENDBRANCH   6   7
ENDBRANCH   5   6
ENDBRANCH   4   5
ENDBRANCH   3   4
ENDBRANCH   2   3
ENDBRANCH   1   2
BRANCH   1  18
ATOM     18  C   UNL     1      11.552 -10.590   5.043  1.00  0.00     0.000 C 
BRANCH  18  19
ATOM     19  C   UNL     1      13.050 -10.283   4.865  1.00  0.00     0.000 C 
BRANCH  19  20
ATOM     20  C   UNL     1      13.487 -10.394   3.392  1.00  0.00     0.000 C 
BRANCH  20  21
ATOM     21  C   UNL     1      14.970 -10.032   3.174  1.00  0.00     0.000 C 
BRANCH  21  22
ATOM     22  C   UNL     1      15.241  -9.235   1.885  1.00  0.00     0.000 C 
BRANCH  22  23
ATOM     23  C   UNL     1      16.544  -8.420   1.876  1.00  0.00     0.000 C 
BRANCH  23  24
ATOM     24  C   UNL     1      16.339  -6.968   2.346  1.00  0.00    -0.000 C 
BRANCH  24  25
ATOM     25  C   UNL     1      16.854  -6.718   3.774  1.00  0.00    -0.000 C 
BRANCH  25  26
ATOM     26  C   UNL     1      15.764  -6.576   4.857  1.00  0.00    -0.000 C 
BRANCH  26  27
ATOM     27  C   UNL     1      16.259  -6.126   6.244  1.00  0.00    -0.000 C 
BRANCH  27  28
ATOM     28  C   UNL     1      15.332  -5.093   6.906  1.00  0.00    -0.000 C 
BRANCH  28  29
ATOM     29  C   UNL     1      14.764  -4.080   5.897  1.00  0.00    -0.000 C 
BRANCH  29  30
ATOM     30  C   UNL     1      13.808  -3.069   6.544  1.00  0.00    -0.000 C 
BRANCH  30  31
ATOM     31  C   UNL     1      14.286  -1.631   6.307  1.00  0.00    -0.003 C 
ATOM     32  C   UNL     1      15.737  -1.453   6.746  1.00  0.00     0.004 C 
ENDBRANCH  30  31
ENDBRANCH  29  30
ENDBRANCH  28  29
ENDBRANCH  27  28
ENDBRANCH  26  27
ENDBRANCH  25  26
ENDBRANCH  24  25
ENDBRANCH  23  24
ENDBRANCH  22  23
ENDBRANCH  21  22
ENDBRANCH  20  21
ENDBRANCH  19  20
ENDBRANCH  18  19
ENDBRANCH   1  18
TORSDOF 28
ENDMDL
MODEL 7
REMARK VINA RESULT:    22.064      4.272     11.284
REMARK INTER + INTRA:          56.799
REMARK INTER:                  58.810
REMARK INTRA:                  -2.011
REMARK UNBOUND:                -1.381
REMARK SMILES CCCCCCCCCCCCCCCCCCCCCCCCCCCCCC(=O)[O-]
REMARK SMILES IDX 16 1 17 2 18 3 19 4 20 5 21 6 22 7 23 8 24 9 25 10 26 11
REMARK SMILES IDX 27 12 28 13 29 14 30 15 31 16 32 17 15 18 14 19 13 20 12 21
REMARK SMILES IDX 11 22 10 23 9 24 8 25 7 26 6 27 5 28 4 29 3 30 2 31 1 32
REMARK H PARENT
REMARK Flexibility Score: inf
ROOT
ATOM      1  C   UNL     1      14.700  -9.170   2.546  1.00  0.00     0.000 C 
ENDROOT
BRANCH   1   2
ATOM      2  C   UNL     1      14.564 -10.658   2.895  1.00  0.00     0.000 C 
BRANCH   2   3
ATOM      3  C   UNL     1      13.123 -10.990   3.312  1.00  0.00     0.000 C 
BRANCH   3   4
ATOM      4  C   UNL     1      12.776 -10.477   4.726  1.00  0.00     0.000 C 
BRANCH   4   5
ATOM      5  C   UNL     1      11.285 -10.592   5.085  1.00  0.00     0.000 C 
BRANCH   5   6
ATOM      6  C   UNL     1      11.020 -11.608   6.207  1.00  0.00     0.000 C 
BRANCH   6   7
ATOM      7  C   UNL     1      10.098 -12.765   5.772  1.00  0.00     0.000 C 
BRANCH   7   8
ATOM      8  C   UNL     1      10.812 -14.087   5.428  1.00  0.00     0.000 C 
BRANCH   8   9
ATOM      9  C   UNL     1      12.331 -13.968   5.191  1.00  0.00     0.000 C 
BRANCH   9  10
ATOM     10  C   UNL     1      13.208 -14.561   6.311  1.00  0.00     0.000 C 
BRANCH  10  11
ATOM     11  C   UNL     1      14.317 -15.518   5.834  1.00  0.00     0.000 C 
BRANCH  11  12
ATOM     12  C   UNL     1      15.332 -15.945   6.911  1.00  0.00     0.000 C 
BRANCH  12  13
ATOM     13  C   UNL     1      16.462 -14.922   7.157  1.00  0.00     0.006 C 
BRANCH  13  14
ATOM     14  C   UNL     1      17.848 -15.576   7.258  1.00  0.00     0.053 C 
BRANCH  14  15
ATOM     15  C   UNL     1      18.116 -16.476   6.092  1.00  0.00     0.041 C 
ATOM     16  O   UNL     1      18.098 -16.022   4.916  1.00  0.00    -0.550 OA
ATOM     17  O   UNL     1      18.454 -17.807   6.307  1.00  0.00    -0.550 OA
ENDBRANCH  14  15
ENDBRANCH  13  14
ENDBRANCH  12  13
ENDBRANCH  11  12
ENDBRANCH  10  11
ENDBRANCH   9  10
ENDBRANCH   8   9
ENDBRANCH   7   8
ENDBRANCH   6   7
ENDBRANCH   5   6
ENDBRANCH   4   5
ENDBRANCH   3   4
ENDBRANCH   2   3
ENDBRANCH   1   2
BRANCH   1  18
ATOM     18  C   UNL     1      16.049  -8.872   1.875  1.00  0.00     0.000 C 
BRANCH  18  19
ATOM     19  C   UNL     1      16.618  -7.508   2.309  1.00  0.00     0.000 C 
BRANCH  19  20
ATOM     20  C   UNL     1      16.176  -7.131   3.734  1.00  0.00     0.000 C 
BRANCH  20  21
ATOM     21  C   UNL     1      17.070  -6.049   4.375  1.00  0.00     0.000 C 
BRANCH  21  22
ATOM     22  C   UNL     1      17.235  -6.190   5.899  1.00  0.00     0.000 C 
BRANCH  22  23
ATOM     23  C   UNL     1      17.518  -4.883   6.655  1.00  0.00     0.000 C 
BRANCH  23  24
ATOM     24  C   UNL     1      16.232  -4.163   7.100  1.00  0.00    -0.000 C 
BRANCH  24  25
ATOM     25  C   UNL     1      14.971  -5.031   6.946  1.00  0.00    -0.000 C 
BRANCH  25  26
ATOM     26  C   UNL     1      13.780  -4.351   6.241  1.00  0.00    -0.000 C 
BRANCH  26  27
ATOM     27  C   UNL     1      12.476  -4.277   7.058  1.00  0.00    -0.000 C 
BRANCH  27  28
ATOM     28  C   UNL     1      12.494  -5.188   8.298  1.00  0.00    -0.000 C 
BRANCH  28  29
ATOM     29  C   UNL     1      11.140  -5.877   8.542  1.00  0.00    -0.000 C 
BRANCH  29  30
ATOM     30  C   UNL     1      10.169  -5.709   7.365  1.00  0.00    -0.000 C 
BRANCH  30  31
ATOM     31  C   UNL     1       8.768  -6.216   7.734  1.00  0.00    -0.003 C 
ATOM     32  C   UNL     1       7.757  -5.073   7.757  1.00  0.00     0.004 C 
ENDBRANCH  30  31
ENDBRANCH  29  30
ENDBRANCH  28  29
ENDBRANCH  27  28
ENDBRANCH  26  27
ENDBRANCH  25  26
ENDBRANCH  24  25
ENDBRANCH  23  24
ENDBRANCH  22  23
ENDBRANCH  21  22
ENDBRANCH  20  21
ENDBRANCH  19  20
ENDBRANCH  18  19
ENDBRANCH   1  18
TORSDOF 28
ENDMDL
MODEL 8
REMARK VINA RESULT:    22.200      1.065      2.129
REMARK INTER + INTRA:          57.158
REMARK INTER:                  57.228
REMARK INTRA:                  -0.070
REMARK UNBOUND:                -1.381
REMARK SMILES CCCCCCCCCCCCCCCCCCCCCCCCCCCCCC(=O)[O-]
REMARK SMILES IDX 16 1 17 2 18 3 19 4 20 5 21 6 22 7 23 8 24 9 25 10 26 11
REMARK SMILES IDX 27 12 28 13 29 14 30 15 31 16 32 17 15 18 14 19 13 20 12 21
REMARK SMILES IDX 11 22 10 23 9 24 8 25 7 26 6 27 5 28 4 29 3 30 2 31 1 32
REMARK H PARENT
REMARK Flexibility Score: inf
ROOT
ATOM      1  C   UNL     1      11.314 -11.865   6.012  1.00  0.00     0.000 C 
ENDROOT
BRANCH   1   2
ATOM      2  C   UNL     1      11.578 -10.630   5.141  1.00  0.00     0.000 C 
BRANCH   2   3
ATOM      3  C   UNL     1      12.801 -10.851   4.238  1.00  0.00     0.000 C 
BRANCH   3   4
ATOM      4  C   UNL     1      13.729  -9.620   4.175  1.00  0.00     0.000 C 
BRANCH   4   5
ATOM      5  C   UNL     1      14.504  -9.488   2.852  1.00  0.00     0.000 C 
BRANCH   5   6
ATOM      6  C   UNL     1      15.714  -8.547   2.963  1.00  0.00     0.000 C 
BRANCH   6   7
ATOM      7  C   UNL     1      15.327  -7.102   3.338  1.00  0.00     0.000 C 
BRANCH   7   8
ATOM      8  C   UNL     1      15.550  -6.719   4.815  1.00  0.00     0.000 C 
BRANCH   8   9
ATOM      9  C   UNL     1      16.951  -6.167   5.143  1.00  0.00     0.000 C 
BRANCH   9  10
ATOM     10  C   UNL     1      17.046  -5.396   6.475  1.00  0.00     0.000 C 
BRANCH  10  11
ATOM     11  C   UNL     1      15.866  -4.450   6.766  1.00  0.00     0.000 C 
BRANCH  11  12
ATOM     12  C   UNL     1      16.210  -3.200   7.600  1.00  0.00     0.000 C 
BRANCH  12  13
ATOM     13  C   UNL     1      16.257  -1.890   6.785  1.00  0.00     0.006 C 
BRANCH  13  14
ATOM     14  C   UNL     1      14.984  -1.043   6.942  1.00  0.00     0.053 C 
BRANCH  14  15
ATOM     15  C   UNL     1      13.927  -1.456   5.965  1.00  0.00     0.041 C 
ATOM     16  O   UNL     1      13.828  -0.880   4.849  1.00  0.00    -0.550 OA
ATOM     17  O   UNL     1      13.091  -2.526   6.261  1.00  0.00    -0.550 OA
ENDBRANCH  14  15
ENDBRANCH  13  14
ENDBRANCH  12  13
ENDBRANCH  11  12
ENDBRANCH  10  11
ENDBRANCH   9  10
ENDBRANCH   8   9
ENDBRANCH   7   8
ENDBRANCH   6   7
ENDBRANCH   5   6
ENDBRANCH   4   5
ENDBRANCH   3   4
ENDBRANCH   2   3
ENDBRANCH   1   2
BRANCH   1  18
ATOM     18  C   UNL     1      11.116 -13.124   5.155  1.00  0.00     0.000 C 
BRANCH  18  19
ATOM     19  C   UNL     1       9.887 -13.937   5.603  1.00  0.00     0.000 C 
BRANCH  19  20
ATOM     20  C   UNL     1       9.768 -15.266   4.836  1.00  0.00     0.000 C 
BRANCH  20  21
ATOM     21  C   UNL     1      11.054 -16.115   4.900  1.00  0.00     0.000 C 
BRANCH  21  22
ATOM     22  C   UNL     1      11.231 -17.083   3.716  1.00  0.00     0.000 C 
BRANCH  22  23
ATOM     23  C   UNL     1      11.844 -18.448   4.067  1.00  0.00     0.000 C 
BRANCH  23  24
ATOM     24  C   UNL     1      12.192 -18.577   5.560  1.00  0.00    -0.000 C 
BRANCH  24  25
ATOM     25  C   UNL     1      11.983 -20.000   6.108  1.00  0.00    -0.000 C 
BRANCH  25  26
ATOM     26  C   UNL     1      13.019 -20.468   7.150  1.00  0.00    -0.000 C 
BRANCH  26  27
ATOM     27  C   UNL     1      13.830 -19.349   7.831  1.00  0.00    -0.000 C 
BRANCH  27  28
ATOM     28  C   UNL     1      14.270 -18.247   6.852  1.00  0.00    -0.000 C 
BRANCH  28  29
ATOM     29  C   UNL     1      15.688 -17.730   7.146  1.00  0.00    -0.000 C 
BRANCH  29  30
ATOM     30  C   UNL     1      15.834 -16.223   6.894  1.00  0.00    -0.000 C 
BRANCH  30  31
ATOM     31  C   UNL     1      17.253 -15.745   7.228  1.00  0.00    -0.003 C 
ATOM     32  C   UNL     1      18.302 -16.589   6.509  1.00  0.00     0.004 C 
ENDBRANCH  30  31
ENDBRANCH  29  30
ENDBRANCH  28  29
ENDBRANCH  27  28
ENDBRANCH  26  27
ENDBRANCH  25  26
ENDBRANCH  24  25
ENDBRANCH  23  24
ENDBRANCH  22  23
ENDBRANCH  21  22
ENDBRANCH  20  21
ENDBRANCH  19  20
ENDBRANCH  18  19
ENDBRANCH   1  18
TORSDOF 28
ENDMDL
