MODEL 1
REMARK VINA RESULT:    -3.602      0.000      0.000
REMARK INTER + INTRA:          -5.552
REMARK INTER:                  -4.865
REMARK INTRA:                  -0.687
REMARK UNBOUND:                -0.687
REMARK SMILES C[C@H](O)[C@@H](O)[C@H](O)[C@@H](O)C=O
REMARK SMILES IDX 4 1 2 2 1 3 3 4 6 6 8 7 10 8 11 9 9 10 7 12 5 14
REMARK H PARENT 3 5 9 11 7 13 5 15
REMARK Flexibility Score: inf
ROOT
ATOM      1  C   UNL     1      71.526  33.464  58.909  1.00  0.00     0.174 C 
ENDROOT
BRANCH   1   2
ATOM      2  C   UNL     1      70.973  34.886  59.197  1.00  0.00     0.142 C 
ATOM      3  C   UNL     1      71.212  35.866  58.038  1.00  0.00     0.041 C 
BRANCH   2   4
ATOM      4  O   UNL     1      71.540  35.401  60.376  1.00  0.00    -0.391 OA
ATOM      5  H   UNL     1      70.863  35.989  60.803  1.00  0.00     0.211 HD
ENDBRANCH   2   4
ENDBRANCH   1   2
BRANCH   1   6
ATOM      6  C   UNL     1      71.858  32.672  60.206  1.00  0.00     0.181 C 
BRANCH   6   7
ATOM      7  C   UNL     1      71.911  31.138  59.976  1.00  0.00     0.209 C 
BRANCH   7   8
ATOM      8  C   UNL     1      71.928  30.385  61.277  1.00  0.00     0.258 C 
ATOM      9  O   UNL     1      72.962  30.272  61.918  1.00  0.00    -0.300 OA
ENDBRANCH   7   8
BRANCH   7  10
ATOM     10  O   UNL     1      73.066  30.800  59.252  1.00  0.00    -0.383 OA
ATOM     11  H   UNL     1      73.294  31.582  58.685  1.00  0.00     0.211 HD
ENDBRANCH   7  10
ENDBRANCH   6   7
BRANCH   6  12
ATOM     12  O   UNL     1      73.066  33.123  60.770  1.00  0.00    -0.387 OA
ATOM     13  H   UNL     1      72.838  33.760  61.497  1.00  0.00     0.211 HD
ENDBRANCH   6  12
ENDBRANCH   1   6
BRANCH   1  14
ATOM     14  O   UNL     1      72.684  33.568  58.119  1.00  0.00    -0.388 OA
ATOM     15  H   UNL     1      72.623  32.872  57.413  1.00  0.00     0.211 HD
ENDBRANCH   1  14
TORSDOF 8
ENDMDL
MODEL 2
REMARK VINA RESULT:    -3.597     13.863     14.858
REMARK INTER + INTRA:          -5.546
REMARK INTER:                  -4.857
REMARK INTRA:                  -0.689
REMARK UNBOUND:                -0.687
REMARK SMILES C[C@H](O)[C@@H](O)[C@H](O)[C@@H](O)C=O
REMARK SMILES IDX 4 1 2 2 1 3 3 4 6 6 8 7 10 8 11 9 9 10 7 12 5 14
REMARK H PARENT 3 5 9 11 7 13 5 15
REMARK Flexibility Score: inf
ROOT
ATOM      1  C   UNL     1      64.682  33.760  48.324  1.00  0.00     0.174 C 
ENDROOT
BRANCH   1   2
ATOM      2  C   UNL     1      63.197  34.197  48.449  1.00  0.00     0.142 C 
ATOM      3  C   UNL     1      62.709  34.244  49.904  1.00  0.00     0.041 C 
BRANCH   2   4
ATOM      4  O   UNL     1      62.372  33.341  47.700  1.00  0.00    -0.391 OA
ATOM      5  H   UNL     1      62.843  32.471  47.611  1.00  0.00     0.211 HD
ENDBRANCH   2   4
ENDBRANCH   1   2
BRANCH   1   6
ATOM      6  C   UNL     1      65.390  34.376  47.084  1.00  0.00     0.181 C 
BRANCH   6   7
ATOM      7  C   UNL     1      66.794  33.766  46.828  1.00  0.00     0.209 C 
BRANCH   7   8
ATOM      8  C   UNL     1      67.572  34.572  45.826  1.00  0.00     0.258 C 
ATOM      9  O   UNL     1      67.073  35.549  45.289  1.00  0.00    -0.300 OA
ENDBRANCH   7   8
BRANCH   7  10
ATOM     10  O   UNL     1      66.667  32.455  46.341  1.00  0.00    -0.383 OA
ATOM     11  H   UNL     1      67.574  32.155  46.072  1.00  0.00     0.211 HD
ENDBRANCH   7  10
ENDBRANCH   6   7
BRANCH   6  12
ATOM     12  O   UNL     1      64.585  34.247  45.935  1.00  0.00    -0.387 OA
ATOM     13  H   UNL     1      63.659  34.498  46.188  1.00  0.00     0.211 HD
ENDBRANCH   6  12
ENDBRANCH   1   6
BRANCH   1  14
ATOM     14  O   UNL     1      64.747  32.357  48.247  1.00  0.00    -0.388 OA
ATOM     15  H   UNL     1      63.927  32.049  47.779  1.00  0.00     0.211 HD
ENDBRANCH   1  14
TORSDOF 8
ENDMDL
MODEL 3
REMARK VINA RESULT:    -3.555     17.521     18.248
REMARK INTER + INTRA:          -5.488
REMARK INTER:                  -4.776
REMARK INTRA:                  -0.712
REMARK UNBOUND:                -0.687
REMARK SMILES C[C@H](O)[C@@H](O)[C@H](O)[C@@H](O)C=O
REMARK SMILES IDX 4 1 2 2 1 3 3 4 6 6 8 7 10 8 11 9 9 10 7 12 5 14
REMARK H PARENT 3 5 9 11 7 13 5 15
REMARK Flexibility Score: inf
ROOT
ATOM      1  C   UNL     1      56.034  25.969  62.428  1.00  0.00     0.174 C 
ENDROOT
BRANCH   1   2
ATOM      2  C   UNL     1      55.631  27.462  62.286  1.00  0.00     0.142 C 
ATOM      3  C   UNL     1      55.604  27.937  60.825  1.00  0.00     0.041 C 
BRANCH   2   4
ATOM      4  O   UNL     1      56.500  28.276  63.032  1.00  0.00    -0.391 OA
ATOM      5  H   UNL     1      56.817  29.003  62.434  1.00  0.00     0.211 HD
ENDBRANCH   2   4
ENDBRANCH   1   2
BRANCH   1   6
ATOM      6  C   UNL     1      55.358  25.275  63.645  1.00  0.00     0.181 C 
BRANCH   6   7
ATOM      7  C   UNL     1      55.876  23.830  63.877  1.00  0.00     0.209 C 
BRANCH   7   8
ATOM      8  C   UNL     1      54.918  23.027  64.711  1.00  0.00     0.258 C 
ATOM      9  O   UNL     1      53.881  23.525  65.123  1.00  0.00    -0.300 OA
ENDBRANCH   7   8
BRANCH   7  10
ATOM     10  O   UNL     1      57.117  23.865  64.535  1.00  0.00    -0.383 OA
ATOM     11  H   UNL     1      57.418  22.924  64.638  1.00  0.00     0.211 HD
ENDBRANCH   7  10
ENDBRANCH   6   7
BRANCH   6  12
ATOM     12  O   UNL     1      55.521  26.045  64.812  1.00  0.00    -0.387 OA
ATOM     13  H   UNL     1      55.801  25.432  65.540  1.00  0.00     0.211 HD
ENDBRANCH   6  12
ENDBRANCH   1   6
BRANCH   1  14
ATOM     14  O   UNL     1      57.431  25.877  62.558  1.00  0.00    -0.388 OA
ATOM     15  H   UNL     1      57.624  25.632  63.500  1.00  0.00     0.211 HD
ENDBRANCH   1  14
TORSDOF 8
ENDMDL
MODEL 4
REMARK VINA RESULT:    -3.525     17.262     18.404
REMARK INTER + INTRA:          -5.449
REMARK INTER:                  -4.735
REMARK INTRA:                  -0.713
REMARK UNBOUND:                -0.687
REMARK SMILES C[C@H](O)[C@@H](O)[C@H](O)[C@@H](O)C=O
REMARK SMILES IDX 4 1 2 2 1 3 3 4 6 6 8 7 10 8 11 9 9 10 7 12 5 14
REMARK H PARENT 3 5 9 11 7 13 5 15
REMARK Flexibility Score: inf
ROOT
ATOM      1  C   UNL     1      55.187  25.384  63.801  1.00  0.00     0.174 C 
ENDROOT
BRANCH   1   2
ATOM      2  C   UNL     1      55.565  23.904  64.084  1.00  0.00     0.142 C 
ATOM      3  C   UNL     1      54.548  23.190  64.988  1.00  0.00     0.041 C 
BRANCH   2   4
ATOM      4  O   UNL     1      56.844  23.829  64.661  1.00  0.00    -0.391 OA
ATOM      5  H   UNL     1      56.745  23.995  65.635  1.00  0.00     0.211 HD
ENDBRANCH   2   4
ENDBRANCH   1   2
BRANCH   1   6
ATOM      6  C   UNL     1      55.889  25.954  62.536  1.00  0.00     0.181 C 
BRANCH   6   7
ATOM      7  C   UNL     1      55.608  27.466  62.324  1.00  0.00     0.209 C 
BRANCH   7   8
ATOM      8  C   UNL     1      55.721  27.850  60.874  1.00  0.00     0.258 C 
ATOM      9  O   UNL     1      56.677  27.487  60.206  1.00  0.00    -0.300 OA
ENDBRANCH   7   8
BRANCH   7  10
ATOM     10  O   UNL     1      56.527  28.233  63.059  1.00  0.00    -0.383 OA
ATOM     11  H   UNL     1      57.141  27.598  63.511  1.00  0.00     0.211 HD
ENDBRANCH   7  10
ENDBRANCH   6   7
BRANCH   6  12
ATOM     12  O   UNL     1      57.276  25.717  62.586  1.00  0.00    -0.387 OA
ATOM     13  H   UNL     1      57.409  24.766  62.835  1.00  0.00     0.211 HD
ENDBRANCH   6  12
ENDBRANCH   1   6
BRANCH   1  14
ATOM     14  O   UNL     1      55.528  26.170  64.916  1.00  0.00    -0.388 OA
ATOM     15  H   UNL     1      55.638  25.555  65.688  1.00  0.00     0.211 HD
ENDBRANCH   1  14
TORSDOF 8
ENDMDL
MODEL 5
REMARK VINA RESULT:    -3.470      0.979      4.686
REMARK INTER + INTRA:          -5.373
REMARK INTER:                  -4.651
REMARK INTRA:                  -0.723
REMARK UNBOUND:                -0.687
REMARK SMILES C[C@H](O)[C@@H](O)[C@H](O)[C@@H](O)C=O
REMARK SMILES IDX 4 1 2 2 1 3 3 4 6 6 8 7 10 8 11 9 9 10 7 12 5 14
REMARK H PARENT 3 5 9 11 7 13 5 15
REMARK Flexibility Score: inf
ROOT
ATOM      1  C   UNL     1      71.766  32.724  60.104  1.00  0.00     0.174 C 
ENDROOT
BRANCH   1   2
ATOM      2  C   UNL     1      71.978  31.195  59.933  1.00  0.00     0.142 C 
ATOM      3  C   UNL     1      71.818  30.419  61.249  1.00  0.00     0.041 C 
BRANCH   2   4
ATOM      4  O   UNL     1      73.244  30.936  59.382  1.00  0.00    -0.391 OA
ATOM      5  H   UNL     1      73.112  30.365  58.580  1.00  0.00     0.211 HD
ENDBRANCH   2   4
ENDBRANCH   1   2
BRANCH   1   6
ATOM      6  C   UNL     1      71.479  33.448  58.758  1.00  0.00     0.181 C 
BRANCH   6   7
ATOM      7  C   UNL     1      70.720  34.788  58.947  1.00  0.00     0.209 C 
BRANCH   7   8
ATOM      8  C   UNL     1      71.320  35.885  58.111  1.00  0.00     0.258 C 
ATOM      9  O   UNL     1      71.113  35.936  56.908  1.00  0.00    -0.300 OA
ENDBRANCH   7   8
BRANCH   7  10
ATOM     10  O   UNL     1      70.767  35.182  60.294  1.00  0.00    -0.383 OA
ATOM     11  H   UNL     1      71.722  35.327  60.522  1.00  0.00     0.211 HD
ENDBRANCH   7  10
ENDBRANCH   6   7
BRANCH   6  12
ATOM     12  O   UNL     1      72.672  33.658  58.041  1.00  0.00    -0.387 OA
ATOM     13  H   UNL     1      72.618  33.124  57.206  1.00  0.00     0.211 HD
ENDBRANCH   6  12
ENDBRANCH   1   6
BRANCH   1  14
ATOM     14  O   UNL     1      72.910  33.286  60.699  1.00  0.00    -0.388 OA
ATOM     15  H   UNL     1      72.650  34.175  61.057  1.00  0.00     0.211 HD
ENDBRANCH   1  14
TORSDOF 8
ENDMDL
MODEL 6
REMARK VINA RESULT:    -3.452     13.487     14.517
REMARK INTER + INTRA:          -5.350
REMARK INTER:                  -4.673
REMARK INTRA:                  -0.677
REMARK UNBOUND:                -0.687
REMARK SMILES C[C@H](O)[C@@H](O)[C@H](O)[C@@H](O)C=O
REMARK SMILES IDX 4 1 2 2 1 3 3 4 6 6 8 7 10 8 11 9 9 10 7 12 5 14
REMARK H PARENT 3 5 9 11 7 13 5 15
REMARK Flexibility Score: inf
ROOT
ATOM      1  C   UNL     1      65.296  34.464  47.042  1.00  0.00     0.174 C 
ENDROOT
BRANCH   1   2
ATOM      2  C   UNL     1      66.734  33.990  46.696  1.00  0.00     0.142 C 
ATOM      3  C   UNL     1      67.413  34.870  45.635  1.00  0.00     0.041 C 
BRANCH   2   4
ATOM      4  O   UNL     1      66.717  32.654  46.262  1.00  0.00    -0.391 OA
ATOM      5  H   UNL     1      67.160  32.106  46.961  1.00  0.00     0.211 HD
ENDBRANCH   2   4
ENDBRANCH   1   2
BRANCH   1   6
ATOM      6  C   UNL     1      64.713  33.755  48.297  1.00  0.00     0.181 C 
BRANCH   6   7
ATOM      7  C   UNL     1      63.236  34.143  48.575  1.00  0.00     0.209 C 
BRANCH   7   8
ATOM      8  C   UNL     1      62.860  33.893  50.009  1.00  0.00     0.258 C 
ATOM      9  O   UNL     1      62.949  32.774  50.491  1.00  0.00    -0.300 OA
ENDBRANCH   7   8
BRANCH   7  10
ATOM     10  O   UNL     1      62.379  33.392  47.754  1.00  0.00    -0.383 OA
ATOM     11  H   UNL     1      62.101  32.595  48.276  1.00  0.00     0.211 HD
ENDBRANCH   7  10
ENDBRANCH   6   7
BRANCH   6  12
ATOM     12  O   UNL     1      64.838  32.357  48.183  1.00  0.00    -0.387 OA
ATOM     13  H   UNL     1      63.935  31.989  47.995  1.00  0.00     0.211 HD
ENDBRANCH   6  12
ENDBRANCH   1   6
BRANCH   1  14
ATOM     14  O   UNL     1      64.454  34.228  45.941  1.00  0.00    -0.388 OA
ATOM     15  H   UNL     1      63.769  33.568  46.230  1.00  0.00     0.211 HD
ENDBRANCH   1  14
TORSDOF 8
ENDMDL
MODEL 7
REMARK VINA RESULT:    -3.441      1.622      2.566
REMARK INTER + INTRA:          -5.335
REMARK INTER:                  -4.359
REMARK INTRA:                  -0.975
REMARK UNBOUND:                -0.687
REMARK SMILES C[C@H](O)[C@@H](O)[C@H](O)[C@@H](O)C=O
REMARK SMILES IDX 4 1 2 2 1 3 3 4 6 6 8 7 10 8 11 9 9 10 7 12 5 14
REMARK H PARENT 3 5 9 11 7 13 5 15
REMARK Flexibility Score: inf
ROOT
ATOM      1  C   UNL     1      71.860  31.339  60.002  1.00  0.00     0.174 C 
ENDROOT
BRANCH   1   2
ATOM      2  C   UNL     1      71.814  32.884  59.857  1.00  0.00     0.142 C 
ATOM      3  C   UNL     1      72.034  33.355  58.411  1.00  0.00     0.041 C 
BRANCH   2   4
ATOM      4  O   UNL     1      72.766  33.483  60.699  1.00  0.00    -0.391 OA
ATOM      5  H   UNL     1      72.849  34.435  60.429  1.00  0.00     0.211 HD
ENDBRANCH   2   4
ENDBRANCH   1   2
BRANCH   1   6
ATOM      6  C   UNL     1      72.765  30.870  61.176  1.00  0.00     0.181 C 
BRANCH   6   7
ATOM      7  C   UNL     1      72.560  29.374  61.534  1.00  0.00     0.209 C 
BRANCH   7   8
ATOM      8  C   UNL     1      73.710  28.530  61.059  1.00  0.00     0.258 C 
ATOM      9  O   UNL     1      73.957  28.426  59.868  1.00  0.00    -0.300 OA
ENDBRANCH   7   8
BRANCH   7  10
ATOM     10  O   UNL     1      71.382  28.895  60.937  1.00  0.00    -0.383 OA
ATOM     11  H   UNL     1      71.477  29.027  59.958  1.00  0.00     0.211 HD
ENDBRANCH   7  10
ENDBRANCH   6   7
BRANCH   6  12
ATOM     12  O   UNL     1      74.121  31.123  60.892  1.00  0.00    -0.387 OA
ATOM     13  H   UNL     1      74.156  31.694  60.081  1.00  0.00     0.211 HD
ENDBRANCH   6  12
ENDBRANCH   1   6
BRANCH   1  14
ATOM     14  O   UNL     1      72.326  30.775  58.802  1.00  0.00    -0.388 OA
ATOM     15  H   UNL     1      71.953  31.315  58.057  1.00  0.00     0.211 HD
ENDBRANCH   1  14
TORSDOF 8
ENDMDL
MODEL 8
REMARK VINA RESULT:    -3.345      2.075      3.473
REMARK INTER + INTRA:          -5.205
REMARK INTER:                  -4.683
REMARK INTRA:                  -0.522
REMARK UNBOUND:                -0.687
REMARK SMILES C[C@H](O)[C@@H](O)[C@H](O)[C@@H](O)C=O
REMARK SMILES IDX 4 1 2 2 1 3 3 4 6 6 8 7 10 8 11 9 9 10 7 12 5 14
REMARK H PARENT 3 5 9 11 7 13 5 15
REMARK Flexibility Score: inf
ROOT
ATOM      1  C   UNL     1      73.275  31.243  60.710  1.00  0.00     0.174 C 
ENDROOT
BRANCH   1   2
ATOM      2  C   UNL     1      72.227  32.359  60.451  1.00  0.00     0.142 C 
ATOM      3  C   UNL     1      71.889  32.526  58.962  1.00  0.00     0.041 C 
BRANCH   2   4
ATOM      4  O   UNL     1      72.676  33.583  60.974  1.00  0.00    -0.391 OA
ATOM      5  H   UNL     1      73.660  33.623  60.841  1.00  0.00     0.211 HD
ENDBRANCH   2   4
ENDBRANCH   1   2
BRANCH   1   6
ATOM      6  C   UNL     1      72.680  29.813  60.577  1.00  0.00     0.181 C 
BRANCH   6   7
ATOM      7  C   UNL     1      73.739  28.699  60.791  1.00  0.00     0.209 C 
BRANCH   7   8
ATOM      8  C   UNL     1      73.230  27.358  60.339  1.00  0.00     0.258 C 
ATOM      9  O   UNL     1      72.067  27.218  59.992  1.00  0.00    -0.300 OA
ENDBRANCH   7   8
BRANCH   7  10
ATOM     10  O   UNL     1      74.076  28.610  62.152  1.00  0.00    -0.383 OA
ATOM     11  H   UNL     1      74.033  27.650  62.400  1.00  0.00     0.211 HD
ENDBRANCH   7  10
ENDBRANCH   6   7
BRANCH   6  12
ATOM     12  O   UNL     1      71.601  29.637  61.465  1.00  0.00    -0.387 OA
ATOM     13  H   UNL     1      71.825  28.878  62.064  1.00  0.00     0.211 HD
ENDBRANCH   6  12
ENDBRANCH   1   6
BRANCH   1  14
ATOM     14  O   UNL     1      73.813  31.404  62.000  1.00  0.00    -0.388 OA
ATOM     15  H   UNL     1      74.288  30.563  62.229  1.00  0.00     0.211 HD
ENDBRANCH   1  14
TORSDOF 8
ENDMDL
MODEL 9
REMARK VINA RESULT:    -3.340      1.777      2.727
REMARK INTER + INTRA:          -5.198
REMARK INTER:                  -4.550
REMARK INTRA:                  -0.648
REMARK UNBOUND:                -0.687
REMARK SMILES C[C@H](O)[C@@H](O)[C@H](O)[C@@H](O)C=O
REMARK SMILES IDX 4 1 2 2 1 3 3 4 6 6 8 7 10 8 11 9 9 10 7 12 5 14
REMARK H PARENT 3 5 9 11 7 13 5 15
REMARK Flexibility Score: inf
ROOT
ATOM      1  C   UNL     1      72.591  32.280  60.054  1.00  0.00     0.174 C 
ENDROOT
BRANCH   1   2
ATOM      2  C   UNL     1      71.721  32.430  58.776  1.00  0.00     0.142 C 
ATOM      3  C   UNL     1      71.533  33.894  58.351  1.00  0.00     0.041 C 
BRANCH   2   4
ATOM      4  O   UNL     1      70.466  31.828  58.966  1.00  0.00    -0.391 OA
ATOM      5  H   UNL     1      69.983  32.353  59.657  1.00  0.00     0.211 HD
ENDBRANCH   2   4
ENDBRANCH   1   2
BRANCH   1   6
ATOM      6  C   UNL     1      72.569  30.836  60.632  1.00  0.00     0.181 C 
BRANCH   6   7
ATOM      7  C   UNL     1      73.924  30.422  61.265  1.00  0.00     0.209 C 
BRANCH   7   8
ATOM      8  C   UNL     1      73.970  28.948  61.558  1.00  0.00     0.258 C 
ATOM      9  O   UNL     1      73.171  28.185  61.037  1.00  0.00    -0.300 OA
ENDBRANCH   7   8
BRANCH   7  10
ATOM     10  O   UNL     1      74.125  31.119  62.468  1.00  0.00    -0.383 OA
ATOM     11  H   UNL     1      73.231  31.255  62.879  1.00  0.00     0.211 HD
ENDBRANCH   7  10
ENDBRANCH   6   7
BRANCH   6  12
ATOM     12  O   UNL     1      71.527  30.689  61.567  1.00  0.00    -0.387 OA
ATOM     13  H   UNL     1      71.168  31.594  61.761  1.00  0.00     0.211 HD
ENDBRANCH   6  12
ENDBRANCH   1   6
BRANCH   1  14
ATOM     14  O   UNL     1      72.134  33.179  61.033  1.00  0.00    -0.388 OA
ATOM     15  H   UNL     1      71.649  32.648  61.718  1.00  0.00     0.211 HD
ENDBRANCH   1  14
TORSDOF 8
ENDMDL
