MODEL 1
REMARK VINA RESULT:    -3.290      0.000      0.000
REMARK INTER + INTRA:          -3.386
REMARK INTER:                  -3.386
REMARK INTRA:                   0.000
REMARK UNBOUND:                 0.000
REMARK SMILES CC1(C)[C@@H]2CC[C@@](C)(C2)[C@H]1O
REMARK SMILES IDX 1 1 2 2 4 3 5 4 6 5 7 6 9 7 10 8 8 9 3 10 11 11
REMARK H PARENT 11 12
REMARK Flexibility Score: inf
ROOT
ATOM      1  C   UNL     1     162.271 174.388 171.413  1.00  0.00     0.014 C 
ATOM      2  C   UNL     1     161.756 173.552 170.215  1.00  0.00    -0.006 C 
ATOM      3  C   UNL     1     161.294 172.108 170.612  1.00  0.00    -0.002 C 
ATOM      4  C   UNL     1     162.347 171.404 171.493  1.00  0.00     0.005 C 
ATOM      5  C   UNL     1     163.517 171.190 170.521  1.00  0.00     0.010 C 
ATOM      6  C   UNL     1     162.941 171.696 169.177  1.00  0.00    -0.006 C 
ATOM      7  C   UNL     1     161.478 171.339 169.316  1.00  0.00     0.013 C 
ATOM      8  C   UNL     1     162.909 173.250 169.197  1.00  0.00     0.126 C 
ATOM      9  C   UNL     1     163.626 171.072 167.954  1.00  0.00     0.014 C 
ATOM     10  C   UNL     1     160.568 174.329 169.589  1.00  0.00     0.014 C 
ENDROOT
BRANCH   8  11
ATOM     11  O   UNL     1     162.619 173.768 167.920  1.00  0.00    -0.392 OA
ATOM     12  H   UNL     1     161.641 173.938 167.892  1.00  0.00     0.211 HD
ENDBRANCH   8  11
TORSDOF 1
ENDMDL
MODEL 2
REMARK VINA RESULT:    -3.272     13.838     15.507
REMARK INTER + INTRA:          -3.368
REMARK INTER:                  -3.368
REMARK INTRA:                   0.000
REMARK UNBOUND:                 0.000
REMARK SMILES CC1(C)[C@@H]2CC[C@@](C)(C2)[C@H]1O
REMARK SMILES IDX 1 1 2 2 4 3 5 4 6 5 7 6 9 7 10 8 8 9 3 10 11 11
REMARK H PARENT 11 12
REMARK Flexibility Score: inf
ROOT
ATOM      1  C   UNL     1     168.830 157.181 171.768  1.00  0.00     0.014 C 
ATOM      2  C   UNL     1     169.393 157.908 170.522  1.00  0.00    -0.006 C 
ATOM      3  C   UNL     1     169.795 159.398 170.797  1.00  0.00    -0.002 C 
ATOM      4  C   UNL     1     168.676 160.154 171.543  1.00  0.00     0.005 C 
ATOM      5  C   UNL     1     167.560 160.235 170.490  1.00  0.00     0.010 C 
ATOM      6  C   UNL     1     168.225 159.616 169.238  1.00  0.00    -0.006 C 
ATOM      7  C   UNL     1     169.669 160.029 169.422  1.00  0.00     0.013 C 
ATOM      8  C   UNL     1     168.294 158.073 169.416  1.00  0.00     0.126 C 
ATOM      9  C   UNL     1     167.598 160.095 167.922  1.00  0.00     0.014 C 
ATOM     10  C   UNL     1     170.634 157.110 170.045  1.00  0.00     0.014 C 
ENDROOT
BRANCH   8  11
ATOM     11  O   UNL     1     168.671 157.441 168.216  1.00  0.00    -0.392 OA
ATOM     12  H   UNL     1     168.792 158.156 167.538  1.00  0.00     0.211 HD
ENDBRANCH   8  11
TORSDOF 1
ENDMDL
MODEL 3
REMARK VINA RESULT:    -3.252     14.112     15.588
REMARK INTER + INTRA:          -3.347
REMARK INTER:                  -3.347
REMARK INTRA:                   0.000
REMARK UNBOUND:                 0.000
REMARK SMILES CC1(C)[C@@H]2CC[C@@](C)(C2)[C@H]1O
REMARK SMILES IDX 1 1 2 2 4 3 5 4 6 5 7 6 9 7 10 8 8 9 3 10 11 11
REMARK H PARENT 11 12
REMARK Flexibility Score: inf
ROOT
ATOM      1  C   UNL     1     167.474 160.173 170.790  1.00  0.00     0.014 C 
ATOM      2  C   UNL     1     168.230 159.405 169.678  1.00  0.00    -0.006 C 
ATOM      3  C   UNL     1     167.971 157.859 169.699  1.00  0.00    -0.002 C 
ATOM      4  C   UNL     1     168.138 157.281 171.120  1.00  0.00     0.005 C 
ATOM      5  C   UNL     1     169.646 157.432 171.374  1.00  0.00     0.010 C 
ATOM      6  C   UNL     1     170.168 157.971 170.021  1.00  0.00    -0.006 C 
ATOM      7  C   UNL     1     169.225 157.309 169.042  1.00  0.00     0.013 C 
ATOM      8  C   UNL     1     169.781 159.472 169.896  1.00  0.00     0.126 C 
ATOM      9  C   UNL     1     171.650 157.656 169.777  1.00  0.00     0.014 C 
ATOM     10  C   UNL     1     167.772 159.994 168.319  1.00  0.00     0.014 C 
ENDROOT
BRANCH   8  11
ATOM     11  O   UNL     1     170.431 160.073 168.800  1.00  0.00    -0.392 OA
ATOM     12  H   UNL     1     171.277 159.573 168.657  1.00  0.00     0.211 HD
ENDBRANCH   8  11
TORSDOF 1
ENDMDL
MODEL 4
REMARK VINA RESULT:    -3.231      1.283      3.291
REMARK INTER + INTRA:          -3.326
REMARK INTER:                  -3.326
REMARK INTRA:                   0.000
REMARK UNBOUND:                 0.000
REMARK SMILES CC1(C)[C@@H]2CC[C@@](C)(C2)[C@H]1O
REMARK SMILES IDX 1 1 2 2 4 3 5 4 6 5 7 6 9 7 10 8 8 9 3 10 11 11
REMARK H PARENT 11 12
REMARK Flexibility Score: inf
ROOT
ATOM      1  C   UNL     1     163.631 171.137 170.884  1.00  0.00     0.014 C 
ATOM      2  C   UNL     1     162.907 171.886 169.738  1.00  0.00    -0.006 C 
ATOM      3  C   UNL     1     163.194 173.427 169.718  1.00  0.00    -0.002 C 
ATOM      4  C   UNL     1     163.016 174.049 171.118  1.00  0.00     0.005 C 
ATOM      5  C   UNL     1     161.502 173.934 171.352  1.00  0.00     0.010 C 
ATOM      6  C   UNL     1     160.991 173.364 170.008  1.00  0.00    -0.006 C 
ATOM      7  C   UNL     1     161.962 173.979 169.024  1.00  0.00     0.013 C 
ATOM      8  C   UNL     1     161.352 171.853 169.933  1.00  0.00     0.126 C 
ATOM      9  C   UNL     1     159.519 173.699 169.730  1.00  0.00     0.014 C 
ATOM     10  C   UNL     1     163.375 171.248 168.404  1.00  0.00     0.014 C 
ENDROOT
BRANCH   8  11
ATOM     11  O   UNL     1     160.708 171.232 168.845  1.00  0.00    -0.392 OA
ATOM     12  H   UNL     1     161.368 171.190 168.104  1.00  0.00     0.211 HD
ENDBRANCH   8  11
TORSDOF 1
ENDMDL
MODEL 5
REMARK VINA RESULT:    -3.221      1.365      3.076
REMARK INTER + INTRA:          -3.315
REMARK INTER:                  -3.315
REMARK INTRA:                   0.000
REMARK UNBOUND:                 0.000
REMARK SMILES CC1(C)[C@@H]2CC[C@@](C)(C2)[C@H]1O
REMARK SMILES IDX 1 1 2 2 4 3 5 4 6 5 7 6 9 7 10 8 8 9 3 10 11 11
REMARK H PARENT 11 12
REMARK Flexibility Score: inf
ROOT
ATOM      1  C   UNL     1     161.365 170.888 170.347  1.00  0.00     0.014 C 
ATOM      2  C   UNL     1     162.703 171.644 170.159  1.00  0.00    -0.006 C 
ATOM      3  C   UNL     1     162.736 173.043 170.865  1.00  0.00    -0.002 C 
ATOM      4  C   UNL     1     161.472 173.866 170.541  1.00  0.00     0.005 C 
ATOM      5  C   UNL     1     161.641 174.175 169.046  1.00  0.00     0.010 C 
ATOM      6  C   UNL     1     163.037 173.587 168.731  1.00  0.00    -0.006 C 
ATOM      7  C   UNL     1     163.762 173.800 170.041  1.00  0.00     0.013 C 
ATOM      8  C   UNL     1     162.925 172.038 168.658  1.00  0.00     0.126 C 
ATOM      9  C   UNL     1     163.714 174.251 167.524  1.00  0.00     0.014 C 
ATOM     10  C   UNL     1     163.826 170.741 170.733  1.00  0.00     0.014 C 
ENDROOT
BRANCH   8  11
ATOM     11  O   UNL     1     164.107 171.469 168.144  1.00  0.00    -0.392 OA
ATOM     12  H   UNL     1     164.293 171.921 167.280  1.00  0.00     0.211 HD
ENDBRANCH   8  11
TORSDOF 1
ENDMDL
MODEL 6
REMARK VINA RESULT:    -3.205     13.891     15.382
REMARK INTER + INTRA:          -3.299
REMARK INTER:                  -3.299
REMARK INTRA:                   0.000
REMARK UNBOUND:                 0.000
REMARK SMILES CC1(C)[C@@H]2CC[C@@](C)(C2)[C@H]1O
REMARK SMILES IDX 1 1 2 2 4 3 5 4 6 5 7 6 9 7 10 8 8 9 3 10 11 11
REMARK H PARENT 11 12
REMARK Flexibility Score: inf
ROOT
ATOM      1  C   UNL     1     169.773 160.262 170.553  1.00  0.00     0.014 C 
ATOM      2  C   UNL     1     168.453 159.496 170.289  1.00  0.00    -0.006 C 
ATOM      3  C   UNL     1     168.411 158.077 170.953  1.00  0.00    -0.002 C 
ATOM      4  C   UNL     1     169.698 157.279 170.656  1.00  0.00     0.005 C 
ATOM      5  C   UNL     1     169.592 157.013 169.147  1.00  0.00     0.010 C 
ATOM      6  C   UNL     1     168.202 157.592 168.793  1.00  0.00    -0.006 C 
ATOM      7  C   UNL     1     167.428 157.332 170.067  1.00  0.00     0.013 C 
ATOM      8  C   UNL     1     168.296 159.144 168.770  1.00  0.00     0.126 C 
ATOM      9  C   UNL     1     167.583 156.956 167.542  1.00  0.00     0.014 C 
ATOM     10  C   UNL     1     167.297 160.369 170.844  1.00  0.00     0.014 C 
ENDROOT
BRANCH   8  11
ATOM     11  O   UNL     1     167.128 159.714 168.226  1.00  0.00    -0.392 OA
ATOM     12  H   UNL     1     166.508 158.965 168.023  1.00  0.00     0.211 HD
ENDBRANCH   8  11
TORSDOF 1
ENDMDL
MODEL 7
REMARK VINA RESULT:    -3.070      9.204     10.498
REMARK INTER + INTRA:          -3.159
REMARK INTER:                  -3.159
REMARK INTRA:                   0.000
REMARK UNBOUND:                 0.000
REMARK SMILES CC1(C)[C@@H]2CC[C@@](C)(C2)[C@H]1O
REMARK SMILES IDX 1 1 2 2 4 3 5 4 6 5 7 6 9 7 10 8 8 9 3 10 11 11
REMARK H PARENT 11 12
REMARK Flexibility Score: inf
ROOT
ATOM      1  C   UNL     1     157.181 161.442 169.686  1.00  0.00     0.014 C 
ATOM      2  C   UNL     1     158.156 162.630 169.504  1.00  0.00    -0.006 C 
ATOM      3  C   UNL     1     159.663 162.200 169.447  1.00  0.00    -0.002 C 
ATOM      4  C   UNL     1     160.016 161.238 170.601  1.00  0.00     0.005 C 
ATOM      5  C   UNL     1     159.909 162.139 171.840  1.00  0.00     0.010 C 
ATOM      6  C   UNL     1     159.621 163.530 171.228  1.00  0.00    -0.006 C 
ATOM      7  C   UNL     1     160.378 163.453 169.920  1.00  0.00     0.013 C 
ATOM      8  C   UNL     1     158.141 163.574 170.755  1.00  0.00     0.126 C 
ATOM      9  C   UNL     1     160.052 164.691 172.135  1.00  0.00     0.014 C 
ATOM     10  C   UNL     1     157.766 163.347 168.185  1.00  0.00     0.014 C 
ENDROOT
BRANCH   8  11
ATOM     11  O   UNL     1     157.758 164.885 170.409  1.00  0.00    -0.392 OA
ATOM     12  H   UNL     1     157.026 164.806 169.742  1.00  0.00     0.211 HD
ENDBRANCH   8  11
TORSDOF 1
ENDMDL
MODEL 8
REMARK VINA RESULT:    -3.042      9.902     11.260
REMARK INTER + INTRA:          -3.130
REMARK INTER:                  -3.130
REMARK INTRA:                   0.000
REMARK UNBOUND:                 0.000
REMARK SMILES CC1(C)[C@@H]2CC[C@@](C)(C2)[C@H]1O
REMARK SMILES IDX 1 1 2 2 4 3 5 4 6 5 7 6 9 7 10 8 8 9 3 10 11 11
REMARK H PARENT 11 12
REMARK Flexibility Score: inf
ROOT
ATOM      1  C   UNL     1     173.955 169.725 169.897  1.00  0.00     0.014 C 
ATOM      2  C   UNL     1     172.988 168.539 169.662  1.00  0.00    -0.006 C 
ATOM      3  C   UNL     1     171.476 168.955 169.669  1.00  0.00    -0.002 C 
ATOM      4  C   UNL     1     171.141 169.837 170.889  1.00  0.00     0.005 C 
ATOM      5  C   UNL     1     171.287 168.859 172.066  1.00  0.00     0.010 C 
ATOM      6  C   UNL     1     171.574 167.514 171.358  1.00  0.00    -0.006 C 
ATOM      7  C   UNL     1     170.785 167.666 170.077  1.00  0.00     0.013 C 
ATOM      8  C   UNL     1     173.043 167.517 170.850  1.00  0.00     0.126 C 
ATOM      9  C   UNL     1     171.176 166.293 172.198  1.00  0.00     0.014 C 
ATOM     10  C   UNL     1     173.353 167.913 168.291  1.00  0.00     0.014 C 
ENDROOT
BRANCH   8  11
ATOM     11  O   UNL     1     173.430 166.236 170.410  1.00  0.00    -0.392 OA
ATOM     12  H   UNL     1     174.423 166.224 170.392  1.00  0.00     0.211 HD
ENDBRANCH   8  11
TORSDOF 1
ENDMDL
MODEL 9
REMARK VINA RESULT:    -2.950      1.525      2.559
REMARK INTER + INTRA:          -3.036
REMARK INTER:                  -3.036
REMARK INTRA:                   0.000
REMARK UNBOUND:                 0.000
REMARK SMILES CC1(C)[C@@H]2CC[C@@](C)(C2)[C@H]1O
REMARK SMILES IDX 1 1 2 2 4 3 5 4 6 5 7 6 9 7 10 8 8 9 3 10 11 11
REMARK H PARENT 11 12
REMARK Flexibility Score: inf
ROOT
ATOM      1  C   UNL     1     161.364 174.618 169.134  1.00  0.00     0.014 C 
ATOM      2  C   UNL     1     162.569 173.649 169.221  1.00  0.00    -0.006 C 
ATOM      3  C   UNL     1     162.153 172.147 169.395  1.00  0.00    -0.002 C 
ATOM      4  C   UNL     1     161.101 171.981 170.510  1.00  0.00     0.005 C 
ATOM      5  C   UNL     1     161.895 172.319 171.781  1.00  0.00     0.010 C 
ATOM      6  C   UNL     1     163.330 172.525 171.242  1.00  0.00    -0.006 C 
ATOM      7  C   UNL     1     163.366 171.551 170.085  1.00  0.00     0.013 C 
ATOM      8  C   UNL     1     163.405 173.901 170.523  1.00  0.00     0.126 C 
ATOM      9  C   UNL     1     164.414 172.281 172.301  1.00  0.00     0.014 C 
ATOM     10  C   UNL     1     163.391 173.818 167.917  1.00  0.00     0.014 C 
ENDROOT
BRANCH   8  11
ATOM     11  O   UNL     1     164.738 174.244 170.222  1.00  0.00    -0.392 OA
ATOM     12  H   UNL     1     165.227 173.393 170.067  1.00  0.00     0.211 HD
ENDBRANCH   8  11
TORSDOF 1
ENDMDL
