MODEL 1
REMARK VINA RESULT:     4.427      0.000      0.000
REMARK INTER + INTRA:           6.497
REMARK INTER:                   6.757
REMARK INTRA:                  -0.259
REMARK UNBOUND:                -0.259
REMARK SMILES O=C([O-])CCCCCCCCC(=O)[O-]
REMARK SMILES IDX 7 1 6 2 5 3 4 4 2 5 1 6 3 7 8 8 9 9 10 10 11 11 12 12 13 13
REMARK SMILES IDX 14 14
REMARK H PARENT
REMARK Flexibility Score: inf
ROOT
ATOM      1  C   UNL     1       3.334   7.164  -2.400  1.00  0.00     0.000 C 
ENDROOT
BRANCH   1   2
ATOM      2  C   UNL     1       4.774   7.661  -2.208  1.00  0.00     0.000 C 
BRANCH   2   3
ATOM      3  C   UNL     1       5.785   6.607  -2.681  1.00  0.00     0.006 C 
BRANCH   3   4
ATOM      4  C   UNL     1       5.099   5.351  -3.235  1.00  0.00     0.053 C 
BRANCH   4   5
ATOM      5  C   UNL     1       6.010   4.571  -4.132  1.00  0.00     0.041 C 
ATOM      6  O   UNL     1       6.046   4.814  -5.367  1.00  0.00    -0.550 OA
ATOM      7  O   UNL     1       6.845   3.596  -3.598  1.00  0.00    -0.550 OA
ENDBRANCH   4   5
ENDBRANCH   3   4
ENDBRANCH   2   3
ENDBRANCH   1   2
BRANCH   1   8
ATOM      8  C   UNL     1       2.688   7.688  -3.695  1.00  0.00     0.000 C 
BRANCH   8   9
ATOM      9  C   UNL     1       1.152   7.831  -3.648  1.00  0.00     0.000 C 
BRANCH   9  10
ATOM     10  C   UNL     1       0.450   7.784  -5.016  1.00  0.00     0.006 C 
BRANCH  10  11
ATOM     11  C   UNL     1       0.778   8.996  -5.896  1.00  0.00     0.053 C 
BRANCH  11  12
ATOM     12  C   UNL     1       1.419   8.556  -7.174  1.00  0.00     0.041 C 
ATOM     13  O   UNL     1       2.637   8.790  -7.385  1.00  0.00    -0.550 OA
ATOM     14  O   UNL     1       0.657   7.932  -8.155  1.00  0.00    -0.550 OA
ENDBRANCH  11  12
ENDBRANCH  10  11
ENDBRANCH   9  10
ENDBRANCH   8   9
ENDBRANCH   1   8
TORSDOF 9
ENDMDL
MODEL 2
REMARK VINA RESULT:     4.637      0.065      5.945
REMARK INTER + INTRA:           6.817
REMARK INTER:                   7.085
REMARK INTRA:                  -0.268
REMARK UNBOUND:                -0.259
REMARK SMILES O=C([O-])CCCCCCCCC(=O)[O-]
REMARK SMILES IDX 7 1 6 2 5 3 4 4 2 5 1 6 3 7 8 8 9 9 10 10 11 11 12 12 13 13
REMARK SMILES IDX 14 14
REMARK H PARENT
REMARK Flexibility Score: inf
ROOT
ATOM      1  C   UNL     1       2.656   7.603  -3.702  1.00  0.00     0.000 C 
ENDROOT
BRANCH   1   2
ATOM      2  C   UNL     1       1.158   7.922  -3.584  1.00  0.00     0.000 C 
BRANCH   2   3
ATOM      3  C   UNL     1       0.464   7.807  -4.949  1.00  0.00     0.006 C 
BRANCH   3   4
ATOM      4  C   UNL     1       0.771   9.004  -5.859  1.00  0.00     0.053 C 
BRANCH   4   5
ATOM      5  C   UNL     1       1.413   8.574  -7.142  1.00  0.00     0.041 C 
ATOM      6  O   UNL     1       2.640   8.784  -7.339  1.00  0.00    -0.550 OA
ATOM      7  O   UNL     1       0.665   7.912  -8.107  1.00  0.00    -0.550 OA
ENDBRANCH   4   5
ENDBRANCH   3   4
ENDBRANCH   2   3
ENDBRANCH   1   2
BRANCH   1   8
ATOM      8  C   UNL     1       3.302   7.251  -2.350  1.00  0.00     0.000 C 
BRANCH   8   9
ATOM      9  C   UNL     1       4.782   7.660  -2.207  1.00  0.00     0.000 C 
BRANCH   9  10
ATOM     10  C   UNL     1       5.798   6.630  -2.733  1.00  0.00     0.006 C 
BRANCH  10  11
ATOM     11  C   UNL     1       5.138   5.323  -3.189  1.00  0.00     0.053 C 
BRANCH  11  12
ATOM     12  C   UNL     1       6.047   4.573  -4.110  1.00  0.00     0.041 C 
ATOM     13  O   UNL     1       6.059   4.837  -5.341  1.00  0.00    -0.550 OA
ATOM     14  O   UNL     1       6.844   3.546  -3.618  1.00  0.00    -0.550 OA
ENDBRANCH  11  12
ENDBRANCH  10  11
ENDBRANCH   9  10
ENDBRANCH   8   9
ENDBRANCH   1   8
TORSDOF 9
ENDMDL
MODEL 3
REMARK VINA RESULT:     6.810      2.316      2.765
REMARK INTER + INTRA:          10.134
REMARK INTER:                  10.578
REMARK INTRA:                  -0.445
REMARK UNBOUND:                -0.259
REMARK SMILES O=C([O-])CCCCCCCCC(=O)[O-]
REMARK SMILES IDX 7 1 6 2 5 3 4 4 2 5 1 6 3 7 8 8 9 9 10 10 11 11 12 12 13 13
REMARK SMILES IDX 14 14
REMARK H PARENT
REMARK Flexibility Score: inf
ROOT
ATOM      1  C   UNL     1       1.439   6.722  -3.052  1.00  0.00     0.000 C 
ENDROOT
BRANCH   1   2
ATOM      2  C   UNL     1       2.836   7.348  -3.168  1.00  0.00     0.000 C 
BRANCH   2   3
ATOM      3  C   UNL     1       3.819   6.683  -2.193  1.00  0.00     0.006 C 
BRANCH   3   4
ATOM      4  C   UNL     1       5.282   6.937  -2.580  1.00  0.00     0.053 C 
BRANCH   4   5
ATOM      5  C   UNL     1       5.721   8.320  -2.210  1.00  0.00     0.041 C 
ATOM      6  O   UNL     1       5.983   9.164  -3.108  1.00  0.00    -0.550 OA
ATOM      7  O   UNL     1       5.810   8.687  -0.873  1.00  0.00    -0.550 OA
ENDBRANCH   4   5
ENDBRANCH   3   4
ENDBRANCH   2   3
ENDBRANCH   1   2
BRANCH   1   8
ATOM      8  C   UNL     1       0.464   7.230  -4.128  1.00  0.00     0.000 C 
BRANCH   8   9
ATOM      9  C   UNL     1       0.457   8.759  -4.335  1.00  0.00     0.000 C 
BRANCH   9  10
ATOM     10  C   UNL     1       0.813   9.227  -5.756  1.00  0.00     0.006 C 
BRANCH  10  11
ATOM     11  C   UNL     1       0.344   8.248  -6.840  1.00  0.00     0.053 C 
BRANCH  11  12
ATOM     12  C   UNL     1       1.129   8.447  -8.098  1.00  0.00     0.041 C 
ATOM     13  O   UNL     1       2.359   8.710  -8.042  1.00  0.00    -0.550 OA
ATOM     14  O   UNL     1       0.492   8.391  -9.332  1.00  0.00    -0.550 OA
ENDBRANCH  11  12
ENDBRANCH  10  11
ENDBRANCH   9  10
ENDBRANCH   8   9
ENDBRANCH   1   8
TORSDOF 9
ENDMDL
