MODEL 1
REMARK VINA RESULT:    -4.777      0.000      0.000
REMARK INTER + INTRA:          -9.038
REMARK INTER:                  -7.291
REMARK INTRA:                  -1.748
REMARK UNBOUND:                -1.748
REMARK SMILES CC(=O)CCC=C(C)CCC=C(C)CCC=C(C)C
REMARK SMILES IDX 10 1 11 2 12 3 13 4 14 5 15 6 16 7 18 8 17 9 19 10 9 11 7 12
REMARK SMILES IDX 6 13 8 14 5 15 4 16 2 17 3 18 1 19
REMARK H PARENT
REMARK Flexibility Score: inf
ROOT
ATOM      1  C   UNL     1      27.121  33.672  29.940  1.00  0.00     0.032 C 
ENDROOT
BRANCH   1   2
ATOM      2  C   UNL     1      28.428  34.047  29.289  1.00  0.00    -0.028 C 
ATOM      3  C   UNL     1      29.181  33.205  28.545  1.00  0.00    -0.077 C 
ATOM      4  C   UNL     1      28.749  31.784  28.270  1.00  0.00     0.039 C 
BRANCH   3   5
ATOM      5  C   UNL     1      30.500  33.700  27.982  1.00  0.00     0.034 C 
BRANCH   5   6
ATOM      6  C   UNL     1      31.657  32.735  28.283  1.00  0.00     0.032 C 
BRANCH   6   7
ATOM      7  C   UNL     1      32.422  33.132  29.525  1.00  0.00    -0.028 C 
ATOM      8  C   UNL     1      31.406  31.276  30.851  1.00  0.00     0.039 C 
ATOM      9  C   UNL     1      32.314  32.473  30.698  1.00  0.00    -0.080 C 
ATOM     10  C   UNL     1      33.124  32.954  31.875  1.00  0.00     0.039 C 
ENDBRANCH   6   7
ENDBRANCH   5   6
ENDBRANCH   3   5
ENDBRANCH   1   2
BRANCH   1  11
ATOM     11  C   UNL     1      27.359  33.083  31.336  1.00  0.00     0.034 C 
BRANCH  11  12
ATOM     12  C   UNL     1      26.945  31.629  31.380  1.00  0.00    -0.077 C 
ATOM     13  C   UNL     1      25.750  31.269  30.857  1.00  0.00    -0.028 C 
ATOM     14  C   UNL     1      27.871  30.621  32.021  1.00  0.00     0.039 C 
BRANCH  13  15
ATOM     15  C   UNL     1      25.241  29.851  30.792  1.00  0.00     0.035 C 
BRANCH  15  16
ATOM     16  C   UNL     1      25.402  29.284  29.377  1.00  0.00     0.079 C 
BRANCH  16  17
ATOM     17  C   UNL     1      24.176  28.515  28.969  1.00  0.00     0.130 C 
ATOM     18  O   UNL     1      24.241  27.714  28.048  1.00  0.00    -0.300 OA
ATOM     19  C   UNL     1      22.881  28.707  29.698  1.00  0.00     0.087 C 
ENDBRANCH  16  17
ENDBRANCH  15  16
ENDBRANCH  13  15
ENDBRANCH  11  12
ENDBRANCH   1  11
TORSDOF 9
ENDMDL
MODEL 2
REMARK VINA RESULT:    -4.753      1.442      3.128
REMARK INTER + INTRA:          -9.002
REMARK INTER:                  -6.736
REMARK INTRA:                  -2.265
REMARK UNBOUND:                -1.748
REMARK SMILES CC(=O)CCC=C(C)CCC=C(C)CCC=C(C)C
REMARK SMILES IDX 10 1 11 2 12 3 13 4 14 5 15 6 16 7 18 8 17 9 19 10 9 11 7 12
REMARK SMILES IDX 6 13 8 14 5 15 4 16 2 17 3 18 1 19
REMARK H PARENT
REMARK Flexibility Score: inf
ROOT
ATOM      1  C   UNL     1      27.813  33.641  32.166  1.00  0.00     0.032 C 
ENDROOT
BRANCH   1   2
ATOM      2  C   UNL     1      29.131  32.984  31.842  1.00  0.00    -0.028 C 
ATOM      3  C   UNL     1      29.420  31.686  32.092  1.00  0.00    -0.077 C 
ATOM      4  C   UNL     1      28.406  30.750  32.705  1.00  0.00     0.039 C 
BRANCH   3   5
ATOM      5  C   UNL     1      30.802  31.162  31.754  1.00  0.00     0.034 C 
BRANCH   5   6
ATOM      6  C   UNL     1      31.107  31.255  30.252  1.00  0.00     0.032 C 
BRANCH   6   7
ATOM      7  C   UNL     1      30.117  30.472  29.420  1.00  0.00    -0.028 C 
ATOM      8  C   UNL     1      29.300  32.540  28.283  1.00  0.00     0.039 C 
ATOM      9  C   UNL     1      29.291  31.049  28.521  1.00  0.00    -0.080 C 
ATOM     10  C   UNL     1      28.343  30.173  27.744  1.00  0.00     0.039 C 
ENDBRANCH   6   7
ENDBRANCH   5   6
ENDBRANCH   3   5
ENDBRANCH   1   2
BRANCH   1  11
ATOM     11  C   UNL     1      26.920  33.711  30.921  1.00  0.00     0.034 C 
BRANCH  11  12
ATOM     12  C   UNL     1      25.792  32.708  31.015  1.00  0.00    -0.077 C 
ATOM     13  C   UNL     1      25.752  31.679  30.137  1.00  0.00    -0.028 C 
ATOM     14  C   UNL     1      24.734  32.890  32.077  1.00  0.00     0.039 C 
BRANCH  13  15
ATOM     15  C   UNL     1      24.714  30.585  30.152  1.00  0.00     0.035 C 
BRANCH  15  16
ATOM     16  C   UNL     1      25.315  29.264  29.661  1.00  0.00     0.079 C 
BRANCH  16  17
ATOM     17  C   UNL     1      24.297  28.471  28.888  1.00  0.00     0.130 C 
ATOM     18  O   UNL     1      24.637  27.862  27.884  1.00  0.00    -0.300 OA
ATOM     19  C   UNL     1      22.875  28.403  29.353  1.00  0.00     0.087 C 
ENDBRANCH  16  17
ENDBRANCH  15  16
ENDBRANCH  13  15
ENDBRANCH  11  12
ENDBRANCH   1  11
TORSDOF 9
ENDMDL
MODEL 3
REMARK VINA RESULT:    -4.673      1.468      2.723
REMARK INTER + INTRA:          -8.879
REMARK INTER:                  -7.576
REMARK INTRA:                  -1.303
REMARK UNBOUND:                -1.748
REMARK SMILES CC(=O)CCC=C(C)CCC=C(C)CCC=C(C)C
REMARK SMILES IDX 10 1 11 2 12 3 13 4 14 5 15 6 16 7 18 8 17 9 19 10 9 11 7 12
REMARK SMILES IDX 6 13 8 14 5 15 4 16 2 17 3 18 1 19
REMARK H PARENT
REMARK Flexibility Score: inf
ROOT
ATOM      1  C   UNL     1      27.773  31.731  29.917  1.00  0.00     0.032 C 
ENDROOT
BRANCH   1   2
ATOM      2  C   UNL     1      29.039  32.224  30.572  1.00  0.00    -0.028 C 
ATOM      3  C   UNL     1      30.241  31.610  30.472  1.00  0.00    -0.077 C 
ATOM      4  C   UNL     1      30.429  30.360  29.645  1.00  0.00     0.039 C 
BRANCH   3   5
ATOM      5  C   UNL     1      31.427  32.189  31.218  1.00  0.00     0.034 C 
BRANCH   5   6
ATOM      6  C   UNL     1      31.781  33.604  30.736  1.00  0.00     0.032 C 
BRANCH   6   7
ATOM      7  C   UNL     1      32.840  33.590  29.657  1.00  0.00    -0.028 C 
ATOM      8  C   UNL     1      31.156  34.067  27.875  1.00  0.00     0.039 C 
ATOM      9  C   UNL     1      32.564  33.800  28.352  1.00  0.00    -0.080 C 
ATOM     10  C   UNL     1      33.697  33.766  27.359  1.00  0.00     0.039 C 
ENDBRANCH   6   7
ENDBRANCH   5   6
ENDBRANCH   3   5
ENDBRANCH   1   2
BRANCH   1  11
ATOM     11  C   UNL     1      26.544  32.405  30.537  1.00  0.00     0.034 C 
BRANCH  11  12
ATOM     12  C   UNL     1      25.337  31.496  30.452  1.00  0.00    -0.077 C 
ATOM     13  C   UNL     1      25.526  30.159  30.361  1.00  0.00    -0.028 C 
ATOM     14  C   UNL     1      23.955  32.107  30.455  1.00  0.00     0.039 C 
BRANCH  13  15
ATOM     15  C   UNL     1      24.413  29.142  30.321  1.00  0.00     0.035 C 
BRANCH  15  16
ATOM     16  C   UNL     1      24.104  28.737  28.876  1.00  0.00     0.079 C 
BRANCH  16  17
ATOM     17  C   UNL     1      25.131  27.765  28.364  1.00  0.00     0.130 C 
ATOM     18  O   UNL     1      25.063  26.587  28.681  1.00  0.00    -0.300 OA
ATOM     19  C   UNL     1      26.224  28.227  27.449  1.00  0.00     0.087 C 
ENDBRANCH  16  17
ENDBRANCH  15  16
ENDBRANCH  13  15
ENDBRANCH  11  12
ENDBRANCH   1  11
TORSDOF 9
ENDMDL
MODEL 4
REMARK VINA RESULT:    -4.604      2.767      6.620
REMARK INTER + INTRA:          -8.774
REMARK INTER:                  -7.022
REMARK INTRA:                  -1.752
REMARK UNBOUND:                -1.748
REMARK SMILES CC(=O)CCC=C(C)CCC=C(C)CCC=C(C)C
REMARK SMILES IDX 10 1 11 2 12 3 13 4 14 5 15 6 16 7 18 8 17 9 19 10 9 11 7 12
REMARK SMILES IDX 6 13 8 14 5 15 4 16 2 17 3 18 1 19
REMARK H PARENT
REMARK Flexibility Score: inf
ROOT
ATOM      1  C   UNL     1      26.874  33.708  32.484  1.00  0.00     0.032 C 
ENDROOT
BRANCH   1   2
ATOM      2  C   UNL     1      25.823  32.686  32.132  1.00  0.00    -0.028 C 
ATOM      3  C   UNL     1      24.982  32.787  31.077  1.00  0.00    -0.077 C 
ATOM      4  C   UNL     1      25.046  33.951  30.117  1.00  0.00     0.039 C 
BRANCH   3   5
ATOM      5  C   UNL     1      23.940  31.706  30.860  1.00  0.00     0.034 C 
BRANCH   5   6
ATOM      6  C   UNL     1      24.484  30.305  31.178  1.00  0.00     0.032 C 
BRANCH   6   7
ATOM      7  C   UNL     1      25.178  29.680  29.989  1.00  0.00    -0.028 C 
ATOM      8  C   UNL     1      23.121  28.427  29.333  1.00  0.00     0.039 C 
ATOM      9  C   UNL     1      24.565  28.825  29.144  1.00  0.00    -0.080 C 
ATOM     10  C   UNL     1      25.351  28.261  27.989  1.00  0.00     0.039 C 
ENDBRANCH   6   7
ENDBRANCH   5   6
ENDBRANCH   3   5
ENDBRANCH   1   2
BRANCH   1  11
ATOM     11  C   UNL     1      28.280  33.121  32.317  1.00  0.00     0.034 C 
BRANCH  11  12
ATOM     12  C   UNL     1      28.532  32.741  30.874  1.00  0.00    -0.077 C 
ATOM     13  C   UNL     1      28.712  33.721  29.958  1.00  0.00    -0.028 C 
ATOM     14  C   UNL     1      28.560  31.280  30.494  1.00  0.00     0.039 C 
BRANCH  13  15
ATOM     15  C   UNL     1      29.020  33.479  28.501  1.00  0.00     0.035 C 
BRANCH  15  16
ATOM     16  C   UNL     1      30.512  33.691  28.223  1.00  0.00     0.079 C 
BRANCH  16  17
ATOM     17  C   UNL     1      31.214  32.372  28.055  1.00  0.00     0.130 C 
ATOM     18  O   UNL     1      32.388  32.264  28.378  1.00  0.00    -0.300 OA
ATOM     19  C   UNL     1      30.479  31.183  27.516  1.00  0.00     0.087 C 
ENDBRANCH  16  17
ENDBRANCH  15  16
ENDBRANCH  13  15
ENDBRANCH  11  12
ENDBRANCH   1  11
TORSDOF 9
ENDMDL
MODEL 5
REMARK VINA RESULT:    -4.509      2.917      8.274
REMARK INTER + INTRA:          -8.629
REMARK INTER:                  -7.447
REMARK INTRA:                  -1.182
REMARK UNBOUND:                -1.748
REMARK SMILES CC(=O)CCC=C(C)CCC=C(C)CCC=C(C)C
REMARK SMILES IDX 10 1 11 2 12 3 13 4 14 5 15 6 16 7 18 8 17 9 19 10 9 11 7 12
REMARK SMILES IDX 6 13 8 14 5 15 4 16 2 17 3 18 1 19
REMARK H PARENT
REMARK Flexibility Score: inf
ROOT
ATOM      1  C   UNL     1      25.599  30.388  29.771  1.00  0.00     0.032 C 
ENDROOT
BRANCH   1   2
ATOM      2  C   UNL     1      24.230  29.788  29.969  1.00  0.00    -0.028 C 
ATOM      3  C   UNL     1      23.834  28.600  29.455  1.00  0.00    -0.077 C 
ATOM      4  C   UNL     1      24.768  27.735  28.641  1.00  0.00     0.039 C 
BRANCH   3   5
ATOM      5  C   UNL     1      22.412  28.131  29.695  1.00  0.00     0.034 C 
BRANCH   5   6
ATOM      6  C   UNL     1      21.649  29.060  30.653  1.00  0.00     0.032 C 
BRANCH   6   7
ATOM      7  C   UNL     1      20.268  29.397  30.140  1.00  0.00    -0.028 C 
ATOM      8  C   UNL     1      20.931  31.752  29.640  1.00  0.00     0.039 C 
ATOM      9  C   UNL     1      19.932  30.619  29.677  1.00  0.00    -0.080 C 
ATOM     10  C   UNL     1      18.525  30.847  29.187  1.00  0.00     0.039 C 
ENDBRANCH   6   7
ENDBRANCH   5   6
ENDBRANCH   3   5
ENDBRANCH   1   2
BRANCH   1  11
ATOM     11  C   UNL     1      26.366  30.441  31.097  1.00  0.00     0.034 C 
BRANCH  11  12
ATOM     12  C   UNL     1      27.629  31.261  30.952  1.00  0.00    -0.077 C 
ATOM     13  C   UNL     1      27.574  32.441  30.293  1.00  0.00    -0.028 C 
ATOM     14  C   UNL     1      28.918  30.732  31.534  1.00  0.00     0.039 C 
BRANCH  13  15
ATOM     15  C   UNL     1      28.745  33.376  30.121  1.00  0.00     0.035 C 
BRANCH  15  16
ATOM     16  C   UNL     1      28.914  33.765  28.649  1.00  0.00     0.079 C 
BRANCH  16  17
ATOM     17  C   UNL     1      30.247  33.304  28.127  1.00  0.00     0.130 C 
ATOM     18  O   UNL     1      31.117  34.125  27.875  1.00  0.00    -0.300 OA
ATOM     19  C   UNL     1      30.525  31.844  27.935  1.00  0.00     0.087 C 
ENDBRANCH  16  17
ENDBRANCH  15  16
ENDBRANCH  13  15
ENDBRANCH  11  12
ENDBRANCH   1  11
TORSDOF 9
ENDMDL
MODEL 6
REMARK VINA RESULT:    -4.508      3.646      9.044
REMARK INTER + INTRA:          -8.627
REMARK INTER:                  -7.716
REMARK INTRA:                  -0.911
REMARK UNBOUND:                -1.748
REMARK SMILES CC(=O)CCC=C(C)CCC=C(C)CCC=C(C)C
REMARK SMILES IDX 10 1 11 2 12 3 13 4 14 5 15 6 16 7 18 8 17 9 19 10 9 11 7 12
REMARK SMILES IDX 6 13 8 14 5 15 4 16 2 17 3 18 1 19
REMARK H PARENT
REMARK Flexibility Score: inf
ROOT
ATOM      1  C   UNL     1      24.440  29.825  30.358  1.00  0.00     0.032 C 
ENDROOT
BRANCH   1   2
ATOM      2  C   UNL     1      23.023  30.291  30.578  1.00  0.00    -0.028 C 
ATOM      3  C   UNL     1      21.924  29.611  30.177  1.00  0.00    -0.077 C 
ATOM      4  C   UNL     1      22.026  28.274  29.481  1.00  0.00     0.039 C 
BRANCH   3   5
ATOM      5  C   UNL     1      20.554  30.214  30.424  1.00  0.00     0.034 C 
BRANCH   5   6
ATOM      6  C   UNL     1      19.834  30.573  29.115  1.00  0.00     0.032 C 
BRANCH   6   7
ATOM      7  C   UNL     1      18.334  30.643  29.291  1.00  0.00    -0.028 C 
ATOM      8  C   UNL     1      18.351  33.138  29.200  1.00  0.00     0.039 C 
ATOM      9  C   UNL     1      17.651  31.806  29.331  1.00  0.00    -0.080 C 
ATOM     10  C   UNL     1      16.155  31.761  29.509  1.00  0.00     0.039 C 
ENDBRANCH   6   7
ENDBRANCH   5   6
ENDBRANCH   3   5
ENDBRANCH   1   2
BRANCH   1  11
ATOM     11  C   UNL     1      25.282  30.032  31.623  1.00  0.00     0.034 C 
BRANCH  11  12
ATOM     12  C   UNL     1      26.618  30.653  31.279  1.00  0.00    -0.077 C 
ATOM     13  C   UNL     1      26.814  31.146  30.035  1.00  0.00    -0.028 C 
ATOM     14  C   UNL     1      27.702  30.691  32.331  1.00  0.00     0.039 C 
BRANCH  13  15
ATOM     15  C   UNL     1      28.076  31.834  29.579  1.00  0.00     0.035 C 
BRANCH  15  16
ATOM     16  C   UNL     1      28.687  31.102  28.379  1.00  0.00     0.079 C 
BRANCH  16  17
ATOM     17  C   UNL     1      30.139  30.797  28.624  1.00  0.00     0.130 C 
ATOM     18  O   UNL     1      30.953  30.957  27.726  1.00  0.00    -0.300 OA
ATOM     19  C   UNL     1      30.599  30.321  29.968  1.00  0.00     0.087 C 
ENDBRANCH  16  17
ENDBRANCH  15  16
ENDBRANCH  13  15
ENDBRANCH  11  12
ENDBRANCH   1  11
TORSDOF 9
ENDMDL
MODEL 7
REMARK VINA RESULT:    -4.489      6.272     10.606
REMARK INTER + INTRA:          -8.598
REMARK INTER:                  -6.994
REMARK INTRA:                  -1.604
REMARK UNBOUND:                -1.748
REMARK SMILES CC(=O)CCC=C(C)CCC=C(C)CCC=C(C)C
REMARK SMILES IDX 10 1 11 2 12 3 13 4 14 5 15 6 16 7 18 8 17 9 19 10 9 11 7 12
REMARK SMILES IDX 6 13 8 14 5 15 4 16 2 17 3 18 1 19
REMARK H PARENT
REMARK Flexibility Score: inf
ROOT
ATOM      1  C   UNL     1      20.271  33.031  29.802  1.00  0.00     0.032 C 
ENDROOT
BRANCH   1   2
ATOM      2  C   UNL     1      18.791  33.183  29.559  1.00  0.00    -0.028 C 
ATOM      3  C   UNL     1      17.974  32.179  29.163  1.00  0.00    -0.077 C 
ATOM      4  C   UNL     1      18.486  30.773  28.953  1.00  0.00     0.039 C 
BRANCH   3   5
ATOM      5  C   UNL     1      16.508  32.478  28.913  1.00  0.00     0.034 C 
BRANCH   5   6
ATOM      6  C   UNL     1      15.663  32.337  30.187  1.00  0.00     0.032 C 
BRANCH   6   7
ATOM      7  C   UNL     1      15.150  30.928  30.378  1.00  0.00    -0.028 C 
ATOM      8  C   UNL     1      16.716  30.521  32.280  1.00  0.00     0.039 C 
ATOM      9  C   UNL     1      15.624  30.094  31.328  1.00  0.00    -0.080 C 
ATOM     10  C   UNL     1      15.040  28.709  31.432  1.00  0.00     0.039 C 
ENDBRANCH   6   7
ENDBRANCH   5   6
ENDBRANCH   3   5
ENDBRANCH   1   2
BRANCH   1  11
ATOM     11  C   UNL     1      20.556  32.793  31.289  1.00  0.00     0.034 C 
BRANCH  11  12
ATOM     12  C   UNL     1      21.522  31.643  31.471  1.00  0.00    -0.077 C 
ATOM     13  C   UNL     1      21.929  30.949  30.383  1.00  0.00    -0.028 C 
ATOM     14  C   UNL     1      21.993  31.292  32.863  1.00  0.00     0.039 C 
BRANCH  13  15
ATOM     15  C   UNL     1      22.925  29.816  30.418  1.00  0.00     0.035 C 
BRANCH  15  16
ATOM     16  C   UNL     1      22.245  28.488  30.069  1.00  0.00     0.079 C 
BRANCH  16  17
ATOM     17  C   UNL     1      23.080  27.703  29.095  1.00  0.00     0.130 C 
ATOM     18  O   UNL     1      22.581  26.773  28.480  1.00  0.00    -0.300 OA
ATOM     19  C   UNL     1      24.514  28.067  28.857  1.00  0.00     0.087 C 
ENDBRANCH  16  17
ENDBRANCH  15  16
ENDBRANCH  13  15
ENDBRANCH  11  12
ENDBRANCH   1  11
TORSDOF 9
ENDMDL
MODEL 8
REMARK VINA RESULT:    -4.430      5.804      8.379
REMARK INTER + INTRA:          -8.508
REMARK INTER:                  -6.698
REMARK INTRA:                  -1.810
REMARK UNBOUND:                -1.748
REMARK SMILES CC(=O)CCC=C(C)CCC=C(C)CCC=C(C)C
REMARK SMILES IDX 10 1 11 2 12 3 13 4 14 5 15 6 16 7 18 8 17 9 19 10 9 11 7 12
REMARK SMILES IDX 6 13 8 14 5 15 4 16 2 17 3 18 1 19
REMARK H PARENT
REMARK Flexibility Score: inf
ROOT
ATOM      1  C   UNL     1      20.878  32.877  29.360  1.00  0.00     0.032 C 
ENDROOT
BRANCH   1   2
ATOM      2  C   UNL     1      21.596  32.189  30.493  1.00  0.00    -0.028 C 
ATOM      3  C   UNL     1      22.897  32.389  30.808  1.00  0.00    -0.077 C 
ATOM      4  C   UNL     1      23.757  33.372  30.048  1.00  0.00     0.039 C 
BRANCH   3   5
ATOM      5  C   UNL     1      23.509  31.598  31.948  1.00  0.00     0.034 C 
BRANCH   5   6
ATOM      6  C   UNL     1      23.359  30.082  31.748  1.00  0.00     0.032 C 
BRANCH   6   7
ATOM      7  C   UNL     1      24.262  29.560  30.654  1.00  0.00    -0.028 C 
ATOM      8  C   UNL     1      22.324  28.657  29.364  1.00  0.00     0.039 C 
ATOM      9  C   UNL     1      23.799  28.910  29.565  1.00  0.00    -0.080 C 
ATOM     10  C   UNL     1      24.788  28.433  28.533  1.00  0.00     0.039 C 
ENDBRANCH   6   7
ENDBRANCH   5   6
ENDBRANCH   3   5
ENDBRANCH   1   2
BRANCH   1  11
ATOM     11  C   UNL     1      20.093  34.090  29.872  1.00  0.00     0.034 C 
BRANCH  11  12
ATOM     12  C   UNL     1      18.697  33.684  30.292  1.00  0.00    -0.077 C 
ATOM     13  C   UNL     1      17.788  33.375  29.339  1.00  0.00    -0.028 C 
ATOM     14  C   UNL     1      18.353  33.651  31.763  1.00  0.00     0.039 C 
BRANCH  13  15
ATOM     15  C   UNL     1      16.382  32.908  29.622  1.00  0.00     0.035 C 
BRANCH  15  16
ATOM     16  C   UNL     1      16.232  31.418  29.298  1.00  0.00     0.079 C 
BRANCH  16  17
ATOM     17  C   UNL     1      16.744  30.572  30.432  1.00  0.00     0.130 C 
ATOM     18  O   UNL     1      16.106  30.502  31.472  1.00  0.00    -0.300 OA
ATOM     19  C   UNL     1      18.018  29.798  30.288  1.00  0.00     0.087 C 
ENDBRANCH  16  17
ENDBRANCH  15  16
ENDBRANCH  13  15
ENDBRANCH  11  12
ENDBRANCH   1  11
TORSDOF 9
ENDMDL
MODEL 9
REMARK VINA RESULT:    -4.428      3.453      5.915
REMARK INTER + INTRA:          -8.505
REMARK INTER:                  -7.087
REMARK INTRA:                  -1.419
REMARK UNBOUND:                -1.748
REMARK SMILES CC(=O)CCC=C(C)CCC=C(C)CCC=C(C)C
REMARK SMILES IDX 10 1 11 2 12 3 13 4 14 5 15 6 16 7 18 8 17 9 19 10 9 11 7 12
REMARK SMILES IDX 6 13 8 14 5 15 4 16 2 17 3 18 1 19
REMARK H PARENT
REMARK Flexibility Score: inf
ROOT
ATOM      1  C   UNL     1      23.854  29.058  29.053  1.00  0.00     0.032 C 
ENDROOT
BRANCH   1   2
ATOM      2  C   UNL     1      24.996  29.224  30.024  1.00  0.00    -0.028 C 
ATOM      3  C   UNL     1      25.417  30.414  30.511  1.00  0.00    -0.077 C 
ATOM      4  C   UNL     1      24.741  31.712  30.137  1.00  0.00     0.039 C 
BRANCH   3   5
ATOM      5  C   UNL     1      26.608  30.444  31.451  1.00  0.00     0.034 C 
BRANCH   5   6
ATOM      6  C   UNL     1      27.371  31.775  31.377  1.00  0.00     0.032 C 
BRANCH   6   7
ATOM      7  C   UNL     1      28.337  31.814  30.214  1.00  0.00    -0.028 C 
ATOM      8  C   UNL     1      27.629  34.125  29.587  1.00  0.00     0.039 C 
ATOM      9  C   UNL     1      28.461  32.879  29.395  1.00  0.00    -0.080 C 
ATOM     10  C   UNL     1      29.457  32.812  28.266  1.00  0.00     0.039 C 
ENDBRANCH   6   7
ENDBRANCH   5   6
ENDBRANCH   3   5
ENDBRANCH   1   2
BRANCH   1  11
ATOM     11  C   UNL     1      22.616  28.496  29.761  1.00  0.00     0.034 C 
BRANCH  11  12
ATOM     12  C   UNL     1      21.737  29.616  30.271  1.00  0.00    -0.077 C 
ATOM     13  C   UNL     1      21.039  30.360  29.382  1.00  0.00    -0.028 C 
ATOM     14  C   UNL     1      21.675  29.883  31.756  1.00  0.00     0.039 C 
BRANCH  13  15
ATOM     15  C   UNL     1      20.090  31.471  29.759  1.00  0.00     0.035 C 
BRANCH  15  16
ATOM     16  C   UNL     1      18.654  31.111  29.363  1.00  0.00     0.079 C 
BRANCH  16  17
ATOM     17  C   UNL     1      17.867  32.350  29.036  1.00  0.00     0.130 C 
ATOM     18  O   UNL     1      18.453  33.387  28.763  1.00  0.00    -0.300 OA
ATOM     19  C   UNL     1      16.369  32.315  29.018  1.00  0.00     0.087 C 
ENDBRANCH  16  17
ENDBRANCH  15  16
ENDBRANCH  13  15
ENDBRANCH  11  12
ENDBRANCH   1  11
TORSDOF 9
ENDMDL
