MODEL 1
REMARK VINA RESULT:    -5.347      0.000      0.000
REMARK INTER + INTRA:          -5.347
REMARK INTER:                  -5.347
REMARK INTRA:                   0.000
REMARK UNBOUND:                 0.000
REMARK SMILES CC1=CC=CC(C)(C)[C@H]1C
REMARK SMILES IDX 10 1 9 2 2 3 3 4 4 5 5 6 6 7 7 8 8 9 1 10
REMARK H PARENT
REMARK Flexibility Score: inf
ROOT
ATOM      1  C   UNL     1      19.002  30.942  24.751  1.00  0.00     0.013 C 
ATOM      2  C   UNL     1      18.054  30.283  25.770  1.00  0.00     0.021 C 
ATOM      3  C   UNL     1      17.386  29.091  25.102  1.00  0.00    -0.070 C 
ATOM      4  C   UNL     1      17.961  27.878  25.168  1.00  0.00    -0.001 C 
ATOM      5  C   UNL     1      19.169  27.659  25.983  1.00  0.00    -0.004 C 
ATOM      6  C   UNL     1      19.584  28.585  26.854  1.00  0.00    -0.020 C 
ATOM      7  C   UNL     1      18.770  29.843  27.099  1.00  0.00    -0.011 C 
ATOM      8  C   UNL     1      17.707  29.530  28.175  1.00  0.00     0.016 C 
ATOM      9  C   UNL     1      19.694  30.952  27.651  1.00  0.00     0.016 C 
ATOM     10  C   UNL     1      16.133  29.275  24.296  1.00  0.00     0.040 C 
ENDROOT
TORSDOF 0
ENDMDL
MODEL 2
REMARK VINA RESULT:    -5.160      8.347     10.301
REMARK INTER + INTRA:          -5.160
REMARK INTER:                  -5.160
REMARK INTRA:                   0.000
REMARK UNBOUND:                 0.000
REMARK SMILES CC1=CC=CC(C)(C)[C@H]1C
REMARK SMILES IDX 10 1 9 2 2 3 3 4 4 5 5 6 6 7 7 8 8 9 1 10
REMARK H PARENT
REMARK Flexibility Score: inf
ROOT
ATOM      1  C   UNL     1      10.478  33.864  24.978  1.00  0.00     0.013 C 
ATOM      2  C   UNL     1      10.040  32.704  24.066  1.00  0.00     0.021 C 
ATOM      3  C   UNL     1       8.520  32.639  24.069  1.00  0.00    -0.070 C 
ATOM      4  C   UNL     1       7.818  33.341  23.164  1.00  0.00    -0.001 C 
ATOM      5  C   UNL     1       8.500  34.078  22.086  1.00  0.00    -0.004 C 
ATOM      6  C   UNL     1       9.799  33.882  21.838  1.00  0.00    -0.020 C 
ATOM      7  C   UNL     1      10.584  32.824  22.595  1.00  0.00    -0.011 C 
ATOM      8  C   UNL     1      10.399  31.473  21.869  1.00  0.00     0.016 C 
ATOM      9  C   UNL     1      12.087  33.180  22.563  1.00  0.00     0.016 C 
ATOM     10  C   UNL     1       7.795  31.865  25.133  1.00  0.00     0.040 C 
ENDROOT
TORSDOF 0
ENDMDL
MODEL 3
REMARK VINA RESULT:    -5.149      8.741     10.848
REMARK INTER + INTRA:          -5.149
REMARK INTER:                  -5.149
REMARK INTRA:                   0.000
REMARK UNBOUND:                 0.000
REMARK SMILES CC1=CC=CC(C)(C)[C@H]1C
REMARK SMILES IDX 10 1 9 2 2 3 3 4 4 5 5 6 6 7 7 8 8 9 1 10
REMARK H PARENT
REMARK Flexibility Score: inf
ROOT
ATOM      1  C   UNL     1       7.473  33.100  24.981  1.00  0.00     0.013 C 
ATOM      2  C   UNL     1       8.513  32.426  24.066  1.00  0.00     0.021 C 
ATOM      3  C   UNL     1       7.844  32.102  22.738  1.00  0.00    -0.070 C 
ATOM      4  C   UNL     1       7.860  33.003  21.743  1.00  0.00    -0.001 C 
ATOM      5  C   UNL     1       8.623  34.258  21.872  1.00  0.00    -0.004 C 
ATOM      6  C   UNL     1       9.499  34.426  22.869  1.00  0.00    -0.020 C 
ATOM      7  C   UNL     1       9.803  33.296  23.836  1.00  0.00    -0.011 C 
ATOM      8  C   UNL     1      10.911  32.415  23.218  1.00  0.00     0.016 C 
ATOM      9  C   UNL     1      10.345  33.884  25.158  1.00  0.00     0.016 C 
ATOM     10  C   UNL     1       7.090  30.815  22.562  1.00  0.00     0.040 C 
ENDROOT
TORSDOF 0
ENDMDL
MODEL 4
REMARK VINA RESULT:    -5.044      8.505     10.704
REMARK INTER + INTRA:          -5.044
REMARK INTER:                  -5.044
REMARK INTRA:                   0.000
REMARK UNBOUND:                 0.000
REMARK SMILES CC1=CC=CC(C)(C)[C@H]1C
REMARK SMILES IDX 10 1 9 2 2 3 3 4 4 5 5 6 6 7 7 8 8 9 1 10
REMARK H PARENT
REMARK Flexibility Score: inf
ROOT
ATOM      1  C   UNL     1       9.356  35.067  24.487  1.00  0.00     0.013 C 
ATOM      2  C   UNL     1       9.803  33.670  24.019  1.00  0.00     0.021 C 
ATOM      3  C   UNL     1       9.605  32.693  25.169  1.00  0.00    -0.070 C 
ATOM      4  C   UNL     1       8.436  32.045  25.303  1.00  0.00    -0.001 C 
ATOM      5  C   UNL     1       7.381  32.172  24.282  1.00  0.00    -0.004 C 
ATOM      6  C   UNL     1       7.640  32.734  23.096  1.00  0.00    -0.020 C 
ATOM      7  C   UNL     1       9.049  33.169  22.733  1.00  0.00    -0.011 C 
ATOM      8  C   UNL     1       9.794  31.950  22.144  1.00  0.00     0.016 C 
ATOM      9  C   UNL     1       8.984  34.260  21.641  1.00  0.00     0.016 C 
ATOM     10  C   UNL     1      10.677  32.513  26.205  1.00  0.00     0.040 C 
ENDROOT
TORSDOF 0
ENDMDL
MODEL 5
REMARK VINA RESULT:    -5.041      8.582     10.507
REMARK INTER + INTRA:          -5.041
REMARK INTER:                  -5.041
REMARK INTRA:                   0.000
REMARK UNBOUND:                 0.000
REMARK SMILES CC1=CC=CC(C)(C)[C@H]1C
REMARK SMILES IDX 10 1 9 2 2 3 3 4 4 5 5 6 6 7 7 8 8 9 1 10
REMARK H PARENT
REMARK Flexibility Score: inf
ROOT
ATOM      1  C   UNL     1      10.662  32.081  22.646  1.00  0.00     0.013 C 
ATOM      2  C   UNL     1      10.030  33.427  23.047  1.00  0.00     0.021 C 
ATOM      3  C   UNL     1       8.797  33.653  22.186  1.00  0.00    -0.070 C 
ATOM      4  C   UNL     1       7.600  33.206  22.600  1.00  0.00    -0.001 C 
ATOM      5  C   UNL     1       7.440  32.606  23.937  1.00  0.00    -0.004 C 
ATOM      6  C   UNL     1       8.410  32.703  24.851  1.00  0.00    -0.020 C 
ATOM      7  C   UNL     1       9.662  33.516  24.573  1.00  0.00    -0.011 C 
ATOM      8  C   UNL     1       9.376  34.988  24.946  1.00  0.00     0.016 C 
ATOM      9  C   UNL     1      10.812  33.012  25.474  1.00  0.00     0.016 C 
ATOM     10  C   UNL     1       8.921  34.297  20.834  1.00  0.00     0.040 C 
ENDROOT
TORSDOF 0
ENDMDL
MODEL 6
REMARK VINA RESULT:    -4.946      8.161     10.399
REMARK INTER + INTRA:          -4.946
REMARK INTER:                  -4.946
REMARK INTRA:                   0.000
REMARK UNBOUND:                 0.000
REMARK SMILES CC1=CC=CC(C)(C)[C@H]1C
REMARK SMILES IDX 10 1 9 2 2 3 3 4 4 5 5 6 6 7 7 8 8 9 1 10
REMARK H PARENT
REMARK Flexibility Score: inf
ROOT
ATOM      1  C   UNL     1      11.667  32.496  23.045  1.00  0.00     0.013 C 
ATOM      2  C   UNL     1      10.230  32.311  23.567  1.00  0.00     0.021 C 
ATOM      3  C   UNL     1      10.084  33.101  24.860  1.00  0.00    -0.070 C 
ATOM      4  C   UNL     1       9.682  34.381  24.820  1.00  0.00    -0.001 C 
ATOM      5  C   UNL     1       9.260  35.001  23.551  1.00  0.00    -0.004 C 
ATOM      6  C   UNL     1       9.041  34.254  22.464  1.00  0.00    -0.020 C 
ATOM      7  C   UNL     1       9.127  32.739  22.531  1.00  0.00    -0.011 C 
ATOM      8  C   UNL     1       7.755  32.197  22.991  1.00  0.00     0.016 C 
ATOM      9  C   UNL     1       9.412  32.178  21.120  1.00  0.00     0.016 C 
ATOM     10  C   UNL     1      10.471  32.484  26.174  1.00  0.00     0.040 C 
ENDROOT
TORSDOF 0
ENDMDL
MODEL 7
REMARK VINA RESULT:    -4.851      8.060      9.990
REMARK INTER + INTRA:          -4.851
REMARK INTER:                  -4.851
REMARK INTRA:                   0.000
REMARK UNBOUND:                 0.000
REMARK SMILES CC1=CC=CC(C)(C)[C@H]1C
REMARK SMILES IDX 10 1 9 2 2 3 3 4 4 5 5 6 6 7 7 8 8 9 1 10
REMARK H PARENT
REMARK Flexibility Score: inf
ROOT
ATOM      1  C   UNL     1      10.782  32.557  24.744  1.00  0.00     0.013 C 
ATOM      2  C   UNL     1      10.473  33.281  23.421  1.00  0.00     0.021 C 
ATOM      3  C   UNL     1      11.386  32.719  22.342  1.00  0.00    -0.070 C 
ATOM      4  C   UNL     1      10.991  31.662  21.614  1.00  0.00    -0.001 C 
ATOM      5  C   UNL     1       9.631  31.112  21.759  1.00  0.00    -0.004 C 
ATOM      6  C   UNL     1       8.690  31.781  22.433  1.00  0.00    -0.020 C 
ATOM      7  C   UNL     1       8.967  33.170  22.983  1.00  0.00    -0.011 C 
ATOM      8  C   UNL     1       8.681  34.198  21.866  1.00  0.00     0.016 C 
ATOM      9  C   UNL     1       8.002  33.459  24.154  1.00  0.00     0.016 C 
ATOM     10  C   UNL     1      12.765  33.282  22.144  1.00  0.00     0.040 C 
ENDROOT
TORSDOF 0
ENDMDL
MODEL 8
REMARK VINA RESULT:    -4.796      8.367     10.925
REMARK INTER + INTRA:          -4.796
REMARK INTER:                  -4.796
REMARK INTRA:                   0.000
REMARK UNBOUND:                 0.000
REMARK SMILES CC1=CC=CC(C)(C)[C@H]1C
REMARK SMILES IDX 10 1 9 2 2 3 3 4 4 5 5 6 6 7 7 8 8 9 1 10
REMARK H PARENT
REMARK Flexibility Score: inf
ROOT
ATOM      1  C   UNL     1       9.317  34.267  21.443  1.00  0.00     0.013 C 
ATOM      2  C   UNL     1       9.246  32.905  22.159  1.00  0.00     0.021 C 
ATOM      3  C   UNL     1      10.380  32.837  23.172  1.00  0.00    -0.070 C 
ATOM      4  C   UNL     1      10.183  33.271  24.427  1.00  0.00    -0.001 C 
ATOM      5  C   UNL     1       8.846  33.702  24.876  1.00  0.00    -0.004 C 
ATOM      6  C   UNL     1       7.762  33.453  24.134  1.00  0.00    -0.020 C 
ATOM      7  C   UNL     1       7.864  32.636  22.858  1.00  0.00    -0.011 C 
ATOM      8  C   UNL     1       7.761  31.141  23.232  1.00  0.00     0.016 C 
ATOM      9  C   UNL     1       6.674  32.978  21.934  1.00  0.00     0.016 C 
ATOM     10  C   UNL     1      11.744  32.366  22.755  1.00  0.00     0.040 C 
ENDROOT
TORSDOF 0
ENDMDL
MODEL 9
REMARK VINA RESULT:    -4.700      8.712     10.841
REMARK INTER + INTRA:          -4.700
REMARK INTER:                  -4.700
REMARK INTRA:                   0.000
REMARK UNBOUND:                 0.000
REMARK SMILES CC1=CC=CC(C)(C)[C@H]1C
REMARK SMILES IDX 10 1 9 2 2 3 3 4 4 5 5 6 6 7 7 8 8 9 1 10
REMARK H PARENT
REMARK Flexibility Score: inf
ROOT
ATOM      1  C   UNL     1       7.893  32.026  24.467  1.00  0.00     0.013 C 
ATOM      2  C   UNL     1       8.585  33.171  23.703  1.00  0.00     0.021 C 
ATOM      3  C   UNL     1      10.072  33.131  24.024  1.00  0.00    -0.070 C 
ATOM      4  C   UNL     1      10.901  32.400  23.261  1.00  0.00    -0.001 C 
ATOM      5  C   UNL     1      10.414  31.732  22.041  1.00  0.00    -0.004 C 
ATOM      6  C   UNL     1       9.210  32.022  21.536  1.00  0.00    -0.020 C 
ATOM      7  C   UNL     1       8.353  33.117  22.149  1.00  0.00    -0.011 C 
ATOM      8  C   UNL     1       8.771  34.465  21.522  1.00  0.00     0.016 C 
ATOM      9  C   UNL     1       6.871  32.866  21.795  1.00  0.00     0.016 C 
ATOM     10  C   UNL     1      10.606  33.833  25.239  1.00  0.00     0.040 C 
ENDROOT
TORSDOF 0
ENDMDL
