MODEL 1
REMARK VINA RESULT:    -3.415      0.000      0.000
REMARK INTER + INTRA:          -4.577
REMARK INTER:                  -4.413
REMARK INTRA:                  -0.164
REMARK UNBOUND:                -0.164
REMARK SMILES CCCCCCC(=O)[O-]
REMARK SMILES IDX 5 1 6 2 7 3 8 4 9 5 4 6 3 7 2 8 1 9
REMARK H PARENT
REMARK Flexibility Score: inf
ROOT
ATOM      1  C   UNL     1      23.436   3.186  13.886  1.00  0.00     0.006 C 
ENDROOT
BRANCH   1   2
ATOM      2  C   UNL     1      22.710   1.864  14.167  1.00  0.00     0.053 C 
BRANCH   2   3
ATOM      3  C   UNL     1      23.565   0.912  14.948  1.00  0.00     0.041 C 
ATOM      4  O   UNL     1      23.327  -0.323  14.918  1.00  0.00    -0.550 OA
ATOM      5  O   UNL     1      24.606   1.394  15.732  1.00  0.00    -0.550 OA
ENDBRANCH   2   3
ENDBRANCH   1   2
BRANCH   1   6
ATOM      6  C   UNL     1      22.778   3.977  12.742  1.00  0.00     0.000 C 
BRANCH   6   7
ATOM      7  C   UNL     1      23.524   5.281  12.420  1.00  0.00    -0.000 C 
BRANCH   7   8
ATOM      8  C   UNL     1      24.984   5.262  12.896  1.00  0.00    -0.003 C 
ATOM      9  C   UNL     1      25.361   6.581  13.566  1.00  0.00     0.004 C 
ENDBRANCH   7   8
ENDBRANCH   6   7
ENDBRANCH   1   6
TORSDOF 5
ENDMDL
MODEL 2
REMARK VINA RESULT:    -3.372      1.052      1.523
REMARK INTER + INTRA:          -4.521
REMARK INTER:                  -4.379
REMARK INTRA:                  -0.142
REMARK UNBOUND:                -0.164
REMARK SMILES CCCCCCC(=O)[O-]
REMARK SMILES IDX 5 1 6 2 7 3 8 4 9 5 4 6 3 7 2 8 1 9
REMARK H PARENT
REMARK Flexibility Score: inf
ROOT
ATOM      1  C   UNL     1      22.088   2.553  13.157  1.00  0.00     0.006 C 
ENDROOT
BRANCH   1   2
ATOM      2  C   UNL     1      23.000   1.922  14.218  1.00  0.00     0.053 C 
BRANCH   2   3
ATOM      3  C   UNL     1      22.604   0.511  14.527  1.00  0.00     0.041 C 
ATOM      4  O   UNL     1      23.464  -0.314  14.934  1.00  0.00    -0.550 OA
ATOM      5  O   UNL     1      21.291   0.098  14.337  1.00  0.00    -0.550 OA
ENDBRANCH   2   3
ENDBRANCH   1   2
BRANCH   1   6
ATOM      6  C   UNL     1      22.629   3.903  12.656  1.00  0.00     0.000 C 
BRANCH   6   7
ATOM      7  C   UNL     1      23.761   4.451  13.539  1.00  0.00    -0.000 C 
BRANCH   7   8
ATOM      8  C   UNL     1      24.814   5.230  12.737  1.00  0.00    -0.003 C 
ATOM      9  C   UNL     1      25.401   6.370  13.563  1.00  0.00     0.004 C 
ENDBRANCH   7   8
ENDBRANCH   6   7
ENDBRANCH   1   6
TORSDOF 5
ENDMDL
MODEL 3
REMARK VINA RESULT:    -3.338      1.320      2.048
REMARK INTER + INTRA:          -4.478
REMARK INTER:                  -4.241
REMARK INTRA:                  -0.237
REMARK UNBOUND:                -0.164
REMARK SMILES CCCCCCC(=O)[O-]
REMARK SMILES IDX 5 1 6 2 7 3 8 4 9 5 4 6 3 7 2 8 1 9
REMARK H PARENT
REMARK Flexibility Score: inf
ROOT
ATOM      1  C   UNL     1      22.479   4.130  12.465  1.00  0.00     0.006 C 
ENDROOT
BRANCH   1   2
ATOM      2  C   UNL     1      22.529   3.493  13.860  1.00  0.00     0.053 C 
BRANCH   2   3
ATOM      3  C   UNL     1      22.524   1.996  13.791  1.00  0.00     0.041 C 
ATOM      4  O   UNL     1      23.326   1.327  14.494  1.00  0.00    -0.550 OA
ATOM      5  O   UNL     1      21.655   1.341  12.926  1.00  0.00    -0.550 OA
ENDBRANCH   2   3
ENDBRANCH   1   2
BRANCH   1   6
ATOM      6  C   UNL     1      23.404   5.354  12.353  1.00  0.00     0.000 C 
BRANCH   6   7
ATOM      7  C   UNL     1      24.792   5.104  12.963  1.00  0.00    -0.000 C 
BRANCH   7   8
ATOM      8  C   UNL     1      25.397   6.365  13.598  1.00  0.00    -0.003 C 
ATOM      9  C   UNL     1      24.415   7.533  13.540  1.00  0.00     0.004 C 
ENDBRANCH   7   8
ENDBRANCH   6   7
ENDBRANCH   1   6
TORSDOF 5
ENDMDL
MODEL 4
REMARK VINA RESULT:    -3.211      9.898     11.252
REMARK INTER + INTRA:          -4.313
REMARK INTER:                  -4.143
REMARK INTRA:                  -0.171
REMARK UNBOUND:                -0.164
REMARK SMILES CCCCCCC(=O)[O-]
REMARK SMILES IDX 5 1 6 2 7 3 8 4 9 5 4 6 3 7 2 8 1 9
REMARK H PARENT
REMARK Flexibility Score: inf
ROOT
ATOM      1  C   UNL     1      15.287   0.781   9.259  1.00  0.00     0.006 C 
ENDROOT
BRANCH   1   2
ATOM      2  C   UNL     1      13.783   1.060   9.378  1.00  0.00     0.053 C 
BRANCH   2   3
ATOM      3  C   UNL     1      12.978   0.183   8.468  1.00  0.00     0.041 C 
ATOM      4  O   UNL     1      12.005   0.660   7.827  1.00  0.00    -0.550 OA
ATOM      5  O   UNL     1      13.284  -1.167   8.352  1.00  0.00    -0.550 OA
ENDBRANCH   2   3
ENDBRANCH   1   2
BRANCH   1   6
ATOM      6  C   UNL     1      15.891   0.280  10.582  1.00  0.00     0.000 C 
BRANCH   6   7
ATOM      7  C   UNL     1      17.075  -0.676  10.367  1.00  0.00    -0.000 C 
BRANCH   7   8
ATOM      8  C   UNL     1      17.307  -1.611  11.564  1.00  0.00    -0.003 C 
ATOM      9  C   UNL     1      15.983  -2.046  12.185  1.00  0.00     0.004 C 
ENDBRANCH   7   8
ENDBRANCH   6   7
ENDBRANCH   1   6
TORSDOF 5
ENDMDL
MODEL 5
REMARK VINA RESULT:    -3.135      3.904      5.951
REMARK INTER + INTRA:          -4.215
REMARK INTER:                  -4.086
REMARK INTRA:                  -0.129
REMARK UNBOUND:                -0.164
REMARK SMILES CCCCCCC(=O)[O-]
REMARK SMILES IDX 5 1 6 2 7 3 8 4 9 5 4 6 3 7 2 8 1 9
REMARK H PARENT
REMARK Flexibility Score: inf
ROOT
ATOM      1  C   UNL     1      21.584   0.508  13.009  1.00  0.00     0.006 C 
ENDROOT
BRANCH   1   2
ATOM      2  C   UNL     1      21.731   0.260  14.516  1.00  0.00     0.053 C 
BRANCH   2   3
ATOM      3  C   UNL     1      23.168   0.191  14.934  1.00  0.00     0.041 C 
ATOM      4  O   UNL     1      23.668  -0.904  15.303  1.00  0.00    -0.550 OA
ATOM      5  O   UNL     1      23.947   1.342  14.944  1.00  0.00    -0.550 OA
ENDBRANCH   2   3
ENDBRANCH   1   2
BRANCH   1   6
ATOM      6  C   UNL     1      21.285  -0.787  12.234  1.00  0.00     0.000 C 
BRANCH   6   7
ATOM      7  C   UNL     1      19.888  -1.350  12.543  1.00  0.00    -0.000 C 
BRANCH   7   8
ATOM      8  C   UNL     1      19.039  -1.552  11.279  1.00  0.00    -0.003 C 
ATOM      9  C   UNL     1      17.575  -1.798  11.635  1.00  0.00     0.004 C 
ENDBRANCH   7   8
ENDBRANCH   6   7
ENDBRANCH   1   6
TORSDOF 5
ENDMDL
MODEL 6
REMARK VINA RESULT:    -3.133      1.200      1.826
REMARK INTER + INTRA:          -4.213
REMARK INTER:                  -4.063
REMARK INTRA:                  -0.150
REMARK UNBOUND:                -0.164
REMARK SMILES CCCCCCC(=O)[O-]
REMARK SMILES IDX 5 1 6 2 7 3 8 4 9 5 4 6 3 7 2 8 1 9
REMARK H PARENT
REMARK Flexibility Score: inf
ROOT
ATOM      1  C   UNL     1      23.675   3.338  14.041  1.00  0.00     0.006 C 
ENDROOT
BRANCH   1   2
ATOM      2  C   UNL     1      23.992   2.192  15.011  1.00  0.00     0.053 C 
BRANCH   2   3
ATOM      3  C   UNL     1      23.196   0.961  14.700  1.00  0.00     0.041 C 
ATOM      4  O   UNL     1      23.575  -0.162  15.123  1.00  0.00    -0.550 OA
ATOM      5  O   UNL     1      22.052   1.051  13.917  1.00  0.00    -0.550 OA
ENDBRANCH   2   3
ENDBRANCH   1   2
BRANCH   1   6
ATOM      6  C   UNL     1      24.736   4.451  14.092  1.00  0.00     0.000 C 
BRANCH   6   7
ATOM      7  C   UNL     1      24.760   5.304  12.814  1.00  0.00    -0.000 C 
BRANCH   7   8
ATOM      8  C   UNL     1      23.354   5.705  12.343  1.00  0.00    -0.003 C 
ATOM      9  C   UNL     1      22.975   7.089  12.862  1.00  0.00     0.004 C 
ENDBRANCH   7   8
ENDBRANCH   6   7
ENDBRANCH   1   6
TORSDOF 5
ENDMDL
MODEL 7
REMARK VINA RESULT:    -3.108      3.483      6.548
REMARK INTER + INTRA:          -4.181
REMARK INTER:                  -3.984
REMARK INTRA:                  -0.197
REMARK UNBOUND:                -0.164
REMARK SMILES CCCCCCC(=O)[O-]
REMARK SMILES IDX 5 1 6 2 7 3 8 4 9 5 4 6 3 7 2 8 1 9
REMARK H PARENT
REMARK Flexibility Score: inf
ROOT
ATOM      1  C   UNL     1      22.703  -1.067  14.255  1.00  0.00     0.006 C 
ENDROOT
BRANCH   1   2
ATOM      2  C   UNL     1      23.530  -0.337  15.322  1.00  0.00     0.053 C 
BRANCH   2   3
ATOM      3  C   UNL     1      23.743   1.105  14.973  1.00  0.00     0.041 C 
ATOM      4  O   UNL     1      24.662   1.761  15.529  1.00  0.00    -0.550 OA
ATOM      5  O   UNL     1      22.907   1.731  14.056  1.00  0.00    -0.550 OA
ENDBRANCH   2   3
ENDBRANCH   1   2
BRANCH   1   6
ATOM      6  C   UNL     1      22.814  -2.597  14.381  1.00  0.00     0.000 C 
BRANCH   6   7
ATOM      7  C   UNL     1      23.922  -3.030  15.355  1.00  0.00    -0.000 C 
BRANCH   7   8
ATOM      8  C   UNL     1      23.380  -3.824  16.553  1.00  0.00    -0.003 C 
ATOM      9  C   UNL     1      24.355  -3.781  17.726  1.00  0.00     0.004 C 
ENDBRANCH   7   8
ENDBRANCH   6   7
ENDBRANCH   1   6
TORSDOF 5
ENDMDL
MODEL 8
REMARK VINA RESULT:    -3.072      5.763      7.698
REMARK INTER + INTRA:          -4.134
REMARK INTER:                  -4.008
REMARK INTRA:                  -0.126
REMARK UNBOUND:                -0.164
REMARK SMILES CCCCCCC(=O)[O-]
REMARK SMILES IDX 5 1 6 2 7 3 8 4 9 5 4 6 3 7 2 8 1 9
REMARK H PARENT
REMARK Flexibility Score: inf
ROOT
ATOM      1  C   UNL     1      19.258  -1.567  12.147  1.00  0.00     0.006 C 
ENDROOT
BRANCH   1   2
ATOM      2  C   UNL     1      20.683  -1.342  11.623  1.00  0.00     0.053 C 
BRANCH   2   3
ATOM      3  C   UNL     1      21.553  -0.670  12.642  1.00  0.00     0.041 C 
ATOM      4  O   UNL     1      22.286  -1.357  13.400  1.00  0.00    -0.550 OA
ATOM      5  O   UNL     1      21.531   0.713  12.773  1.00  0.00    -0.550 OA
ENDBRANCH   2   3
ENDBRANCH   1   2
BRANCH   1   6
ATOM      6  C   UNL     1      18.292  -2.003  11.032  1.00  0.00     0.000 C 
BRANCH   6   7
ATOM      7  C   UNL     1      17.392  -0.856  10.548  1.00  0.00    -0.000 C 
BRANCH   7   8
ATOM      8  C   UNL     1      15.991  -0.896  11.177  1.00  0.00    -0.003 C 
ATOM      9  C   UNL     1      15.695  -2.271  11.769  1.00  0.00     0.004 C 
ENDBRANCH   7   8
ENDBRANCH   6   7
ENDBRANCH   1   6
TORSDOF 5
ENDMDL
MODEL 9
REMARK VINA RESULT:    -2.951      8.365      9.967
REMARK INTER + INTRA:          -3.977
REMARK INTER:                  -3.779
REMARK INTRA:                  -0.198
REMARK UNBOUND:                -0.164
REMARK SMILES CCCCCCC(=O)[O-]
REMARK SMILES IDX 5 1 6 2 7 3 8 4 9 5 4 6 3 7 2 8 1 9
REMARK H PARENT
REMARK Flexibility Score: inf
ROOT
ATOM      1  C   UNL     1      16.411  -0.496  10.551  1.00  0.00     0.006 C 
ENDROOT
BRANCH   1   2
ATOM      2  C   UNL     1      15.528   0.758  10.592  1.00  0.00     0.053 C 
BRANCH   2   3
ATOM      3  C   UNL     1      14.681   0.885   9.363  1.00  0.00     0.041 C 
ATOM      4  O   UNL     1      15.130   0.521   8.244  1.00  0.00    -0.550 OA
ATOM      5  O   UNL     1      13.408   1.435   9.448  1.00  0.00    -0.550 OA
ENDBRANCH   2   3
ENDBRANCH   1   2
BRANCH   1   6
ATOM      6  C   UNL     1      16.016  -1.520  11.629  1.00  0.00     0.000 C 
BRANCH   6   7
ATOM      7  C   UNL     1      17.232  -2.234  12.241  1.00  0.00    -0.000 C 
BRANCH   7   8
ATOM      8  C   UNL     1      18.539  -1.919  11.497  1.00  0.00    -0.003 C 
ATOM      9  C   UNL     1      19.621  -1.448  12.465  1.00  0.00     0.004 C 
ENDBRANCH   7   8
ENDBRANCH   6   7
ENDBRANCH   1   6
TORSDOF 5
ENDMDL
