MODEL 1
REMARK VINA RESULT:    -6.439      0.000      0.000
REMARK INTER + INTRA:          -7.487
REMARK INTER:                  -7.569
REMARK INTRA:                   0.082
REMARK UNBOUND:                 0.082
REMARK SMILES O=c1c(O)c(-c2ccc(O)cc2)oc2cc(O)cc(O)c12
REMARK SMILES IDX 5 1 3 2 2 3 1 4 21 5 19 6 18 7 16 8 15 9 14 10 13 11 6 12
REMARK SMILES IDX 7 13 8 14 9 15 12 16 11 17 10 18 4 20 20 22 17 24
REMARK H PARENT 10 19 4 21 20 23 17 25
REMARK Flexibility Score: inf
ROOT
ATOM      1  C   UNL     1       9.760  -2.739  19.043  1.00  0.00     0.180 A 
ATOM      2  C   UNL     1      10.949  -2.193  18.528  1.00  0.00     0.208 A 
ATOM      3  C   UNL     1      11.042  -0.803  18.358  1.00  0.00     0.238 A 
ATOM      4  O   UNL     1      12.088  -0.326  17.846  1.00  0.00    -0.285 OA
ATOM      5  C   UNL     1       9.954   0.026  18.720  1.00  0.00     0.111 A 
ATOM      6  C   UNL     1       9.954   1.450  18.629  1.00  0.00     0.134 A 
ATOM      7  C   UNL     1       8.775   2.159  18.891  1.00  0.00     0.093 A 
ATOM      8  C   UNL     1       7.617   1.503  19.305  1.00  0.00     0.123 A 
ATOM      9  C   UNL     1       7.622   0.115  19.456  1.00  0.00     0.094 A 
ATOM     10  C   UNL     1       8.773  -0.623  19.166  1.00  0.00     0.146 A 
ATOM     11  O   UNL     1       8.734  -1.942  19.311  1.00  0.00    -0.452 OA
ENDROOT
BRANCH   1  12
ATOM     12  C   UNL     1       9.596  -4.192  19.274  1.00  0.00     0.021 A 
ATOM     13  C   UNL     1      10.609  -4.958  19.881  1.00  0.00     0.016 A 
ATOM     14  C   UNL     1      10.420  -6.324  20.111  1.00  0.00     0.047 A 
ATOM     15  C   UNL     1       9.217  -6.940  19.751  1.00  0.00     0.115 A 
ATOM     16  C   UNL     1       8.382  -4.813  18.934  1.00  0.00     0.016 A 
ATOM     17  C   UNL     1       8.197  -6.180  19.165  1.00  0.00     0.047 A 
BRANCH  15  18
ATOM     18  O   UNL     1       9.045  -8.302  19.984  1.00  0.00    -0.508 OA
ATOM     19  H   UNL     1       9.828  -8.904  20.207  1.00  0.00     0.293 HD
ENDBRANCH  15  18
ENDBRANCH   1  12
BRANCH   2  20
ATOM     20  O   UNL     1      12.004  -3.032  18.156  1.00  0.00    -0.502 OA
ATOM     21  H   UNL     1      12.135  -3.953  18.555  1.00  0.00     0.293 HD
ENDBRANCH   2  20
BRANCH   6  22
ATOM     22  O   UNL     1      11.083   2.211  18.313  1.00  0.00    -0.507 OA
ATOM     23  H   UNL     1      11.698   2.032  17.535  1.00  0.00     0.293 HD
ENDBRANCH   6  22
BRANCH   8  24
ATOM     24  O   UNL     1       6.466   2.242  19.572  1.00  0.00    -0.508 OA
ATOM     25  H   UNL     1       6.205   2.491  20.520  1.00  0.00     0.293 HD
ENDBRANCH   8  24
TORSDOF 5
ENDMDL
MODEL 2
REMARK VINA RESULT:    -5.913      1.235      3.104
REMARK INTER + INTRA:          -6.868
REMARK INTER:                  -7.264
REMARK INTRA:                   0.396
REMARK UNBOUND:                 0.082
REMARK SMILES O=c1c(O)c(-c2ccc(O)cc2)oc2cc(O)cc(O)c12
REMARK SMILES IDX 5 1 3 2 2 3 1 4 21 5 19 6 18 7 16 8 15 9 14 10 13 11 6 12
REMARK SMILES IDX 7 13 8 14 9 15 12 16 11 17 10 18 4 20 20 22 17 24
REMARK H PARENT 10 19 4 21 20 23 17 25
REMARK Flexibility Score: inf
ROOT
ATOM      1  C   UNL     1       8.647  -2.754  19.350  1.00  0.00     0.180 A 
ATOM      2  C   UNL     1       7.350  -2.211  19.311  1.00  0.00     0.208 A 
ATOM      3  C   UNL     1       7.194  -0.836  19.076  1.00  0.00     0.238 A 
ATOM      4  O   UNL     1       6.033  -0.348  19.096  1.00  0.00    -0.285 OA
ATOM      5  C   UNL     1       8.332  -0.023  18.865  1.00  0.00     0.111 A 
ATOM      6  C   UNL     1       8.289   1.374  18.576  1.00  0.00     0.134 A 
ATOM      7  C   UNL     1       9.482   2.104  18.516  1.00  0.00     0.093 A 
ATOM      8  C   UNL     1      10.719   1.477  18.667  1.00  0.00     0.123 A 
ATOM      9  C   UNL     1      10.776   0.100  18.890  1.00  0.00     0.094 A 
ATOM     10  C   UNL     1       9.600  -0.649  18.992  1.00  0.00     0.146 A 
ATOM     11  O   UNL     1       9.697  -1.953  19.215  1.00  0.00    -0.452 OA
ENDROOT
BRANCH   1  12
ATOM     12  C   UNL     1       8.891  -4.197  19.570  1.00  0.00     0.021 A 
ATOM     13  C   UNL     1       7.877  -5.152  19.364  1.00  0.00     0.016 A 
ATOM     14  C   UNL     1       8.140  -6.512  19.554  1.00  0.00     0.047 A 
ATOM     15  C   UNL     1       9.415  -6.937  19.937  1.00  0.00     0.115 A 
ATOM     16  C   UNL     1      10.176  -4.633  19.935  1.00  0.00     0.016 A 
ATOM     17  C   UNL     1      10.434  -5.994  20.125  1.00  0.00     0.047 A 
BRANCH  15  18
ATOM     18  O   UNL     1       9.660  -8.296  20.125  1.00  0.00    -0.508 OA
ATOM     19  H   UNL     1       8.909  -8.975  20.115  1.00  0.00     0.293 HD
ENDBRANCH  15  18
ENDBRANCH   1  12
BRANCH   2  20
ATOM     20  O   UNL     1       6.239  -3.028  19.544  1.00  0.00    -0.502 OA
ATOM     21  H   UNL     1       6.271  -3.825  20.168  1.00  0.00     0.293 HD
ENDBRANCH   2  20
BRANCH   6  22
ATOM     22  O   UNL     1       7.112   2.081  18.317  1.00  0.00    -0.507 OA
ATOM     23  H   UNL     1       6.725   2.237  17.399  1.00  0.00     0.293 HD
ENDBRANCH   6  22
BRANCH   8  24
ATOM     24  O   UNL     1      11.887   2.233  18.586  1.00  0.00    -0.508 OA
ATOM     25  H   UNL     1      12.736   1.854  18.181  1.00  0.00     0.293 HD
ENDBRANCH   8  24
TORSDOF 5
ENDMDL
MODEL 3
REMARK VINA RESULT:    -5.794      2.180      3.434
REMARK INTER + INTRA:          -6.729
REMARK INTER:                  -6.671
REMARK INTRA:                  -0.058
REMARK UNBOUND:                 0.082
REMARK SMILES O=c1c(O)c(-c2ccc(O)cc2)oc2cc(O)cc(O)c12
REMARK SMILES IDX 5 1 3 2 2 3 1 4 21 5 19 6 18 7 16 8 15 9 14 10 13 11 6 12
REMARK SMILES IDX 7 13 8 14 9 15 12 16 11 17 10 18 4 20 20 22 17 24
REMARK H PARENT 10 19 4 21 20 23 17 25
REMARK Flexibility Score: inf
ROOT
ATOM      1  C   UNL     1      10.244  -2.338  18.934  1.00  0.00     0.180 A 
ATOM      2  C   UNL     1       9.009  -2.799  18.443  1.00  0.00     0.208 A 
ATOM      3  C   UNL     1       7.950  -1.889  18.303  1.00  0.00     0.238 A 
ATOM      4  O   UNL     1       6.832  -2.319  17.914  1.00  0.00    -0.285 OA
ATOM      5  C   UNL     1       8.140  -0.528  18.639  1.00  0.00     0.111 A 
ATOM      6  C   UNL     1       7.149   0.489  18.498  1.00  0.00     0.134 A 
ATOM      7  C   UNL     1       7.405   1.777  18.984  1.00  0.00     0.093 A 
ATOM      8  C   UNL     1       8.640   2.102  19.546  1.00  0.00     0.123 A 
ATOM      9  C   UNL     1       9.639   1.131  19.635  1.00  0.00     0.094 A 
ATOM     10  C   UNL     1       9.399  -0.173  19.191  1.00  0.00     0.146 A 
ATOM     11  O   UNL     1      10.371  -1.069  19.303  1.00  0.00    -0.452 OA
ENDROOT
BRANCH   1  12
ATOM     12  C   UNL     1      11.414  -3.232  19.087  1.00  0.00     0.021 A 
ATOM     13  C   UNL     1      12.631  -2.963  18.433  1.00  0.00     0.016 A 
ATOM     14  C   UNL     1      13.731  -3.808  18.612  1.00  0.00     0.047 A 
ATOM     15  C   UNL     1      13.635  -4.921  19.453  1.00  0.00     0.115 A 
ATOM     16  C   UNL     1      11.332  -4.339  19.947  1.00  0.00     0.016 A 
ATOM     17  C   UNL     1      12.433  -5.183  20.123  1.00  0.00     0.047 A 
BRANCH  15  18
ATOM     18  O   UNL     1      14.738  -5.755  19.620  1.00  0.00    -0.508 OA
ATOM     19  H   UNL     1      15.449  -5.559  20.315  1.00  0.00     0.293 HD
ENDBRANCH  15  18
ENDBRANCH   1  12
BRANCH   2  20
ATOM     20  O   UNL     1       8.835  -4.152  18.138  1.00  0.00    -0.502 OA
ATOM     21  H   UNL     1       8.302  -4.465  17.336  1.00  0.00     0.293 HD
ENDBRANCH   2  20
BRANCH   6  22
ATOM     22  O   UNL     1       5.916   0.294  17.869  1.00  0.00    -0.507 OA
ATOM     23  H   UNL     1       5.794  -0.132  16.962  1.00  0.00     0.293 HD
ENDBRANCH   6  22
BRANCH   8  24
ATOM     24  O   UNL     1       8.866   3.397  20.006  1.00  0.00    -0.508 OA
ATOM     25  H   UNL     1       8.610   3.678  20.946  1.00  0.00     0.293 HD
ENDBRANCH   8  24
TORSDOF 5
ENDMDL
MODEL 4
REMARK VINA RESULT:    -5.643      2.946      5.236
REMARK INTER + INTRA:          -6.552
REMARK INTER:                  -7.046
REMARK INTRA:                   0.495
REMARK UNBOUND:                 0.082
REMARK SMILES O=c1c(O)c(-c2ccc(O)cc2)oc2cc(O)cc(O)c12
REMARK SMILES IDX 5 1 3 2 2 3 1 4 21 5 19 6 18 7 16 8 15 9 14 10 13 11 6 12
REMARK SMILES IDX 7 13 8 14 9 15 12 16 11 17 10 18 4 20 20 22 17 24
REMARK H PARENT 10 19 4 21 20 23 17 25
REMARK Flexibility Score: inf
ROOT
ATOM      1  C   UNL     1      10.682  -4.345  19.784  1.00  0.00     0.180 A 
ATOM      2  C   UNL     1      10.587  -2.953  19.613  1.00  0.00     0.208 A 
ATOM      3  C   UNL     1      11.766  -2.197  19.515  1.00  0.00     0.238 A 
ATOM      4  O   UNL     1      11.675  -0.946  19.416  1.00  0.00    -0.285 OA
ATOM      5  C   UNL     1      13.025  -2.842  19.571  1.00  0.00     0.111 A 
ATOM      6  C   UNL     1      14.282  -2.181  19.441  1.00  0.00     0.134 A 
ATOM      7  C   UNL     1      15.466  -2.900  19.644  1.00  0.00     0.093 A 
ATOM      8  C   UNL     1      15.441  -4.269  19.906  1.00  0.00     0.123 A 
ATOM      9  C   UNL     1      14.218  -4.939  19.977  1.00  0.00     0.094 A 
ATOM     10  C   UNL     1      13.018  -4.241  19.815  1.00  0.00     0.146 A 
ATOM     11  O   UNL     1      11.877  -4.913  19.900  1.00  0.00    -0.452 OA
ENDROOT
BRANCH   1  12
ATOM     12  C   UNL     1       9.486  -5.212  19.872  1.00  0.00     0.021 A 
ATOM     13  C   UNL     1       8.189  -4.667  19.936  1.00  0.00     0.016 A 
ATOM     14  C   UNL     1       7.073  -5.507  19.993  1.00  0.00     0.047 A 
ATOM     15  C   UNL     1       7.233  -6.896  19.974  1.00  0.00     0.115 A 
ATOM     16  C   UNL     1       9.638  -6.608  19.831  1.00  0.00     0.016 A 
ATOM     17  C   UNL     1       8.519  -7.444  19.889  1.00  0.00     0.047 A 
BRANCH  15  18
ATOM     18  O   UNL     1       6.111  -7.719  20.034  1.00  0.00    -0.508 OA
ATOM     19  H   UNL     1       6.193  -8.728  20.008  1.00  0.00     0.293 HD
ENDBRANCH  15  18
ENDBRANCH   1  12
BRANCH   2  20
ATOM     20  O   UNL     1       9.335  -2.332  19.582  1.00  0.00    -0.502 OA
ATOM     21  H   UNL     1       9.015  -1.715  20.318  1.00  0.00     0.293 HD
ENDBRANCH   2  20
BRANCH   6  22
ATOM     22  O   UNL     1      14.422  -0.835  19.090  1.00  0.00    -0.507 OA
ATOM     23  H   UNL     1      13.824  -0.090  19.415  1.00  0.00     0.293 HD
ENDBRANCH   6  22
BRANCH   8  24
ATOM     24  O   UNL     1      16.639  -4.957  20.087  1.00  0.00    -0.508 OA
ATOM     25  H   UNL     1      17.222  -5.222  19.301  1.00  0.00     0.293 HD
ENDBRANCH   8  24
TORSDOF 5
ENDMDL
MODEL 5
REMARK VINA RESULT:    -5.573      2.025      3.066
REMARK INTER + INTRA:          -6.469
REMARK INTER:                  -7.004
REMARK INTRA:                   0.535
REMARK UNBOUND:                 0.082
REMARK SMILES O=c1c(O)c(-c2ccc(O)cc2)oc2cc(O)cc(O)c12
REMARK SMILES IDX 5 1 3 2 2 3 1 4 21 5 19 6 18 7 16 8 15 9 14 10 13 11 6 12
REMARK SMILES IDX 7 13 8 14 9 15 12 16 11 17 10 18 4 20 20 22 17 24
REMARK H PARENT 10 19 4 21 20 23 17 25
REMARK Flexibility Score: inf
ROOT
ATOM      1  C   UNL     1      10.323  -3.895  19.612  1.00  0.00     0.180 A 
ATOM      2  C   UNL     1      11.685  -4.225  19.723  1.00  0.00     0.208 A 
ATOM      3  C   UNL     1      12.645  -3.210  19.586  1.00  0.00     0.238 A 
ATOM      4  O   UNL     1      13.864  -3.522  19.633  1.00  0.00    -0.285 OA
ATOM      5  C   UNL     1      12.234  -1.876  19.358  1.00  0.00     0.111 A 
ATOM      6  C   UNL     1      13.118  -0.762  19.245  1.00  0.00     0.134 A 
ATOM      7  C   UNL     1      12.609   0.492  18.887  1.00  0.00     0.093 A 
ATOM      8  C   UNL     1      11.240   0.688  18.705  1.00  0.00     0.123 A 
ATOM      9  C   UNL     1      10.358  -0.382  18.871  1.00  0.00     0.094 A 
ATOM     10  C   UNL     1      10.841  -1.653  19.192  1.00  0.00     0.146 A 
ATOM     11  O   UNL     1       9.971  -2.645  19.331  1.00  0.00    -0.452 OA
ENDROOT
BRANCH   1  12
ATOM     12  C   UNL     1       9.251  -4.904  19.768  1.00  0.00     0.021 A 
ATOM     13  C   UNL     1       7.900  -4.527  19.877  1.00  0.00     0.016 A 
ATOM     14  C   UNL     1       6.903  -5.500  19.998  1.00  0.00     0.047 A 
ATOM     15  C   UNL     1       7.239  -6.857  20.000  1.00  0.00     0.115 A 
ATOM     16  C   UNL     1       9.580  -6.270  19.749  1.00  0.00     0.016 A 
ATOM     17  C   UNL     1       8.580  -7.240  19.872  1.00  0.00     0.047 A 
BRANCH  15  18
ATOM     18  O   UNL     1       6.235  -7.815  20.124  1.00  0.00    -0.508 OA
ATOM     19  H   UNL     1       5.498  -7.723  20.812  1.00  0.00     0.293 HD
ENDBRANCH  15  18
ENDBRANCH   1  12
BRANCH   2  20
ATOM     20  O   UNL     1      12.071  -5.553  19.927  1.00  0.00    -0.502 OA
ATOM     21  H   UNL     1      12.622  -6.070  19.252  1.00  0.00     0.293 HD
ENDBRANCH   2  20
BRANCH   6  22
ATOM     22  O   UNL     1      14.492  -0.829  19.496  1.00  0.00    -0.507 OA
ATOM     23  H   UNL     1      14.957  -1.602  19.946  1.00  0.00     0.293 HD
ENDBRANCH   6  22
BRANCH   8  24
ATOM     24  O   UNL     1      10.766   1.953  18.365  1.00  0.00    -0.508 OA
ATOM     25  H   UNL     1      11.343   2.617  17.860  1.00  0.00     0.293 HD
ENDBRANCH   8  24
TORSDOF 5
ENDMDL
MODEL 6
REMARK VINA RESULT:    -5.555      1.509      6.569
REMARK INTER + INTRA:          -6.448
REMARK INTER:                  -6.487
REMARK INTRA:                   0.039
REMARK UNBOUND:                 0.082
REMARK SMILES O=c1c(O)c(-c2ccc(O)cc2)oc2cc(O)cc(O)c12
REMARK SMILES IDX 5 1 3 2 2 3 1 4 21 5 19 6 18 7 16 8 15 9 14 10 13 11 6 12
REMARK SMILES IDX 7 13 8 14 9 15 12 16 11 17 10 18 4 20 20 22 17 24
REMARK H PARENT 10 19 4 21 20 23 17 25
REMARK Flexibility Score: inf
ROOT
ATOM      1  C   UNL     1       9.371  -1.888  19.430  1.00  0.00     0.180 A 
ATOM      2  C   UNL     1      10.736  -2.141  19.655  1.00  0.00     0.208 A 
ATOM      3  C   UNL     1      11.157  -3.463  19.870  1.00  0.00     0.238 A 
ATOM      4  O   UNL     1      12.371  -3.676  20.125  1.00  0.00    -0.285 OA
ATOM      5  C   UNL     1      10.214  -4.518  19.840  1.00  0.00     0.111 A 
ATOM      6  C   UNL     1      10.535  -5.898  20.004  1.00  0.00     0.134 A 
ATOM      7  C   UNL     1       9.504  -6.842  20.087  1.00  0.00     0.093 A 
ATOM      8  C   UNL     1       8.169  -6.466  19.946  1.00  0.00     0.123 A 
ATOM      9  C   UNL     1       7.846  -5.125  19.726  1.00  0.00     0.094 A 
ATOM     10  C   UNL     1       8.851  -4.155  19.674  1.00  0.00     0.146 A 
ATOM     11  O   UNL     1       8.502  -2.891  19.474  1.00  0.00    -0.452 OA
ENDROOT
BRANCH   1  12
ATOM     12  C   UNL     1       8.854  -0.525  19.172  1.00  0.00     0.021 A 
ATOM     13  C   UNL     1       8.023  -0.253  18.069  1.00  0.00     0.016 A 
ATOM     14  C   UNL     1       7.527   1.037  17.860  1.00  0.00     0.047 A 
ATOM     15  C   UNL     1       7.842   2.066  18.752  1.00  0.00     0.115 A 
ATOM     16  C   UNL     1       9.149   0.509  20.076  1.00  0.00     0.016 A 
ATOM     17  C   UNL     1       8.652   1.798  19.863  1.00  0.00     0.047 A 
BRANCH  15  18
ATOM     18  O   UNL     1       7.342   3.347  18.529  1.00  0.00    -0.508 OA
ATOM     19  H   UNL     1       7.105   3.964  19.297  1.00  0.00     0.293 HD
ENDBRANCH  15  18
ENDBRANCH   1  12
BRANCH   2  20
ATOM     20  O   UNL     1      11.648  -1.083  19.703  1.00  0.00    -0.502 OA
ATOM     21  H   UNL     1      11.357  -0.113  19.712  1.00  0.00     0.293 HD
ENDBRANCH   2  20
BRANCH   6  22
ATOM     22  O   UNL     1      11.841  -6.393  20.063  1.00  0.00    -0.507 OA
ATOM     23  H   UNL     1      12.096  -7.360  19.929  1.00  0.00     0.293 HD
ENDBRANCH   6  22
BRANCH   8  24
ATOM     24  O   UNL     1       7.170  -7.434  20.019  1.00  0.00    -0.508 OA
ATOM     25  H   UNL     1       6.892  -7.971  19.204  1.00  0.00     0.293 HD
ENDBRANCH   8  24
TORSDOF 5
ENDMDL
MODEL 7
REMARK VINA RESULT:    -5.541      2.989      6.061
REMARK INTER + INTRA:          -6.431
REMARK INTER:                  -6.915
REMARK INTRA:                   0.484
REMARK UNBOUND:                 0.082
REMARK SMILES O=c1c(O)c(-c2ccc(O)cc2)oc2cc(O)cc(O)c12
REMARK SMILES IDX 5 1 3 2 2 3 1 4 21 5 19 6 18 7 16 8 15 9 14 10 13 11 6 12
REMARK SMILES IDX 7 13 8 14 9 15 12 16 11 17 10 18 4 20 20 22 17 24
REMARK H PARENT 10 19 4 21 20 23 17 25
REMARK Flexibility Score: inf
ROOT
ATOM      1  C   UNL     1      12.330  -3.531  19.131  1.00  0.00     0.180 A 
ATOM      2  C   UNL     1      11.598  -2.504  18.509  1.00  0.00     0.208 A 
ATOM      3  C   UNL     1      10.209  -2.651  18.365  1.00  0.00     0.238 A 
ATOM      4  O   UNL     1       9.567  -1.753  17.760  1.00  0.00    -0.285 OA
ATOM      5  C   UNL     1       9.567  -3.811  18.859  1.00  0.00     0.111 A 
ATOM      6  C   UNL     1       8.160  -4.045  18.805  1.00  0.00     0.134 A 
ATOM      7  C   UNL     1       7.650  -5.286  19.206  1.00  0.00     0.093 A 
ATOM      8  C   UNL     1       8.486  -6.276  19.721  1.00  0.00     0.123 A 
ATOM      9  C   UNL     1       9.857  -6.036  19.835  1.00  0.00     0.094 A 
ATOM     10  C   UNL     1      10.400  -4.821  19.409  1.00  0.00     0.146 A 
ATOM     11  O   UNL     1      11.709  -4.636  19.524  1.00  0.00    -0.452 OA
ENDROOT
BRANCH   1  12
ATOM     12  C   UNL     1      13.793  -3.439  19.341  1.00  0.00     0.021 A 
ATOM     13  C   UNL     1      14.503  -2.259  19.048  1.00  0.00     0.016 A 
ATOM     14  C   UNL     1      15.880  -2.189  19.278  1.00  0.00     0.047 A 
ATOM     15  C   UNL     1      16.563  -3.286  19.813  1.00  0.00     0.115 A 
ATOM     16  C   UNL     1      14.482  -4.530  19.897  1.00  0.00     0.016 A 
ATOM     17  C   UNL     1      15.859  -4.456  20.125  1.00  0.00     0.047 A 
BRANCH  15  18
ATOM     18  O   UNL     1      17.936  -3.201  20.034  1.00  0.00    -0.508 OA
ATOM     19  H   UNL     1      18.603  -3.379  19.293  1.00  0.00     0.293 HD
ENDBRANCH  15  18
ENDBRANCH   1  12
BRANCH   2  20
ATOM     20  O   UNL     1      12.254  -1.376  18.008  1.00  0.00    -0.502 OA
ATOM     21  H   UNL     1      13.162  -1.081  18.344  1.00  0.00     0.293 HD
ENDBRANCH   2  20
BRANCH   6  22
ATOM     22  O   UNL     1       7.226  -3.090  18.393  1.00  0.00    -0.507 OA
ATOM     23  H   UNL     1       6.668  -2.526  19.015  1.00  0.00     0.293 HD
ENDBRANCH   6  22
BRANCH   8  24
ATOM     24  O   UNL     1       7.942  -7.493  20.125  1.00  0.00    -0.508 OA
ATOM     25  H   UNL     1       7.830  -8.265  19.476  1.00  0.00     0.293 HD
ENDBRANCH   8  24
TORSDOF 5
ENDMDL
MODEL 8
REMARK VINA RESULT:    -5.246      4.742      6.900
REMARK INTER + INTRA:          -6.084
REMARK INTER:                  -6.427
REMARK INTRA:                   0.343
REMARK UNBOUND:                 0.082
REMARK SMILES O=c1c(O)c(-c2ccc(O)cc2)oc2cc(O)cc(O)c12
REMARK SMILES IDX 5 1 3 2 2 3 1 4 21 5 19 6 18 7 16 8 15 9 14 10 13 11 6 12
REMARK SMILES IDX 7 13 8 14 9 15 12 16 11 17 10 18 4 20 20 22 17 24
REMARK H PARENT 10 19 4 21 20 23 17 25
REMARK Flexibility Score: inf
ROOT
ATOM      1  C   UNL     1      15.010  -2.927  19.170  1.00  0.00     0.180 A 
ATOM      2  C   UNL     1      14.392  -4.121  19.579  1.00  0.00     0.208 A 
ATOM      3  C   UNL     1      12.994  -4.228  19.494  1.00  0.00     0.238 A 
ATOM      4  O   UNL     1      12.443  -5.279  19.913  1.00  0.00    -0.285 OA
ATOM      5  C   UNL     1      12.234  -3.148  18.986  1.00  0.00     0.111 A 
ATOM      6  C   UNL     1      10.817  -3.162  18.817  1.00  0.00     0.134 A 
ATOM      7  C   UNL     1      10.156  -1.990  18.429  1.00  0.00     0.093 A 
ATOM      8  C   UNL     1      10.865  -0.825  18.139  1.00  0.00     0.123 A 
ATOM      9  C   UNL     1      12.257  -0.817  18.243  1.00  0.00     0.094 A 
ATOM     10  C   UNL     1      12.942  -1.960  18.664  1.00  0.00     0.146 A 
ATOM     11  O   UNL     1      14.264  -1.908  18.760  1.00  0.00    -0.452 OA
ENDROOT
BRANCH   1  12
ATOM     12  C   UNL     1      16.479  -2.747  19.206  1.00  0.00     0.021 A 
ATOM     13  C   UNL     1      17.281  -3.451  20.125  1.00  0.00     0.016 A 
ATOM     14  C   UNL     1      18.669  -3.283  20.124  1.00  0.00     0.047 A 
ATOM     15  C   UNL     1      19.275  -2.425  19.201  1.00  0.00     0.115 A 
ATOM     16  C   UNL     1      17.097  -1.903  18.269  1.00  0.00     0.016 A 
ATOM     17  C   UNL     1      18.485  -1.737  18.272  1.00  0.00     0.047 A 
BRANCH  15  18
ATOM     18  O   UNL     1      20.659  -2.267  19.214  1.00  0.00    -0.508 OA
ATOM     19  H   UNL     1      21.252  -2.742  18.546  1.00  0.00     0.293 HD
ENDBRANCH  15  18
ENDBRANCH   1  12
BRANCH   2  20
ATOM     20  O   UNL     1      15.159  -5.168  20.099  1.00  0.00    -0.502 OA
ATOM     21  H   UNL     1      14.755  -6.056  20.371  1.00  0.00     0.293 HD
ENDBRANCH   2  20
BRANCH   6  22
ATOM     22  O   UNL     1      10.022  -4.298  18.991  1.00  0.00    -0.507 OA
ATOM     23  H   UNL     1       9.523  -4.527  19.837  1.00  0.00     0.293 HD
ENDBRANCH   6  22
BRANCH   8  24
ATOM     24  O   UNL     1      10.175   0.318  17.741  1.00  0.00    -0.508 OA
ATOM     25  H   UNL     1       9.655   0.347  16.871  1.00  0.00     0.293 HD
ENDBRANCH   8  24
TORSDOF 5
ENDMDL
MODEL 9
REMARK VINA RESULT:    -5.181      4.170      5.918
REMARK INTER + INTRA:          -6.008
REMARK INTER:                  -6.008
REMARK INTRA:                   0.000
REMARK UNBOUND:                 0.082
REMARK SMILES O=c1c(O)c(-c2ccc(O)cc2)oc2cc(O)cc(O)c12
REMARK SMILES IDX 5 1 3 2 2 3 1 4 21 5 19 6 18 7 16 8 15 9 14 10 13 11 6 12
REMARK SMILES IDX 7 13 8 14 9 15 12 16 11 17 10 18 4 20 20 22 17 24
REMARK H PARENT 10 19 4 21 20 23 17 25
REMARK Flexibility Score: inf
ROOT
ATOM      1  C   UNL     1      14.378  -2.032  19.056  1.00  0.00     0.180 A 
ATOM      2  C   UNL     1      13.400  -2.876  18.501  1.00  0.00     0.208 A 
ATOM      3  C   UNL     1      12.098  -2.382  18.321  1.00  0.00     0.238 A 
ATOM      4  O   UNL     1      11.215  -3.160  17.874  1.00  0.00    -0.285 OA
ATOM      5  C   UNL     1      11.793  -1.048  18.681  1.00  0.00     0.111 A 
ATOM      6  C   UNL     1      10.519  -0.431  18.503  1.00  0.00     0.134 A 
ATOM      7  C   UNL     1      10.295   0.852  19.016  1.00  0.00     0.093 A 
ATOM      8  C   UNL     1      11.317   1.567  19.640  1.00  0.00     0.123 A 
ATOM      9  C   UNL     1      12.585   0.997  19.766  1.00  0.00     0.094 A 
ATOM     10  C   UNL     1      12.829  -0.297  19.297  1.00  0.00     0.146 A 
ATOM     11  O   UNL     1      14.045  -0.807  19.445  1.00  0.00    -0.452 OA
ENDROOT
BRANCH   1  12
ATOM     12  C   UNL     1      15.778  -2.471  19.255  1.00  0.00     0.021 A 
ATOM     13  C   UNL     1      16.083  -3.646  19.969  1.00  0.00     0.016 A 
ATOM     14  C   UNL     1      17.411  -4.054  20.122  1.00  0.00     0.047 A 
ATOM     15  C   UNL     1      18.448  -3.306  19.556  1.00  0.00     0.115 A 
ATOM     16  C   UNL     1      16.823  -1.736  18.672  1.00  0.00     0.016 A 
ATOM     17  C   UNL     1      18.151  -2.147  18.828  1.00  0.00     0.047 A 
BRANCH  15  18
ATOM     18  O   UNL     1      19.767  -3.724  19.720  1.00  0.00    -0.508 OA
ATOM     19  H   UNL     1      19.992  -4.592  20.189  1.00  0.00     0.293 HD
ENDBRANCH  15  18
ENDBRANCH   1  12
BRANCH   2  20
ATOM     20  O   UNL     1      13.716  -4.197  18.173  1.00  0.00    -0.502 OA
ATOM     21  H   UNL     1      14.372  -4.750  18.712  1.00  0.00     0.293 HD
ENDBRANCH   2  20
BRANCH   6  22
ATOM     22  O   UNL     1       9.456  -1.021  17.814  1.00  0.00    -0.507 OA
ATOM     23  H   UNL     1       8.562  -0.583  17.651  1.00  0.00     0.293 HD
ENDBRANCH   6  22
BRANCH   8  24
ATOM     24  O   UNL     1      11.063   2.848  20.125  1.00  0.00    -0.508 OA
ATOM     25  H   UNL     1      10.212   3.346  19.887  1.00  0.00     0.293 HD
ENDBRANCH   8  24
TORSDOF 5
ENDMDL
