MODEL 1
REMARK VINA RESULT:    -4.477      0.000      0.000
REMARK INTER + INTRA:          -6.685
REMARK INTER:                  -6.047
REMARK INTRA:                  -0.638
REMARK UNBOUND:                -0.638
REMARK SMILES COc1ccc(-c2cc(=O)c3c(OC)c(OC)c(OC)c(OC)c3o2)cc1
REMARK SMILES IDX 7 1 8 2 9 3 10 4 11 5 24 6 25 7 21 8 18 9 15 10 12 11 6 12
REMARK SMILES IDX 3 13 4 14 27 15 5 16 26 17 2 18 1 19 22 20 23 21 13 22 14 23
REMARK SMILES IDX 19 24 20 25 16 26 17 27
REMARK H PARENT
REMARK Flexibility Score: inf
ROOT
ATOM      1  C   UNL     1       2.282  13.701  75.773  1.00  0.00     0.138 A 
ATOM      2  C   UNL     1       1.161  12.908  76.035  1.00  0.00     0.100 A 
ATOM      3  C   UNL     1       1.256  11.526  75.896  1.00  0.00     0.197 A 
ATOM      4  O   UNL     1       0.234  10.829  76.137  1.00  0.00    -0.289 OA
ATOM      5  C   UNL     1       2.479  10.940  75.488  1.00  0.00     0.115 A 
ATOM      6  C   UNL     1       3.575  11.805  75.255  1.00  0.00     0.188 A 
ATOM      7  O   UNL     1       3.421  13.120  75.408  1.00  0.00    -0.452 OA
ATOM      8  C   UNL     1       4.823  11.284  74.846  1.00  0.00     0.209 A 
ATOM      9  C   UNL     1       4.961   9.890  74.618  1.00  0.00     0.211 A 
ATOM     10  C   UNL     1       3.866   9.020  74.869  1.00  0.00     0.208 A 
ATOM     11  C   UNL     1       2.635   9.545  75.329  1.00  0.00     0.179 A 
ENDROOT
BRANCH   1  12
ATOM     12  C   UNL     1       2.231  15.179  75.897  1.00  0.00     0.018 A 
ATOM     13  C   UNL     1       2.086  17.987  76.160  1.00  0.00     0.118 A 
ATOM     14  C   UNL     1       0.969  17.255  75.720  1.00  0.00     0.047 A 
ATOM     15  C   UNL     1       3.267  17.304  76.474  1.00  0.00     0.047 A 
ATOM     16  C   UNL     1       1.043  15.864  75.592  1.00  0.00     0.016 A 
ATOM     17  C   UNL     1       3.343  15.916  76.350  1.00  0.00     0.016 A 
BRANCH  13  18
ATOM     18  O   UNL     1       2.064  19.382  76.304  1.00  0.00    -0.497 OA
ATOM     19  C   UNL     1       1.422  20.069  77.373  1.00  0.00     0.278 C 
ENDBRANCH  13  18
ENDBRANCH   1  12
BRANCH   8  20
ATOM     20  O   UNL     1       5.945  12.111  74.648  1.00  0.00    -0.490 OA
ATOM     21  C   UNL     1       6.913  12.490  75.618  1.00  0.00     0.278 C 
ENDBRANCH   8  20
BRANCH  11  22
ATOM     22  O   UNL     1       1.533   8.715  75.625  1.00  0.00    -0.492 OA
ATOM     23  C   UNL     1       0.767   7.955  74.695  1.00  0.00     0.278 C 
ENDBRANCH  11  22
BRANCH   9  24
ATOM     24  O   UNL     1       6.159   9.321  74.144  1.00  0.00    -0.490 OA
ATOM     25  C   UNL     1       7.240   8.793  74.903  1.00  0.00     0.279 C 
ENDBRANCH   9  24
BRANCH  10  26
ATOM     26  O   UNL     1       3.935   7.629  74.648  1.00  0.00    -0.490 OA
ATOM     27  C   UNL     1       4.309   6.613  75.573  1.00  0.00     0.278 C 
ENDBRANCH  10  26
TORSDOF 6
ENDMDL
MODEL 2
REMARK VINA RESULT:    -4.463      1.833      4.516
REMARK INTER + INTRA:          -6.667
REMARK INTER:                  -6.022
REMARK INTRA:                  -0.645
REMARK UNBOUND:                -0.638
REMARK SMILES COc1ccc(-c2cc(=O)c3c(OC)c(OC)c(OC)c(OC)c3o2)cc1
REMARK SMILES IDX 7 1 8 2 9 3 10 4 11 5 24 6 25 7 21 8 18 9 15 10 12 11 6 12
REMARK SMILES IDX 3 13 4 14 27 15 5 16 26 17 2 18 1 19 22 20 23 21 13 22 14 23
REMARK SMILES IDX 19 24 20 25 16 26 17 27
REMARK H PARENT
REMARK Flexibility Score: inf
ROOT
ATOM      1  C   UNL     1       2.640  16.520  75.792  1.00  0.00     0.138 A 
ATOM      2  C   UNL     1       3.904  16.761  75.246  1.00  0.00     0.100 A 
ATOM      3  C   UNL     1       4.713  15.684  74.897  1.00  0.00     0.197 A 
ATOM      4  O   UNL     1       5.849  15.923  74.406  1.00  0.00    -0.289 OA
ATOM      5  C   UNL     1       4.253  14.361  75.102  1.00  0.00     0.115 A 
ATOM      6  C   UNL     1       2.956  14.194  75.645  1.00  0.00     0.188 A 
ATOM      7  O   UNL     1       2.229  15.266  75.956  1.00  0.00    -0.452 OA
ATOM      8  C   UNL     1       2.438  12.900  75.874  1.00  0.00     0.209 A 
ATOM      9  C   UNL     1       3.244  11.762  75.606  1.00  0.00     0.211 A 
ATOM     10  C   UNL     1       4.539  11.929  75.043  1.00  0.00     0.208 A 
ATOM     11  C   UNL     1       5.029  13.228  74.768  1.00  0.00     0.179 A 
ENDROOT
BRANCH   1  12
ATOM     12  C   UNL     1       1.743  17.634  76.189  1.00  0.00     0.018 A 
ATOM     13  C   UNL     1       0.072  19.788  76.927  1.00  0.00     0.118 A 
ATOM     14  C   UNL     1       1.433  19.787  77.284  1.00  0.00     0.047 A 
ATOM     15  C   UNL     1      -0.440  18.711  76.195  1.00  0.00     0.047 A 
ATOM     16  C   UNL     1       2.258  18.720  76.915  1.00  0.00     0.016 A 
ATOM     17  C   UNL     1       0.382  17.645  75.824  1.00  0.00     0.016 A 
BRANCH  13  18
ATOM     18  O   UNL     1      -0.797  20.833  77.273  1.00  0.00    -0.497 OA
ATOM     19  C   UNL     1      -2.217  20.734  77.262  1.00  0.00     0.278 C 
ENDBRANCH  13  18
ENDBRANCH   1  12
BRANCH   8  20
ATOM     20  O   UNL     1       1.137  12.697  76.372  1.00  0.00    -0.490 OA
ATOM     21  C   UNL     1      -0.067  12.617  75.620  1.00  0.00     0.278 C 
ENDBRANCH   8  20
BRANCH  11  22
ATOM     22  O   UNL     1       6.293  13.439  74.178  1.00  0.00    -0.492 OA
ATOM     23  C   UNL     1       7.562  13.158  74.762  1.00  0.00     0.278 C 
ENDBRANCH  11  22
BRANCH   9  24
ATOM     24  O   UNL     1       2.808  10.451  75.877  1.00  0.00    -0.490 OA
ATOM     25  C   UNL     1       2.051   9.586  75.039  1.00  0.00     0.279 C 
ENDBRANCH   9  24
BRANCH  10  26
ATOM     26  O   UNL     1       5.392  10.842  74.767  1.00  0.00    -0.490 OA
ATOM     27  C   UNL     1       5.488  10.087  73.564  1.00  0.00     0.278 C 
ENDBRANCH  10  26
TORSDOF 6
ENDMDL
MODEL 3
REMARK VINA RESULT:    -4.448      2.452      5.278
REMARK INTER + INTRA:          -6.646
REMARK INTER:                  -5.937
REMARK INTRA:                  -0.709
REMARK UNBOUND:                -0.638
REMARK SMILES COc1ccc(-c2cc(=O)c3c(OC)c(OC)c(OC)c(OC)c3o2)cc1
REMARK SMILES IDX 7 1 8 2 9 3 10 4 11 5 24 6 25 7 21 8 18 9 15 10 12 11 6 12
REMARK SMILES IDX 3 13 4 14 27 15 5 16 26 17 2 18 1 19 22 20 23 21 13 22 14 23
REMARK SMILES IDX 19 24 20 25 16 26 17 27
REMARK H PARENT
REMARK Flexibility Score: inf
ROOT
ATOM      1  C   UNL     1       1.917  17.219  75.846  1.00  0.00     0.138 A 
ATOM      2  C   UNL     1       3.061  17.843  75.341  1.00  0.00     0.100 A 
ATOM      3  C   UNL     1       4.158  17.067  74.980  1.00  0.00     0.197 A 
ATOM      4  O   UNL     1       5.180  17.648  74.525  1.00  0.00    -0.289 OA
ATOM      5  C   UNL     1       4.108  15.660  75.132  1.00  0.00     0.115 A 
ATOM      6  C   UNL     1       2.911  15.098  75.637  1.00  0.00     0.188 A 
ATOM      7  O   UNL     1       1.894  15.894  75.961  1.00  0.00    -0.452 OA
ATOM      8  C   UNL     1       2.796  13.700  75.813  1.00  0.00     0.209 A 
ATOM      9  C   UNL     1       3.907  12.863  75.531  1.00  0.00     0.211 A 
ATOM     10  C   UNL     1       5.103  13.425  75.008  1.00  0.00     0.208 A 
ATOM     11  C   UNL     1       5.191  14.820  74.785  1.00  0.00     0.179 A 
ENDROOT
BRANCH   1  12
ATOM     12  C   UNL     1       0.724  18.002  76.254  1.00  0.00     0.018 A 
ATOM     13  C   UNL     1      -1.532  19.531  76.993  1.00  0.00     0.118 A 
ATOM     14  C   UNL     1      -0.263  20.130  76.909  1.00  0.00     0.047 A 
ATOM     15  C   UNL     1      -1.663  18.169  76.699  1.00  0.00     0.047 A 
ATOM     16  C   UNL     1       0.853  19.371  76.540  1.00  0.00     0.016 A 
ATOM     17  C   UNL     1      -0.552  17.409  76.328  1.00  0.00     0.016 A 
BRANCH  13  18
ATOM     18  O   UNL     1      -2.680  20.248  77.359  1.00  0.00    -0.497 OA
ATOM     19  C   UNL     1      -3.788  19.689  78.058  1.00  0.00     0.278 C 
ENDBRANCH  13  18
ENDBRANCH   1  12
BRANCH   8  20
ATOM     20  O   UNL     1       1.606  13.104  76.271  1.00  0.00    -0.490 OA
ATOM     21  C   UNL     1       0.508  12.663  75.482  1.00  0.00     0.278 C 
ENDBRANCH   8  20
BRANCH  11  22
ATOM     22  O   UNL     1       6.344  15.417  74.235  1.00  0.00    -0.492 OA
ATOM     23  C   UNL     1       6.816  15.283  72.898  1.00  0.00     0.278 C 
ENDBRANCH  11  22
BRANCH   9  24
ATOM     24  O   UNL     1       3.875  11.472  75.752  1.00  0.00    -0.490 OA
ATOM     25  C   UNL     1       3.509  10.446  74.837  1.00  0.00     0.279 C 
ENDBRANCH   9  24
BRANCH  10  26
ATOM     26  O   UNL     1       6.244  12.650  74.721  1.00  0.00    -0.490 OA
ATOM     27  C   UNL     1       7.308  12.299  75.599  1.00  0.00     0.278 C 
ENDBRANCH  10  26
TORSDOF 6
ENDMDL
MODEL 4
REMARK VINA RESULT:    -4.435      1.842      4.399
REMARK INTER + INTRA:          -6.629
REMARK INTER:                  -5.991
REMARK INTRA:                  -0.638
REMARK UNBOUND:                -0.638
REMARK SMILES COc1ccc(-c2cc(=O)c3c(OC)c(OC)c(OC)c(OC)c3o2)cc1
REMARK SMILES IDX 7 1 8 2 9 3 10 4 11 5 24 6 25 7 21 8 18 9 15 10 12 11 6 12
REMARK SMILES IDX 3 13 4 14 27 15 5 16 26 17 2 18 1 19 22 20 23 21 13 22 14 23
REMARK SMILES IDX 19 24 20 25 16 26 17 27
REMARK H PARENT
REMARK Flexibility Score: inf
ROOT
ATOM      1  C   UNL     1       2.664  16.529  75.762  1.00  0.00     0.138 A 
ATOM      2  C   UNL     1       3.933  16.744  75.218  1.00  0.00     0.100 A 
ATOM      3  C   UNL     1       4.716  15.650  74.860  1.00  0.00     0.197 A 
ATOM      4  O   UNL     1       5.858  15.865  74.371  1.00  0.00    -0.289 OA
ATOM      5  C   UNL     1       4.223  14.336  75.053  1.00  0.00     0.115 A 
ATOM      6  C   UNL     1       2.923  14.197  75.596  1.00  0.00     0.188 A 
ATOM      7  O   UNL     1       2.222  15.284  75.915  1.00  0.00    -0.452 OA
ATOM      8  C   UNL     1       2.373  12.914  75.813  1.00  0.00     0.209 A 
ATOM      9  C   UNL     1       3.152  11.759  75.536  1.00  0.00     0.211 A 
ATOM     10  C   UNL     1       4.450  11.899  74.975  1.00  0.00     0.208 A 
ATOM     11  C   UNL     1       4.972  13.188  74.710  1.00  0.00     0.179 A 
ENDROOT
BRANCH   1  12
ATOM     12  C   UNL     1       1.794  17.660  76.168  1.00  0.00     0.018 A 
ATOM     13  C   UNL     1       0.102  19.778  76.961  1.00  0.00     0.118 A 
ATOM     14  C   UNL     1      -0.420  18.672  76.265  1.00  0.00     0.047 A 
ATOM     15  C   UNL     1       1.468  19.810  77.261  1.00  0.00     0.047 A 
ATOM     16  C   UNL     1       0.420  17.624  75.876  1.00  0.00     0.016 A 
ATOM     17  C   UNL     1       2.308  18.764  76.875  1.00  0.00     0.016 A 
BRANCH  13  18
ATOM     18  O   UNL     1      -0.698  20.854  77.372  1.00  0.00    -0.497 OA
ATOM     19  C   UNL     1      -0.192  22.125  77.769  1.00  0.00     0.278 C 
ENDBRANCH  13  18
ENDBRANCH   1  12
BRANCH   8  20
ATOM     20  O   UNL     1       1.067  12.738  76.310  1.00  0.00    -0.490 OA
ATOM     21  C   UNL     1      -0.131  12.633  75.552  1.00  0.00     0.278 C 
ENDBRANCH   8  20
BRANCH  11  22
ATOM     22  O   UNL     1       6.241  13.373  74.123  1.00  0.00    -0.492 OA
ATOM     23  C   UNL     1       7.505  13.122  74.730  1.00  0.00     0.278 C 
ENDBRANCH  11  22
BRANCH   9  24
ATOM     24  O   UNL     1       2.684  10.457  75.796  1.00  0.00    -0.490 OA
ATOM     25  C   UNL     1       1.930   9.607  74.940  1.00  0.00     0.279 C 
ENDBRANCH   9  24
BRANCH  10  26
ATOM     26  O   UNL     1       5.277  10.794  74.690  1.00  0.00    -0.490 OA
ATOM     27  C   UNL     1       5.401  10.087  73.461  1.00  0.00     0.278 C 
ENDBRANCH  10  26
TORSDOF 6
ENDMDL
MODEL 5
REMARK VINA RESULT:    -4.414     13.819     15.652
REMARK INTER + INTRA:          -6.600
REMARK INTER:                  -5.994
REMARK INTRA:                  -0.607
REMARK UNBOUND:                -0.638
REMARK SMILES COc1ccc(-c2cc(=O)c3c(OC)c(OC)c(OC)c(OC)c3o2)cc1
REMARK SMILES IDX 7 1 8 2 9 3 10 4 11 5 24 6 25 7 21 8 18 9 15 10 12 11 6 12
REMARK SMILES IDX 3 13 4 14 27 15 5 16 26 17 2 18 1 19 22 20 23 21 13 22 14 23
REMARK SMILES IDX 19 24 20 25 16 26 17 27
REMARK H PARENT
REMARK Flexibility Score: inf
ROOT
ATOM      1  C   UNL     1       8.621  12.421  61.576  1.00  0.00     0.138 A 
ATOM      2  C   UNL     1       9.472  12.836  60.548  1.00  0.00     0.100 A 
ATOM      3  C   UNL     1      10.489  11.987  60.120  1.00  0.00     0.197 A 
ATOM      4  O   UNL     1      11.245  12.379  59.191  1.00  0.00    -0.289 OA
ATOM      5  C   UNL     1      10.654  10.720  60.731  1.00  0.00     0.115 A 
ATOM      6  C   UNL     1       9.745  10.363  61.756  1.00  0.00     0.188 A 
ATOM      7  O   UNL     1       8.790  11.219  62.118  1.00  0.00    -0.452 OA
ATOM      8  C   UNL     1       9.855   9.113  62.406  1.00  0.00     0.209 A 
ATOM      9  C   UNL     1      10.917   8.235  62.063  1.00  0.00     0.211 A 
ATOM     10  C   UNL     1      11.819   8.586  61.022  1.00  0.00     0.208 A 
ATOM     11  C   UNL     1      11.668   9.817  60.340  1.00  0.00     0.179 A 
ENDROOT
BRANCH   1  12
ATOM     12  C   UNL     1       7.527  13.292  62.074  1.00  0.00     0.018 A 
ATOM     13  C   UNL     1       5.431  14.909  63.057  1.00  0.00     0.118 A 
ATOM     14  C   UNL     1       5.191  13.568  62.707  1.00  0.00     0.047 A 
ATOM     15  C   UNL     1       6.722  15.428  62.918  1.00  0.00     0.047 A 
ATOM     16  C   UNL     1       6.232  12.768  62.223  1.00  0.00     0.016 A 
ATOM     17  C   UNL     1       7.764  14.632  62.437  1.00  0.00     0.016 A 
BRANCH  13  18
ATOM     18  O   UNL     1       4.422  15.751  63.545  1.00  0.00    -0.497 OA
ATOM     19  C   UNL     1       3.304  16.194  62.781  1.00  0.00     0.278 C 
ENDBRANCH  13  18
ENDBRANCH   1  12
BRANCH   8  20
ATOM     20  O   UNL     1       8.943   8.708  63.398  1.00  0.00    -0.490 OA
ATOM     21  C   UNL     1       9.038   8.940  64.797  1.00  0.00     0.278 C 
ENDBRANCH   8  20
BRANCH  11  22
ATOM     22  O   UNL     1      12.518  10.191  59.278  1.00  0.00    -0.492 OA
ATOM     23  C   UNL     1      12.450   9.732  57.932  1.00  0.00     0.278 C 
ENDBRANCH  11  22
BRANCH   9  24
ATOM     24  O   UNL     1      11.119   7.007  62.723  1.00  0.00    -0.490 OA
ATOM     25  C   UNL     1      11.921   6.747  63.869  1.00  0.00     0.279 C 
ENDBRANCH   9  24
BRANCH  10  26
ATOM     26  O   UNL     1      12.900   7.764  60.645  1.00  0.00    -0.490 OA
ATOM     27  C   UNL     1      12.891   6.664  59.742  1.00  0.00     0.278 C 
ENDBRANCH  10  26
TORSDOF 6
ENDMDL
MODEL 6
REMARK VINA RESULT:    -4.409      3.359      5.228
REMARK INTER + INTRA:          -6.594
REMARK INTER:                  -5.957
REMARK INTRA:                  -0.637
REMARK UNBOUND:                -0.638
REMARK SMILES COc1ccc(-c2cc(=O)c3c(OC)c(OC)c(OC)c(OC)c3o2)cc1
REMARK SMILES IDX 7 1 8 2 9 3 10 4 11 5 24 6 25 7 21 8 18 9 15 10 12 11 6 12
REMARK SMILES IDX 3 13 4 14 27 15 5 16 26 17 2 18 1 19 22 20 23 21 13 22 14 23
REMARK SMILES IDX 19 24 20 25 16 26 17 27
REMARK H PARENT
REMARK Flexibility Score: inf
ROOT
ATOM      1  C   UNL     1       3.505  15.929  75.642  1.00  0.00     0.138 A 
ATOM      2  C   UNL     1       3.521  14.596  76.060  1.00  0.00     0.100 A 
ATOM      3  C   UNL     1       4.586  13.779  75.694  1.00  0.00     0.197 A 
ATOM      4  O   UNL     1       4.582  12.579  76.082  1.00  0.00    -0.289 OA
ATOM      5  C   UNL     1       5.637  14.302  74.903  1.00  0.00     0.115 A 
ATOM      6  C   UNL     1       5.561  15.665  74.529  1.00  0.00     0.188 A 
ATOM      7  O   UNL     1       4.515  16.396  74.914  1.00  0.00    -0.452 OA
ATOM      8  C   UNL     1       6.577  16.248  73.740  1.00  0.00     0.209 A 
ATOM      9  C   UNL     1       7.653  15.447  73.275  1.00  0.00     0.211 A 
ATOM     10  C   UNL     1       7.739  14.083  73.665  1.00  0.00     0.208 A 
ATOM     11  C   UNL     1       6.744  13.520  74.500  1.00  0.00     0.179 A 
ENDROOT
BRANCH   1  12
ATOM     12  C   UNL     1       2.388  16.839  75.997  1.00  0.00     0.018 A 
ATOM     13  C   UNL     1       0.292  18.613  76.656  1.00  0.00     0.118 A 
ATOM     14  C   UNL     1       1.610  18.884  77.067  1.00  0.00     0.047 A 
ATOM     15  C   UNL     1       0.036  17.458  75.910  1.00  0.00     0.047 A 
ATOM     16  C   UNL     1       2.646  18.005  76.737  1.00  0.00     0.016 A 
ATOM     17  C   UNL     1       1.069  16.579  75.578  1.00  0.00     0.016 A 
BRANCH  13  18
ATOM     18  O   UNL     1      -0.781  19.462  76.962  1.00  0.00    -0.497 OA
ATOM     19  C   UNL     1      -2.102  19.015  77.251  1.00  0.00     0.278 C 
ENDBRANCH  13  18
ENDBRANCH   1  12
BRANCH   8  20
ATOM     20  O   UNL     1       6.555  17.611  73.387  1.00  0.00    -0.490 OA
ATOM     21  C   UNL     1       5.950  18.190  72.237  1.00  0.00     0.278 C 
ENDBRANCH   8  20
BRANCH  11  22
ATOM     22  O   UNL     1       6.807  12.182  74.940  1.00  0.00    -0.492 OA
ATOM     23  C   UNL     1       7.652  11.661  75.961  1.00  0.00     0.278 C 
ENDBRANCH  11  22
BRANCH   9  24
ATOM     24  O   UNL     1       8.658  15.955  72.429  1.00  0.00    -0.490 OA
ATOM     25  C   UNL     1       9.887  16.569  72.797  1.00  0.00     0.279 C 
ENDBRANCH   9  24
BRANCH  10  26
ATOM     26  O   UNL     1       8.774  13.232  73.226  1.00  0.00    -0.490 OA
ATOM     27  C   UNL     1       8.805  12.422  72.057  1.00  0.00     0.278 C 
ENDBRANCH  10  26
TORSDOF 6
ENDMDL
MODEL 7
REMARK VINA RESULT:    -4.403      1.389      2.150
REMARK INTER + INTRA:          -6.586
REMARK INTER:                  -5.960
REMARK INTRA:                  -0.626
REMARK UNBOUND:                -0.638
REMARK SMILES COc1ccc(-c2cc(=O)c3c(OC)c(OC)c(OC)c(OC)c3o2)cc1
REMARK SMILES IDX 7 1 8 2 9 3 10 4 11 5 24 6 25 7 21 8 18 9 15 10 12 11 6 12
REMARK SMILES IDX 3 13 4 14 27 15 5 16 26 17 2 18 1 19 22 20 23 21 13 22 14 23
REMARK SMILES IDX 19 24 20 25 16 26 17 27
REMARK H PARENT
REMARK Flexibility Score: inf
ROOT
ATOM      1  C   UNL     1       3.036  14.128  75.648  1.00  0.00     0.138 A 
ATOM      2  C   UNL     1       2.180  13.025  75.712  1.00  0.00     0.100 A 
ATOM      3  C   UNL     1       2.691  11.752  75.481  1.00  0.00     0.197 A 
ATOM      4  O   UNL     1       1.903  10.769  75.545  1.00  0.00    -0.289 OA
ATOM      5  C   UNL     1       4.065  11.586  75.181  1.00  0.00     0.115 A 
ATOM      6  C   UNL     1       4.873  12.748  75.147  1.00  0.00     0.188 A 
ATOM      7  O   UNL     1       4.325  13.940  75.381  1.00  0.00    -0.452 OA
ATOM      8  C   UNL     1       6.252  12.652  74.853  1.00  0.00     0.209 A 
ATOM      9  C   UNL     1       6.816  11.387  74.537  1.00  0.00     0.211 A 
ATOM     10  C   UNL     1       6.008  10.219  74.588  1.00  0.00     0.208 A 
ATOM     11  C   UNL     1       4.640  10.319  74.936  1.00  0.00     0.179 A 
ENDROOT
BRANCH   1  12
ATOM     12  C   UNL     1       2.539  15.508  75.878  1.00  0.00     0.018 A 
ATOM     13  C   UNL     1       1.639  18.152  76.291  1.00  0.00     0.118 A 
ATOM     14  C   UNL     1       2.956  17.789  76.624  1.00  0.00     0.047 A 
ATOM     15  C   UNL     1       0.784  17.189  75.745  1.00  0.00     0.047 A 
ATOM     16  C   UNL     1       3.400  16.479  76.416  1.00  0.00     0.016 A 
ATOM     17  C   UNL     1       1.225  15.881  75.534  1.00  0.00     0.016 A 
BRANCH  13  18
ATOM     18  O   UNL     1       1.146  19.452  76.480  1.00  0.00    -0.497 OA
ATOM     19  C   UNL     1       1.602  20.345  77.491  1.00  0.00     0.278 C 
ENDBRANCH  13  18
ENDBRANCH   1  12
BRANCH   8  20
ATOM     20  O   UNL     1       7.093  13.780  74.855  1.00  0.00    -0.490 OA
ATOM     21  C   UNL     1       7.340  14.668  73.771  1.00  0.00     0.278 C 
ENDBRANCH   8  20
BRANCH  11  22
ATOM     22  O   UNL     1       3.810   9.182  75.032  1.00  0.00    -0.492 OA
ATOM     23  C   UNL     1       3.385   8.346  73.961  1.00  0.00     0.278 C 
ENDBRANCH  11  22
BRANCH   9  24
ATOM     24  O   UNL     1       8.168  11.239  74.170  1.00  0.00    -0.490 OA
ATOM     25  C   UNL     1       8.732  11.278  72.864  1.00  0.00     0.279 C 
ENDBRANCH   9  24
BRANCH  10  26
ATOM     26  O   UNL     1       6.506   8.939  74.273  1.00  0.00    -0.490 OA
ATOM     27  C   UNL     1       7.168   8.019  75.134  1.00  0.00     0.278 C 
ENDBRANCH  10  26
TORSDOF 6
ENDMDL
MODEL 8
REMARK VINA RESULT:    -4.320      2.749      6.742
REMARK INTER + INTRA:          -6.474
REMARK INTER:                  -5.970
REMARK INTRA:                  -0.504
REMARK UNBOUND:                -0.638
REMARK SMILES COc1ccc(-c2cc(=O)c3c(OC)c(OC)c(OC)c(OC)c3o2)cc1
REMARK SMILES IDX 7 1 8 2 9 3 10 4 11 5 24 6 25 7 21 8 18 9 15 10 12 11 6 12
REMARK SMILES IDX 3 13 4 14 27 15 5 16 26 17 2 18 1 19 22 20 23 21 13 22 14 23
REMARK SMILES IDX 19 24 20 25 16 26 17 27
REMARK H PARENT
REMARK Flexibility Score: inf
ROOT
ATOM      1  C   UNL     1       0.702  10.447  75.628  1.00  0.00     0.138 A 
ATOM      2  C   UNL     1       1.713   9.509  75.399  1.00  0.00     0.100 A 
ATOM      3  C   UNL     1       3.032   9.940  75.298  1.00  0.00     0.197 A 
ATOM      4  O   UNL     1       3.930   9.079  75.092  1.00  0.00    -0.289 OA
ATOM      5  C   UNL     1       3.337  11.317  75.423  1.00  0.00     0.115 A 
ATOM      6  C   UNL     1       2.263  12.206  75.669  1.00  0.00     0.188 A 
ATOM      7  O   UNL     1       1.021  11.731  75.759  1.00  0.00    -0.452 OA
ATOM      8  C   UNL     1       2.498  13.593  75.804  1.00  0.00     0.209 A 
ATOM      9  C   UNL     1       3.814  14.101  75.639  1.00  0.00     0.211 A 
ATOM     10  C   UNL     1       4.894  13.206  75.410  1.00  0.00     0.208 A 
ATOM     11  C   UNL     1       4.656  11.813  75.329  1.00  0.00     0.179 A 
ENDROOT
BRANCH   1  12
ATOM     12  C   UNL     1      -0.721  10.040  75.734  1.00  0.00     0.018 A 
ATOM     13  C   UNL     1      -3.426   9.270  75.991  1.00  0.00     0.118 A 
ATOM     14  C   UNL     1      -2.432   8.649  76.769  1.00  0.00     0.047 A 
ATOM     15  C   UNL     1      -3.058  10.279  75.094  1.00  0.00     0.047 A 
ATOM     16  C   UNL     1      -1.094   9.035  76.642  1.00  0.00     0.016 A 
ATOM     17  C   UNL     1      -1.722  10.667  74.966  1.00  0.00     0.016 A 
BRANCH  13  18
ATOM     18  O   UNL     1      -4.781   8.919  76.081  1.00  0.00    -0.497 OA
ATOM     19  C   UNL     1      -5.631   9.268  77.169  1.00  0.00     0.278 C 
ENDBRANCH  13  18
ENDBRANCH   1  12
BRANCH   8  20
ATOM     20  O   UNL     1       1.461  14.499  76.092  1.00  0.00    -0.490 OA
ATOM     21  C   UNL     1       0.581  15.120  75.163  1.00  0.00     0.278 C 
ENDBRANCH   8  20
BRANCH  11  22
ATOM     22  O   UNL     1       5.703  10.887  75.138  1.00  0.00    -0.492 OA
ATOM     23  C   UNL     1       6.401  10.631  73.923  1.00  0.00     0.278 C 
ENDBRANCH  11  22
BRANCH   9  24
ATOM     24  O   UNL     1       4.100  15.479  75.695  1.00  0.00    -0.490 OA
ATOM     25  C   UNL     1       4.022  16.434  74.644  1.00  0.00     0.279 C 
ENDBRANCH   9  24
BRANCH  10  26
ATOM     26  O   UNL     1       6.220  13.649  75.225  1.00  0.00    -0.490 OA
ATOM     27  C   UNL     1       6.812  14.169  74.039  1.00  0.00     0.278 C 
ENDBRANCH  10  26
TORSDOF 6
ENDMDL
MODEL 9
REMARK VINA RESULT:    -4.249      2.530      8.413
REMARK INTER + INTRA:          -6.377
REMARK INTER:                  -5.756
REMARK INTRA:                  -0.621
REMARK UNBOUND:                -0.638
REMARK SMILES COc1ccc(-c2cc(=O)c3c(OC)c(OC)c(OC)c(OC)c3o2)cc1
REMARK SMILES IDX 7 1 8 2 9 3 10 4 11 5 24 6 25 7 21 8 18 9 15 10 12 11 6 12
REMARK SMILES IDX 3 13 4 14 27 15 5 16 26 17 2 18 1 19 22 20 23 21 13 22 14 23
REMARK SMILES IDX 19 24 20 25 16 26 17 27
REMARK H PARENT
REMARK Flexibility Score: inf
ROOT
ATOM      1  C   UNL     1       1.157  11.463  75.738  1.00  0.00     0.138 A 
ATOM      2  C   UNL     1       2.535  11.665  75.620  1.00  0.00     0.100 A 
ATOM      3  C   UNL     1       3.033  12.964  75.588  1.00  0.00     0.197 A 
ATOM      4  O   UNL     1       4.279  13.126  75.483  1.00  0.00    -0.289 OA
ATOM      5  C   UNL     1       2.143  14.063  75.671  1.00  0.00     0.115 A 
ATOM      6  C   UNL     1       0.763  13.781  75.803  1.00  0.00     0.188 A 
ATOM      7  O   UNL     1       0.348  12.515  75.831  1.00  0.00    -0.452 OA
ATOM      8  C   UNL     1      -0.177  14.832  75.890  1.00  0.00     0.209 A 
ATOM      9  C   UNL     1       0.263  16.178  75.791  1.00  0.00     0.211 A 
ATOM     10  C   UNL     1       1.651  16.462  75.676  1.00  0.00     0.208 A 
ATOM     11  C   UNL     1       2.590  15.404  75.643  1.00  0.00     0.179 A 
ENDROOT
BRANCH   1  12
ATOM     12  C   UNL     1       0.575  10.098  75.767  1.00  0.00     0.018 A 
ATOM     13  C   UNL     1      -0.580   7.521  75.804  1.00  0.00     0.118 A 
ATOM     14  C   UNL     1      -1.267   8.617  76.358  1.00  0.00     0.047 A 
ATOM     15  C   UNL     1       0.678   7.727  75.228  1.00  0.00     0.047 A 
ATOM     16  C   UNL     1      -0.693   9.893  76.336  1.00  0.00     0.016 A 
ATOM     17  C   UNL     1       1.252   8.999  75.203  1.00  0.00     0.016 A 
BRANCH  13  18
ATOM     18  O   UNL     1      -1.112   6.224  75.802  1.00  0.00    -0.497 OA
ATOM     19  C   UNL     1      -2.203   5.803  74.990  1.00  0.00     0.278 C 
ENDBRANCH  13  18
ENDBRANCH   1  12
BRANCH   8  20
ATOM     20  O   UNL     1      -1.552  14.588  76.066  1.00  0.00    -0.490 OA
ATOM     21  C   UNL     1      -2.519  14.351  75.050  1.00  0.00     0.278 C 
ENDBRANCH   8  20
BRANCH  11  22
ATOM     22  O   UNL     1       3.979  15.640  75.564  1.00  0.00    -0.492 OA
ATOM     23  C   UNL     1       4.689  16.177  74.453  1.00  0.00     0.278 C 
ENDBRANCH  11  22
BRANCH   9  24
ATOM     24  O   UNL     1      -0.633  17.265  75.802  1.00  0.00    -0.490 OA
ATOM     25  C   UNL     1      -1.132  17.980  76.926  1.00  0.00     0.279 C 
ENDBRANCH   9  24
BRANCH  10  26
ATOM     26  O   UNL     1       2.150  17.775  75.559  1.00  0.00    -0.490 OA
ATOM     27  C   UNL     1       2.534  18.662  76.604  1.00  0.00     0.278 C 
ENDBRANCH  10  26
TORSDOF 6
ENDMDL
