MODEL 1
REMARK VINA RESULT:    -4.953      0.000      0.000
REMARK INTER + INTRA:          -6.348
REMARK INTER:                  -6.980
REMARK INTRA:                   0.632
REMARK UNBOUND:                 0.632
REMARK SMILES CC1=CCC(=C(C)C)C(=O)CC(C)=CCC1
REMARK SMILES IDX 12 1 14 2 13 3 15 4 16 5 2 6 1 7 3 8 11 10 9 11 10 12 5 13
REMARK SMILES IDX 6 14 7 15 8 16 4 17
REMARK H PARENT
REMARK Flexibility Score: 60.00
ROOT
ATOM      1  C   UNL     1     -12.846 -19.237  29.485  1.00  0.00    -0.070 C 
ATOM      2  C   UNL     1     -13.248 -19.651  30.708  1.00  0.00    -0.027 C 
ATOM      3  C   UNL     1     -13.763 -19.489  28.315  1.00  0.00     0.039 C 
ENDROOT
BRANCH   2   4
ATOM      4  C   UNL     1     -12.530 -19.352  32.000  1.00  0.00     0.032 C 
BRANCH   4   5
ATOM      5  C   UNL     1     -12.015 -17.907  31.987  1.00  0.00     0.034 C 
BRANCH   5   6
ATOM      6  C   UNL     1     -13.138 -16.892  32.039  1.00  0.00    -0.077 C 
ATOM      7  C   UNL     1     -14.203 -17.045  33.097  1.00  0.00     0.039 C 
ATOM      8  C   UNL     1     -13.284 -15.887  31.139  1.00  0.00    -0.023 CG0
ATOM      9  G   UNL     1     -12.324 -15.495  30.030  1.00  0.00     0.000 G0
ENDBRANCH   5   6
ENDBRANCH   4   5
ENDBRANCH   2   4
BRANCH   1  10
ATOM     10  C   UNL     1     -11.518 -18.553  29.230  1.00  0.00     0.111 C 
BRANCH  10  11
ATOM     11  C   UNL     1     -11.668 -17.347  28.334  1.00  0.00     0.163 C 
ATOM     12  O   UNL     1     -11.015 -17.349  27.255  1.00  0.00    -0.294 OA
BRANCH  11  13
ATOM     13  C   UNL     1     -12.522 -16.160  28.670  1.00  0.00    -0.002 C 
ATOM     14  C   UNL     1     -13.334 -15.597  27.722  1.00  0.00    -0.069 C 
ATOM     15  C   UNL     1     -14.029 -14.272  27.945  1.00  0.00     0.039 C 
ATOM     16  C   UNL     1     -13.624 -16.298  26.414  1.00  0.00     0.039 C 
BRANCH  13  17
ATOM     17  C   UNL     1     -12.318 -15.497  30.028  1.00  0.00     0.066 CG0
ATOM     18  G   UNL     1     -13.293 -15.889  31.124  1.00  0.00     0.000 G0
ENDBRANCH  13  17
ENDBRANCH  11  13
ENDBRANCH  10  11
ENDBRANCH   1  10
TORSDOF 0
ENDMDL
MODEL 2
REMARK VINA RESULT:    -4.918      1.854      3.620
REMARK INTER + INTRA:          -6.298
REMARK INTER:                  -6.838
REMARK INTRA:                   0.540
REMARK UNBOUND:                 0.632
REMARK SMILES CC1=CCC(=C(C)C)C(=O)CC(C)=CCC1
REMARK SMILES IDX 12 1 14 2 13 3 15 4 16 5 2 6 1 7 3 8 11 10 9 11 10 12 5 13
REMARK SMILES IDX 6 14 7 15 8 16 4 17
REMARK H PARENT
REMARK Flexibility Score: 60.00
ROOT
ATOM      1  C   UNL     1     -12.754 -15.541  29.390  1.00  0.00    -0.070 C 
ATOM      2  C   UNL     1     -13.616 -15.502  30.432  1.00  0.00    -0.027 C 
ATOM      3  C   UNL     1     -13.327 -15.524  27.996  1.00  0.00     0.039 C 
ENDROOT
BRANCH   2   4
ATOM      4  C   UNL     1     -13.215 -15.365  31.879  1.00  0.00     0.032 C 
BRANCH   4   5
ATOM      5  C   UNL     1     -12.600 -16.681  32.375  1.00  0.00     0.034 C 
BRANCH   5   6
ATOM      6  C   UNL     1     -11.177 -16.507  32.863  1.00  0.00    -0.077 C 
ATOM      7  C   UNL     1     -10.887 -15.430  33.879  1.00  0.00     0.039 C 
ATOM      8  C   UNL     1     -10.126 -17.219  32.383  1.00  0.00    -0.023 CG0
ATOM      9  G   UNL     1     -10.169 -18.384  31.410  1.00  0.00     0.000 G0
ENDBRANCH   5   6
ENDBRANCH   4   5
ENDBRANCH   2   4
BRANCH   1  10
ATOM     10  C   UNL     1     -11.250 -15.622  29.554  1.00  0.00     0.111 C 
BRANCH  10  11
ATOM     11  C   UNL     1     -10.728 -17.012  29.283  1.00  0.00     0.163 C 
ATOM     12  O   UNL     1     -10.020 -17.169  28.250  1.00  0.00    -0.294 OA
BRANCH  11  13
ATOM     13  C   UNL     1     -11.022 -18.199  30.154  1.00  0.00    -0.002 C 
ATOM     14  C   UNL     1     -12.117 -18.984  29.912  1.00  0.00    -0.069 C 
ATOM     15  C   UNL     1     -12.579 -20.039  30.892  1.00  0.00     0.039 C 
ATOM     16  C   UNL     1     -12.899 -18.873  28.622  1.00  0.00     0.039 C 
BRANCH  13  17
ATOM     17  C   UNL     1     -10.177 -18.387  31.409  1.00  0.00     0.066 CG0
ATOM     18  G   UNL     1     -10.136 -17.219  32.378  1.00  0.00     0.000 G0
ENDBRANCH  13  17
ENDBRANCH  11  13
ENDBRANCH  10  11
ENDBRANCH   1  10
TORSDOF 0
ENDMDL
MODEL 3
REMARK VINA RESULT:    -4.776      1.644      3.419
REMARK INTER + INTRA:          -6.098
REMARK INTER:                  -6.473
REMARK INTRA:                   0.376
REMARK UNBOUND:                 0.632
REMARK SMILES CC1=CCC(=C(C)C)C(=O)CC(C)=CCC1
REMARK SMILES IDX 12 1 14 2 13 3 15 4 16 5 2 6 1 7 3 8 11 10 9 11 10 12 5 13
REMARK SMILES IDX 6 14 7 15 8 16 4 17
REMARK H PARENT
REMARK Flexibility Score: 60.00
ROOT
ATOM      1  C   UNL     1     -12.368 -16.797  32.128  1.00  0.00    -0.070 C 
ATOM      2  C   UNL     1     -12.468 -18.124  32.370  1.00  0.00    -0.027 C 
ATOM      3  C   UNL     1     -11.552 -15.962  33.081  1.00  0.00     0.039 C 
ENDROOT
BRANCH   2   4
ATOM      4  C   UNL     1     -13.117 -19.124  31.446  1.00  0.00     0.032 C 
BRANCH   4   5
ATOM      5  C   UNL     1     -12.206 -19.384  30.239  1.00  0.00     0.034 C 
BRANCH   5   6
ATOM      6  C   UNL     1     -12.985 -19.540  28.949  1.00  0.00    -0.077 C 
ATOM      7  C   UNL     1     -13.963 -20.682  28.828  1.00  0.00     0.039 C 
ATOM      8  C   UNL     1     -12.800 -18.750  27.861  1.00  0.00    -0.023 CG0
ATOM      9  G   UNL     1     -11.925 -17.514  27.756  1.00  0.00     0.000 G0
ENDBRANCH   5   6
ENDBRANCH   4   5
ENDBRANCH   2   4
BRANCH   1  10
ATOM     10  C   UNL     1     -13.049 -16.108  30.962  1.00  0.00     0.111 C 
BRANCH  10  11
ATOM     11  C   UNL     1     -12.113 -15.927  29.792  1.00  0.00     0.163 C 
ATOM     12  O   UNL     1     -10.963 -15.472  30.041  1.00  0.00    -0.294 OA
BRANCH  11  13
ATOM     13  C   UNL     1     -12.485 -16.232  28.370  1.00  0.00    -0.002 C 
ATOM     14  C   UNL     1     -13.422 -15.476  27.718  1.00  0.00    -0.069 C 
ATOM     15  C   UNL     1     -13.993 -15.886  26.379  1.00  0.00     0.039 C 
ATOM     16  C   UNL     1     -13.903 -14.157  28.280  1.00  0.00     0.039 C 
BRANCH  13  17
ATOM     17  C   UNL     1     -11.929 -17.508  27.747  1.00  0.00     0.066 CG0
ATOM     18  G   UNL     1     -12.801 -18.747  27.852  1.00  0.00     0.000 G0
ENDBRANCH  13  17
ENDBRANCH  11  13
ENDBRANCH  10  11
ENDBRANCH   1  10
TORSDOF 0
ENDMDL
MODEL 4
REMARK VINA RESULT:    -4.740      1.642      3.730
REMARK INTER + INTRA:          -6.048
REMARK INTER:                  -6.680
REMARK INTRA:                   0.633
REMARK UNBOUND:                 0.632
REMARK SMILES CC1=CCC(=C(C)C)C(=O)CC(C)=CCC1
REMARK SMILES IDX 12 1 14 2 13 3 15 4 16 5 2 6 1 7 3 8 11 10 9 11 10 12 5 13
REMARK SMILES IDX 6 14 7 15 8 16 4 17
REMARK H PARENT
REMARK Flexibility Score: 60.00
ROOT
ATOM      1  C   UNL     1     -12.426 -16.918  27.934  1.00  0.00    -0.070 C 
ATOM      2  C   UNL     1     -12.453 -15.606  28.265  1.00  0.00    -0.027 C 
ATOM      3  C   UNL     1     -11.446 -17.363  26.879  1.00  0.00     0.039 C 
ENDROOT
BRANCH   2   4
ATOM      4  C   UNL     1     -13.260 -15.017  29.394  1.00  0.00     0.032 C 
BRANCH   4   5
ATOM      5  C   UNL     1     -12.724 -15.527  30.738  1.00  0.00     0.034 C 
BRANCH   5   6
ATOM      6  C   UNL     1     -13.831 -15.817  31.730  1.00  0.00    -0.077 C 
ATOM      7  C   UNL     1     -14.736 -14.687  32.155  1.00  0.00     0.039 C 
ATOM      8  C   UNL     1     -14.013 -17.026  32.320  1.00  0.00    -0.023 CG0
ATOM      9  G   UNL     1     -13.278 -18.319  32.019  1.00  0.00     0.000 G0
ENDBRANCH   5   6
ENDBRANCH   4   5
ENDBRANCH   2   4
BRANCH   1  10
ATOM     10  C   UNL     1     -13.341 -17.954  28.556  1.00  0.00     0.111 C 
BRANCH  10  11
ATOM     11  C   UNL     1     -12.620 -18.803  29.574  1.00  0.00     0.163 C 
ATOM     12  O   UNL     1     -12.354 -19.992  29.244  1.00  0.00    -0.294 OA
BRANCH  11  13
ATOM     13  C   UNL     1     -12.232 -18.320  30.941  1.00  0.00    -0.002 C 
ATOM     14  C   UNL     1     -10.926 -18.032  31.232  1.00  0.00    -0.069 C 
ATOM     15  C   UNL     1     -10.460 -17.768  32.646  1.00  0.00     0.039 C 
ATOM     16  C   UNL     1      -9.883 -17.909  30.144  1.00  0.00     0.039 C 
BRANCH  13  17
ATOM     17  C   UNL     1     -13.299 -18.339  32.031  1.00  0.00     0.066 CG0
ATOM     18  G   UNL     1     -13.987 -17.018  32.325  1.00  0.00     0.000 G0
ENDBRANCH  13  17
ENDBRANCH  11  13
ENDBRANCH  10  11
ENDBRANCH   1  10
TORSDOF 0
ENDMDL
MODEL 5
REMARK VINA RESULT:    -4.739      1.782      4.283
REMARK INTER + INTRA:          -6.046
REMARK INTER:                  -7.068
REMARK INTRA:                   1.023
REMARK UNBOUND:                 0.632
REMARK SMILES CC1=CCC(=C(C)C)C(=O)CC(C)=CCC1
REMARK SMILES IDX 12 1 14 2 13 3 15 4 16 5 2 6 1 7 3 8 11 10 9 11 10 12 5 13
REMARK SMILES IDX 6 14 7 15 8 16 4 17
REMARK H PARENT
REMARK Flexibility Score: 60.00
ROOT
ATOM      1  C   UNL     1     -11.160 -16.259  31.867  1.00  0.00    -0.070 C 
ATOM      2  C   UNL     1     -12.437 -15.813  31.842  1.00  0.00    -0.027 C 
ATOM      3  C   UNL     1     -10.467 -16.354  33.202  1.00  0.00     0.039 C 
ENDROOT
BRANCH   2   4
ATOM      4  C   UNL     1     -13.322 -15.795  30.622  1.00  0.00     0.032 C 
BRANCH   4   5
ATOM      5  C   UNL     1     -12.540 -15.247  29.421  1.00  0.00     0.034 C 
BRANCH   5   6
ATOM      6  C   UNL     1     -13.140 -15.672  28.097  1.00  0.00    -0.077 C 
ATOM      7  C   UNL     1     -14.205 -14.803  27.473  1.00  0.00     0.039 C 
ATOM      8  C   UNL     1     -12.827 -16.833  27.469  1.00  0.00    -0.023 CG0
ATOM      9  G   UNL     1     -11.757 -17.836  27.863  1.00  0.00     0.000 G0
ENDBRANCH   5   6
ENDBRANCH   4   5
ENDBRANCH   2   4
BRANCH   1  10
ATOM     10  C   UNL     1     -10.388 -16.648  30.621  1.00  0.00     0.111 C 
BRANCH  10  11
ATOM     11  C   UNL     1     -10.690 -18.063  30.191  1.00  0.00     0.163 C 
ATOM     12  O   UNL     1      -9.938 -18.972  30.640  1.00  0.00    -0.294 OA
BRANCH  11  13
ATOM     13  C   UNL     1     -11.804 -18.431  29.256  1.00  0.00    -0.002 C 
ATOM     14  C   UNL     1     -12.731 -19.371  29.615  1.00  0.00    -0.069 C 
ATOM     15  C   UNL     1     -13.724 -19.938  28.624  1.00  0.00     0.039 C 
ATOM     16  C   UNL     1     -12.849 -19.860  31.041  1.00  0.00     0.039 C 
BRANCH  13  17
ATOM     17  C   UNL     1     -11.760 -17.867  27.839  1.00  0.00     0.066 CG0
ATOM     18  G   UNL     1     -12.826 -16.845  27.486  1.00  0.00     0.000 G0
ENDBRANCH  13  17
ENDBRANCH  11  13
ENDBRANCH  10  11
ENDBRANCH   1  10
TORSDOF 0
ENDMDL
MODEL 6
REMARK VINA RESULT:    -4.699      1.465      3.647
REMARK INTER + INTRA:          -5.990
REMARK INTER:                  -6.706
REMARK INTRA:                   0.716
REMARK UNBOUND:                 0.632
REMARK SMILES CC1=CCC(=C(C)C)C(=O)CC(C)=CCC1
REMARK SMILES IDX 12 1 14 2 13 3 15 4 16 5 2 6 1 7 3 8 11 10 9 11 10 12 5 13
REMARK SMILES IDX 6 14 7 15 8 16 4 17
REMARK H PARENT
REMARK Flexibility Score: 60.00
ROOT
ATOM      1  C   UNL     1     -12.964 -20.048  30.725  1.00  0.00    -0.070 C 
ATOM      2  C   UNL     1     -13.167 -20.071  29.387  1.00  0.00    -0.027 C 
ATOM      3  C   UNL     1     -12.344 -21.262  31.368  1.00  0.00     0.039 C 
ENDROOT
BRANCH   2   4
ATOM      4  C   UNL     1     -13.637 -18.897  28.565  1.00  0.00     0.032 C 
BRANCH   4   5
ATOM      5  C   UNL     1     -12.443 -18.008  28.197  1.00  0.00     0.034 C 
BRANCH   5   6
ATOM      6  C   UNL     1     -12.849 -16.573  27.931  1.00  0.00    -0.077 C 
ATOM      7  C   UNL     1     -13.556 -16.250  26.638  1.00  0.00     0.039 C 
ATOM      8  C   UNL     1     -12.548 -15.542  28.760  1.00  0.00    -0.023 CG0
ATOM      9  G   UNL     1     -11.902 -15.619  30.131  1.00  0.00     0.000 G0
ENDBRANCH   5   6
ENDBRANCH   4   5
ENDBRANCH   2   4
BRANCH   1  10
ATOM     10  C   UNL     1     -13.347 -18.876  31.607  1.00  0.00     0.111 C 
BRANCH  10  11
ATOM     11  C   UNL     1     -12.333 -17.761  31.532  1.00  0.00     0.163 C 
ATOM     12  O   UNL     1     -11.128 -18.066  31.749  1.00  0.00    -0.294 OA
BRANCH  11  13
ATOM     13  C   UNL     1     -12.684 -16.331  31.242  1.00  0.00    -0.002 C 
ATOM     14  C   UNL     1     -13.777 -15.751  31.827  1.00  0.00    -0.069 C 
ATOM     15  C   UNL     1     -14.298 -14.400  31.388  1.00  0.00     0.039 C 
ATOM     16  C   UNL     1     -14.496 -16.407  32.984  1.00  0.00     0.039 C 
BRANCH  13  17
ATOM     17  C   UNL     1     -11.902 -15.615  30.146  1.00  0.00     0.066 CG0
ATOM     18  G   UNL     1     -12.557 -15.554  28.778  1.00  0.00     0.000 G0
ENDBRANCH  13  17
ENDBRANCH  11  13
ENDBRANCH  10  11
ENDBRANCH   1  10
TORSDOF 0
ENDMDL
MODEL 7
REMARK VINA RESULT:    -4.505      2.287      4.876
REMARK INTER + INTRA:          -5.716
REMARK INTER:                  -6.100
REMARK INTRA:                   0.385
REMARK UNBOUND:                 0.632
REMARK SMILES CC1=CCC(=C(C)C)C(=O)CC(C)=CCC1
REMARK SMILES IDX 12 1 14 2 13 3 15 4 16 5 2 6 1 7 3 8 11 10 9 11 10 12 5 13
REMARK SMILES IDX 6 14 7 15 8 16 4 17
REMARK H PARENT
REMARK Flexibility Score: 60.00
ROOT
ATOM      1  C   UNL     1     -10.413 -16.302  31.797  1.00  0.00    -0.070 C 
ATOM      2  C   UNL     1      -9.878 -15.782  30.668  1.00  0.00    -0.027 C 
ATOM      3  C   UNL     1     -10.437 -15.439  33.033  1.00  0.00     0.039 C 
ENDROOT
BRANCH   2   4
ATOM      4  C   UNL     1      -9.904 -16.446  29.314  1.00  0.00     0.032 C 
BRANCH   4   5
ATOM      5  C   UNL     1     -11.122 -15.956  28.519  1.00  0.00     0.034 C 
BRANCH   5   6
ATOM      6  C   UNL     1     -11.714 -17.040  27.642  1.00  0.00    -0.077 C 
ATOM      7  C   UNL     1     -11.081 -17.310  26.300  1.00  0.00     0.039 C 
ATOM      8  C   UNL     1     -12.833 -17.737  27.963  1.00  0.00    -0.023 CG0
ATOM      9  G   UNL     1     -13.609 -17.687  29.267  1.00  0.00     0.000 G0
ENDBRANCH   5   6
ENDBRANCH   4   5
ENDBRANCH   2   4
BRANCH   1  10
ATOM     10  C   UNL     1     -10.969 -17.709  31.885  1.00  0.00     0.111 C 
BRANCH  10  11
ATOM     11  C   UNL     1     -12.447 -17.749  31.581  1.00  0.00     0.163 C 
ATOM     12  O   UNL     1     -13.212 -17.123  32.365  1.00  0.00    -0.294 OA
BRANCH  11  13
ATOM     13  C   UNL     1     -13.042 -18.504  30.428  1.00  0.00    -0.002 C 
ATOM     14  C   UNL     1     -12.931 -19.866  30.357  1.00  0.00    -0.069 C 
ATOM     15  C   UNL     1     -13.307 -20.637  29.111  1.00  0.00     0.039 C 
ATOM     16  C   UNL     1     -12.472 -20.684  31.543  1.00  0.00     0.039 C 
BRANCH  13  17
ATOM     17  C   UNL     1     -13.604 -17.696  29.263  1.00  0.00     0.066 CG0
ATOM     18  G   UNL     1     -12.824 -17.755  27.962  1.00  0.00     0.000 G0
ENDBRANCH  13  17
ENDBRANCH  11  13
ENDBRANCH  10  11
ENDBRANCH   1  10
TORSDOF 0
ENDMDL
MODEL 8
REMARK VINA RESULT:    -4.472      1.990      4.423
REMARK INTER + INTRA:          -5.669
REMARK INTER:                  -5.874
REMARK INTRA:                   0.205
REMARK UNBOUND:                 0.632
REMARK SMILES CC1=CCC(=C(C)C)C(=O)CC(C)=CCC1
REMARK SMILES IDX 12 1 14 2 13 3 15 4 16 5 2 6 1 7 3 8 11 10 9 11 10 12 5 13
REMARK SMILES IDX 6 14 7 15 8 16 4 17
REMARK H PARENT
REMARK Flexibility Score: 60.00
ROOT
ATOM      1  C   UNL     1     -10.582 -16.418  32.047  1.00  0.00    -0.070 C 
ATOM      2  C   UNL     1      -9.888 -15.951  30.984  1.00  0.00    -0.027 C 
ATOM      3  C   UNL     1     -10.610 -15.579  33.299  1.00  0.00     0.039 C 
ENDROOT
BRANCH   2   4
ATOM      4  C   UNL     1      -9.875 -16.585  29.615  1.00  0.00     0.032 C 
BRANCH   4   5
ATOM      5  C   UNL     1     -10.585 -15.668  28.612  1.00  0.00     0.034 C 
BRANCH   5   6
ATOM      6  C   UNL     1     -11.942 -16.200  28.200  1.00  0.00    -0.077 C 
ATOM      7  C   UNL     1     -12.069 -16.914  26.877  1.00  0.00     0.039 C 
ATOM      8  C   UNL     1     -13.075 -16.008  28.923  1.00  0.00    -0.023 CG0
ATOM      9  G   UNL     1     -13.195 -15.378  30.300  1.00  0.00     0.000 G0
ENDBRANCH   5   6
ENDBRANCH   4   5
ENDBRANCH   2   4
BRANCH   1  10
ATOM     10  C   UNL     1     -11.314 -17.745  32.048  1.00  0.00     0.111 C 
BRANCH  10  11
ATOM     11  C   UNL     1     -12.724 -17.611  31.528  1.00  0.00     0.163 C 
ATOM     12  O   UNL     1     -13.279 -18.658  31.093  1.00  0.00    -0.294 OA
BRANCH  11  13
ATOM     13  C   UNL     1     -13.477 -16.313  31.482  1.00  0.00    -0.002 C 
ATOM     14  C   UNL     1     -14.487 -16.063  32.371  1.00  0.00    -0.069 C 
ATOM     15  C   UNL     1     -15.418 -14.880  32.215  1.00  0.00     0.039 C 
ATOM     16  C   UNL     1     -14.698 -16.930  33.591  1.00  0.00     0.039 C 
BRANCH  13  17
ATOM     17  C   UNL     1     -13.205 -15.374  30.311  1.00  0.00     0.066 CG0
ATOM     18  G   UNL     1     -13.075 -16.021  28.943  1.00  0.00     0.000 G0
ENDBRANCH  13  17
ENDBRANCH  11  13
ENDBRANCH  10  11
ENDBRANCH   1  10
TORSDOF 0
ENDMDL
MODEL 9
REMARK VINA RESULT:    -4.426      1.723      4.872
REMARK INTER + INTRA:          -5.605
REMARK INTER:                  -5.709
REMARK INTRA:                   0.105
REMARK UNBOUND:                 0.632
REMARK SMILES CC1=CCC(=C(C)C)C(=O)CC(C)=CCC1
REMARK SMILES IDX 12 1 14 2 13 3 15 4 16 5 2 6 1 7 3 8 11 10 9 11 10 12 5 13
REMARK SMILES IDX 6 14 7 15 8 16 4 17
REMARK H PARENT
REMARK Flexibility Score: 60.00
ROOT
ATOM      1  C   UNL     1     -12.892 -15.609  30.674  1.00  0.00    -0.070 C 
ATOM      2  C   UNL     1     -13.634 -15.131  29.648  1.00  0.00    -0.027 C 
ATOM      3  C   UNL     1     -13.596 -15.935  31.966  1.00  0.00     0.039 C 
ENDROOT
BRANCH   2   4
ATOM      4  C   UNL     1     -13.123 -14.892  28.250  1.00  0.00     0.032 C 
BRANCH   4   5
ATOM      5  C   UNL     1     -13.617 -16.006  27.319  1.00  0.00     0.034 C 
BRANCH   5   6
ATOM      6  C   UNL     1     -12.507 -16.948  26.902  1.00  0.00    -0.077 C 
ATOM      7  C   UNL     1     -11.721 -16.632  25.653  1.00  0.00     0.039 C 
ATOM      8  C   UNL     1     -12.222 -18.107  27.549  1.00  0.00    -0.023 CG0
ATOM      9  G   UNL     1     -12.826 -18.610  28.847  1.00  0.00     0.000 G0
ENDBRANCH   5   6
ENDBRANCH   4   5
ENDBRANCH   2   4
BRANCH   1  10
ATOM     10  C   UNL     1     -11.392 -15.812  30.594  1.00  0.00     0.111 C 
BRANCH  10  11
ATOM     11  C   UNL     1     -11.037 -17.192  30.096  1.00  0.00     0.163 C 
ATOM     12  O   UNL     1      -9.877 -17.353  29.627  1.00  0.00    -0.294 OA
BRANCH  11  13
ATOM     13  C   UNL     1     -11.987 -18.354  30.110  1.00  0.00    -0.002 C 
ATOM     14  C   UNL     1     -11.994 -19.235  31.157  1.00  0.00    -0.069 C 
ATOM     15  C   UNL     1     -12.761 -20.537  31.105  1.00  0.00     0.039 C 
ATOM     16  C   UNL     1     -11.272 -18.929  32.450  1.00  0.00     0.039 C 
BRANCH  13  17
ATOM     17  C   UNL     1     -12.803 -18.621  28.849  1.00  0.00     0.066 CG0
ATOM     18  G   UNL     1     -12.220 -18.105  27.545  1.00  0.00     0.000 G0
ENDBRANCH  13  17
ENDBRANCH  11  13
ENDBRANCH  10  11
ENDBRANCH   1  10
TORSDOF 0
ENDMDL
