MODEL 1
REMARK VINA RESULT:    -6.131      0.000      0.000
REMARK INTER + INTRA:          -6.131
REMARK INTER:                  -6.131
REMARK INTRA:                   0.000
REMARK UNBOUND:                 0.000
REMARK SMILES CC1=CC(=O)[C@H]2C[C@@H]1C2(C)C
REMARK SMILES IDX 1 1 2 2 3 3 4 4 5 5 6 6 7 7 8 8 9 9 10 10 11 11
REMARK H PARENT
REMARK Flexibility Score: inf
ROOT
ATOM      1  C   UNL     1      33.997  17.760  15.655  1.00  0.00     0.040 C 
ATOM      2  C   UNL     1      33.310  18.981  16.182  1.00  0.00    -0.066 C 
ATOM      3  C   UNL     1      32.438  19.691  15.412  1.00  0.00     0.047 C 
ATOM      4  C   UNL     1      31.840  20.911  16.045  1.00  0.00     0.159 C 
ATOM      5  O   UNL     1      31.052  21.672  15.423  1.00  0.00    -0.295 OA
ATOM      6  C   UNL     1      32.254  21.168  17.493  1.00  0.00     0.067 C 
ATOM      7  C   UNL     1      32.128  19.787  18.173  1.00  0.00     0.021 C 
ATOM      8  C   UNL     1      33.540  19.484  17.623  1.00  0.00     0.022 C 
ATOM      9  C   UNL     1      33.799  21.018  17.601  1.00  0.00    -0.019 C 
ATOM     10  C   UNL     1      34.679  21.598  16.458  1.00  0.00     0.012 C 
ATOM     11  C   UNL     1      34.350  21.542  18.951  1.00  0.00     0.012 C 
ENDROOT
TORSDOF 0
ENDMDL
MODEL 2
REMARK VINA RESULT:    -6.041      1.822      2.900
REMARK INTER + INTRA:          -6.041
REMARK INTER:                  -6.041
REMARK INTRA:                   0.000
REMARK UNBOUND:                 0.000
REMARK SMILES CC1=CC(=O)[C@H]2C[C@@H]1C2(C)C
REMARK SMILES IDX 1 1 2 2 3 3 4 4 5 5 6 6 7 7 8 8 9 9 10 10 11 11
REMARK H PARENT
REMARK Flexibility Score: inf
ROOT
ATOM      1  C   UNL     1      31.374  21.125  14.180  1.00  0.00     0.040 C 
ATOM      2  C   UNL     1      32.252  20.413  15.161  1.00  0.00    -0.066 C 
ATOM      3  C   UNL     1      32.058  19.099  15.462  1.00  0.00     0.047 C 
ATOM      4  C   UNL     1      32.984  18.510  16.483  1.00  0.00     0.159 C 
ATOM      5  O   UNL     1      32.881  17.318  16.875  1.00  0.00    -0.295 OA
ATOM      6  C   UNL     1      34.059  19.457  17.015  1.00  0.00     0.067 C 
ATOM      7  C   UNL     1      34.617  20.145  15.750  1.00  0.00     0.021 C 
ATOM      8  C   UNL     1      33.427  21.125  15.864  1.00  0.00     0.022 C 
ATOM      9  C   UNL     1      33.388  20.810  17.387  1.00  0.00    -0.019 C 
ATOM     10  C   UNL     1      32.003  20.778  18.095  1.00  0.00     0.012 C 
ATOM     11  C   UNL     1      34.329  21.731  18.205  1.00  0.00     0.012 C 
ENDROOT
TORSDOF 0
ENDMDL
MODEL 3
REMARK VINA RESULT:    -6.024     11.617     13.241
REMARK INTER + INTRA:          -6.024
REMARK INTER:                  -6.024
REMARK INTRA:                   0.000
REMARK UNBOUND:                 0.000
REMARK SMILES CC1=CC(=O)[C@H]2C[C@@H]1C2(C)C
REMARK SMILES IDX 1 1 2 2 3 3 4 4 5 5 6 6 7 7 8 8 9 9 10 10 11 11
REMARK H PARENT
REMARK Flexibility Score: inf
ROOT
ATOM      1  C   UNL     1      29.495  17.697  29.623  1.00  0.00     0.040 C 
ATOM      2  C   UNL     1      28.562  18.661  28.960  1.00  0.00    -0.066 C 
ATOM      3  C   UNL     1      28.359  19.911  29.462  1.00  0.00     0.047 C 
ATOM      4  C   UNL     1      27.377  20.770  28.724  1.00  0.00     0.159 C 
ATOM      5  O   UNL     1      27.074  21.929  29.112  1.00  0.00    -0.295 OA
ATOM      6  C   UNL     1      26.767  20.140  27.473  1.00  0.00     0.067 C 
ATOM      7  C   UNL     1      27.974  19.516  26.738  1.00  0.00     0.021 C 
ATOM      8  C   UNL     1      27.798  18.295  27.670  1.00  0.00     0.022 C 
ATOM      9  C   UNL     1      26.302  18.697  27.820  1.00  0.00    -0.019 C 
ATOM     10  C   UNL     1      25.611  18.453  29.191  1.00  0.00     0.012 C 
ATOM     11  C   UNL     1      25.411  18.081  26.711  1.00  0.00     0.012 C 
ENDROOT
TORSDOF 0
ENDMDL
MODEL 4
REMARK VINA RESULT:    -5.954      1.182      2.903
REMARK INTER + INTRA:          -5.954
REMARK INTER:                  -5.954
REMARK INTRA:                   0.000
REMARK UNBOUND:                 0.000
REMARK SMILES CC1=CC(=O)[C@H]2C[C@@H]1C2(C)C
REMARK SMILES IDX 1 1 2 2 3 3 4 4 5 5 6 6 7 7 8 8 9 9 10 10 11 11
REMARK H PARENT
REMARK Flexibility Score: inf
ROOT
ATOM      1  C   UNL     1      32.945  20.649  19.933  1.00  0.00     0.040 C 
ATOM      2  C   UNL     1      32.988  20.838  18.449  1.00  0.00    -0.066 C 
ATOM      3  C   UNL     1      31.858  21.102  17.735  1.00  0.00     0.047 C 
ATOM      4  C   UNL     1      32.029  21.239  16.252  1.00  0.00     0.159 C 
ATOM      5  O   UNL     1      31.056  21.443  15.480  1.00  0.00    -0.295 OA
ATOM      6  C   UNL     1      33.465  21.111  15.744  1.00  0.00     0.067 C 
ATOM      7  C   UNL     1      34.288  21.984  16.715  1.00  0.00     0.021 C 
ATOM      8  C   UNL     1      34.312  20.761  17.658  1.00  0.00     0.022 C 
ATOM      9  C   UNL     1      34.115  19.861  16.404  1.00  0.00    -0.019 C 
ATOM     10  C   UNL     1      33.257  18.573  16.551  1.00  0.00     0.012 C 
ATOM     11  C   UNL     1      35.460  19.475  15.738  1.00  0.00     0.012 C 
ENDROOT
TORSDOF 0
ENDMDL
MODEL 5
REMARK VINA RESULT:    -5.937      0.978      3.094
REMARK INTER + INTRA:          -5.937
REMARK INTER:                  -5.937
REMARK INTRA:                   0.000
REMARK UNBOUND:                 0.000
REMARK SMILES CC1=CC(=O)[C@H]2C[C@@H]1C2(C)C
REMARK SMILES IDX 1 1 2 2 3 3 4 4 5 5 6 6 7 7 8 8 9 9 10 10 11 11
REMARK H PARENT
REMARK Flexibility Score: inf
ROOT
ATOM      1  C   UNL     1      35.118  21.641  17.977  1.00  0.00     0.040 C 
ATOM      2  C   UNL     1      34.141  21.022  17.027  1.00  0.00    -0.066 C 
ATOM      3  C   UNL     1      33.031  21.694  16.613  1.00  0.00     0.047 C 
ATOM      4  C   UNL     1      32.115  20.954  15.686  1.00  0.00     0.159 C 
ATOM      5  O   UNL     1      31.038  21.452  15.266  1.00  0.00    -0.295 OA
ATOM      6  C   UNL     1      32.578  19.552  15.290  1.00  0.00     0.067 C 
ATOM      7  C   UNL     1      34.072  19.732  14.943  1.00  0.00     0.021 C 
ATOM      8  C   UNL     1      34.351  19.602  16.458  1.00  0.00     0.022 C 
ATOM      9  C   UNL     1      33.025  18.796  16.574  1.00  0.00    -0.019 C 
ATOM     10  C   UNL     1      32.173  18.965  17.865  1.00  0.00     0.012 C 
ATOM     11  C   UNL     1      33.232  17.280  16.325  1.00  0.00     0.012 C 
ENDROOT
TORSDOF 0
ENDMDL
MODEL 6
REMARK VINA RESULT:    -5.930      1.979      3.040
REMARK INTER + INTRA:          -5.930
REMARK INTER:                  -5.930
REMARK INTRA:                   0.000
REMARK UNBOUND:                 0.000
REMARK SMILES CC1=CC(=O)[C@H]2C[C@@H]1C2(C)C
REMARK SMILES IDX 1 1 2 2 3 3 4 4 5 5 6 6 7 7 8 8 9 9 10 10 11 11
REMARK H PARENT
REMARK Flexibility Score: inf
ROOT
ATOM      1  C   UNL     1      31.170  20.756  14.150  1.00  0.00     0.040 C 
ATOM      2  C   UNL     1      32.259  20.587  15.163  1.00  0.00    -0.066 C 
ATOM      3  C   UNL     1      33.441  19.992  14.840  1.00  0.00     0.047 C 
ATOM      4  C   UNL     1      34.438  19.855  15.950  1.00  0.00     0.159 C 
ATOM      5  O   UNL     1      35.550  19.287  15.788  1.00  0.00    -0.295 OA
ATOM      6  C   UNL     1      34.010  20.449  17.292  1.00  0.00     0.067 C 
ATOM      7  C   UNL     1      33.427  21.830  16.924  1.00  0.00     0.021 C 
ATOM      8  C   UNL     1      32.105  21.093  16.613  1.00  0.00     0.022 C 
ATOM      9  C   UNL     1      32.560  19.980  17.601  1.00  0.00    -0.019 C 
ATOM     10  C   UNL     1      32.174  18.508  17.278  1.00  0.00     0.012 C 
ATOM     11  C   UNL     1      32.141  20.282  19.063  1.00  0.00     0.012 C 
ENDROOT
TORSDOF 0
ENDMDL
MODEL 7
REMARK VINA RESULT:    -5.917     11.025     12.602
REMARK INTER + INTRA:          -5.917
REMARK INTER:                  -5.917
REMARK INTRA:                   0.000
REMARK UNBOUND:                 0.000
REMARK SMILES CC1=CC(=O)[C@H]2C[C@@H]1C2(C)C
REMARK SMILES IDX 1 1 2 2 3 3 4 4 5 5 6 6 7 7 8 8 9 9 10 10 11 11
REMARK H PARENT
REMARK Flexibility Score: inf
ROOT
ATOM      1  C   UNL     1      27.193  21.485  29.571  1.00  0.00     0.040 C 
ATOM      2  C   UNL     1      27.279  20.406  28.536  1.00  0.00    -0.066 C 
ATOM      3  C   UNL     1      26.186  19.673  28.186  1.00  0.00     0.047 C 
ATOM      4  C   UNL     1      26.408  18.602  27.161  1.00  0.00     0.159 C 
ATOM      5  O   UNL     1      25.487  17.831  26.784  1.00  0.00    -0.295 OA
ATOM      6  C   UNL     1      27.831  18.509  26.609  1.00  0.00     0.067 C 
ATOM      7  C   UNL     1      28.217  19.975  26.313  1.00  0.00     0.021 C 
ATOM      8  C   UNL     1      28.600  20.085  27.806  1.00  0.00     0.022 C 
ATOM      9  C   UNL     1      28.829  18.545  27.802  1.00  0.00    -0.019 C 
ATOM     10  C   UNL     1      28.472  17.746  29.088  1.00  0.00     0.012 C 
ATOM     11  C   UNL     1      30.270  18.165  27.378  1.00  0.00     0.012 C 
ENDROOT
TORSDOF 0
ENDMDL
MODEL 8
REMARK VINA RESULT:    -5.891      1.714      2.955
REMARK INTER + INTRA:          -5.891
REMARK INTER:                  -5.891
REMARK INTRA:                   0.000
REMARK UNBOUND:                 0.000
REMARK SMILES CC1=CC(=O)[C@H]2C[C@@H]1C2(C)C
REMARK SMILES IDX 1 1 2 2 3 3 4 4 5 5 6 6 7 7 8 8 9 9 10 10 11 11
REMARK H PARENT
REMARK Flexibility Score: inf
ROOT
ATOM      1  C   UNL     1      31.036  21.481  15.107  1.00  0.00     0.040 C 
ATOM      2  C   UNL     1      32.003  20.852  16.061  1.00  0.00    -0.066 C 
ATOM      3  C   UNL     1      31.873  21.008  17.408  1.00  0.00     0.047 C 
ATOM      4  C   UNL     1      32.923  20.354  18.255  1.00  0.00     0.159 C 
ATOM      5  O   UNL     1      32.935  20.459  19.509  1.00  0.00    -0.295 OA
ATOM      6  C   UNL     1      33.978  19.555  17.489  1.00  0.00     0.067 C 
ATOM      7  C   UNL     1      33.161  18.730  16.472  1.00  0.00     0.021 C 
ATOM      8  C   UNL     1      33.181  19.984  15.569  1.00  0.00     0.022 C 
ATOM      9  C   UNL     1      34.485  20.418  16.299  1.00  0.00    -0.019 C 
ATOM     10  C   UNL     1      34.724  21.937  16.535  1.00  0.00     0.012 C 
ATOM     11  C   UNL     1      35.756  19.824  15.639  1.00  0.00     0.012 C 
ENDROOT
TORSDOF 0
ENDMDL
MODEL 9
REMARK VINA RESULT:    -5.889     10.969     12.516
REMARK INTER + INTRA:          -5.889
REMARK INTER:                  -5.889
REMARK INTRA:                   0.000
REMARK UNBOUND:                 0.000
REMARK SMILES CC1=CC(=O)[C@H]2C[C@@H]1C2(C)C
REMARK SMILES IDX 1 1 2 2 3 3 4 4 5 5 6 6 7 7 8 8 9 9 10 10 11 11
REMARK H PARENT
REMARK Flexibility Score: inf
ROOT
ATOM      1  C   UNL     1      29.027  19.596  25.002  1.00  0.00     0.040 C 
ATOM      2  C   UNL     1      28.653  19.325  26.426  1.00  0.00    -0.066 C 
ATOM      3  C   UNL     1      29.234  18.314  27.131  1.00  0.00     0.047 C 
ATOM      4  C   UNL     1      28.752  18.125  28.537  1.00  0.00     0.159 C 
ATOM      5  O   UNL     1      29.182  17.202  29.277  1.00  0.00    -0.295 OA
ATOM      6  C   UNL     1      27.700  19.130  29.009  1.00  0.00     0.067 C 
ATOM      7  C   UNL     1      28.246  20.496  28.541  1.00  0.00     0.021 C 
ATOM      8  C   UNL     1      27.608  20.183  27.169  1.00  0.00     0.022 C 
ATOM      9  C   UNL     1      26.605  19.253  27.911  1.00  0.00    -0.019 C 
ATOM     10  C   UNL     1      26.132  17.959  27.190  1.00  0.00     0.012 C 
ATOM     11  C   UNL     1      25.352  20.016  28.410  1.00  0.00     0.012 C 
ENDROOT
TORSDOF 0
ENDMDL
