MODEL 1
REMARK VINA RESULT:    -3.764      0.000      0.000
REMARK INTER + INTRA:          -4.458
REMARK INTER:                  -4.425
REMARK INTRA:                  -0.034
REMARK UNBOUND:                -0.034
REMARK SMILES O=C([O-])CCC(=O)[O-]
REMARK SMILES IDX 4 1 2 2 1 3 3 4 5 5 6 6 7 7 8 8
REMARK H PARENT
REMARK Flexibility Score: inf
ROOT
ATOM      1  C   UNL     1     -10.101  23.216 -22.418  1.00  0.00     0.059 C 
ENDROOT
BRANCH   1   2
ATOM      2  C   UNL     1      -9.549  22.771 -21.097  1.00  0.00     0.042 C 
ATOM      3  O   UNL     1      -8.380  23.092 -20.758  1.00  0.00    -0.550 OA
ATOM      4  O   UNL     1     -10.342  22.037 -20.225  1.00  0.00    -0.550 OA
ENDBRANCH   1   2
BRANCH   1   5
ATOM      5  C   UNL     1      -9.172  22.836 -23.574  1.00  0.00     0.059 C 
BRANCH   5   6
ATOM      6  C   UNL     1      -9.902  22.812 -24.882  1.00  0.00     0.042 C 
ATOM      7  O   UNL     1     -10.956  22.133 -25.008  1.00  0.00    -0.550 OA
ATOM      8  O   UNL     1      -9.439  23.569 -25.951  1.00  0.00    -0.550 OA
ENDBRANCH   5   6
ENDBRANCH   1   5
TORSDOF 3
ENDMDL
MODEL 2
REMARK VINA RESULT:    -3.748      0.191      4.439
REMARK INTER + INTRA:          -4.439
REMARK INTER:                  -4.406
REMARK INTRA:                  -0.033
REMARK UNBOUND:                -0.034
REMARK SMILES O=C([O-])CCC(=O)[O-]
REMARK SMILES IDX 4 1 2 2 1 3 3 4 5 5 6 6 7 7 8 8
REMARK H PARENT
REMARK Flexibility Score: inf
ROOT
ATOM      1  C   UNL     1      -9.259  22.838 -23.613  1.00  0.00     0.059 C 
ENDROOT
BRANCH   1   2
ATOM      2  C   UNL     1      -9.988  22.963 -24.917  1.00  0.00     0.042 C 
ATOM      3  O   UNL     1     -11.177  22.561 -25.019  1.00  0.00    -0.550 OA
ATOM      4  O   UNL     1      -9.367  23.562 -26.006  1.00  0.00    -0.550 OA
ENDBRANCH   1   2
BRANCH   1   5
ATOM      5  C   UNL     1     -10.159  23.194 -22.427  1.00  0.00     0.059 C 
BRANCH   5   6
ATOM      6  C   UNL     1      -9.557  22.758 -21.127  1.00  0.00     0.042 C 
ATOM      7  O   UNL     1      -8.375  23.081 -20.835  1.00  0.00    -0.550 OA
ATOM      8  O   UNL     1     -10.314  22.026 -20.220  1.00  0.00    -0.550 OA
ENDBRANCH   5   6
ENDBRANCH   1   5
TORSDOF 3
ENDMDL
MODEL 3
REMARK VINA RESULT:    -3.639      7.150      8.713
REMARK INTER + INTRA:          -4.311
REMARK INTER:                  -4.170
REMARK INTRA:                  -0.141
REMARK UNBOUND:                -0.034
REMARK SMILES O=C([O-])CCC(=O)[O-]
REMARK SMILES IDX 4 1 2 2 1 3 3 4 5 5 6 6 7 7 8 8
REMARK H PARENT
REMARK Flexibility Score: inf
ROOT
ATOM      1  C   UNL     1      -4.635  26.633 -20.181  1.00  0.00     0.059 C 
ENDROOT
BRANCH   1   2
ATOM      2  C   UNL     1      -5.840  27.518 -20.288  1.00  0.00     0.042 C 
ATOM      3  O   UNL     1      -6.473  27.854 -19.252  1.00  0.00    -0.550 OA
ATOM      4  O   UNL     1      -6.236  28.006 -21.526  1.00  0.00    -0.550 OA
ENDBRANCH   1   2
BRANCH   1   5
ATOM      5  C   UNL     1      -3.348  27.388 -20.525  1.00  0.00     0.059 C 
BRANCH   5   6
ATOM      6  C   UNL     1      -2.890  28.244 -19.384  1.00  0.00     0.042 C 
ATOM      7  O   UNL     1      -2.783  27.756 -18.228  1.00  0.00    -0.550 OA
ATOM      8  O   UNL     1      -2.543  29.571 -19.606  1.00  0.00    -0.550 OA
ENDBRANCH   5   6
ENDBRANCH   1   5
TORSDOF 3
ENDMDL
MODEL 4
REMARK VINA RESULT:    -3.595      7.128      8.422
REMARK INTER + INTRA:          -4.259
REMARK INTER:                  -4.098
REMARK INTRA:                  -0.161
REMARK UNBOUND:                -0.034
REMARK SMILES O=C([O-])CCC(=O)[O-]
REMARK SMILES IDX 4 1 2 2 1 3 3 4 5 5 6 6 7 7 8 8
REMARK H PARENT
REMARK Flexibility Score: inf
ROOT
ATOM      1  C   UNL     1      -3.337  27.276 -20.502  1.00  0.00     0.059 C 
ENDROOT
BRANCH   1   2
ATOM      2  C   UNL     1      -2.883  28.190 -19.404  1.00  0.00     0.042 C 
ATOM      3  O   UNL     1      -2.735  27.750 -18.234  1.00  0.00    -0.550 OA
ATOM      4  O   UNL     1      -2.583  29.517 -19.684  1.00  0.00    -0.550 OA
ENDBRANCH   1   2
BRANCH   1   5
ATOM      5  C   UNL     1      -4.624  26.538 -20.125  1.00  0.00     0.059 C 
BRANCH   5   6
ATOM      6  C   UNL     1      -5.801  27.463 -20.093  1.00  0.00     0.042 C 
ATOM      7  O   UNL     1      -6.366  27.733 -19.000  1.00  0.00    -0.550 OA
ATOM      8  O   UNL     1      -6.250  28.060 -21.265  1.00  0.00    -0.550 OA
ENDBRANCH   5   6
ENDBRANCH   1   5
TORSDOF 3
ENDMDL
MODEL 5
REMARK VINA RESULT:    -3.521      7.455      8.509
REMARK INTER + INTRA:          -4.172
REMARK INTER:                  -4.001
REMARK INTRA:                  -0.171
REMARK UNBOUND:                -0.034
REMARK SMILES O=C([O-])CCC(=O)[O-]
REMARK SMILES IDX 4 1 2 2 1 3 3 4 5 5 6 6 7 7 8 8
REMARK H PARENT
REMARK Flexibility Score: inf
ROOT
ATOM      1  C   UNL     1      -4.193  28.281 -21.106  1.00  0.00     0.059 C 
ENDROOT
BRANCH   1   2
ATOM      2  C   UNL     1      -3.318  27.822 -19.979  1.00  0.00     0.042 C 
ATOM      3  O   UNL     1      -3.295  26.607 -19.649  1.00  0.00    -0.550 OA
ATOM      4  O   UNL     1      -2.498  28.731 -19.322  1.00  0.00    -0.550 OA
ENDBRANCH   1   2
BRANCH   1   5
ATOM      5  C   UNL     1      -5.651  27.864 -20.893  1.00  0.00     0.059 C 
BRANCH   5   6
ATOM      6  C   UNL     1      -6.261  28.570 -19.721  1.00  0.00     0.042 C 
ATOM      7  O   UNL     1      -6.509  29.803 -19.782  1.00  0.00    -0.550 OA
ATOM      8  O   UNL     1      -6.593  27.857 -18.575  1.00  0.00    -0.550 OA
ENDBRANCH   5   6
ENDBRANCH   1   5
TORSDOF 3
ENDMDL
MODEL 6
REMARK VINA RESULT:    -3.503      7.414      8.441
REMARK INTER + INTRA:          -4.150
REMARK INTER:                  -3.975
REMARK INTRA:                  -0.175
REMARK UNBOUND:                -0.034
REMARK SMILES O=C([O-])CCC(=O)[O-]
REMARK SMILES IDX 4 1 2 2 1 3 3 4 5 5 6 6 7 7 8 8
REMARK H PARENT
REMARK Flexibility Score: inf
ROOT
ATOM      1  C   UNL     1      -5.732  27.837 -20.829  1.00  0.00     0.059 C 
ENDROOT
BRANCH   1   2
ATOM      2  C   UNL     1      -6.270  28.502 -19.598  1.00  0.00     0.042 C 
ATOM      3  O   UNL     1      -6.589  27.813 -18.594  1.00  0.00    -0.550 OA
ATOM      4  O   UNL     1      -6.378  29.886 -19.547  1.00  0.00    -0.550 OA
ENDBRANCH   1   2
BRANCH   1   5
ATOM      5  C   UNL     1      -4.285  28.255 -21.109  1.00  0.00     0.059 C 
BRANCH   5   6
ATOM      6  C   UNL     1      -3.356  27.775 -20.037  1.00  0.00     0.042 C 
ATOM      7  O   UNL     1      -3.285  26.548 -19.761  1.00  0.00    -0.550 OA
ATOM      8  O   UNL     1      -2.537  28.678 -19.370  1.00  0.00    -0.550 OA
ENDBRANCH   5   6
ENDBRANCH   1   5
TORSDOF 3
ENDMDL
MODEL 7
REMARK VINA RESULT:    -3.410      7.011      8.492
REMARK INTER + INTRA:          -4.041
REMARK INTER:                  -3.930
REMARK INTRA:                  -0.111
REMARK UNBOUND:                -0.034
REMARK SMILES O=C([O-])CCC(=O)[O-]
REMARK SMILES IDX 4 1 2 2 1 3 3 4 5 5 6 6 7 7 8 8
REMARK H PARENT
REMARK Flexibility Score: inf
ROOT
ATOM      1  C   UNL     1      -5.869  27.687 -20.349  1.00  0.00     0.059 C 
ENDROOT
BRANCH   1   2
ATOM      2  C   UNL     1      -4.581  26.920 -20.296  1.00  0.00     0.042 C 
ATOM      3  O   UNL     1      -4.591  25.678 -20.091  1.00  0.00    -0.550 OA
ATOM      4  O   UNL     1      -3.375  27.573 -20.515  1.00  0.00    -0.550 OA
ENDBRANCH   1   2
BRANCH   1   5
ATOM      5  C   UNL     1      -6.327  28.115 -18.953  1.00  0.00     0.059 C 
BRANCH   5   6
ATOM      6  C   UNL     1      -6.193  29.594 -18.758  1.00  0.00     0.042 C 
ATOM      7  O   UNL     1      -7.062  30.230 -18.104  1.00  0.00    -0.550 OA
ATOM      8  O   UNL     1      -5.087  30.266 -19.266  1.00  0.00    -0.550 OA
ENDBRANCH   5   6
ENDBRANCH   1   5
TORSDOF 3
ENDMDL
MODEL 8
REMARK VINA RESULT:    -3.392      7.032      8.278
REMARK INTER + INTRA:          -4.021
REMARK INTER:                  -3.906
REMARK INTRA:                  -0.115
REMARK UNBOUND:                -0.034
REMARK SMILES O=C([O-])CCC(=O)[O-]
REMARK SMILES IDX 4 1 2 2 1 3 3 4 5 5 6 6 7 7 8 8
REMARK H PARENT
REMARK Flexibility Score: inf
ROOT
ATOM      1  C   UNL     1      -6.292  28.106 -18.940  1.00  0.00     0.059 C 
ENDROOT
BRANCH   1   2
ATOM      2  C   UNL     1      -6.235  29.590 -18.732  1.00  0.00     0.042 C 
ATOM      3  O   UNL     1      -7.052  30.153 -17.957  1.00  0.00    -0.550 OA
ATOM      4  O   UNL     1      -5.252  30.342 -19.362  1.00  0.00    -0.550 OA
ENDBRANCH   1   2
BRANCH   1   5
ATOM      5  C   UNL     1      -5.870  27.720 -20.360  1.00  0.00     0.059 C 
BRANCH   5   6
ATOM      6  C   UNL     1      -4.562  26.990 -20.367  1.00  0.00     0.042 C 
ATOM      7  O   UNL     1      -3.488  27.614 -20.578  1.00  0.00    -0.550 OA
ATOM      8  O   UNL     1      -4.524  25.626 -20.101  1.00  0.00    -0.550 OA
ENDBRANCH   5   6
ENDBRANCH   1   5
TORSDOF 3
ENDMDL
MODEL 9
REMARK VINA RESULT:    -3.387      3.702      4.862
REMARK INTER + INTRA:          -4.015
REMARK INTER:                  -3.989
REMARK INTRA:                  -0.026
REMARK UNBOUND:                -0.034
REMARK SMILES O=C([O-])CCC(=O)[O-]
REMARK SMILES IDX 4 1 2 2 1 3 3 4 5 5 6 6 7 7 8 8
REMARK H PARENT
REMARK Flexibility Score: inf
ROOT
ATOM      1  C   UNL     1      -9.335  24.042 -25.918  1.00  0.00     0.059 C 
ENDROOT
BRANCH   1   2
ATOM      2  C   UNL     1     -10.327  22.920 -25.846  1.00  0.00     0.042 C 
ATOM      3  O   UNL     1     -11.499  23.136 -25.440  1.00  0.00    -0.550 OA
ATOM      4  O   UNL     1      -9.967  21.647 -26.268  1.00  0.00    -0.550 OA
ENDBRANCH   1   2
BRANCH   1   5
ATOM      5  C   UNL     1      -9.520  24.878 -27.187  1.00  0.00     0.059 C 
BRANCH   5   6
ATOM      6  C   UNL     1      -8.562  26.028 -27.234  1.00  0.00     0.042 C 
ATOM      7  O   UNL     1      -7.546  25.978 -27.977  1.00  0.00    -0.550 OA
ATOM      8  O   UNL     1      -8.812  27.174 -26.488  1.00  0.00    -0.550 OA
ENDBRANCH   5   6
ENDBRANCH   1   5
TORSDOF 3
ENDMDL
