MODEL 1
REMARK VINA RESULT:    -2.388      0.000      0.000
REMARK INTER + INTRA:          -6.851
REMARK INTER:                  -4.063
REMARK INTRA:                  -2.788
REMARK UNBOUND:                -2.788
REMARK SMILES CC(=O)CCC[C@H](C)CCC[C@@H](C)CCCC(C)C
REMARK SMILES IDX 10 1 11 2 12 3 13 4 14 5 15 6 16 7 17 8 18 9 19 10 9 11 7 12
REMARK SMILES IDX 8 13 6 14 5 15 4 16 2 17 3 18 1 19
REMARK H PARENT
REMARK Flexibility Score: inf
ROOT
ATOM      1  C   UNL     1     116.091 124.855 105.443  1.00  0.00     0.001 C 
ENDROOT
BRANCH   1   2
ATOM      2  C   UNL     1     117.258 124.063 106.067  1.00  0.00     0.003 C 
BRANCH   2   3
ATOM      3  C   UNL     1     117.667 124.544 107.482  1.00  0.00    -0.014 C 
ATOM      4  C   UNL     1     117.262 126.009 107.725  1.00  0.00     0.007 C 
BRANCH   3   5
ATOM      5  C   UNL     1     117.131 123.601 108.585  1.00  0.00     0.003 C 
BRANCH   5   6
ATOM      6  C   UNL     1     117.115 122.128 108.147  1.00  0.00     0.001 C 
BRANCH   6   7
ATOM      7  C   UNL     1     115.692 121.549 108.215  1.00  0.00     0.003 C 
BRANCH   7   8
ATOM      8  C   UNL     1     115.536 120.245 107.401  1.00  0.00    -0.017 C 
ATOM      9  C   UNL     1     115.894 120.497 105.931  1.00  0.00     0.007 C 
ATOM     10  C   UNL     1     114.112 119.674 107.498  1.00  0.00     0.007 C 
ENDBRANCH   7   8
ENDBRANCH   6   7
ENDBRANCH   5   6
ENDBRANCH   3   5
ENDBRANCH   2   3
ENDBRANCH   1   2
BRANCH   1  11
ATOM     11  C   UNL     1     114.971 123.947 104.898  1.00  0.00     0.003 C 
BRANCH  11  12
ATOM     12  C   UNL     1     113.584 124.158 105.556  1.00  0.00    -0.014 C 
ATOM     13  C   UNL     1     112.932 122.831 105.978  1.00  0.00     0.007 C 
BRANCH  12  14
ATOM     14  C   UNL     1     113.656 125.159 106.736  1.00  0.00     0.004 C 
BRANCH  14  15
ATOM     15  C   UNL     1     113.570 124.511 108.133  1.00  0.00     0.008 C 
BRANCH  15  16
ATOM     16  C   UNL     1     112.260 124.865 108.851  1.00  0.00     0.075 C 
BRANCH  16  17
ATOM     17  C   UNL     1     111.662 123.676 109.556  1.00  0.00     0.129 C 
ATOM     18  O   UNL     1     110.537 123.753 110.027  1.00  0.00    -0.300 OA
ATOM     19  C   UNL     1     112.425 122.389 109.655  1.00  0.00     0.087 C 
ENDBRANCH  16  17
ENDBRANCH  15  16
ENDBRANCH  14  15
ENDBRANCH  12  14
ENDBRANCH  11  12
ENDBRANCH   1  11
TORSDOF 12
ENDMDL
MODEL 2
REMARK VINA RESULT:    -2.277      1.976      5.196
REMARK INTER + INTRA:          -6.663
REMARK INTER:                  -4.233
REMARK INTRA:                  -2.431
REMARK UNBOUND:                -2.788
REMARK SMILES CC(=O)CCC[C@H](C)CCC[C@@H](C)CCCC(C)C
REMARK SMILES IDX 10 1 11 2 12 3 13 4 14 5 15 6 16 7 17 8 18 9 19 10 9 11 7 12
REMARK SMILES IDX 8 13 6 14 5 15 4 16 2 17 3 18 1 19
REMARK H PARENT
REMARK Flexibility Score: inf
ROOT
ATOM      1  C   UNL     1     113.655 122.025 109.662  1.00  0.00     0.001 C 
ENDROOT
BRANCH   1   2
ATOM      2  C   UNL     1     112.218 122.585 109.653  1.00  0.00     0.003 C 
BRANCH   2   3
ATOM      3  C   UNL     1     112.077 123.965 108.964  1.00  0.00    -0.014 C 
ATOM      4  C   UNL     1     111.542 125.034 109.933  1.00  0.00     0.007 C 
BRANCH   3   5
ATOM      5  C   UNL     1     113.397 124.403 108.285  1.00  0.00     0.003 C 
BRANCH   5   6
ATOM      6  C   UNL     1     113.239 124.623 106.772  1.00  0.00     0.001 C 
BRANCH   6   7
ATOM      7  C   UNL     1     111.976 123.924 106.244  1.00  0.00     0.003 C 
BRANCH   7   8
ATOM      8  C   UNL     1     112.265 122.518 105.670  1.00  0.00    -0.017 C 
ATOM      9  C   UNL     1     113.277 122.618 104.521  1.00  0.00     0.007 C 
ATOM     10  C   UNL     1     110.985 121.825 105.176  1.00  0.00     0.007 C 
ENDBRANCH   7   8
ENDBRANCH   6   7
ENDBRANCH   5   6
ENDBRANCH   3   5
ENDBRANCH   2   3
ENDBRANCH   1   2
BRANCH   1  11
ATOM     11  C   UNL     1     113.723 120.535 109.273  1.00  0.00     0.003 C 
BRANCH  11  12
ATOM     12  C   UNL     1     114.603 120.225 108.036  1.00  0.00    -0.014 C 
ATOM     13  C   UNL     1     113.829 119.464 106.947  1.00  0.00     0.007 C 
BRANCH  12  14
ATOM     14  C   UNL     1     115.271 121.504 107.473  1.00  0.00     0.004 C 
BRANCH  14  15
ATOM     15  C   UNL     1     116.766 121.653 107.820  1.00  0.00     0.008 C 
BRANCH  15  16
ATOM     16  C   UNL     1     117.037 122.903 108.670  1.00  0.00     0.075 C 
BRANCH  16  17
ATOM     17  C   UNL     1     117.304 124.118 107.821  1.00  0.00     0.129 C 
ATOM     18  O   UNL     1     117.103 125.233 108.277  1.00  0.00    -0.300 OA
ATOM     19  C   UNL     1     117.843 123.969 106.430  1.00  0.00     0.087 C 
ENDBRANCH  16  17
ENDBRANCH  15  16
ENDBRANCH  14  15
ENDBRANCH  12  14
ENDBRANCH  11  12
ENDBRANCH   1  11
TORSDOF 12
ENDMDL
MODEL 3
REMARK VINA RESULT:    -2.277      9.086     11.277
REMARK INTER + INTRA:          -6.663
REMARK INTER:                  -4.426
REMARK INTRA:                  -2.237
REMARK UNBOUND:                -2.788
REMARK SMILES CC(=O)CCC[C@H](C)CCC[C@@H](C)CCCC(C)C
REMARK SMILES IDX 10 1 11 2 12 3 13 4 14 5 15 6 16 7 17 8 18 9 19 10 9 11 7 12
REMARK SMILES IDX 8 13 6 14 5 15 4 16 2 17 3 18 1 19
REMARK H PARENT
REMARK Flexibility Score: inf
ROOT
ATOM      1  C   UNL     1     124.354 117.892 106.685  1.00  0.00     0.001 C 
ENDROOT
BRANCH   1   2
ATOM      2  C   UNL     1     123.868 116.429 106.643  1.00  0.00     0.003 C 
BRANCH   2   3
ATOM      3  C   UNL     1     123.942 115.695 108.005  1.00  0.00    -0.014 C 
ATOM      4  C   UNL     1     122.621 114.979 108.340  1.00  0.00     0.007 C 
BRANCH   3   5
ATOM      5  C   UNL     1     125.156 114.738 108.074  1.00  0.00     0.003 C 
BRANCH   5   6
ATOM      6  C   UNL     1     126.026 114.793 106.808  1.00  0.00     0.001 C 
BRANCH   6   7
ATOM      7  C   UNL     1     126.109 113.413 106.137  1.00  0.00     0.003 C 
BRANCH   7   8
ATOM      8  C   UNL     1     125.280 113.327 104.836  1.00  0.00    -0.017 C 
ATOM      9  C   UNL     1     123.839 112.909 105.157  1.00  0.00     0.007 C 
ATOM     10  C   UNL     1     125.894 112.343 103.827  1.00  0.00     0.007 C 
ENDBRANCH   7   8
ENDBRANCH   6   7
ENDBRANCH   5   6
ENDBRANCH   3   5
ENDBRANCH   2   3
ENDBRANCH   1   2
BRANCH   1  11
ATOM     11  C   UNL     1     124.546 118.422 108.120  1.00  0.00     0.003 C 
BRANCH  11  12
ATOM     12  C   UNL     1     123.956 119.831 108.378  1.00  0.00    -0.014 C 
ATOM     13  C   UNL     1     123.341 120.446 107.109  1.00  0.00     0.007 C 
BRANCH  12  14
ATOM     14  C   UNL     1     122.949 119.824 109.554  1.00  0.00     0.004 C 
BRANCH  14  15
ATOM     15  C   UNL     1     122.019 118.594 109.596  1.00  0.00     0.008 C 
BRANCH  15  16
ATOM     16  C   UNL     1     120.537 118.994 109.604  1.00  0.00     0.075 C 
BRANCH  16  17
ATOM     17  C   UNL     1     119.917 118.895 108.236  1.00  0.00     0.129 C 
ATOM     18  O   UNL     1     118.947 119.585 107.957  1.00  0.00    -0.300 OA
ATOM     19  C   UNL     1     120.500 117.979 107.202  1.00  0.00     0.087 C 
ENDBRANCH  16  17
ENDBRANCH  15  16
ENDBRANCH  14  15
ENDBRANCH  12  14
ENDBRANCH  11  12
ENDBRANCH   1  11
TORSDOF 12
ENDMDL
MODEL 4
REMARK VINA RESULT:    -2.275      2.876      5.405
REMARK INTER + INTRA:          -6.659
REMARK INTER:                  -4.198
REMARK INTRA:                  -2.461
REMARK UNBOUND:                -2.788
REMARK SMILES CC(=O)CCC[C@H](C)CCC[C@@H](C)CCCC(C)C
REMARK SMILES IDX 10 1 11 2 12 3 13 4 14 5 15 6 16 7 17 8 18 9 19 10 9 11 7 12
REMARK SMILES IDX 8 13 6 14 5 15 4 16 2 17 3 18 1 19
REMARK H PARENT
REMARK Flexibility Score: inf
ROOT
ATOM      1  C   UNL     1     114.160 123.095 106.738  1.00  0.00     0.001 C 
ENDROOT
BRANCH   1   2
ATOM      2  C   UNL     1     112.942 122.585 107.535  1.00  0.00     0.003 C 
BRANCH   2   3
ATOM      3  C   UNL     1     113.046 122.806 109.064  1.00  0.00    -0.014 C 
ATOM      4  C   UNL     1     111.758 123.423 109.639  1.00  0.00     0.007 C 
BRANCH   3   5
ATOM      5  C   UNL     1     113.451 121.509 109.805  1.00  0.00     0.003 C 
BRANCH   5   6
ATOM      6  C   UNL     1     112.964 120.241 109.086  1.00  0.00     0.001 C 
BRANCH   6   7
ATOM      7  C   UNL     1     114.144 119.471 108.472  1.00  0.00     0.003 C 
BRANCH   7   8
ATOM      8  C   UNL     1     113.738 118.643 107.230  1.00  0.00    -0.017 C 
ATOM      9  C   UNL     1     114.398 119.223 105.973  1.00  0.00     0.007 C 
ATOM     10  C   UNL     1     112.213 118.599 107.043  1.00  0.00     0.007 C 
ENDBRANCH   7   8
ENDBRANCH   6   7
ENDBRANCH   5   6
ENDBRANCH   3   5
ENDBRANCH   2   3
ENDBRANCH   1   2
BRANCH   1  11
ATOM     11  C   UNL     1     115.084 124.006 107.569  1.00  0.00     0.003 C 
BRANCH  11  12
ATOM     12  C   UNL     1     116.570 123.566 107.605  1.00  0.00    -0.014 C 
ATOM     13  C   UNL     1     117.490 124.668 108.159  1.00  0.00     0.007 C 
BRANCH  12  14
ATOM     14  C   UNL     1     116.754 122.232 108.370  1.00  0.00     0.004 C 
BRANCH  14  15
ATOM     15  C   UNL     1     117.359 121.089 107.529  1.00  0.00     0.008 C 
BRANCH  15  16
ATOM     16  C   UNL     1     117.361 121.417 106.029  1.00  0.00     0.075 C 
BRANCH  16  17
ATOM     17  C   UNL     1     118.756 121.587 105.488  1.00  0.00     0.129 C 
ATOM     18  O   UNL     1     119.521 120.634 105.475  1.00  0.00    -0.300 OA
ATOM     19  C   UNL     1     119.201 122.908 104.937  1.00  0.00     0.087 C 
ENDBRANCH  16  17
ENDBRANCH  15  16
ENDBRANCH  14  15
ENDBRANCH  12  14
ENDBRANCH  11  12
ENDBRANCH   1  11
TORSDOF 12
ENDMDL
MODEL 5
REMARK VINA RESULT:    -2.243      9.148     11.559
REMARK INTER + INTRA:          -6.605
REMARK INTER:                  -4.003
REMARK INTRA:                  -2.602
REMARK UNBOUND:                -2.788
REMARK SMILES CC(=O)CCC[C@H](C)CCC[C@@H](C)CCCC(C)C
REMARK SMILES IDX 10 1 11 2 12 3 13 4 14 5 15 6 16 7 17 8 18 9 19 10 9 11 7 12
REMARK SMILES IDX 8 13 6 14 5 15 4 16 2 17 3 18 1 19
REMARK H PARENT
REMARK Flexibility Score: inf
ROOT
ATOM      1  C   UNL     1     109.576 116.251 108.664  1.00  0.00     0.001 C 
ENDROOT
BRANCH   1   2
ATOM      2  C   UNL     1     108.683 117.251 107.903  1.00  0.00     0.003 C 
BRANCH   2   3
ATOM      3  C   UNL     1     107.168 116.933 107.975  1.00  0.00    -0.014 C 
ATOM      4  C   UNL     1     106.359 117.784 106.980  1.00  0.00     0.007 C 
BRANCH   3   5
ATOM      5  C   UNL     1     106.892 115.420 107.805  1.00  0.00     0.003 C 
BRANCH   5   6
ATOM      6  C   UNL     1     106.520 115.045 106.362  1.00  0.00     0.001 C 
BRANCH   6   7
ATOM      7  C   UNL     1     107.537 114.056 105.771  1.00  0.00     0.003 C 
BRANCH   7   8
ATOM      8  C   UNL     1     108.727 114.760 105.080  1.00  0.00    -0.017 C 
ATOM      9  C   UNL     1     108.222 115.939 104.237  1.00  0.00     0.007 C 
ATOM     10  C   UNL     1     109.530 113.794 104.194  1.00  0.00     0.007 C 
ENDBRANCH   7   8
ENDBRANCH   6   7
ENDBRANCH   5   6
ENDBRANCH   3   5
ENDBRANCH   2   3
ENDBRANCH   1   2
BRANCH   1  11
ATOM     11  C   UNL     1     110.713 115.677 107.796  1.00  0.00     0.003 C 
BRANCH  11  12
ATOM     12  C   UNL     1     110.965 114.158 107.974  1.00  0.00    -0.014 C 
ATOM     13  C   UNL     1     112.234 113.689 107.243  1.00  0.00     0.007 C 
BRANCH  12  14
ATOM     14  C   UNL     1     110.983 113.752 109.468  1.00  0.00     0.004 C 
BRANCH  14  15
ATOM     15  C   UNL     1     109.982 112.640 109.843  1.00  0.00     0.008 C 
BRANCH  15  16
ATOM     16  C   UNL     1     108.921 112.430 108.753  1.00  0.00     0.075 C 
BRANCH  16  17
ATOM     17  C   UNL     1     107.713 111.696 109.272  1.00  0.00     0.129 C 
ATOM     18  O   UNL     1     106.606 112.202 109.170  1.00  0.00    -0.300 OA
ATOM     19  C   UNL     1     107.857 110.336 109.886  1.00  0.00     0.087 C 
ENDBRANCH  16  17
ENDBRANCH  15  16
ENDBRANCH  14  15
ENDBRANCH  12  14
ENDBRANCH  11  12
ENDBRANCH   1  11
TORSDOF 12
ENDMDL
MODEL 6
REMARK VINA RESULT:    -2.200      8.861     11.233
REMARK INTER + INTRA:          -6.532
REMARK INTER:                  -3.993
REMARK INTRA:                  -2.538
REMARK UNBOUND:                -2.788
REMARK SMILES CC(=O)CCC[C@H](C)CCC[C@@H](C)CCCC(C)C
REMARK SMILES IDX 10 1 11 2 12 3 13 4 14 5 15 6 16 7 17 8 18 9 19 10 9 11 7 12
REMARK SMILES IDX 8 13 6 14 5 15 4 16 2 17 3 18 1 19
REMARK H PARENT
REMARK Flexibility Score: inf
ROOT
ATOM      1  C   UNL     1     122.953 114.942 108.803  1.00  0.00     0.001 C 
ENDROOT
BRANCH   1   2
ATOM      2  C   UNL     1     124.308 114.589 108.155  1.00  0.00     0.003 C 
BRANCH   2   3
ATOM      3  C   UNL     1     124.846 115.666 107.181  1.00  0.00    -0.014 C 
ATOM      4  C   UNL     1     125.897 116.567 107.852  1.00  0.00     0.007 C 
BRANCH   3   5
ATOM      5  C   UNL     1     125.370 115.039 105.867  1.00  0.00     0.003 C 
BRANCH   5   6
ATOM      6  C   UNL     1     124.964 115.846 104.623  1.00  0.00     0.001 C 
BRANCH   6   7
ATOM      7  C   UNL     1     123.498 116.298 104.717  1.00  0.00     0.003 C 
BRANCH   7   8
ATOM      8  C   UNL     1     123.298 117.774 104.301  1.00  0.00    -0.017 C 
ATOM      9  C   UNL     1     124.150 118.690 105.190  1.00  0.00     0.007 C 
ATOM     10  C   UNL     1     121.823 118.199 104.380  1.00  0.00     0.007 C 
ENDBRANCH   7   8
ENDBRANCH   6   7
ENDBRANCH   5   6
ENDBRANCH   3   5
ENDBRANCH   2   3
ENDBRANCH   1   2
BRANCH   1  11
ATOM     11  C   UNL     1     121.825 115.140 107.772  1.00  0.00     0.003 C 
BRANCH  11  12
ATOM     12  C   UNL     1     121.305 116.594 107.648  1.00  0.00    -0.014 C 
ATOM     13  C   UNL     1     119.793 116.649 107.370  1.00  0.00     0.007 C 
BRANCH  12  14
ATOM     14  C   UNL     1     121.689 117.447 108.882  1.00  0.00     0.004 C 
BRANCH  14  15
ATOM     15  C   UNL     1     122.710 118.567 108.595  1.00  0.00     0.008 C 
BRANCH  15  16
ATOM     16  C   UNL     1     122.692 119.653 109.679  1.00  0.00     0.075 C 
BRANCH  16  17
ATOM     17  C   UNL     1     123.774 120.680 109.470  1.00  0.00     0.129 C 
ATOM     18  O   UNL     1     123.781 121.700 110.142  1.00  0.00    -0.300 OA
ATOM     19  C   UNL     1     124.861 120.443 108.466  1.00  0.00     0.087 C 
ENDBRANCH  16  17
ENDBRANCH  15  16
ENDBRANCH  14  15
ENDBRANCH  12  14
ENDBRANCH  11  12
ENDBRANCH   1  11
TORSDOF 12
ENDMDL
MODEL 7
REMARK VINA RESULT:    -2.184      7.645     10.932
REMARK INTER + INTRA:          -6.505
REMARK INTER:                  -3.833
REMARK INTRA:                  -2.672
REMARK UNBOUND:                -2.788
REMARK SMILES CC(=O)CCC[C@H](C)CCC[C@@H](C)CCCC(C)C
REMARK SMILES IDX 10 1 11 2 12 3 13 4 14 5 15 6 16 7 17 8 18 9 19 10 9 11 7 12
REMARK SMILES IDX 8 13 6 14 5 15 4 16 2 17 3 18 1 19
REMARK H PARENT
REMARK Flexibility Score: inf
ROOT
ATOM      1  C   UNL     1     108.515 114.755 105.983  1.00  0.00     0.001 C 
ENDROOT
BRANCH   1   2
ATOM      2  C   UNL     1     107.768 116.089 106.188  1.00  0.00     0.003 C 
BRANCH   2   3
ATOM      3  C   UNL     1     108.414 117.024 107.241  1.00  0.00    -0.014 C 
ATOM      4  C   UNL     1     107.375 117.557 108.244  1.00  0.00     0.007 C 
BRANCH   3   5
ATOM      5  C   UNL     1     109.612 116.348 107.949  1.00  0.00     0.003 C 
BRANCH   5   6
ATOM      6  C   UNL     1     110.963 116.949 107.529  1.00  0.00     0.001 C 
BRANCH   6   7
ATOM      7  C   UNL     1     110.786 117.936 106.364  1.00  0.00     0.003 C 
BRANCH   7   8
ATOM      8  C   UNL     1     111.415 117.425 105.046  1.00  0.00    -0.017 C 
ATOM      9  C   UNL     1     110.373 117.458 103.920  1.00  0.00     0.007 C 
ATOM     10  C   UNL     1     111.978 116.003 105.192  1.00  0.00     0.007 C 
ENDBRANCH   7   8
ENDBRANCH   6   7
ENDBRANCH   5   6
ENDBRANCH   3   5
ENDBRANCH   2   3
ENDBRANCH   1   2
BRANCH   1  11
ATOM     11  C   UNL     1     107.660 113.525 106.345  1.00  0.00     0.003 C 
BRANCH  11  12
ATOM     12  C   UNL     1     107.401 113.335 107.861  1.00  0.00    -0.014 C 
ATOM     13  C   UNL     1     105.969 113.728 108.261  1.00  0.00     0.007 C 
BRANCH  12  14
ATOM     14  C   UNL     1     107.750 111.900 108.326  1.00  0.00     0.004 C 
BRANCH  14  15
ATOM     15  C   UNL     1     108.782 111.830 109.470  1.00  0.00     0.008 C 
BRANCH  15  16
ATOM     16  C   UNL     1     109.564 113.143 109.620  1.00  0.00     0.075 C 
BRANCH  16  17
ATOM     17  C   UNL     1     110.984 113.014 109.137  1.00  0.00     0.129 C 
ATOM     18  O   UNL     1     111.889 112.864 109.944  1.00  0.00    -0.300 OA
ATOM     19  C   UNL     1     111.292 113.038 107.670  1.00  0.00     0.087 C 
ENDBRANCH  16  17
ENDBRANCH  15  16
ENDBRANCH  14  15
ENDBRANCH  12  14
ENDBRANCH  11  12
ENDBRANCH   1  11
TORSDOF 12
ENDMDL
MODEL 8
REMARK VINA RESULT:    -2.160      8.551     11.775
REMARK INTER + INTRA:          -6.464
REMARK INTER:                  -4.460
REMARK INTRA:                  -2.004
REMARK UNBOUND:                -2.788
REMARK SMILES CC(=O)CCC[C@H](C)CCC[C@@H](C)CCCC(C)C
REMARK SMILES IDX 10 1 11 2 12 3 13 4 14 5 15 6 16 7 17 8 18 9 19 10 9 11 7 12
REMARK SMILES IDX 8 13 6 14 5 15 4 16 2 17 3 18 1 19
REMARK H PARENT
REMARK Flexibility Score: inf
ROOT
ATOM      1  C   UNL     1     110.192 114.596 107.207  1.00  0.00     0.001 C 
ENDROOT
BRANCH   1   2
ATOM      2  C   UNL     1     108.900 115.314 107.646  1.00  0.00     0.003 C 
BRANCH   2   3
ATOM      3  C   UNL     1     109.138 116.620 108.444  1.00  0.00    -0.014 C 
ATOM      4  C   UNL     1     110.361 117.393 107.920  1.00  0.00     0.007 C 
BRANCH   3   5
ATOM      5  C   UNL     1     107.868 117.503 108.490  1.00  0.00     0.003 C 
BRANCH   5   6
ATOM      6  C   UNL     1     106.700 116.901 107.692  1.00  0.00     0.001 C 
BRANCH   6   7
ATOM      7  C   UNL     1     106.025 117.969 106.817  1.00  0.00     0.003 C 
BRANCH   7   8
ATOM      8  C   UNL     1     106.533 117.957 105.357  1.00  0.00    -0.017 C 
ATOM      9  C   UNL     1     106.817 116.516 104.912  1.00  0.00     0.007 C 
ATOM     10  C   UNL     1     107.797 118.813 105.182  1.00  0.00     0.007 C 
ENDBRANCH   7   8
ENDBRANCH   6   7
ENDBRANCH   5   6
ENDBRANCH   3   5
ENDBRANCH   2   3
ENDBRANCH   1   2
BRANCH   1  11
ATOM     11  C   UNL     1     110.170 113.083 107.502  1.00  0.00     0.003 C 
BRANCH  11  12
ATOM     12  C   UNL     1     110.558 112.697 108.952  1.00  0.00    -0.014 C 
ATOM     13  C   UNL     1     111.639 113.625 109.532  1.00  0.00     0.007 C 
BRANCH  12  14
ATOM     14  C   UNL     1     109.317 112.621 109.876  1.00  0.00     0.004 C 
BRANCH  14  15
ATOM     15  C   UNL     1     108.380 111.429 109.594  1.00  0.00     0.008 C 
BRANCH  15  16
ATOM     16  C   UNL     1     106.911 111.864 109.489  1.00  0.00     0.075 C 
BRANCH  16  17
ATOM     17  C   UNL     1     106.400 111.798 108.074  1.00  0.00     0.129 C 
ATOM     18  O   UNL     1     106.144 110.714 107.571  1.00  0.00    -0.300 OA
ATOM     19  C   UNL     1     106.175 113.055 107.289  1.00  0.00     0.087 C 
ENDBRANCH  16  17
ENDBRANCH  15  16
ENDBRANCH  14  15
ENDBRANCH  12  14
ENDBRANCH  11  12
ENDBRANCH   1  11
TORSDOF 12
ENDMDL
MODEL 9
REMARK VINA RESULT:    -2.150      8.258     10.794
REMARK INTER + INTRA:          -6.447
REMARK INTER:                  -3.864
REMARK INTRA:                  -2.583
REMARK UNBOUND:                -2.788
REMARK SMILES CC(=O)CCC[C@H](C)CCC[C@@H](C)CCCC(C)C
REMARK SMILES IDX 10 1 11 2 12 3 13 4 14 5 15 6 16 7 17 8 18 9 19 10 9 11 7 12
REMARK SMILES IDX 8 13 6 14 5 15 4 16 2 17 3 18 1 19
REMARK H PARENT
REMARK Flexibility Score: inf
ROOT
ATOM      1  C   UNL     1     125.276 117.461 106.260  1.00  0.00     0.001 C 
ENDROOT
BRANCH   1   2
ATOM      2  C   UNL     1     125.134 116.395 107.366  1.00  0.00     0.003 C 
BRANCH   2   3
ATOM      3  C   UNL     1     123.917 115.454 107.189  1.00  0.00    -0.014 C 
ATOM      4  C   UNL     1     124.319 114.119 106.537  1.00  0.00     0.007 C 
BRANCH   3   5
ATOM      5  C   UNL     1     123.155 115.246 108.520  1.00  0.00     0.003 C 
BRANCH   5   6
ATOM      6  C   UNL     1     122.007 116.250 108.707  1.00  0.00     0.001 C 
BRANCH   6   7
ATOM      7  C   UNL     1     121.079 116.258 107.482  1.00  0.00     0.003 C 
BRANCH   7   8
ATOM      8  C   UNL     1     120.276 117.572 107.347  1.00  0.00    -0.017 C 
ATOM      9  C   UNL     1     118.821 117.346 107.776  1.00  0.00     0.007 C 
ATOM     10  C   UNL     1     120.315 118.124 105.913  1.00  0.00     0.007 C 
ENDBRANCH   7   8
ENDBRANCH   6   7
ENDBRANCH   5   6
ENDBRANCH   3   5
ENDBRANCH   2   3
ENDBRANCH   1   2
BRANCH   1  11
ATOM     11  C   UNL     1     123.969 118.232 105.995  1.00  0.00     0.003 C 
BRANCH  11  12
ATOM     12  C   UNL     1     123.943 119.679 106.549  1.00  0.00    -0.014 C 
ATOM     13  C   UNL     1     123.504 120.701 105.486  1.00  0.00     0.007 C 
BRANCH  12  14
ATOM     14  C   UNL     1     123.085 119.787 107.833  1.00  0.00     0.004 C 
BRANCH  14  15
ATOM     15  C   UNL     1     123.837 119.457 109.138  1.00  0.00     0.008 C 
BRANCH  15  16
ATOM     16  C   UNL     1     125.076 120.344 109.328  1.00  0.00     0.075 C 
BRANCH  16  17
ATOM     17  C   UNL     1     124.718 121.804 109.414  1.00  0.00     0.129 C 
ATOM     18  O   UNL     1     123.960 122.193 110.290  1.00  0.00    -0.300 OA
ATOM     19  C   UNL     1     125.309 122.789 108.450  1.00  0.00     0.087 C 
ENDBRANCH  16  17
ENDBRANCH  15  16
ENDBRANCH  14  15
ENDBRANCH  12  14
ENDBRANCH  11  12
ENDBRANCH   1  11
TORSDOF 12
ENDMDL
