MODEL 1
REMARK VINA RESULT:    29.548      0.000      0.000
REMARK INTER + INTRA:          34.457
REMARK INTER:                  34.730
REMARK INTRA:                  -0.273
REMARK UNBOUND:                -0.273
REMARK SMILES O=c1c(O)c(-c2ccc(O)cc2)oc2cc(O)cc(O)c12
REMARK SMILES IDX 5 1 3 2 2 3 1 4 21 5 19 6 18 7 16 8 15 9 14 10 13 11 6 12
REMARK SMILES IDX 7 13 8 14 9 15 12 16 11 17 10 18 4 20 20 22 17 24
REMARK H PARENT 10 19 4 21 20 23 17 25
REMARK Flexibility Score: inf
ROOT
ATOM      1  C   UNL     1      -3.266  -0.690   2.232  1.00  0.00     0.180 A 
ATOM      2  C   UNL     1      -3.606   0.112   3.338  1.00  0.00     0.208 A 
ATOM      3  C   UNL     1      -2.578   0.667   4.116  1.00  0.00     0.238 A 
ATOM      4  O   UNL     1      -2.870   1.396   5.102  1.00  0.00    -0.285 OA
ATOM      5  C   UNL     1      -1.233   0.396   3.790  1.00  0.00     0.111 A 
ATOM      6  C   UNL     1      -0.138   0.913   4.524  1.00  0.00     0.134 A 
ATOM      7  C   UNL     1       1.173   0.589   4.139  1.00  0.00     0.093 A 
ATOM      8  C   UNL     1       1.407  -0.241   3.038  1.00  0.00     0.123 A 
ATOM      9  C   UNL     1       0.331  -0.752   2.310  1.00  0.00     0.094 A 
ATOM     10  C   UNL     1      -0.982  -0.440   2.676  1.00  0.00     0.146 A 
ATOM     11  O   UNL     1      -1.986  -0.936   1.963  1.00  0.00    -0.452 OA
ENDROOT
BRANCH   1  12
ATOM     12  C   UNL     1      -4.293  -1.294   1.353  1.00  0.00     0.021 A 
ATOM     13  C   UNL     1      -4.641  -0.710   0.122  1.00  0.00     0.016 A 
ATOM     14  C   UNL     1      -5.596  -1.313  -0.701  1.00  0.00     0.047 A 
ATOM     15  C   UNL     1      -6.205  -2.514  -0.313  1.00  0.00     0.115 A 
ATOM     16  C   UNL     1      -4.892  -2.510   1.726  1.00  0.00     0.016 A 
ATOM     17  C   UNL     1      -5.847  -3.110   0.900  1.00  0.00     0.047 A 
BRANCH  15  18
ATOM     18  O   UNL     1      -7.159  -3.122  -1.125  1.00  0.00    -0.508 OA
ATOM     19  H   UNL     1      -7.109  -3.064  -2.135  1.00  0.00     0.293 HD
ENDBRANCH  15  18
ENDBRANCH   1  12
BRANCH   2  20
ATOM     20  O   UNL     1      -4.947   0.325   3.670  1.00  0.00    -0.502 OA
ATOM     21  H   UNL     1      -5.395  -0.145   4.448  1.00  0.00     0.293 HD
ENDBRANCH   2  20
BRANCH   6  22
ATOM     22  O   UNL     1      -0.341   1.742   5.627  1.00  0.00    -0.507 OA
ATOM     23  H   UNL     1      -0.730   1.390   6.494  1.00  0.00     0.293 HD
ENDBRANCH   6  22
BRANCH   8  24
ATOM     24  O   UNL     1       2.708  -0.564   2.657  1.00  0.00    -0.508 OA
ATOM     25  H   UNL     1       3.486   0.054   2.855  1.00  0.00     0.293 HD
ENDBRANCH   8  24
TORSDOF 5
ENDMDL
