MODEL 1
REMARK VINA RESULT:    -3.149      0.000      0.000
REMARK INTER + INTRA:         -13.392
REMARK INTER:                  -7.937
REMARK INTRA:                  -5.456
REMARK UNBOUND:                -5.456
REMARK SMILES CCCCCCCCCCCCCCCCCCCCCCCCCCCC(=O)[O-]
REMARK SMILES IDX 15 1 16 2 17 3 18 4 19 5 20 6 21 7 22 8 23 9 24 10 25 11
REMARK SMILES IDX 26 12 27 13 28 14 29 15 30 16 14 17 13 18 12 19 11 20 10 21
REMARK SMILES IDX 9 22 8 23 7 24 6 25 5 26 4 27 3 28 2 29 1 30
REMARK H PARENT
REMARK Flexibility Score: inf
ROOT
ATOM      1  C   UNL     1      -8.347  29.756  45.691  1.00  0.00     0.000 C 
ENDROOT
BRANCH   1   2
ATOM      2  C   UNL     1      -7.261  28.742  45.294  1.00  0.00     0.000 C 
BRANCH   2   3
ATOM      3  C   UNL     1      -7.597  27.304  45.725  1.00  0.00     0.000 C 
BRANCH   3   4
ATOM      4  C   UNL     1      -6.359  26.472  46.126  1.00  0.00     0.000 C 
BRANCH   4   5
ATOM      5  C   UNL     1      -5.156  26.737  45.203  1.00  0.00     0.000 C 
BRANCH   5   6
ATOM      6  C   UNL     1      -4.949  25.619  44.168  1.00  0.00     0.000 C 
BRANCH   6   7
ATOM      7  C   UNL     1      -5.914  25.735  42.976  1.00  0.00     0.000 C 
BRANCH   7   8
ATOM      8  C   UNL     1      -5.632  26.979  42.107  1.00  0.00     0.000 C 
BRANCH   8   9
ATOM      9  C   UNL     1      -6.806  27.372  41.191  1.00  0.00     0.000 C 
BRANCH   9  10
ATOM     10  C   UNL     1      -7.650  28.561  41.689  1.00  0.00     0.000 C 
BRANCH  10  11
ATOM     11  C   UNL     1      -9.142  28.506  41.307  1.00  0.00     0.000 C 
BRANCH  11  12
ATOM     12  C   UNL     1     -10.077  28.781  42.494  1.00  0.00     0.006 C 
BRANCH  12  13
ATOM     13  C   UNL     1     -10.298  27.514  43.327  1.00  0.00     0.053 C 
BRANCH  13  14
ATOM     14  C   UNL     1     -11.321  26.633  42.681  1.00  0.00     0.041 C 
ATOM     15  O   UNL     1     -10.998  25.887  41.719  1.00  0.00    -0.550 OA
ATOM     16  O   UNL     1     -12.639  26.660  43.121  1.00  0.00    -0.550 OA
ENDBRANCH  13  14
ENDBRANCH  12  13
ENDBRANCH  11  12
ENDBRANCH  10  11
ENDBRANCH   9  10
ENDBRANCH   8   9
ENDBRANCH   7   8
ENDBRANCH   6   7
ENDBRANCH   5   6
ENDBRANCH   4   5
ENDBRANCH   3   4
ENDBRANCH   2   3
ENDBRANCH   1   2
BRANCH   1  17
ATOM     17  C   UNL     1      -7.886  30.711  46.803  1.00  0.00     0.000 C 
BRANCH  17  18
ATOM     18  C   UNL     1      -6.481  30.366  47.331  1.00  0.00     0.000 C 
BRANCH  18  19
ATOM     19  C   UNL     1      -5.499  31.542  47.214  1.00  0.00     0.000 C 
BRANCH  19  20
ATOM     20  C   UNL     1      -5.746  32.629  48.274  1.00  0.00     0.000 C 
BRANCH  20  21
ATOM     21  C   UNL     1      -5.276  34.018  47.816  1.00  0.00     0.000 C 
BRANCH  21  22
ATOM     22  C   UNL     1      -6.009  34.508  46.554  1.00  0.00    -0.000 C 
BRANCH  22  23
ATOM     23  C   UNL     1      -7.523  34.674  46.770  1.00  0.00    -0.000 C 
BRANCH  23  24
ATOM     24  C   UNL     1      -8.379  34.041  45.653  1.00  0.00    -0.000 C 
BRANCH  24  25
ATOM     25  C   UNL     1      -7.596  33.884  44.339  1.00  0.00    -0.000 C 
BRANCH  25  26
ATOM     26  C   UNL     1      -8.165  32.738  43.492  1.00  0.00    -0.000 C 
BRANCH  26  27
ATOM     27  C   UNL     1      -7.071  31.914  42.790  1.00  0.00    -0.000 C 
BRANCH  27  28
ATOM     28  C   UNL     1      -5.814  31.640  43.641  1.00  0.00    -0.000 C 
BRANCH  28  29
ATOM     29  C   UNL     1      -4.833  30.618  43.036  1.00  0.00    -0.003 C 
ATOM     30  C   UNL     1      -3.928  29.970  44.082  1.00  0.00     0.004 C 
ENDBRANCH  28  29
ENDBRANCH  27  28
ENDBRANCH  26  27
ENDBRANCH  25  26
ENDBRANCH  24  25
ENDBRANCH  23  24
ENDBRANCH  22  23
ENDBRANCH  21  22
ENDBRANCH  20  21
ENDBRANCH  19  20
ENDBRANCH  18  19
ENDBRANCH  17  18
ENDBRANCH   1  17
TORSDOF 26
ENDMDL
MODEL 2
REMARK VINA RESULT:    -3.136      1.587      3.629
REMARK INTER + INTRA:         -13.358
REMARK INTER:                  -7.743
REMARK INTRA:                  -5.615
REMARK UNBOUND:                -5.456
REMARK SMILES CCCCCCCCCCCCCCCCCCCCCCCCCCCC(=O)[O-]
REMARK SMILES IDX 15 1 16 2 17 3 18 4 19 5 20 6 21 7 22 8 23 9 24 10 25 11
REMARK SMILES IDX 26 12 27 13 28 14 29 15 30 16 14 17 13 18 12 19 11 20 10 21
REMARK SMILES IDX 9 22 8 23 7 24 6 25 5 26 4 27 3 28 2 29 1 30
REMARK H PARENT
REMARK Flexibility Score: inf
ROOT
ATOM      1  C   UNL     1      -7.809  31.055  45.406  1.00  0.00     0.000 C 
ENDROOT
BRANCH   1   2
ATOM      2  C   UNL     1      -7.823  30.582  46.870  1.00  0.00     0.000 C 
BRANCH   2   3
ATOM      3  C   UNL     1      -6.457  30.729  47.561  1.00  0.00     0.000 C 
BRANCH   3   4
ATOM      4  C   UNL     1      -5.268  30.793  46.577  1.00  0.00     0.000 C 
BRANCH   4   5
ATOM      5  C   UNL     1      -4.240  29.677  46.835  1.00  0.00     0.000 C 
BRANCH   5   6
ATOM      6  C   UNL     1      -4.007  28.792  45.600  1.00  0.00     0.000 C 
BRANCH   6   7
ATOM      7  C   UNL     1      -5.319  28.249  45.009  1.00  0.00     0.000 C 
BRANCH   7   8
ATOM      8  C   UNL     1      -6.017  27.243  45.948  1.00  0.00     0.000 C 
BRANCH   8   9
ATOM      9  C   UNL     1      -7.529  27.100  45.688  1.00  0.00     0.000 C 
BRANCH   9  10
ATOM     10  C   UNL     1      -7.996  27.573  44.298  1.00  0.00     0.000 C 
BRANCH  10  11
ATOM     11  C   UNL     1      -9.476  27.994  44.217  1.00  0.00     0.000 C 
BRANCH  11  12
ATOM     12  C   UNL     1     -10.178  27.480  42.951  1.00  0.00     0.006 C 
BRANCH  12  13
ATOM     13  C   UNL     1     -11.629  27.087  43.246  1.00  0.00     0.053 C 
BRANCH  13  14
ATOM     14  C   UNL     1     -12.086  26.017  42.305  1.00  0.00     0.041 C 
ATOM     15  O   UNL     1     -13.253  26.047  41.830  1.00  0.00    -0.550 OA
ATOM     16  O   UNL     1     -11.235  24.968  41.978  1.00  0.00    -0.550 OA
ENDBRANCH  13  14
ENDBRANCH  12  13
ENDBRANCH  11  12
ENDBRANCH  10  11
ENDBRANCH   9  10
ENDBRANCH   8   9
ENDBRANCH   7   8
ENDBRANCH   6   7
ENDBRANCH   5   6
ENDBRANCH   4   5
ENDBRANCH   3   4
ENDBRANCH   2   3
ENDBRANCH   1   2
BRANCH   1  17
ATOM     17  C   UNL     1      -8.827  32.175  45.138  1.00  0.00     0.000 C 
BRANCH  17  18
ATOM     18  C   UNL     1      -8.153  33.535  44.879  1.00  0.00     0.000 C 
BRANCH  18  19
ATOM     19  C   UNL     1      -7.611  34.183  46.162  1.00  0.00     0.000 C 
BRANCH  19  20
ATOM     20  C   UNL     1      -6.080  34.341  46.145  1.00  0.00     0.000 C 
BRANCH  20  21
ATOM     21  C   UNL     1      -5.553  34.837  44.789  1.00  0.00     0.000 C 
BRANCH  21  22
ATOM     22  C   UNL     1      -4.465  33.919  44.203  1.00  0.00    -0.000 C 
BRANCH  22  23
ATOM     23  C   UNL     1      -4.969  33.075  43.020  1.00  0.00    -0.000 C 
BRANCH  23  24
ATOM     24  C   UNL     1      -4.859  31.555  43.257  1.00  0.00    -0.000 C 
BRANCH  24  25
ATOM     25  C   UNL     1      -5.471  30.742  42.105  1.00  0.00    -0.000 C 
BRANCH  25  26
ATOM     26  C   UNL     1      -6.941  31.121  41.883  1.00  0.00    -0.000 C 
BRANCH  26  27
ATOM     27  C   UNL     1      -7.750  30.004  41.200  1.00  0.00    -0.000 C 
BRANCH  27  28
ATOM     28  C   UNL     1      -9.160  30.413  40.730  1.00  0.00    -0.000 C 
BRANCH  28  29
ATOM     29  C   UNL     1     -10.065  31.001  41.828  1.00  0.00    -0.003 C 
ATOM     30  C   UNL     1     -10.272  32.507  41.687  1.00  0.00     0.004 C 
ENDBRANCH  28  29
ENDBRANCH  27  28
ENDBRANCH  26  27
ENDBRANCH  25  26
ENDBRANCH  24  25
ENDBRANCH  23  24
ENDBRANCH  22  23
ENDBRANCH  21  22
ENDBRANCH  20  21
ENDBRANCH  19  20
ENDBRANCH  18  19
ENDBRANCH  17  18
ENDBRANCH   1  17
TORSDOF 26
ENDMDL
MODEL 3
REMARK VINA RESULT:    -3.125     13.445     16.397
REMARK INTER + INTRA:         -13.332
REMARK INTER:                 -10.134
REMARK INTRA:                  -3.198
REMARK UNBOUND:                -5.456
REMARK SMILES CCCCCCCCCCCCCCCCCCCCCCCCCCCC(=O)[O-]
REMARK SMILES IDX 15 1 16 2 17 3 18 4 19 5 20 6 21 7 22 8 23 9 24 10 25 11
REMARK SMILES IDX 26 12 27 13 28 14 29 15 30 16 14 17 13 18 12 19 11 20 10 21
REMARK SMILES IDX 9 22 8 23 7 24 6 25 5 26 4 27 3 28 2 29 1 30
REMARK H PARENT
REMARK Flexibility Score: inf
ROOT
ATOM      1  C   UNL     1     -19.284  24.017  34.823  1.00  0.00     0.000 C 
ENDROOT
BRANCH   1   2
ATOM      2  C   UNL     1     -19.360  22.717  34.005  1.00  0.00     0.000 C 
BRANCH   2   3
ATOM      3  C   UNL     1     -20.290  21.666  34.636  1.00  0.00     0.000 C 
BRANCH   3   4
ATOM      4  C   UNL     1     -21.528  22.272  35.332  1.00  0.00     0.000 C 
BRANCH   4   5
ATOM      5  C   UNL     1     -22.328  21.218  36.118  1.00  0.00     0.000 C 
BRANCH   5   6
ATOM      6  C   UNL     1     -22.245  21.427  37.639  1.00  0.00     0.000 C 
BRANCH   6   7
ATOM      7  C   UNL     1     -21.215  22.501  38.031  1.00  0.00     0.000 C 
BRANCH   7   8
ATOM      8  C   UNL     1     -21.518  23.136  39.404  1.00  0.00     0.000 C 
BRANCH   8   9
ATOM      9  C   UNL     1     -22.365  22.239  40.327  1.00  0.00     0.000 C 
BRANCH   9  10
ATOM     10  C   UNL     1     -21.717  21.909  41.685  1.00  0.00     0.000 C 
BRANCH  10  11
ATOM     11  C   UNL     1     -20.177  21.934  41.695  1.00  0.00     0.000 C 
BRANCH  11  12
ATOM     12  C   UNL     1     -19.552  20.538  41.545  1.00  0.00     0.006 C 
BRANCH  12  13
ATOM     13  C   UNL     1     -18.026  20.602  41.664  1.00  0.00     0.053 C 
BRANCH  13  14
ATOM     14  C   UNL     1     -17.598  20.356  43.077  1.00  0.00     0.041 C 
ATOM     15  O   UNL     1     -17.471  21.321  43.876  1.00  0.00    -0.550 OA
ATOM     16  O   UNL     1     -17.307  19.065  43.501  1.00  0.00    -0.550 OA
ENDBRANCH  13  14
ENDBRANCH  12  13
ENDBRANCH  11  12
ENDBRANCH  10  11
ENDBRANCH   9  10
ENDBRANCH   8   9
ENDBRANCH   7   8
ENDBRANCH   6   7
ENDBRANCH   5   6
ENDBRANCH   4   5
ENDBRANCH   3   4
ENDBRANCH   2   3
ENDBRANCH   1   2
BRANCH   1  17
ATOM     17  C   UNL     1     -19.665  25.256  33.997  1.00  0.00     0.000 C 
BRANCH  17  18
ATOM     18  C   UNL     1     -19.482  25.036  32.485  1.00  0.00     0.000 C 
BRANCH  18  19
ATOM     19  C   UNL     1     -18.414  25.957  31.875  1.00  0.00     0.000 C 
BRANCH  19  20
ATOM     20  C   UNL     1     -17.027  25.759  32.514  1.00  0.00     0.000 C 
BRANCH  20  21
ATOM     21  C   UNL     1     -16.442  27.065  33.072  1.00  0.00     0.000 C 
BRANCH  21  22
ATOM     22  C   UNL     1     -15.585  26.842  34.331  1.00  0.00    -0.000 C 
BRANCH  22  23
ATOM     23  C   UNL     1     -16.149  25.747  35.251  1.00  0.00    -0.000 C 
BRANCH  23  24
ATOM     24  C   UNL     1     -15.168  24.580  35.494  1.00  0.00    -0.000 C 
BRANCH  24  25
ATOM     25  C   UNL     1     -15.722  23.240  34.983  1.00  0.00    -0.000 C 
BRANCH  25  26
ATOM     26  C   UNL     1     -15.076  22.851  33.646  1.00  0.00    -0.000 C 
BRANCH  26  27
ATOM     27  C   UNL     1     -13.777  23.627  33.363  1.00  0.00    -0.000 C 
BRANCH  27  28
ATOM     28  C   UNL     1     -12.758  22.890  32.471  1.00  0.00    -0.000 C 
BRANCH  28  29
ATOM     29  C   UNL     1     -12.842  21.353  32.524  1.00  0.00    -0.003 C 
ATOM     30  C   UNL     1     -11.476  20.678  32.425  1.00  0.00     0.004 C 
ENDBRANCH  28  29
ENDBRANCH  27  28
ENDBRANCH  26  27
ENDBRANCH  25  26
ENDBRANCH  24  25
ENDBRANCH  23  24
ENDBRANCH  22  23
ENDBRANCH  21  22
ENDBRANCH  20  21
ENDBRANCH  19  20
ENDBRANCH  18  19
ENDBRANCH  17  18
ENDBRANCH   1  17
TORSDOF 26
ENDMDL
MODEL 4
REMARK VINA RESULT:    -3.109      1.270      2.845
REMARK INTER + INTRA:         -13.291
REMARK INTER:                  -7.636
REMARK INTRA:                  -5.655
REMARK UNBOUND:                -5.456
REMARK SMILES CCCCCCCCCCCCCCCCCCCCCCCCCCCC(=O)[O-]
REMARK SMILES IDX 15 1 16 2 17 3 18 4 19 5 20 6 21 7 22 8 23 9 24 10 25 11
REMARK SMILES IDX 26 12 27 13 28 14 29 15 30 16 14 17 13 18 12 19 11 20 10 21
REMARK SMILES IDX 9 22 8 23 7 24 6 25 5 26 4 27 3 28 2 29 1 30
REMARK H PARENT
REMARK Flexibility Score: inf
ROOT
ATOM      1  C   UNL     1      -7.875  31.536  46.020  1.00  0.00     0.000 C 
ENDROOT
BRANCH   1   2
ATOM      2  C   UNL     1      -7.389  30.629  47.164  1.00  0.00     0.000 C 
BRANCH   2   3
ATOM      3  C   UNL     1      -6.508  29.467  46.674  1.00  0.00     0.000 C 
BRANCH   3   4
ATOM      4  C   UNL     1      -7.258  28.454  45.782  1.00  0.00     0.000 C 
BRANCH   4   5
ATOM      5  C   UNL     1      -6.763  27.013  45.996  1.00  0.00     0.000 C 
BRANCH   5   6
ATOM      6  C   UNL     1      -5.230  26.907  45.987  1.00  0.00     0.000 C 
BRANCH   6   7
ATOM      7  C   UNL     1      -4.675  26.511  44.608  1.00  0.00     0.000 C 
BRANCH   7   8
ATOM      8  C   UNL     1      -5.663  25.643  43.801  1.00  0.00     0.000 C 
BRANCH   8   9
ATOM      9  C   UNL     1      -6.250  26.357  42.569  1.00  0.00     0.000 C 
BRANCH   9  10
ATOM     10  C   UNL     1      -7.786  26.474  42.556  1.00  0.00     0.000 C 
BRANCH  10  11
ATOM     11  C   UNL     1      -8.339  27.714  41.826  1.00  0.00     0.000 C 
BRANCH  11  12
ATOM     12  C   UNL     1      -9.421  28.452  42.630  1.00  0.00     0.006 C 
BRANCH  12  13
ATOM     13  C   UNL     1     -10.378  27.463  43.303  1.00  0.00     0.053 C 
BRANCH  13  14
ATOM     14  C   UNL     1     -11.627  27.306  42.492  1.00  0.00     0.041 C 
ATOM     15  O   UNL     1     -11.624  27.589  41.265  1.00  0.00    -0.550 OA
ATOM     16  O   UNL     1     -12.802  26.880  43.100  1.00  0.00    -0.550 OA
ENDBRANCH  13  14
ENDBRANCH  12  13
ENDBRANCH  11  12
ENDBRANCH  10  11
ENDBRANCH   9  10
ENDBRANCH   8   9
ENDBRANCH   7   8
ENDBRANCH   6   7
ENDBRANCH   5   6
ENDBRANCH   4   5
ENDBRANCH   3   4
ENDBRANCH   2   3
ENDBRANCH   1   2
BRANCH   1  17
ATOM     17  C   UNL     1      -7.596  33.023  46.287  1.00  0.00     0.000 C 
BRANCH  17  18
ATOM     18  C   UNL     1      -6.925  33.262  47.652  1.00  0.00     0.000 C 
BRANCH  18  19
ATOM     19  C   UNL     1      -5.590  34.014  47.534  1.00  0.00     0.000 C 
BRANCH  19  20
ATOM     20  C   UNL     1      -4.386  33.154  47.958  1.00  0.00     0.000 C 
BRANCH  20  21
ATOM     21  C   UNL     1      -3.880  32.248  46.825  1.00  0.00     0.000 C 
BRANCH  21  22
ATOM     22  C   UNL     1      -3.882  32.952  45.455  1.00  0.00    -0.000 C 
BRANCH  22  23
ATOM     23  C   UNL     1      -4.529  32.103  44.349  1.00  0.00    -0.000 C 
BRANCH  23  24
ATOM     24  C   UNL     1      -4.032  30.643  44.321  1.00  0.00    -0.000 C 
BRANCH  24  25
ATOM     25  C   UNL     1      -4.719  29.816  43.221  1.00  0.00    -0.000 C 
BRANCH  25  26
ATOM     26  C   UNL     1      -6.117  30.367  42.910  1.00  0.00    -0.000 C 
BRANCH  26  27
ATOM     27  C   UNL     1      -6.327  30.654  41.413  1.00  0.00    -0.000 C 
BRANCH  27  28
ATOM     28  C   UNL     1      -7.444  31.666  41.092  1.00  0.00    -0.000 C 
BRANCH  28  29
ATOM     29  C   UNL     1      -8.385  31.988  42.268  1.00  0.00    -0.003 C 
ATOM     30  C   UNL     1      -8.303  33.446  42.716  1.00  0.00     0.004 C 
ENDBRANCH  28  29
ENDBRANCH  27  28
ENDBRANCH  26  27
ENDBRANCH  25  26
ENDBRANCH  24  25
ENDBRANCH  23  24
ENDBRANCH  22  23
ENDBRANCH  21  22
ENDBRANCH  20  21
ENDBRANCH  19  20
ENDBRANCH  18  19
ENDBRANCH  17  18
ENDBRANCH   1  17
TORSDOF 26
ENDMDL
MODEL 5
REMARK VINA RESULT:    -3.061     11.755     16.520
REMARK INTER + INTRA:         -13.169
REMARK INTER:                  -9.789
REMARK INTRA:                  -3.380
REMARK UNBOUND:                -5.456
REMARK SMILES CCCCCCCCCCCCCCCCCCCCCCCCCCCC(=O)[O-]
REMARK SMILES IDX 15 1 16 2 17 3 18 4 19 5 20 6 21 7 22 8 23 9 24 10 25 11
REMARK SMILES IDX 26 12 27 13 28 14 29 15 30 16 14 17 13 18 12 19 11 20 10 21
REMARK SMILES IDX 9 22 8 23 7 24 6 25 5 26 4 27 3 28 2 29 1 30
REMARK H PARENT
REMARK Flexibility Score: inf
ROOT
ATOM      1  C   UNL     1     -20.379  25.556  33.967  1.00  0.00     0.000 C 
ENDROOT
BRANCH   1   2
ATOM      2  C   UNL     1     -20.635  26.285  32.636  1.00  0.00     0.000 C 
BRANCH   2   3
ATOM      3  C   UNL     1     -19.361  26.903  32.036  1.00  0.00     0.000 C 
BRANCH   3   4
ATOM      4  C   UNL     1     -18.379  27.450  33.095  1.00  0.00     0.000 C 
BRANCH   4   5
ATOM      5  C   UNL     1     -16.932  26.992  32.837  1.00  0.00     0.000 C 
BRANCH   5   6
ATOM      6  C   UNL     1     -16.860  25.713  31.988  1.00  0.00     0.000 C 
BRANCH   6   7
ATOM      7  C   UNL     1     -16.031  24.605  32.661  1.00  0.00     0.000 C 
BRANCH   7   8
ATOM      8  C   UNL     1     -16.881  23.368  33.021  1.00  0.00     0.000 C 
BRANCH   8   9
ATOM      9  C   UNL     1     -16.857  23.016  34.520  1.00  0.00     0.000 C 
BRANCH   9  10
ATOM     10  C   UNL     1     -16.323  24.129  35.440  1.00  0.00     0.000 C 
BRANCH  10  11
ATOM     11  C   UNL     1     -17.405  25.017  36.085  1.00  0.00     0.000 C 
BRANCH  11  12
ATOM     12  C   UNL     1     -17.271  25.114  37.612  1.00  0.00     0.006 C 
BRANCH  12  13
ATOM     13  C   UNL     1     -15.811  25.320  38.026  1.00  0.00     0.053 C 
BRANCH  13  14
ATOM     14  C   UNL     1     -15.422  24.339  39.087  1.00  0.00     0.041 C 
ATOM     15  O   UNL     1     -15.819  23.146  39.022  1.00  0.00    -0.550 OA
ATOM     16  O   UNL     1     -14.649  24.752  40.166  1.00  0.00    -0.550 OA
ENDBRANCH  13  14
ENDBRANCH  12  13
ENDBRANCH  11  12
ENDBRANCH  10  11
ENDBRANCH   9  10
ENDBRANCH   8   9
ENDBRANCH   7   8
ENDBRANCH   6   7
ENDBRANCH   5   6
ENDBRANCH   4   5
ENDBRANCH   3   4
ENDBRANCH   2   3
ENDBRANCH   1   2
BRANCH   1  17
ATOM     17  C   UNL     1     -20.396  24.027  33.815  1.00  0.00     0.000 C 
BRANCH  17  18
ATOM     18  C   UNL     1     -20.401  23.300  35.172  1.00  0.00     0.000 C 
BRANCH  18  19
ATOM     19  C   UNL     1     -21.120  21.943  35.117  1.00  0.00     0.000 C 
BRANCH  19  20
ATOM     20  C   UNL     1     -21.928  21.648  36.392  1.00  0.00     0.000 C 
BRANCH  20  21
ATOM     21  C   UNL     1     -21.430  22.449  37.605  1.00  0.00     0.000 C 
BRANCH  21  22
ATOM     22  C   UNL     1     -21.789  21.783  38.946  1.00  0.00    -0.000 C 
BRANCH  22  23
ATOM     23  C   UNL     1     -21.693  22.750  40.138  1.00  0.00    -0.000 C 
BRANCH  23  24
ATOM     24  C   UNL     1     -20.706  22.287  41.230  1.00  0.00    -0.000 C 
BRANCH  24  25
ATOM     25  C   UNL     1     -21.180  21.007  41.936  1.00  0.00    -0.000 C 
BRANCH  25  26
ATOM     26  C   UNL     1     -19.998  20.250  42.557  1.00  0.00    -0.000 C 
BRANCH  26  27
ATOM     27  C   UNL     1     -18.664  21.002  42.409  1.00  0.00    -0.000 C 
BRANCH  27  28
ATOM     28  C   UNL     1     -17.549  20.218  41.687  1.00  0.00    -0.000 C 
BRANCH  28  29
ATOM     29  C   UNL     1     -17.371  18.763  42.158  1.00  0.00    -0.003 C 
ATOM     30  C   UNL     1     -17.056  17.800  41.015  1.00  0.00     0.004 C 
ENDBRANCH  28  29
ENDBRANCH  27  28
ENDBRANCH  26  27
ENDBRANCH  25  26
ENDBRANCH  24  25
ENDBRANCH  23  24
ENDBRANCH  22  23
ENDBRANCH  21  22
ENDBRANCH  20  21
ENDBRANCH  19  20
ENDBRANCH  18  19
ENDBRANCH  17  18
ENDBRANCH   1  17
TORSDOF 26
ENDMDL
MODEL 6
REMARK VINA RESULT:    -3.045      2.599      4.591
REMARK INTER + INTRA:         -13.128
REMARK INTER:                  -8.257
REMARK INTRA:                  -4.871
REMARK UNBOUND:                -5.456
REMARK SMILES CCCCCCCCCCCCCCCCCCCCCCCCCCCC(=O)[O-]
REMARK SMILES IDX 15 1 16 2 17 3 18 4 19 5 20 6 21 7 22 8 23 9 24 10 25 11
REMARK SMILES IDX 26 12 27 13 28 14 29 15 30 16 14 17 13 18 12 19 11 20 10 21
REMARK SMILES IDX 9 22 8 23 7 24 6 25 5 26 4 27 3 28 2 29 1 30
REMARK H PARENT
REMARK Flexibility Score: inf
ROOT
ATOM      1  C   UNL     1      -6.007  27.192  45.691  1.00  0.00     0.000 C 
ENDROOT
BRANCH   1   2
ATOM      2  C   UNL     1      -7.541  27.198  45.584  1.00  0.00     0.000 C 
BRANCH   2   3
ATOM      3  C   UNL     1      -8.048  27.815  44.269  1.00  0.00     0.000 C 
BRANCH   3   4
ATOM      4  C   UNL     1      -9.562  28.115  44.268  1.00  0.00     0.000 C 
BRANCH   4   5
ATOM      5  C   UNL     1     -10.290  27.427  43.100  1.00  0.00     0.000 C 
BRANCH   5   6
ATOM      6  C   UNL     1     -11.717  26.988  43.469  1.00  0.00     0.000 C 
BRANCH   6   7
ATOM      7  C   UNL     1     -12.553  26.604  42.237  1.00  0.00     0.000 C 
BRANCH   7   8
ATOM      8  C   UNL     1     -14.007  27.113  42.328  1.00  0.00     0.000 C 
BRANCH   8   9
ATOM      9  C   UNL     1     -14.756  27.090  40.983  1.00  0.00     0.000 C 
BRANCH   9  10
ATOM     10  C   UNL     1     -14.175  28.018  39.899  1.00  0.00     0.000 C 
BRANCH  10  11
ATOM     11  C   UNL     1     -13.845  29.446  40.374  1.00  0.00     0.000 C 
BRANCH  11  12
ATOM     12  C   UNL     1     -12.444  29.912  39.950  1.00  0.00     0.006 C 
BRANCH  12  13
ATOM     13  C   UNL     1     -11.582  30.248  41.171  1.00  0.00     0.053 C 
BRANCH  13  14
ATOM     14  C   UNL     1     -10.835  31.527  40.950  1.00  0.00     0.041 C 
ATOM     15  O   UNL     1     -11.006  32.502  41.729  1.00  0.00    -0.550 OA
ATOM     16  O   UNL     1      -9.976  31.652  39.865  1.00  0.00    -0.550 OA
ENDBRANCH  13  14
ENDBRANCH  12  13
ENDBRANCH  11  12
ENDBRANCH  10  11
ENDBRANCH   9  10
ENDBRANCH   8   9
ENDBRANCH   7   8
ENDBRANCH   6   7
ENDBRANCH   5   6
ENDBRANCH   4   5
ENDBRANCH   3   4
ENDBRANCH   2   3
ENDBRANCH   1   2
BRANCH   1  17
ATOM     17  C   UNL     1      -5.331  27.951  44.538  1.00  0.00     0.000 C 
BRANCH  17  18
ATOM     18  C   UNL     1      -4.225  28.903  45.027  1.00  0.00     0.000 C 
BRANCH  18  19
ATOM     19  C   UNL     1      -4.351  29.244  46.520  1.00  0.00     0.000 C 
BRANCH  19  20
ATOM     20  C   UNL     1      -4.231  30.753  46.795  1.00  0.00     0.000 C 
BRANCH  20  21
ATOM     21  C   UNL     1      -5.565  31.384  47.220  1.00  0.00     0.000 C 
BRANCH  21  22
ATOM     22  C   UNL     1      -6.672  30.338  47.446  1.00  0.00    -0.000 C 
BRANCH  22  23
ATOM     23  C   UNL     1      -7.989  30.700  46.739  1.00  0.00    -0.000 C 
BRANCH  23  24
ATOM     24  C   UNL     1      -7.873  31.923  45.806  1.00  0.00    -0.000 C 
BRANCH  24  25
ATOM     25  C   UNL     1      -8.773  31.796  44.566  1.00  0.00    -0.000 C 
BRANCH  25  26
ATOM     26  C   UNL     1      -7.954  31.409  43.328  1.00  0.00    -0.000 C 
BRANCH  26  27
ATOM     27  C   UNL     1      -6.441  31.352  43.606  1.00  0.00    -0.000 C 
BRANCH  27  28
ATOM     28  C   UNL     1      -5.618  32.493  42.976  1.00  0.00    -0.000 C 
BRANCH  28  29
ATOM     29  C   UNL     1      -4.497  33.054  43.871  1.00  0.00    -0.003 C 
ATOM     30  C   UNL     1      -4.984  34.142  44.825  1.00  0.00     0.004 C 
ENDBRANCH  28  29
ENDBRANCH  27  28
ENDBRANCH  26  27
ENDBRANCH  25  26
ENDBRANCH  24  25
ENDBRANCH  23  24
ENDBRANCH  22  23
ENDBRANCH  21  22
ENDBRANCH  20  21
ENDBRANCH  19  20
ENDBRANCH  18  19
ENDBRANCH  17  18
ENDBRANCH   1  17
TORSDOF 26
ENDMDL
MODEL 7
REMARK VINA RESULT:    -3.038      1.402      2.894
REMARK INTER + INTRA:         -13.111
REMARK INTER:                  -7.591
REMARK INTRA:                  -5.520
REMARK UNBOUND:                -5.456
REMARK SMILES CCCCCCCCCCCCCCCCCCCCCCCCCCCC(=O)[O-]
REMARK SMILES IDX 15 1 16 2 17 3 18 4 19 5 20 6 21 7 22 8 23 9 24 10 25 11
REMARK SMILES IDX 26 12 27 13 28 14 29 15 30 16 14 17 13 18 12 19 11 20 10 21
REMARK SMILES IDX 9 22 8 23 7 24 6 25 5 26 4 27 3 28 2 29 1 30
REMARK H PARENT
REMARK Flexibility Score: inf
ROOT
ATOM      1  C   UNL     1      -7.274  27.132  45.651  1.00  0.00     0.000 C 
ENDROOT
BRANCH   1   2
ATOM      2  C   UNL     1      -6.067  26.186  45.768  1.00  0.00     0.000 C 
BRANCH   2   3
ATOM      3  C   UNL     1      -5.707  25.507  44.435  1.00  0.00     0.000 C 
BRANCH   3   4
ATOM      4  C   UNL     1      -6.405  26.136  43.210  1.00  0.00     0.000 C 
BRANCH   4   5
ATOM      5  C   UNL     1      -5.400  26.585  42.134  1.00  0.00     0.000 C 
BRANCH   5   6
ATOM      6  C   UNL     1      -5.251  28.113  42.067  1.00  0.00     0.000 C 
BRANCH   6   7
ATOM      7  C   UNL     1      -6.557  28.849  42.414  1.00  0.00     0.000 C 
BRANCH   7   8
ATOM      8  C   UNL     1      -7.390  29.194  41.161  1.00  0.00     0.000 C 
BRANCH   8   9
ATOM      9  C   UNL     1      -8.878  28.819  41.286  1.00  0.00     0.000 C 
BRANCH   9  10
ATOM     10  C   UNL     1      -9.502  29.086  42.669  1.00  0.00     0.000 C 
BRANCH  10  11
ATOM     11  C   UNL     1     -10.101  27.848  43.364  1.00  0.00     0.000 C 
BRANCH  11  12
ATOM     12  C   UNL     1     -10.142  26.610  42.456  1.00  0.00     0.006 C 
BRANCH  12  13
ATOM     13  C   UNL     1     -11.575  26.092  42.294  1.00  0.00     0.053 C 
BRANCH  13  14
ATOM     14  C   UNL     1     -11.569  24.659  41.861  1.00  0.00     0.041 C 
ATOM     15  O   UNL     1     -10.702  24.247  41.046  1.00  0.00    -0.550 OA
ATOM     16  O   UNL     1     -12.543  23.786  42.333  1.00  0.00    -0.550 OA
ENDBRANCH  13  14
ENDBRANCH  12  13
ENDBRANCH  11  12
ENDBRANCH  10  11
ENDBRANCH   9  10
ENDBRANCH   8   9
ENDBRANCH   7   8
ENDBRANCH   6   7
ENDBRANCH   5   6
ENDBRANCH   4   5
ENDBRANCH   3   4
ENDBRANCH   2   3
ENDBRANCH   1   2
BRANCH   1  17
ATOM     17  C   UNL     1      -6.916  28.590  45.982  1.00  0.00     0.000 C 
BRANCH  17  18
ATOM     18  C   UNL     1      -5.415  28.778  46.267  1.00  0.00     0.000 C 
BRANCH  18  19
ATOM     19  C   UNL     1      -5.083  30.179  46.802  1.00  0.00     0.000 C 
BRANCH  19  20
ATOM     20  C   UNL     1      -6.273  30.834  47.526  1.00  0.00     0.000 C 
BRANCH  20  21
ATOM     21  C   UNL     1      -6.149  32.363  47.602  1.00  0.00     0.000 C 
BRANCH  21  22
ATOM     22  C   UNL     1      -4.871  32.890  46.924  1.00  0.00    -0.000 C 
BRANCH  22  23
ATOM     23  C   UNL     1      -5.165  33.874  45.779  1.00  0.00    -0.000 C 
BRANCH  23  24
ATOM     24  C   UNL     1      -4.455  33.512  44.458  1.00  0.00    -0.000 C 
BRANCH  24  25
ATOM     25  C   UNL     1      -5.025  32.234  43.823  1.00  0.00    -0.000 C 
BRANCH  25  26
ATOM     26  C   UNL     1      -5.906  32.566  42.611  1.00  0.00    -0.000 C 
BRANCH  26  27
ATOM     27  C   UNL     1      -7.410  32.511  42.934  1.00  0.00    -0.000 C 
BRANCH  27  28
ATOM     28  C   UNL     1      -7.778  31.700  44.192  1.00  0.00    -0.000 C 
BRANCH  28  29
ATOM     29  C   UNL     1      -8.733  32.415  45.167  1.00  0.00    -0.003 C 
ATOM     30  C   UNL     1      -9.358  33.676  44.573  1.00  0.00     0.004 C 
ENDBRANCH  28  29
ENDBRANCH  27  28
ENDBRANCH  26  27
ENDBRANCH  25  26
ENDBRANCH  24  25
ENDBRANCH  23  24
ENDBRANCH  22  23
ENDBRANCH  21  22
ENDBRANCH  20  21
ENDBRANCH  19  20
ENDBRANCH  18  19
ENDBRANCH  17  18
ENDBRANCH   1  17
TORSDOF 26
ENDMDL
MODEL 8
REMARK VINA RESULT:    -3.027      3.239      7.659
REMARK INTER + INTRA:         -13.083
REMARK INTER:                  -7.935
REMARK INTRA:                  -5.147
REMARK UNBOUND:                -5.456
REMARK SMILES CCCCCCCCCCCCCCCCCCCCCCCCCCCC(=O)[O-]
REMARK SMILES IDX 15 1 16 2 17 3 18 4 19 5 20 6 21 7 22 8 23 9 24 10 25 11
REMARK SMILES IDX 26 12 27 13 28 14 29 15 30 16 14 17 13 18 12 19 11 20 10 21
REMARK SMILES IDX 9 22 8 23 7 24 6 25 5 26 4 27 3 28 2 29 1 30
REMARK H PARENT
REMARK Flexibility Score: inf
ROOT
ATOM      1  C   UNL     1      -6.974  26.869  45.037  1.00  0.00     0.000 C 
ENDROOT
BRANCH   1   2
ATOM      2  C   UNL     1      -6.491  27.419  46.390  1.00  0.00     0.000 C 
BRANCH   2   3
ATOM      3  C   UNL     1      -4.981  27.708  46.415  1.00  0.00     0.000 C 
BRANCH   3   4
ATOM      4  C   UNL     1      -4.636  29.212  46.346  1.00  0.00     0.000 C 
BRANCH   4   5
ATOM      5  C   UNL     1      -4.235  29.652  44.927  1.00  0.00     0.000 C 
BRANCH   5   6
ATOM      6  C   UNL     1      -4.618  31.111  44.631  1.00  0.00     0.000 C 
BRANCH   6   7
ATOM      7  C   UNL     1      -5.529  31.243  43.398  1.00  0.00     0.000 C 
BRANCH   7   8
ATOM      8  C   UNL     1      -6.452  30.020  43.214  1.00  0.00     0.000 C 
BRANCH   8   9
ATOM      9  C   UNL     1      -7.949  30.378  43.162  1.00  0.00     0.000 C 
BRANCH   9  10
ATOM     10  C   UNL     1      -8.495  31.072  44.425  1.00  0.00     0.000 C 
BRANCH  10  11
ATOM     11  C   UNL     1      -8.486  30.206  45.699  1.00  0.00     0.000 C 
BRANCH  11  12
ATOM     12  C   UNL     1      -7.840  30.912  46.901  1.00  0.00     0.006 C 
BRANCH  12  13
ATOM     13  C   UNL     1      -7.564  32.387  46.590  1.00  0.00     0.053 C 
BRANCH  13  14
ATOM     14  C   UNL     1      -6.304  32.838  47.261  1.00  0.00     0.041 C 
ATOM     15  O   UNL     1      -5.763  32.118  48.142  1.00  0.00    -0.550 OA
ATOM     16  O   UNL     1      -5.746  34.070  46.938  1.00  0.00    -0.550 OA
ENDBRANCH  13  14
ENDBRANCH  12  13
ENDBRANCH  11  12
ENDBRANCH  10  11
ENDBRANCH   9  10
ENDBRANCH   8   9
ENDBRANCH   7   8
ENDBRANCH   6   7
ENDBRANCH   5   6
ENDBRANCH   4   5
ENDBRANCH   3   4
ENDBRANCH   2   3
ENDBRANCH   1   2
BRANCH   1  17
ATOM     17  C   UNL     1      -5.852  26.178  44.247  1.00  0.00     0.000 C 
BRANCH  17  18
ATOM     18  C   UNL     1      -6.348  25.581  42.918  1.00  0.00     0.000 C 
BRANCH  18  19
ATOM     19  C   UNL     1      -6.975  26.634  41.992  1.00  0.00     0.000 C 
BRANCH  19  20
ATOM     20  C   UNL     1      -7.713  26.008  40.796  1.00  0.00     0.000 C 
BRANCH  20  21
ATOM     21  C   UNL     1      -8.287  24.619  41.118  1.00  0.00     0.000 C 
BRANCH  21  22
ATOM     22  C   UNL     1      -9.756  24.674  41.573  1.00  0.00    -0.000 C 
BRANCH  22  23
ATOM     23  C   UNL     1     -10.541  23.402  41.214  1.00  0.00    -0.000 C 
BRANCH  23  24
ATOM     24  C   UNL     1     -12.003  23.674  40.803  1.00  0.00    -0.000 C 
BRANCH  24  25
ATOM     25  C   UNL     1     -12.294  25.175  40.651  1.00  0.00    -0.000 C 
BRANCH  25  26
ATOM     26  C   UNL     1     -13.334  25.642  41.679  1.00  0.00    -0.000 C 
BRANCH  26  27
ATOM     27  C   UNL     1     -12.829  26.805  42.552  1.00  0.00    -0.000 C 
BRANCH  27  28
ATOM     28  C   UNL     1     -11.912  27.813  41.830  1.00  0.00    -0.000 C 
BRANCH  28  29
ATOM     29  C   UNL     1     -10.536  28.024  42.488  1.00  0.00    -0.003 C 
ATOM     30  C   UNL     1     -10.479  27.517  43.928  1.00  0.00     0.004 C 
ENDBRANCH  28  29
ENDBRANCH  27  28
ENDBRANCH  26  27
ENDBRANCH  25  26
ENDBRANCH  24  25
ENDBRANCH  23  24
ENDBRANCH  22  23
ENDBRANCH  21  22
ENDBRANCH  20  21
ENDBRANCH  19  20
ENDBRANCH  18  19
ENDBRANCH  17  18
ENDBRANCH   1  17
TORSDOF 26
ENDMDL
MODEL 9
REMARK VINA RESULT:    -1.503      1.278      4.696
REMARK INTER + INTRA:          -9.243
REMARK INTER:                  -3.708
REMARK INTRA:                  -5.534
REMARK UNBOUND:                -5.456
REMARK SMILES CCCCCCCCCCCCCCCCCCCCCCCCCCCC(=O)[O-]
REMARK SMILES IDX 15 1 16 2 17 3 18 4 19 5 20 6 21 7 22 8 23 9 24 10 25 11
REMARK SMILES IDX 26 12 27 13 28 14 29 15 30 16 14 17 13 18 12 19 11 20 10 21
REMARK SMILES IDX 9 22 8 23 7 24 6 25 5 26 4 27 3 28 2 29 1 30
REMARK H PARENT
REMARK Flexibility Score: inf
ROOT
ATOM      1  C   UNL     1      -4.575  32.802  47.154  1.00  0.00     0.000 C 
ENDROOT
BRANCH   1   2
ATOM      2  C   UNL     1      -3.875  31.701  46.339  1.00  0.00     0.000 C 
BRANCH   2   3
ATOM      3  C   UNL     1      -4.122  31.828  44.826  1.00  0.00     0.000 C 
BRANCH   3   4
ATOM      4  C   UNL     1      -4.230  30.469  44.100  1.00  0.00     0.000 C 
BRANCH   4   5
ATOM      5  C   UNL     1      -5.435  30.414  43.144  1.00  0.00     0.000 C 
BRANCH   5   6
ATOM      6  C   UNL     1      -5.854  31.805  42.641  1.00  0.00     0.000 C 
BRANCH   6   7
ATOM      7  C   UNL     1      -7.066  31.749  41.696  1.00  0.00     0.000 C 
BRANCH   7   8
ATOM      8  C   UNL     1      -7.782  30.382  41.734  1.00  0.00     0.000 C 
BRANCH   8   9
ATOM      9  C   UNL     1      -9.108  30.399  42.518  1.00  0.00     0.000 C 
BRANCH   9  10
ATOM     10  C   UNL     1      -9.492  29.060  43.174  1.00  0.00     0.000 C 
BRANCH  10  11
ATOM     11  C   UNL     1      -8.898  27.809  42.498  1.00  0.00     0.000 C 
BRANCH  11  12
ATOM     12  C   UNL     1      -9.932  26.693  42.285  1.00  0.00     0.006 C 
BRANCH  12  13
ATOM     13  C   UNL     1     -11.217  26.975  43.069  1.00  0.00     0.053 C 
BRANCH  13  14
ATOM     14  C   UNL     1     -12.420  26.626  42.249  1.00  0.00     0.041 C 
ATOM     15  O   UNL     1     -12.620  25.434  41.893  1.00  0.00    -0.550 OA
ATOM     16  O   UNL     1     -13.302  27.623  41.849  1.00  0.00    -0.550 OA
ENDBRANCH  13  14
ENDBRANCH  12  13
ENDBRANCH  11  12
ENDBRANCH  10  11
ENDBRANCH   9  10
ENDBRANCH   8   9
ENDBRANCH   7   8
ENDBRANCH   6   7
ENDBRANCH   5   6
ENDBRANCH   4   5
ENDBRANCH   3   4
ENDBRANCH   2   3
ENDBRANCH   1   2
BRANCH   1  17
ATOM     17  C   UNL     1      -5.703  33.490  46.371  1.00  0.00     0.000 C 
BRANCH  17  18
ATOM     18  C   UNL     1      -7.102  33.069  46.858  1.00  0.00     0.000 C 
BRANCH  18  19
ATOM     19  C   UNL     1      -7.944  32.414  45.752  1.00  0.00     0.000 C 
BRANCH  19  20
ATOM     20  C   UNL     1      -8.107  30.897  45.953  1.00  0.00     0.000 C 
BRANCH  20  21
ATOM     21  C   UNL     1      -7.343  30.378  47.180  1.00  0.00     0.000 C 
BRANCH  21  22
ATOM     22  C   UNL     1      -6.465  29.154  46.860  1.00  0.00    -0.000 C 
BRANCH  22  23
ATOM     23  C   UNL     1      -6.906  28.420  45.583  1.00  0.00    -0.000 C 
BRANCH  23  24
ATOM     24  C   UNL     1      -7.134  26.908  45.788  1.00  0.00    -0.000 C 
BRANCH  24  25
ATOM     25  C   UNL     1      -5.822  26.155  46.065  1.00  0.00    -0.000 C 
BRANCH  25  26
ATOM     26  C   UNL     1      -4.756  26.502  45.017  1.00  0.00    -0.000 C 
BRANCH  26  27
ATOM     27  C   UNL     1      -5.106  25.977  43.613  1.00  0.00    -0.000 C 
BRANCH  27  28
ATOM     28  C   UNL     1      -4.663  26.884  42.448  1.00  0.00    -0.000 C 
BRANCH  28  29
ATOM     29  C   UNL     1      -5.646  26.944  41.263  1.00  0.00    -0.003 C 
ATOM     30  C   UNL     1      -5.308  28.048  40.264  1.00  0.00     0.004 C 
ENDBRANCH  28  29
ENDBRANCH  27  28
ENDBRANCH  26  27
ENDBRANCH  25  26
ENDBRANCH  24  25
ENDBRANCH  23  24
ENDBRANCH  22  23
ENDBRANCH  21  22
ENDBRANCH  20  21
ENDBRANCH  19  20
ENDBRANCH  18  19
ENDBRANCH  17  18
ENDBRANCH   1  17
TORSDOF 26
ENDMDL
