MODEL 1
REMARK VINA RESULT:    -3.864      0.000      0.000
REMARK INTER + INTRA:          -4.762
REMARK INTER:                  -4.429
REMARK INTRA:                  -0.334
REMARK UNBOUND:                -0.334
REMARK SMILES COc1ccc(C(C)=O)c(O)c1
REMARK SMILES IDX 6 1 10 2 12 3 3 4 4 5 5 6 7 7 8 8 9 9 11 10 2 12 1 13
REMARK H PARENT 11 11
REMARK Flexibility Score: inf
ROOT
ATOM      1  C   UNL     1     -15.508 -16.169  26.453  1.00  0.00     0.059 A 
ATOM      2  C   UNL     1     -16.220 -15.424  25.482  1.00  0.00     0.130 A 
ATOM      3  C   UNL     1     -17.591 -15.190  25.650  1.00  0.00     0.093 A 
ATOM      4  C   UNL     1     -18.266 -15.658  26.792  1.00  0.00     0.122 A 
ATOM      5  C   UNL     1     -17.553 -16.367  27.761  1.00  0.00     0.047 A 
ATOM      6  C   UNL     1     -16.190 -16.621  27.597  1.00  0.00     0.019 A 
ENDROOT
BRANCH   1   7
ATOM      7  C   UNL     1     -14.078 -16.518  26.283  1.00  0.00     0.163 C 
ATOM      8  C   UNL     1     -13.193 -16.758  27.468  1.00  0.00     0.093 C 
ATOM      9  O   UNL     1     -13.608 -16.698  25.128  1.00  0.00    -0.294 OA
ENDBRANCH   1   7
BRANCH   2  10
ATOM     10  O   UNL     1     -15.600 -14.875  24.357  1.00  0.00    -0.507 OA
ATOM     11  H   UNL     1     -15.390 -15.407  23.523  1.00  0.00     0.293 HD
ENDBRANCH   2  10
BRANCH   4  12
ATOM     12  O   UNL     1     -19.636 -15.439  27.001  1.00  0.00    -0.497 OA
ATOM     13  C   UNL     1     -20.501 -16.344  27.680  1.00  0.00     0.278 C 
ENDBRANCH   4  12
TORSDOF 3
ENDMDL
MODEL 2
REMARK VINA RESULT:    -3.800      2.902      5.525
REMARK INTER + INTRA:          -4.689
REMARK INTER:                  -4.360
REMARK INTRA:                  -0.329
REMARK UNBOUND:                -0.334
REMARK SMILES COc1ccc(C(C)=O)c(O)c1
REMARK SMILES IDX 6 1 10 2 12 3 3 4 4 5 5 6 7 7 8 8 9 9 11 10 2 12 1 13
REMARK H PARENT 11 11
REMARK Flexibility Score: inf
ROOT
ATOM      1  C   UNL     1     -19.038 -16.854  29.051  1.00  0.00     0.059 A 
ATOM      2  C   UNL     1     -17.818 -16.814  28.331  1.00  0.00     0.130 A 
ATOM      3  C   UNL     1     -16.627 -17.205  28.957  1.00  0.00     0.093 A 
ATOM      4  C   UNL     1     -16.631 -17.670  30.284  1.00  0.00     0.122 A 
ATOM      5  C   UNL     1     -17.840 -17.736  30.979  1.00  0.00     0.047 A 
ATOM      6  C   UNL     1     -19.031 -17.332  30.373  1.00  0.00     0.019 A 
ENDROOT
BRANCH   1   7
ATOM      7  C   UNL     1     -20.311 -16.372  28.465  1.00  0.00     0.163 C 
ATOM      8  C   UNL     1     -21.299 -15.604  29.287  1.00  0.00     0.093 C 
ATOM      9  O   UNL     1     -20.539 -16.535  27.237  1.00  0.00    -0.294 OA
ENDBRANCH   1   7
BRANCH   2  10
ATOM     10  O   UNL     1     -17.752 -16.425  26.991  1.00  0.00    -0.507 OA
ATOM     11  H   UNL     1     -17.407 -17.026  26.254  1.00  0.00     0.293 HD
ENDBRANCH   2  10
BRANCH   4  12
ATOM     12  O   UNL     1     -15.461 -18.078  30.943  1.00  0.00    -0.497 OA
ATOM     13  C   UNL     1     -14.225 -18.351  30.292  1.00  0.00     0.278 C 
ENDBRANCH   4  12
TORSDOF 3
ENDMDL
MODEL 3
REMARK VINA RESULT:    -3.731      3.535      6.089
REMARK INTER + INTRA:          -4.610
REMARK INTER:                  -4.270
REMARK INTRA:                  -0.339
REMARK UNBOUND:                -0.334
REMARK SMILES COc1ccc(C(C)=O)c(O)c1
REMARK SMILES IDX 6 1 10 2 12 3 3 4 4 5 5 6 7 7 8 8 9 9 11 10 2 12 1 13
REMARK H PARENT 11 11
REMARK Flexibility Score: inf
ROOT
ATOM      1  C   UNL     1     -18.974 -16.732  29.076  1.00  0.00     0.059 A 
ATOM      2  C   UNL     1     -18.957 -17.405  30.323  1.00  0.00     0.130 A 
ATOM      3  C   UNL     1     -17.760 -17.953  30.802  1.00  0.00     0.093 A 
ATOM      4  C   UNL     1     -16.564 -17.814  30.076  1.00  0.00     0.122 A 
ATOM      5  C   UNL     1     -16.580 -17.124  28.862  1.00  0.00     0.047 A 
ATOM      6  C   UNL     1     -17.769 -16.588  28.365  1.00  0.00     0.019 A 
ENDROOT
BRANCH   1   7
ATOM      7  C   UNL     1     -20.227 -16.208  28.483  1.00  0.00     0.163 C 
ATOM      8  C   UNL     1     -20.510 -16.351  27.020  1.00  0.00     0.093 C 
ATOM      9  O   UNL     1     -21.111 -15.705  29.227  1.00  0.00    -0.294 OA
ENDBRANCH   1   7
BRANCH   2  10
ATOM     10  O   UNL     1     -20.094 -17.522  31.125  1.00  0.00    -0.507 OA
ATOM     11  H   UNL     1     -20.860 -16.862  31.103  1.00  0.00     0.293 HD
ENDBRANCH   2  10
BRANCH   4  12
ATOM     12  O   UNL     1     -15.344 -18.342  30.526  1.00  0.00    -0.497 OA
ATOM     13  C   UNL     1     -14.069 -17.973  30.009  1.00  0.00     0.278 C 
ENDBRANCH   4  12
TORSDOF 3
ENDMDL
MODEL 4
REMARK VINA RESULT:    -3.715      1.307      2.185
REMARK INTER + INTRA:          -4.591
REMARK INTER:                  -4.334
REMARK INTRA:                  -0.257
REMARK UNBOUND:                -0.334
REMARK SMILES COc1ccc(C(C)=O)c(O)c1
REMARK SMILES IDX 6 1 10 2 12 3 3 4 4 5 5 6 7 7 8 8 9 9 11 10 2 12 1 13
REMARK H PARENT 11 11
REMARK Flexibility Score: inf
ROOT
ATOM      1  C   UNL     1     -15.460 -15.801  25.980  1.00  0.00     0.059 A 
ATOM      2  C   UNL     1     -15.932 -16.347  27.199  1.00  0.00     0.130 A 
ATOM      3  C   UNL     1     -17.279 -16.201  27.554  1.00  0.00     0.093 A 
ATOM      4  C   UNL     1     -18.181 -15.545  26.697  1.00  0.00     0.122 A 
ATOM      5  C   UNL     1     -17.718 -15.034  25.482  1.00  0.00     0.047 A 
ATOM      6  C   UNL     1     -16.374 -15.158  25.126  1.00  0.00     0.019 A 
ENDROOT
BRANCH   1   7
ATOM      7  C   UNL     1     -14.030 -15.853  25.597  1.00  0.00     0.163 C 
ATOM      8  C   UNL     1     -13.476 -14.939  24.548  1.00  0.00     0.093 C 
ATOM      9  O   UNL     1     -13.242 -16.618  26.214  1.00  0.00    -0.294 OA
ENDBRANCH   1   7
BRANCH   2  10
ATOM     10  O   UNL     1     -15.105 -17.066  28.066  1.00  0.00    -0.507 OA
ATOM     11  H   UNL     1     -14.895 -16.767  29.009  1.00  0.00     0.293 HD
ENDBRANCH   2  10
BRANCH   4  12
ATOM     12  O   UNL     1     -19.539 -15.384  27.012  1.00  0.00    -0.497 OA
ATOM     13  C   UNL     1     -20.383 -16.428  27.487  1.00  0.00     0.278 C 
ENDBRANCH   4  12
TORSDOF 3
ENDMDL
MODEL 5
REMARK VINA RESULT:    -3.639      1.635      4.914
REMARK INTER + INTRA:          -4.504
REMARK INTER:                  -4.167
REMARK INTRA:                  -0.337
REMARK UNBOUND:                -0.334
REMARK SMILES COc1ccc(C(C)=O)c(O)c1
REMARK SMILES IDX 6 1 10 2 12 3 3 4 4 5 5 6 7 7 8 8 9 9 11 10 2 12 1 13
REMARK H PARENT 11 11
REMARK Flexibility Score: inf
ROOT
ATOM      1  C   UNL     1     -17.945 -15.908  27.356  1.00  0.00     0.059 A 
ATOM      2  C   UNL     1     -16.701 -16.523  27.646  1.00  0.00     0.130 A 
ATOM      3  C   UNL     1     -15.612 -16.330  26.787  1.00  0.00     0.093 A 
ATOM      4  C   UNL     1     -15.727 -15.504  25.654  1.00  0.00     0.122 A 
ATOM      5  C   UNL     1     -16.946 -14.877  25.389  1.00  0.00     0.047 A 
ATOM      6  C   UNL     1     -18.044 -15.075  26.228  1.00  0.00     0.019 A 
ENDROOT
BRANCH   1   7
ATOM      7  C   UNL     1     -19.150 -16.146  28.184  1.00  0.00     0.163 C 
ATOM      8  C   UNL     1     -20.482 -16.411  27.553  1.00  0.00     0.093 C 
ATOM      9  O   UNL     1     -19.049 -16.211  29.438  1.00  0.00    -0.294 OA
ENDBRANCH   1   7
BRANCH   2  10
ATOM     10  O   UNL     1     -16.500 -17.302  28.788  1.00  0.00    -0.507 OA
ATOM     11  H   UNL     1     -16.999 -18.163  28.968  1.00  0.00     0.293 HD
ENDBRANCH   2  10
BRANCH   4  12
ATOM     12  O   UNL     1     -14.657 -15.280  24.773  1.00  0.00    -0.497 OA
ATOM     13  C   UNL     1     -13.293 -15.547  25.081  1.00  0.00     0.278 C 
ENDBRANCH   4  12
TORSDOF 3
ENDMDL
MODEL 6
REMARK VINA RESULT:    -3.601      2.764      3.312
REMARK INTER + INTRA:          -4.461
REMARK INTER:                  -4.137
REMARK INTRA:                  -0.324
REMARK UNBOUND:                -0.334
REMARK SMILES COc1ccc(C(C)=O)c(O)c1
REMARK SMILES IDX 6 1 10 2 12 3 3 4 4 5 5 6 7 7 8 8 9 9 11 10 2 12 1 13
REMARK H PARENT 11 11
REMARK Flexibility Score: inf
ROOT
ATOM      1  C   UNL     1     -17.149 -16.988  29.318  1.00  0.00     0.059 A 
ATOM      2  C   UNL     1     -17.647 -16.910  27.994  1.00  0.00     0.130 A 
ATOM      3  C   UNL     1     -18.994 -16.593  27.774  1.00  0.00     0.093 A 
ATOM      4  C   UNL     1     -19.853 -16.317  28.852  1.00  0.00     0.122 A 
ATOM      5  C   UNL     1     -19.350 -16.366  30.154  1.00  0.00     0.047 A 
ATOM      6  C   UNL     1     -18.015 -16.698  30.387  1.00  0.00     0.019 A 
ENDROOT
BRANCH   1   7
ATOM      7  C   UNL     1     -15.756 -17.402  29.610  1.00  0.00     0.163 C 
ATOM      8  C   UNL     1     -15.426 -18.194  30.837  1.00  0.00     0.093 C 
ATOM      9  O   UNL     1     -14.841 -17.160  28.778  1.00  0.00    -0.294 OA
ENDBRANCH   1   7
BRANCH   2  10
ATOM     10  O   UNL     1     -16.834 -17.108  26.876  1.00  0.00    -0.507 OA
ATOM     11  H   UNL     1     -15.840 -16.919  26.870  1.00  0.00     0.293 HD
ENDBRANCH   2  10
BRANCH   4  12
ATOM     12  O   UNL     1     -21.205 -15.988  28.673  1.00  0.00    -0.497 OA
ATOM     13  C   UNL     1     -22.039 -15.434  29.686  1.00  0.00     0.278 C 
ENDBRANCH   4  12
TORSDOF 3
ENDMDL
MODEL 7
REMARK VINA RESULT:    -3.561      2.574      3.187
REMARK INTER + INTRA:          -4.415
REMARK INTER:                  -4.081
REMARK INTRA:                  -0.334
REMARK UNBOUND:                -0.334
REMARK SMILES COc1ccc(C(C)=O)c(O)c1
REMARK SMILES IDX 6 1 10 2 12 3 3 4 4 5 5 6 7 7 8 8 9 9 11 10 2 12 1 13
REMARK H PARENT 11 11
REMARK Flexibility Score: inf
ROOT
ATOM      1  C   UNL     1     -14.662 -16.973  27.886  1.00  0.00     0.059 A 
ATOM      2  C   UNL     1     -16.054 -16.729  27.791  1.00  0.00     0.130 A 
ATOM      3  C   UNL     1     -16.896 -17.077  28.855  1.00  0.00     0.093 A 
ATOM      4  C   UNL     1     -16.373 -17.637  30.034  1.00  0.00     0.122 A 
ATOM      5  C   UNL     1     -14.996 -17.848  30.135  1.00  0.00     0.047 A 
ATOM      6  C   UNL     1     -14.148 -17.522  29.075  1.00  0.00     0.019 A 
ENDROOT
BRANCH   1   7
ATOM      7  C   UNL     1     -13.738 -16.703  26.760  1.00  0.00     0.163 C 
ATOM      8  C   UNL     1     -12.310 -16.323  27.003  1.00  0.00     0.093 C 
ATOM      9  O   UNL     1     -14.127 -16.874  25.573  1.00  0.00    -0.294 OA
ENDBRANCH   1   7
BRANCH   2  10
ATOM     10  O   UNL     1     -16.632 -16.117  26.676  1.00  0.00    -0.507 OA
ATOM     11  H   UNL     1     -16.101 -15.818  25.869  1.00  0.00     0.293 HD
ENDBRANCH   2  10
BRANCH   4  12
ATOM     12  O   UNL     1     -17.182 -17.992  31.124  1.00  0.00    -0.497 OA
ATOM     13  C   UNL     1     -18.606 -17.944  31.117  1.00  0.00     0.278 C 
ENDBRANCH   4  12
TORSDOF 3
ENDMDL
MODEL 8
REMARK VINA RESULT:    -3.463      2.082      3.361
REMARK INTER + INTRA:          -4.302
REMARK INTER:                  -4.028
REMARK INTRA:                  -0.274
REMARK UNBOUND:                -0.334
REMARK SMILES COc1ccc(C(C)=O)c(O)c1
REMARK SMILES IDX 6 1 10 2 12 3 3 4 4 5 5 6 7 7 8 8 9 9 11 10 2 12 1 13
REMARK H PARENT 11 11
REMARK Flexibility Score: inf
ROOT
ATOM      1  C   UNL     1     -17.589 -16.027  27.366  1.00  0.00     0.059 A 
ATOM      2  C   UNL     1     -17.613 -16.794  28.556  1.00  0.00     0.130 A 
ATOM      3  C   UNL     1     -18.748 -16.771  29.377  1.00  0.00     0.093 A 
ATOM      4  C   UNL     1     -19.881 -16.020  29.017  1.00  0.00     0.122 A 
ATOM      5  C   UNL     1     -19.864 -15.289  27.827  1.00  0.00     0.047 A 
ATOM      6  C   UNL     1     -18.732 -15.290  27.010  1.00  0.00     0.019 A 
ENDROOT
BRANCH   1   7
ATOM      7  C   UNL     1     -16.385 -15.948  26.505  1.00  0.00     0.163 C 
ATOM      8  C   UNL     1     -16.427 -15.260  25.176  1.00  0.00     0.093 C 
ATOM      9  O   UNL     1     -15.283 -16.393  26.925  1.00  0.00    -0.294 OA
ENDBRANCH   1   7
BRANCH   2  10
ATOM     10  O   UNL     1     -16.548 -17.613  28.940  1.00  0.00    -0.507 OA
ATOM     11  H   UNL     1     -16.506 -18.602  28.734  1.00  0.00     0.293 HD
ENDBRANCH   2  10
BRANCH   4  12
ATOM     12  O   UNL     1     -21.039 -15.977  29.808  1.00  0.00    -0.497 OA
ATOM     13  C   UNL     1     -22.232 -15.287  29.450  1.00  0.00     0.278 C 
ENDBRANCH   4  12
TORSDOF 3
ENDMDL
