MODEL 1
REMARK VINA RESULT:    -7.412      0.000      0.000
REMARK INTER + INTRA:          -8.982
REMARK INTER:                  -8.712
REMARK INTRA:                  -0.270
REMARK UNBOUND:                -0.270
REMARK SMILES O=c1c(O)c(-c2ccc(O)cc2)oc2cc(O)cc(O)c12
REMARK SMILES IDX 5 1 3 2 2 3 1 4 21 5 19 6 18 7 16 8 15 9 14 10 13 11 6 12
REMARK SMILES IDX 7 13 8 14 9 15 12 16 11 17 10 18 4 20 20 22 17 24
REMARK H PARENT 10 19 4 21 20 23 17 25
REMARK Flexibility Score: inf
ROOT
ATOM      1  C   UNL     1     -18.547  58.707  -4.780  1.00  0.00     0.180 A 
ATOM      2  C   UNL     1     -17.718  58.533  -5.905  1.00  0.00     0.208 A 
ATOM      3  C   UNL     1     -16.419  59.062  -5.879  1.00  0.00     0.238 A 
ATOM      4  O   UNL     1     -15.664  58.904  -6.877  1.00  0.00    -0.285 OA
ATOM      5  C   UNL     1     -15.978  59.771  -4.743  1.00  0.00     0.111 A 
ATOM      6  C   UNL     1     -14.685  60.341  -4.639  1.00  0.00     0.134 A 
ATOM      7  C   UNL     1     -14.326  61.039  -3.476  1.00  0.00     0.093 A 
ATOM      8  C   UNL     1     -15.232  61.182  -2.420  1.00  0.00     0.123 A 
ATOM      9  C   UNL     1     -16.507  60.622  -2.519  1.00  0.00     0.094 A 
ATOM     10  C   UNL     1     -16.885  59.920  -3.667  1.00  0.00     0.146 A 
ATOM     11  O   UNL     1     -18.102  59.394  -3.732  1.00  0.00    -0.452 OA
ENDROOT
BRANCH   1  12
ATOM     12  C   UNL     1     -19.922  58.161  -4.724  1.00  0.00     0.021 A 
ATOM     13  C   UNL     1     -21.041  58.955  -5.039  1.00  0.00     0.016 A 
ATOM     14  C   UNL     1     -22.328  58.410  -5.002  1.00  0.00     0.047 A 
ATOM     15  C   UNL     1     -22.513  57.065  -4.665  1.00  0.00     0.115 A 
ATOM     16  C   UNL     1     -20.115  56.806  -4.406  1.00  0.00     0.016 A 
ATOM     17  C   UNL     1     -21.403  56.263  -4.370  1.00  0.00     0.047 A 
BRANCH  15  18
ATOM     18  O   UNL     1     -23.802  56.536  -4.631  1.00  0.00    -0.508 OA
ATOM     19  H   UNL     1     -24.578  57.057  -4.240  1.00  0.00     0.293 HD
ENDBRANCH  15  18
ENDBRANCH   1  12
BRANCH   2  20
ATOM     20  O   UNL     1     -18.196  57.869  -7.038  1.00  0.00    -0.502 OA
ATOM     21  H   UNL     1     -17.808  58.023  -7.961  1.00  0.00     0.293 HD
ENDBRANCH   2  20
BRANCH   6  22
ATOM     22  O   UNL     1     -13.761  60.216  -5.675  1.00  0.00    -0.507 OA
ATOM     23  H   UNL     1     -14.024  59.849  -6.583  1.00  0.00     0.293 HD
ENDBRANCH   6  22
BRANCH   8  24
ATOM     24  O   UNL     1     -14.875  61.877  -1.267  1.00  0.00    -0.508 OA
ATOM     25  H   UNL     1     -15.574  62.288  -0.659  1.00  0.00     0.293 HD
ENDBRANCH   8  24
TORSDOF 5
ENDMDL
MODEL 2
REMARK VINA RESULT:    -7.381      1.357      2.183
REMARK INTER + INTRA:          -8.945
REMARK INTER:                  -8.999
REMARK INTRA:                   0.054
REMARK UNBOUND:                -0.270
REMARK SMILES O=c1c(O)c(-c2ccc(O)cc2)oc2cc(O)cc(O)c12
REMARK SMILES IDX 5 1 3 2 2 3 1 4 21 5 19 6 18 7 16 8 15 9 14 10 13 11 6 12
REMARK SMILES IDX 7 13 8 14 9 15 12 16 11 17 10 18 4 20 20 22 17 24
REMARK H PARENT 10 19 4 21 20 23 17 25
REMARK Flexibility Score: inf
ROOT
ATOM      1  C   UNL     1     -17.402  59.468  -4.216  1.00  0.00     0.180 A 
ATOM      2  C   UNL     1     -16.284  59.626  -5.058  1.00  0.00     0.208 A 
ATOM      3  C   UNL     1     -15.148  60.283  -4.561  1.00  0.00     0.238 A 
ATOM      4  O   UNL     1     -14.137  60.421  -5.303  1.00  0.00    -0.285 OA
ATOM      5  C   UNL     1     -15.155  60.787  -3.245  1.00  0.00     0.111 A 
ATOM      6  C   UNL     1     -14.053  61.467  -2.670  1.00  0.00     0.134 A 
ATOM      7  C   UNL     1     -14.142  61.947  -1.355  1.00  0.00     0.093 A 
ATOM      8  C   UNL     1     -15.309  61.764  -0.606  1.00  0.00     0.123 A 
ATOM      9  C   UNL     1     -16.398  61.095  -1.169  1.00  0.00     0.094 A 
ATOM     10  C   UNL     1     -16.329  60.607  -2.477  1.00  0.00     0.146 A 
ATOM     11  O   UNL     1     -17.377  59.970  -2.985  1.00  0.00    -0.452 OA
ENDROOT
BRANCH   1  12
ATOM     12  C   UNL     1     -18.629  58.770  -4.661  1.00  0.00     0.021 A 
ATOM     13  C   UNL     1     -19.228  57.765  -3.876  1.00  0.00     0.016 A 
ATOM     14  C   UNL     1     -20.400  57.137  -4.307  1.00  0.00     0.047 A 
ATOM     15  C   UNL     1     -20.997  57.511  -5.515  1.00  0.00     0.115 A 
ATOM     16  C   UNL     1     -19.246  59.154  -5.863  1.00  0.00     0.016 A 
ATOM     17  C   UNL     1     -20.419  58.524  -6.291  1.00  0.00     0.047 A 
BRANCH  15  18
ATOM     18  O   UNL     1     -22.165  56.875  -5.931  1.00  0.00    -0.508 OA
ATOM     19  H   UNL     1     -22.258  56.499  -6.867  1.00  0.00     0.293 HD
ENDBRANCH  15  18
ENDBRANCH   1  12
BRANCH   2  20
ATOM     20  O   UNL     1     -16.321  59.160  -6.375  1.00  0.00    -0.502 OA
ATOM     21  H   UNL     1     -17.180  58.858  -6.819  1.00  0.00     0.293 HD
ENDBRANCH   2  20
BRANCH   6  22
ATOM     22  O   UNL     1     -12.876  61.665  -3.392  1.00  0.00    -0.507 OA
ATOM     23  H   UNL     1     -12.604  61.047  -4.149  1.00  0.00     0.293 HD
ENDBRANCH   6  22
BRANCH   8  24
ATOM     24  O   UNL     1     -15.398  62.242   0.700  1.00  0.00    -0.508 OA
ATOM     25  H   UNL     1     -15.298  61.625   1.497  1.00  0.00     0.293 HD
ENDBRANCH   8  24
TORSDOF 5
ENDMDL
MODEL 3
REMARK VINA RESULT:    -7.306      3.541      5.694
REMARK INTER + INTRA:          -8.857
REMARK INTER:                  -8.794
REMARK INTRA:                  -0.063
REMARK UNBOUND:                -0.270
REMARK SMILES O=c1c(O)c(-c2ccc(O)cc2)oc2cc(O)cc(O)c12
REMARK SMILES IDX 5 1 3 2 2 3 1 4 21 5 19 6 18 7 16 8 15 9 14 10 13 11 6 12
REMARK SMILES IDX 7 13 8 14 9 15 12 16 11 17 10 18 4 20 20 22 17 24
REMARK H PARENT 10 19 4 21 20 23 17 25
REMARK Flexibility Score: inf
ROOT
ATOM      1  C   UNL     1     -18.263  59.615  -1.111  1.00  0.00     0.180 A 
ATOM      2  C   UNL     1     -17.099  60.327  -1.459  1.00  0.00     0.208 A 
ATOM      3  C   UNL     1     -16.658  60.297  -2.791  1.00  0.00     0.238 A 
ATOM      4  O   UNL     1     -15.623  60.939  -3.116  1.00  0.00    -0.285 OA
ATOM      5  C   UNL     1     -17.372  59.542  -3.744  1.00  0.00     0.111 A 
ATOM      6  C   UNL     1     -16.991  59.455  -5.106  1.00  0.00     0.134 A 
ATOM      7  C   UNL     1     -17.750  58.674  -5.991  1.00  0.00     0.093 A 
ATOM      8  C   UNL     1     -18.878  57.980  -5.541  1.00  0.00     0.123 A 
ATOM      9  C   UNL     1     -19.257  58.063  -4.200  1.00  0.00     0.094 A 
ATOM     10  C   UNL     1     -18.516  58.837  -3.303  1.00  0.00     0.146 A 
ATOM     11  O   UNL     1     -18.902  58.902  -2.034  1.00  0.00    -0.452 OA
ENDROOT
BRANCH   1  12
ATOM     12  C   UNL     1     -18.802  59.614   0.268  1.00  0.00     0.021 A 
ATOM     13  C   UNL     1     -20.110  60.054   0.545  1.00  0.00     0.016 A 
ATOM     14  C   UNL     1     -20.605  60.021   1.852  1.00  0.00     0.047 A 
ATOM     15  C   UNL     1     -19.808  59.537   2.895  1.00  0.00     0.115 A 
ATOM     16  C   UNL     1     -18.015  59.110   1.317  1.00  0.00     0.016 A 
ATOM     17  C   UNL     1     -18.513  59.078   2.624  1.00  0.00     0.047 A 
BRANCH  15  18
ATOM     18  O   UNL     1     -20.314  59.511   4.193  1.00  0.00    -0.508 OA
ATOM     19  H   UNL     1     -21.115  58.941   4.438  1.00  0.00     0.293 HD
ENDBRANCH  15  18
ENDBRANCH   1  12
BRANCH   2  20
ATOM     20  O   UNL     1     -16.383  61.027  -0.485  1.00  0.00    -0.502 OA
ATOM     21  H   UNL     1     -16.078  60.595   0.379  1.00  0.00     0.293 HD
ENDBRANCH   2  20
BRANCH   6  22
ATOM     22  O   UNL     1     -15.871  60.136  -5.582  1.00  0.00    -0.507 OA
ATOM     23  H   UNL     1     -15.564  60.048  -6.545  1.00  0.00     0.293 HD
ENDBRANCH   6  22
BRANCH   8  24
ATOM     24  O   UNL     1     -19.631  57.203  -6.420  1.00  0.00    -0.508 OA
ATOM     25  H   UNL     1     -20.207  56.438  -6.090  1.00  0.00     0.293 HD
ENDBRANCH   8  24
TORSDOF 5
ENDMDL
MODEL 4
REMARK VINA RESULT:    -7.275      2.336      6.193
REMARK INTER + INTRA:          -8.820
REMARK INTER:                  -8.641
REMARK INTRA:                  -0.180
REMARK UNBOUND:                -0.270
REMARK SMILES O=c1c(O)c(-c2ccc(O)cc2)oc2cc(O)cc(O)c12
REMARK SMILES IDX 5 1 3 2 2 3 1 4 21 5 19 6 18 7 16 8 15 9 14 10 13 11 6 12
REMARK SMILES IDX 7 13 8 14 9 15 12 16 11 17 10 18 4 20 20 22 17 24
REMARK H PARENT 10 19 4 21 20 23 17 25
REMARK Flexibility Score: inf
ROOT
ATOM      1  C   UNL     1     -16.768  60.275  -2.201  1.00  0.00     0.180 A 
ATOM      2  C   UNL     1     -15.797  60.514  -3.192  1.00  0.00     0.208 A 
ATOM      3  C   UNL     1     -16.019  60.030  -4.490  1.00  0.00     0.238 A 
ATOM      4  O   UNL     1     -15.160  60.247  -5.388  1.00  0.00    -0.285 OA
ATOM      5  C   UNL     1     -17.192  59.300  -4.770  1.00  0.00     0.111 A 
ATOM      6  C   UNL     1     -17.489  58.773  -6.051  1.00  0.00     0.134 A 
ATOM      7  C   UNL     1     -18.675  58.050  -6.247  1.00  0.00     0.093 A 
ATOM      8  C   UNL     1     -19.567  57.842  -5.189  1.00  0.00     0.123 A 
ATOM      9  C   UNL     1     -19.278  58.359  -3.926  1.00  0.00     0.094 A 
ATOM     10  C   UNL     1     -18.102  59.085  -3.710  1.00  0.00     0.146 A 
ATOM     11  O   UNL     1     -17.856  59.570  -2.499  1.00  0.00    -0.452 OA
ENDROOT
BRANCH   1  12
ATOM     12  C   UNL     1     -16.616  60.770  -0.814  1.00  0.00     0.021 A 
ATOM     13  C   UNL     1     -16.632  62.147  -0.520  1.00  0.00     0.016 A 
ATOM     14  C   UNL     1     -16.511  62.588   0.801  1.00  0.00     0.047 A 
ATOM     15  C   UNL     1     -16.386  61.665   1.844  1.00  0.00     0.115 A 
ATOM     16  C   UNL     1     -16.511  59.848   0.241  1.00  0.00     0.016 A 
ATOM     17  C   UNL     1     -16.390  60.293   1.562  1.00  0.00     0.047 A 
BRANCH  15  18
ATOM     18  O   UNL     1     -16.265  62.121   3.155  1.00  0.00    -0.508 OA
ATOM     19  H   UNL     1     -16.923  61.846   3.875  1.00  0.00     0.293 HD
ENDBRANCH  15  18
ENDBRANCH   1  12
BRANCH   2  20
ATOM     20  O   UNL     1     -14.620  61.197  -2.876  1.00  0.00    -0.502 OA
ATOM     21  H   UNL     1     -13.800  60.725  -2.513  1.00  0.00     0.293 HD
ENDBRANCH   2  20
BRANCH   6  22
ATOM     22  O   UNL     1     -16.618  58.964  -7.125  1.00  0.00    -0.507 OA
ATOM     23  H   UNL     1     -15.634  58.730  -7.061  1.00  0.00     0.293 HD
ENDBRANCH   6  22
BRANCH   8  24
ATOM     24  O   UNL     1     -20.744  57.122  -5.384  1.00  0.00    -0.508 OA
ATOM     25  H   UNL     1     -21.278  57.204  -6.241  1.00  0.00     0.293 HD
ENDBRANCH   8  24
TORSDOF 5
ENDMDL
MODEL 5
REMARK VINA RESULT:    -7.017      9.782     11.504
REMARK INTER + INTRA:          -8.517
REMARK INTER:                  -8.544
REMARK INTRA:                   0.027
REMARK UNBOUND:                -0.270
REMARK SMILES O=c1c(O)c(-c2ccc(O)cc2)oc2cc(O)cc(O)c12
REMARK SMILES IDX 5 1 3 2 2 3 1 4 21 5 19 6 18 7 16 8 15 9 14 10 13 11 6 12
REMARK SMILES IDX 7 13 8 14 9 15 12 16 11 17 10 18 4 20 20 22 17 24
REMARK H PARENT 10 19 4 21 20 23 17 25
REMARK Flexibility Score: inf
ROOT
ATOM      1  C   UNL     1     -21.383  58.430   4.562  1.00  0.00     0.180 A 
ATOM      2  C   UNL     1     -22.422  57.493   4.722  1.00  0.00     0.208 A 
ATOM      3  C   UNL     1     -22.600  56.885   5.974  1.00  0.00     0.238 A 
ATOM      4  O   UNL     1     -23.533  56.051   6.131  1.00  0.00    -0.285 OA
ATOM      5  C   UNL     1     -21.729  57.206   7.035  1.00  0.00     0.111 A 
ATOM      6  C   UNL     1     -21.838  56.634   8.326  1.00  0.00     0.134 A 
ATOM      7  C   UNL     1     -20.926  57.000   9.328  1.00  0.00     0.093 A 
ATOM      8  C   UNL     1     -19.908  57.923   9.062  1.00  0.00     0.123 A 
ATOM      9  C   UNL     1     -19.798  58.489   7.791  1.00  0.00     0.094 A 
ATOM     10  C   UNL     1     -20.698  58.139   6.780  1.00  0.00     0.146 A 
ATOM     11  O   UNL     1     -20.572  58.698   5.582  1.00  0.00    -0.452 OA
ENDROOT
BRANCH   1  12
ATOM     12  C   UNL     1     -21.143  59.128   3.279  1.00  0.00     0.021 A 
ATOM     13  C   UNL     1     -22.192  59.749   2.574  1.00  0.00     0.016 A 
ATOM     14  C   UNL     1     -21.936  60.423   1.376  1.00  0.00     0.047 A 
ATOM     15  C   UNL     1     -20.633  60.498   0.874  1.00  0.00     0.115 A 
ATOM     16  C   UNL     1     -19.834  59.225   2.779  1.00  0.00     0.016 A 
ATOM     17  C   UNL     1     -19.581  59.900   1.580  1.00  0.00     0.047 A 
BRANCH  15  18
ATOM     18  O   UNL     1     -20.394  61.171  -0.322  1.00  0.00    -0.508 OA
ATOM     19  H   UNL     1     -20.720  60.808  -1.209  1.00  0.00     0.293 HD
ENDBRANCH  15  18
ENDBRANCH   1  12
BRANCH   2  20
ATOM     20  O   UNL     1     -23.240  57.155   3.641  1.00  0.00    -0.502 OA
ATOM     21  H   UNL     1     -22.958  56.482   2.938  1.00  0.00     0.293 HD
ENDBRANCH   2  20
BRANCH   6  22
ATOM     22  O   UNL     1     -22.841  55.711   8.620  1.00  0.00    -0.507 OA
ATOM     23  H   UNL     1     -23.695  55.984   9.095  1.00  0.00     0.293 HD
ENDBRANCH   6  22
BRANCH   8  24
ATOM     24  O   UNL     1     -19.001  58.286  10.056  1.00  0.00    -0.508 OA
ATOM     25  H   UNL     1     -18.513  59.173  10.029  1.00  0.00     0.293 HD
ENDBRANCH   8  24
TORSDOF 5
ENDMDL
MODEL 6
REMARK VINA RESULT:    -6.938      8.061      9.630
REMARK INTER + INTRA:          -8.424
REMARK INTER:                  -8.421
REMARK INTRA:                  -0.004
REMARK UNBOUND:                -0.270
REMARK SMILES O=c1c(O)c(-c2ccc(O)cc2)oc2cc(O)cc(O)c12
REMARK SMILES IDX 5 1 3 2 2 3 1 4 21 5 19 6 18 7 16 8 15 9 14 10 13 11 6 12
REMARK SMILES IDX 7 13 8 14 9 15 12 16 11 17 10 18 4 20 20 22 17 24
REMARK H PARENT 10 19 4 21 20 23 17 25
REMARK Flexibility Score: inf
ROOT
ATOM      1  C   UNL     1     -19.968  58.924   4.235  1.00  0.00     0.180 A 
ATOM      2  C   UNL     1     -18.635  58.893   3.781  1.00  0.00     0.208 A 
ATOM      3  C   UNL     1     -18.346  59.366   2.492  1.00  0.00     0.238 A 
ATOM      4  O   UNL     1     -17.155  59.353   2.079  1.00  0.00    -0.285 OA
ATOM      5  C   UNL     1     -19.392  59.841   1.673  1.00  0.00     0.111 A 
ATOM      6  C   UNL     1     -19.186  60.330   0.360  1.00  0.00     0.134 A 
ATOM      7  C   UNL     1     -20.281  60.777  -0.395  1.00  0.00     0.093 A 
ATOM      8  C   UNL     1     -21.575  60.742   0.137  1.00  0.00     0.123 A 
ATOM      9  C   UNL     1     -21.782  60.261   1.430  1.00  0.00     0.094 A 
ATOM     10  C   UNL     1     -20.704  59.813   2.200  1.00  0.00     0.146 A 
ATOM     11  O   UNL     1     -20.930  59.366   3.429  1.00  0.00    -0.452 OA
ENDROOT
BRANCH   1  12
ATOM     12  C   UNL     1     -20.349  58.461   5.589  1.00  0.00     0.021 A 
ATOM     13  C   UNL     1     -19.682  58.926   6.738  1.00  0.00     0.016 A 
ATOM     14  C   UNL     1     -20.077  58.493   8.007  1.00  0.00     0.047 A 
ATOM     15  C   UNL     1     -21.147  57.604   8.147  1.00  0.00     0.115 A 
ATOM     16  C   UNL     1     -21.437  57.585   5.738  1.00  0.00     0.016 A 
ATOM     17  C   UNL     1     -21.829  57.153   7.009  1.00  0.00     0.047 A 
BRANCH  15  18
ATOM     18  O   UNL     1     -21.528  57.180   9.418  1.00  0.00    -0.508 OA
ATOM     19  H   UNL     1     -22.226  57.680   9.957  1.00  0.00     0.293 HD
ENDBRANCH  15  18
ENDBRANCH   1  12
BRANCH   2  20
ATOM     20  O   UNL     1     -17.625  58.372   4.593  1.00  0.00    -0.502 OA
ATOM     21  H   UNL     1     -17.445  58.722   5.527  1.00  0.00     0.293 HD
ENDBRANCH   2  20
BRANCH   6  22
ATOM     22  O   UNL     1     -17.908  60.376  -0.197  1.00  0.00    -0.507 OA
ATOM     23  H   UNL     1     -17.136  60.832   0.277  1.00  0.00     0.293 HD
ENDBRANCH   6  22
BRANCH   8  24
ATOM     24  O   UNL     1     -22.663  61.185  -0.613  1.00  0.00    -0.508 OA
ATOM     25  H   UNL     1     -22.897  60.764  -1.505  1.00  0.00     0.293 HD
ENDBRANCH   8  24
TORSDOF 5
ENDMDL
MODEL 7
REMARK VINA RESULT:    -6.884      9.647     11.920
REMARK INTER + INTRA:          -8.361
REMARK INTER:                  -8.334
REMARK INTRA:                  -0.028
REMARK UNBOUND:                -0.270
REMARK SMILES O=c1c(O)c(-c2ccc(O)cc2)oc2cc(O)cc(O)c12
REMARK SMILES IDX 5 1 3 2 2 3 1 4 21 5 19 6 18 7 16 8 15 9 14 10 13 11 6 12
REMARK SMILES IDX 7 13 8 14 9 15 12 16 11 17 10 18 4 20 20 22 17 24
REMARK H PARENT 10 19 4 21 20 23 17 25
REMARK Flexibility Score: inf
ROOT
ATOM      1  C   UNL     1     -20.420  58.632   4.920  1.00  0.00     0.180 A 
ATOM      2  C   UNL     1     -19.659  58.963   6.058  1.00  0.00     0.208 A 
ATOM      3  C   UNL     1     -20.025  58.421   7.300  1.00  0.00     0.238 A 
ATOM      4  O   UNL     1     -19.344  58.702   8.324  1.00  0.00    -0.285 OA
ATOM      5  C   UNL     1     -21.152  57.580   7.388  1.00  0.00     0.111 A 
ATOM      6  C   UNL     1     -21.591  56.998   8.602  1.00  0.00     0.134 A 
ATOM      7  C   UNL     1     -22.729  56.177   8.608  1.00  0.00     0.093 A 
ATOM      8  C   UNL     1     -23.436  55.930   7.426  1.00  0.00     0.123 A 
ATOM      9  C   UNL     1     -23.007  56.502   6.228  1.00  0.00     0.094 A 
ATOM     10  C   UNL     1     -21.874  57.320   6.200  1.00  0.00     0.146 A 
ATOM     11  O   UNL     1     -21.486  57.846   5.044  1.00  0.00    -0.452 OA
ENDROOT
BRANCH   1  12
ATOM     12  C   UNL     1     -20.086  59.147   3.573  1.00  0.00     0.021 A 
ATOM     13  C   UNL     1     -18.796  58.996   3.028  1.00  0.00     0.016 A 
ATOM     14  C   UNL     1     -18.512  59.469   1.744  1.00  0.00     0.047 A 
ATOM     15  C   UNL     1     -19.510  60.085   0.983  1.00  0.00     0.115 A 
ATOM     16  C   UNL     1     -21.089  59.748   2.794  1.00  0.00     0.016 A 
ATOM     17  C   UNL     1     -20.801  60.221   1.510  1.00  0.00     0.047 A 
BRANCH  15  18
ATOM     18  O   UNL     1     -19.211  60.553  -0.295  1.00  0.00    -0.508 OA
ATOM     19  H   UNL     1     -19.760  60.278  -1.101  1.00  0.00     0.293 HD
ENDBRANCH  15  18
ENDBRANCH   1  12
BRANCH   2  20
ATOM     20  O   UNL     1     -18.576  59.839   5.952  1.00  0.00    -0.502 OA
ATOM     21  H   UNL     1     -18.179  60.311   6.756  1.00  0.00     0.293 HD
ENDBRANCH   2  20
BRANCH   6  22
ATOM     22  O   UNL     1     -20.908  57.227   9.797  1.00  0.00    -0.507 OA
ATOM     23  H   UNL     1     -20.416  56.484  10.280  1.00  0.00     0.293 HD
ENDBRANCH   6  22
BRANCH   8  24
ATOM     24  O   UNL     1     -24.567  55.116   7.433  1.00  0.00    -0.508 OA
ATOM     25  H   UNL     1     -25.348  55.300   8.051  1.00  0.00     0.293 HD
ENDBRANCH   8  24
TORSDOF 5
ENDMDL
MODEL 8
REMARK VINA RESULT:    -6.791      4.370      7.725
REMARK INTER + INTRA:          -8.252
REMARK INTER:                  -8.015
REMARK INTRA:                  -0.238
REMARK UNBOUND:                -0.270
REMARK SMILES O=c1c(O)c(-c2ccc(O)cc2)oc2cc(O)cc(O)c12
REMARK SMILES IDX 5 1 3 2 2 3 1 4 21 5 19 6 18 7 16 8 15 9 14 10 13 11 6 12
REMARK SMILES IDX 7 13 8 14 9 15 12 16 11 17 10 18 4 20 20 22 17 24
REMARK H PARENT 10 19 4 21 20 23 17 25
REMARK Flexibility Score: inf
ROOT
ATOM      1  C   UNL     1     -17.251  60.635  -0.454  1.00  0.00     0.180 A 
ATOM      2  C   UNL     1     -16.536  60.132   0.650  1.00  0.00     0.208 A 
ATOM      3  C   UNL     1     -17.247  59.710   1.784  1.00  0.00     0.238 A 
ATOM      4  O   UNL     1     -16.618  59.249   2.774  1.00  0.00    -0.285 OA
ATOM      5  C   UNL     1     -18.653  59.818   1.804  1.00  0.00     0.111 A 
ATOM      6  C   UNL     1     -19.444  59.421   2.910  1.00  0.00     0.134 A 
ATOM      7  C   UNL     1     -20.838  59.568   2.856  1.00  0.00     0.093 A 
ATOM      8  C   UNL     1     -21.455  60.106   1.720  1.00  0.00     0.123 A 
ATOM      9  C   UNL     1     -20.679  60.499   0.629  1.00  0.00     0.094 A 
ATOM     10  C   UNL     1     -19.288  60.358   0.662  1.00  0.00     0.146 A 
ATOM     11  O   UNL     1     -18.576  60.734  -0.393  1.00  0.00    -0.452 OA
ENDROOT
BRANCH   1  12
ATOM     12  C   UNL     1     -16.574  61.080  -1.694  1.00  0.00     0.021 A 
ATOM     13  C   UNL     1     -15.892  62.310  -1.756  1.00  0.00     0.016 A 
ATOM     14  C   UNL     1     -15.239  62.697  -2.931  1.00  0.00     0.047 A 
ATOM     15  C   UNL     1     -15.247  61.859  -4.050  1.00  0.00     0.115 A 
ATOM     16  C   UNL     1     -16.560  60.234  -2.815  1.00  0.00     0.016 A 
ATOM     17  C   UNL     1     -15.907  60.624  -3.989  1.00  0.00     0.047 A 
BRANCH  15  18
ATOM     18  O   UNL     1     -14.594  62.258  -5.214  1.00  0.00    -0.508 OA
ATOM     19  H   UNL     1     -14.668  63.206  -5.564  1.00  0.00     0.293 HD
ENDBRANCH  15  18
ENDBRANCH   1  12
BRANCH   2  20
ATOM     20  O   UNL     1     -15.140  60.082   0.623  1.00  0.00    -0.502 OA
ATOM     21  H   UNL     1     -14.563  60.825   1.000  1.00  0.00     0.293 HD
ENDBRANCH   2  20
BRANCH   6  22
ATOM     22  O   UNL     1     -18.857  58.883   4.056  1.00  0.00    -0.507 OA
ATOM     23  H   UNL     1     -17.959  59.206   4.397  1.00  0.00     0.293 HD
ENDBRANCH   6  22
BRANCH   8  24
ATOM     24  O   UNL     1     -22.839  60.254   1.667  1.00  0.00    -0.508 OA
ATOM     25  H   UNL     1     -23.458  59.619   2.158  1.00  0.00     0.293 HD
ENDBRANCH   8  24
TORSDOF 5
ENDMDL
MODEL 9
REMARK VINA RESULT:    -6.782      3.809      5.652
REMARK INTER + INTRA:          -8.241
REMARK INTER:                  -8.235
REMARK INTRA:                  -0.006
REMARK UNBOUND:                -0.270
REMARK SMILES O=c1c(O)c(-c2ccc(O)cc2)oc2cc(O)cc(O)c12
REMARK SMILES IDX 5 1 3 2 2 3 1 4 21 5 19 6 18 7 16 8 15 9 14 10 13 11 6 12
REMARK SMILES IDX 7 13 8 14 9 15 12 16 11 17 10 18 4 20 20 22 17 24
REMARK H PARENT 10 19 4 21 20 23 17 25
REMARK Flexibility Score: inf
ROOT
ATOM      1  C   UNL     1     -18.105  60.599  -0.298  1.00  0.00     0.180 A 
ATOM      2  C   UNL     1     -16.962  61.240   0.218  1.00  0.00     0.208 A 
ATOM      3  C   UNL     1     -15.845  61.411  -0.615  1.00  0.00     0.238 A 
ATOM      4  O   UNL     1     -14.820  61.992  -0.166  1.00  0.00    -0.285 OA
ATOM      5  C   UNL     1     -15.882  60.924  -1.937  1.00  0.00     0.111 A 
ATOM      6  C   UNL     1     -14.797  61.051  -2.839  1.00  0.00     0.134 A 
ATOM      7  C   UNL     1     -14.909  60.531  -4.138  1.00  0.00     0.093 A 
ATOM      8  C   UNL     1     -16.080  59.885  -4.549  1.00  0.00     0.123 A 
ATOM      9  C   UNL     1     -17.151  59.757  -3.663  1.00  0.00     0.094 A 
ATOM     10  C   UNL     1     -17.061  60.271  -2.366  1.00  0.00     0.146 A 
ATOM     11  O   UNL     1     -18.097  60.140  -1.546  1.00  0.00    -0.452 OA
ENDROOT
BRANCH   1  12
ATOM     12  C   UNL     1     -19.328  60.399   0.512  1.00  0.00     0.021 A 
ATOM     13  C   UNL     1     -19.281  59.769   1.770  1.00  0.00     0.016 A 
ATOM     14  C   UNL     1     -20.446  59.613   2.526  1.00  0.00     0.047 A 
ATOM     15  C   UNL     1     -21.667  60.096   2.046  1.00  0.00     0.115 A 
ATOM     16  C   UNL     1     -20.555  60.899   0.045  1.00  0.00     0.016 A 
ATOM     17  C   UNL     1     -21.719  60.742   0.804  1.00  0.00     0.047 A 
BRANCH  15  18
ATOM     18  O   UNL     1     -22.821  59.932   2.811  1.00  0.00    -0.508 OA
ATOM     19  H   UNL     1     -22.891  59.206   3.513  1.00  0.00     0.293 HD
ENDBRANCH  15  18
ENDBRANCH   1  12
BRANCH   2  20
ATOM     20  O   UNL     1     -16.933  61.669   1.547  1.00  0.00    -0.502 OA
ATOM     21  H   UNL     1     -16.648  62.606   1.809  1.00  0.00     0.293 HD
ENDBRANCH   2  20
BRANCH   6  22
ATOM     22  O   UNL     1     -13.617  61.689  -2.457  1.00  0.00    -0.507 OA
ATOM     23  H   UNL     1     -13.524  62.698  -2.481  1.00  0.00     0.293 HD
ENDBRANCH   6  22
BRANCH   8  24
ATOM     24  O   UNL     1     -16.190  59.367  -5.838  1.00  0.00    -0.508 OA
ATOM     25  H   UNL     1     -16.748  58.544  -6.032  1.00  0.00     0.293 HD
ENDBRANCH   8  24
TORSDOF 5
ENDMDL
