MODEL 1
REMARK VINA RESULT:    -3.236      0.000      0.000
REMARK INTER + INTRA:          -3.664
REMARK INTER:                  -3.615
REMARK INTRA:                  -0.049
REMARK UNBOUND:                -0.049
REMARK SMILES CCCC(=O)[O-]
REMARK SMILES IDX 3 1 4 2 5 3 6 4 2 5 1 6
REMARK H PARENT
REMARK Flexibility Score: inf
ROOT
ATOM      1  C   UNL     1       8.749  18.416  32.326  1.00  0.00     0.052 C 
ENDROOT
BRANCH   1   2
ATOM      2  C   UNL     1      10.001  17.971  33.012  1.00  0.00     0.041 C 
ATOM      3  O   UNL     1      10.099  16.796  33.452  1.00  0.00    -0.550 OA
ATOM      4  O   UNL     1      11.042  18.869  33.210  1.00  0.00    -0.550 OA
ENDBRANCH   1   2
BRANCH   1   5
ATOM      5  C   UNL     1       9.058  18.901  30.908  1.00  0.00     0.003 C 
ATOM      6  C   UNL     1       9.823  17.843  30.118  1.00  0.00     0.004 C 
ENDBRANCH   1   5
TORSDOF 2
ENDMDL
MODEL 2
REMARK VINA RESULT:    -3.165      1.887      2.362
REMARK INTER + INTRA:          -3.584
REMARK INTER:                  -3.573
REMARK INTRA:                  -0.011
REMARK UNBOUND:                -0.049
REMARK SMILES CCCC(=O)[O-]
REMARK SMILES IDX 3 1 4 2 5 3 6 4 2 5 1 6
REMARK H PARENT
REMARK Flexibility Score: inf
ROOT
ATOM      1  C   UNL     1       9.046  18.821  30.300  1.00  0.00     0.052 C 
ENDROOT
BRANCH   1   2
ATOM      2  C   UNL     1       9.134  18.179  31.647  1.00  0.00     0.041 C 
ATOM      3  O   UNL     1      10.006  17.300  31.875  1.00  0.00    -0.550 OA
ATOM      4  O   UNL     1       8.221  18.515  32.640  1.00  0.00    -0.550 OA
ENDBRANCH   1   2
BRANCH   1   5
ATOM      5  C   UNL     1       8.321  20.166  30.394  1.00  0.00     0.003 C 
ATOM      6  C   UNL     1       7.875  20.649  29.017  1.00  0.00     0.004 C 
ENDBRANCH   1   5
TORSDOF 2
ENDMDL
MODEL 3
REMARK VINA RESULT:    -3.161      2.720      3.333
REMARK INTER + INTRA:          -3.580
REMARK INTER:                  -3.565
REMARK INTRA:                  -0.015
REMARK UNBOUND:                -0.049
REMARK SMILES CCCC(=O)[O-]
REMARK SMILES IDX 3 1 4 2 5 3 6 4 2 5 1 6
REMARK H PARENT
REMARK Flexibility Score: inf
ROOT
ATOM      1  C   UNL     1       8.481  19.946  30.487  1.00  0.00     0.052 C 
ENDROOT
BRANCH   1   2
ATOM      2  C   UNL     1       8.302  21.052  31.478  1.00  0.00     0.041 C 
ATOM      3  O   UNL     1       8.492  20.841  32.704  1.00  0.00    -0.550 OA
ATOM      4  O   UNL     1       7.876  22.304  31.053  1.00  0.00    -0.550 OA
ENDBRANCH   1   2
BRANCH   1   5
ATOM      5  C   UNL     1       9.049  18.700  31.172  1.00  0.00     0.003 C 
ATOM      6  C   UNL     1       9.872  17.862  30.198  1.00  0.00     0.004 C 
ENDBRANCH   1   5
TORSDOF 2
ENDMDL
MODEL 4
REMARK VINA RESULT:    -3.119      2.426      2.899
REMARK INTER + INTRA:          -3.533
REMARK INTER:                  -3.524
REMARK INTRA:                  -0.009
REMARK UNBOUND:                -0.049
REMARK SMILES CCCC(=O)[O-]
REMARK SMILES IDX 3 1 4 2 5 3 6 4 2 5 1 6
REMARK H PARENT
REMARK Flexibility Score: inf
ROOT
ATOM      1  C   UNL     1       8.624  20.035  30.834  1.00  0.00     0.052 C 
ENDROOT
BRANCH   1   2
ATOM      2  C   UNL     1       9.124  18.651  31.103  1.00  0.00     0.041 C 
ATOM      3  O   UNL     1       9.002  18.145  32.249  1.00  0.00    -0.550 OA
ATOM      4  O   UNL     1       9.769  17.937  30.101  1.00  0.00    -0.550 OA
ENDBRANCH   1   2
BRANCH   1   5
ATOM      5  C   UNL     1       8.244  20.190  29.359  1.00  0.00     0.003 C 
ATOM      6  C   UNL     1       7.875  21.634  29.034  1.00  0.00     0.004 C 
ENDBRANCH   1   5
TORSDOF 2
ENDMDL
MODEL 5
REMARK VINA RESULT:    -3.101      3.673      4.130
REMARK INTER + INTRA:          -3.513
REMARK INTER:                  -3.501
REMARK INTRA:                  -0.012
REMARK UNBOUND:                -0.049
REMARK SMILES CCCC(=O)[O-]
REMARK SMILES IDX 3 1 4 2 5 3 6 4 2 5 1 6
REMARK H PARENT
REMARK Flexibility Score: inf
ROOT
ATOM      1  C   UNL     1       8.626  19.970  30.806  1.00  0.00     0.052 C 
ENDROOT
BRANCH   1   2
ATOM      2  C   UNL     1       8.125  20.899  29.748  1.00  0.00     0.041 C 
ATOM      3  O   UNL     1       7.875  20.468  28.592  1.00  0.00    -0.550 OA
ATOM      4  O   UNL     1       7.979  22.253  30.023  1.00  0.00    -0.550 OA
ENDBRANCH   1   2
BRANCH   1   5
ATOM      5  C   UNL     1       9.011  18.619  30.195  1.00  0.00     0.003 C 
ATOM      6  C   UNL     1       9.763  17.753  31.201  1.00  0.00     0.004 C 
ENDBRANCH   1   5
TORSDOF 2
ENDMDL
MODEL 6
REMARK VINA RESULT:    -2.925      7.032      7.746
REMARK INTER + INTRA:          -3.317
REMARK INTER:                  -3.280
REMARK INTRA:                  -0.037
REMARK UNBOUND:                -0.049
REMARK SMILES CCCC(=O)[O-]
REMARK SMILES IDX 3 1 4 2 5 3 6 4 2 5 1 6
REMARK H PARENT
REMARK Flexibility Score: inf
ROOT
ATOM      1  C   UNL     1      16.090  16.244  36.562  1.00  0.00     0.052 C 
ENDROOT
BRANCH   1   2
ATOM      2  C   UNL     1      14.855  15.518  36.991  1.00  0.00     0.041 C 
ATOM      3  O   UNL     1      13.755  15.749  36.425  1.00  0.00    -0.550 OA
ATOM      4  O   UNL     1      14.909  14.619  38.049  1.00  0.00    -0.550 OA
ENDBRANCH   1   2
BRANCH   1   5
ATOM      5  C   UNL     1      15.731  17.617  35.987  1.00  0.00     0.003 C 
ATOM      6  C   UNL     1      16.002  18.726  37.000  1.00  0.00     0.004 C 
ENDBRANCH   1   5
TORSDOF 2
ENDMDL
MODEL 7
REMARK VINA RESULT:    -2.874      2.262      3.054
REMARK INTER + INTRA:          -3.259
REMARK INTER:                  -3.220
REMARK INTRA:                  -0.039
REMARK UNBOUND:                -0.049
REMARK SMILES CCCC(=O)[O-]
REMARK SMILES IDX 3 1 4 2 5 3 6 4 2 5 1 6
REMARK H PARENT
REMARK Flexibility Score: inf
ROOT
ATOM      1  C   UNL     1       8.868  18.369  32.094  1.00  0.00     0.052 C 
ENDROOT
BRANCH   1   2
ATOM      2  C   UNL     1       9.209  18.579  30.653  1.00  0.00     0.041 C 
ATOM      3  O   UNL     1      10.071  17.852  30.093  1.00  0.00    -0.550 OA
ATOM      4  O   UNL     1       8.612  19.610  29.940  1.00  0.00    -0.550 OA
ENDBRANCH   1   2
BRANCH   1   5
ATOM      5  C   UNL     1       9.952  17.537  32.786  1.00  0.00     0.003 C 
ATOM      6  C   UNL     1      10.888  18.423  33.602  1.00  0.00     0.004 C 
ENDBRANCH   1   5
TORSDOF 2
ENDMDL
MODEL 8
REMARK VINA RESULT:    -2.829      7.802      8.309
REMARK INTER + INTRA:          -3.210
REMARK INTER:                  -3.196
REMARK INTRA:                  -0.014
REMARK UNBOUND:                -0.049
REMARK SMILES CCCC(=O)[O-]
REMARK SMILES IDX 3 1 4 2 5 3 6 4 2 5 1 6
REMARK H PARENT
REMARK Flexibility Score: inf
ROOT
ATOM      1  C   UNL     1      14.578  16.840  38.267  1.00  0.00     0.052 C 
ENDROOT
BRANCH   1   2
ATOM      2  C   UNL     1      15.097  15.874  37.251  1.00  0.00     0.041 C 
ATOM      3  O   UNL     1      16.158  16.125  36.622  1.00  0.00    -0.550 OA
ATOM      4  O   UNL     1      14.383  14.718  36.961  1.00  0.00    -0.550 OA
ENDBRANCH   1   2
BRANCH   1   5
ATOM      5  C   UNL     1      15.259  18.203  38.108  1.00  0.00     0.003 C 
ATOM      6  C   UNL     1      15.038  19.076  39.339  1.00  0.00     0.004 C 
ENDBRANCH   1   5
TORSDOF 2
ENDMDL
