MODEL 1
REMARK VINA RESULT:    -2.136      0.000      0.000
REMARK INTER + INTRA:          -3.321
REMARK INTER:                  -2.885
REMARK INTRA:                  -0.436
REMARK UNBOUND:                -0.436
REMARK SMILES CCCCCCCC=O
REMARK SMILES IDX 5 1 4 2 3 3 2 4 1 5 6 6 7 7 8 8 9 9
REMARK H PARENT
REMARK Flexibility Score: inf
ROOT
ATOM      1  C   UNL     1     109.905 115.541 108.745  1.00  0.00     0.000 C 
ENDROOT
BRANCH   1   2
ATOM      2  C   UNL     1     109.465 117.005 108.584  1.00  0.00     0.000 C 
BRANCH   2   3
ATOM      3  C   UNL     1     108.371 117.181 107.520  1.00  0.00    -0.000 C 
BRANCH   3   4
ATOM      4  C   UNL     1     107.042 117.595 108.163  1.00  0.00    -0.003 C 
ATOM      5  C   UNL     1     105.996 116.493 108.025  1.00  0.00     0.004 C 
ENDBRANCH   3   4
ENDBRANCH   2   3
ENDBRANCH   1   2
BRANCH   1   6
ATOM      6  C   UNL     1     109.339 114.628 107.647  1.00  0.00     0.008 C 
BRANCH   6   7
ATOM      7  C   UNL     1     108.533 113.476 108.256  1.00  0.00     0.072 C 
BRANCH   7   8
ATOM      8  C   UNL     1     109.372 112.679 109.209  1.00  0.00     0.224 C 
ATOM      9  O   UNL     1     108.927 111.667 109.727  1.00  0.00    -0.303 OA
ENDBRANCH   7   8
ENDBRANCH   6   7
ENDBRANCH   1   6
TORSDOF 6
ENDMDL
MODEL 2
REMARK VINA RESULT:    -2.118      9.163     10.715
REMARK INTER + INTRA:          -3.297
REMARK INTER:                  -2.956
REMARK INTRA:                  -0.341
REMARK UNBOUND:                -0.436
REMARK SMILES CCCCCCCC=O
REMARK SMILES IDX 5 1 4 2 3 3 2 4 1 5 6 6 7 7 8 8 9 9
REMARK H PARENT
REMARK Flexibility Score: inf
ROOT
ATOM      1  C   UNL     1     115.761 122.034 108.534  1.00  0.00     0.000 C 
ENDROOT
BRANCH   1   2
ATOM      2  C   UNL     1     116.997 122.922 108.755  1.00  0.00     0.000 C 
BRANCH   2   3
ATOM      3  C   UNL     1     117.292 123.836 107.557  1.00  0.00    -0.000 C 
BRANCH   3   4
ATOM      4  C   UNL     1     117.598 125.265 108.020  1.00  0.00    -0.003 C 
ATOM      5  C   UNL     1     116.337 126.124 108.029  1.00  0.00     0.004 C 
ENDBRANCH   3   4
ENDBRANCH   2   3
ENDBRANCH   1   2
BRANCH   1   6
ATOM      6  C   UNL     1     114.533 122.834 108.075  1.00  0.00     0.008 C 
BRANCH   6   7
ATOM      7  C   UNL     1     113.239 122.194 108.592  1.00  0.00     0.072 C 
BRANCH   7   8
ATOM      8  C   UNL     1     113.528 121.202 109.679  1.00  0.00     0.224 C 
ATOM      9  O   UNL     1     112.834 120.207 109.808  1.00  0.00    -0.303 OA
ENDBRANCH   7   8
ENDBRANCH   6   7
ENDBRANCH   1   6
TORSDOF 6
ENDMDL
MODEL 3
REMARK VINA RESULT:    -2.038      9.125     10.839
REMARK INTER + INTRA:          -3.188
REMARK INTER:                  -2.923
REMARK INTRA:                  -0.266
REMARK UNBOUND:                -0.436
REMARK SMILES CCCCCCCC=O
REMARK SMILES IDX 5 1 4 2 3 3 2 4 1 5 6 6 7 7 8 8 9 9
REMARK H PARENT
REMARK Flexibility Score: inf
ROOT
ATOM      1  C   UNL     1     114.499 122.726 107.868  1.00  0.00     0.000 C 
ENDROOT
BRANCH   1   2
ATOM      2  C   UNL     1     115.501 121.982 108.766  1.00  0.00     0.000 C 
BRANCH   2   3
ATOM      3  C   UNL     1     116.934 122.516 108.623  1.00  0.00    -0.000 C 
BRANCH   3   4
ATOM      4  C   UNL     1     116.990 123.674 107.619  1.00  0.00    -0.003 C 
ATOM      5  C   UNL     1     117.593 124.924 108.252  1.00  0.00     0.004 C 
ENDBRANCH   3   4
ENDBRANCH   2   3
ENDBRANCH   1   2
BRANCH   1   6
ATOM      6  C   UNL     1     113.056 122.232 108.057  1.00  0.00     0.008 C 
BRANCH   6   7
ATOM      7  C   UNL     1     112.586 122.455 109.499  1.00  0.00     0.072 C 
BRANCH   7   8
ATOM      8  C   UNL     1     111.669 123.638 109.587  1.00  0.00     0.224 C 
ATOM      9  O   UNL     1     112.124 124.770 109.639  1.00  0.00    -0.303 OA
ENDBRANCH   7   8
ENDBRANCH   6   7
ENDBRANCH   1   6
TORSDOF 6
ENDMDL
MODEL 4
REMARK VINA RESULT:    -2.019      2.089      3.645
REMARK INTER + INTRA:          -3.164
REMARK INTER:                  -2.815
REMARK INTRA:                  -0.349
REMARK UNBOUND:                -0.436
REMARK SMILES CCCCCCCC=O
REMARK SMILES IDX 5 1 4 2 3 3 2 4 1 5 6 6 7 7 8 8 9 9
REMARK H PARENT
REMARK Flexibility Score: inf
ROOT
ATOM      1  C   UNL     1     109.007 112.582 108.332  1.00  0.00     0.000 C 
ENDROOT
BRANCH   1   2
ATOM      2  C   UNL     1     109.792 112.731 109.645  1.00  0.00     0.000 C 
BRANCH   2   3
ATOM      3  C   UNL     1     110.422 114.122 109.805  1.00  0.00    -0.000 C 
BRANCH   3   4
ATOM      4  C   UNL     1     110.365 114.905 108.487  1.00  0.00    -0.003 C 
ATOM      5  C   UNL     1     109.710 116.268 108.683  1.00  0.00     0.004 C 
ENDBRANCH   3   4
ENDBRANCH   2   3
ENDBRANCH   1   2
BRANCH   1   6
ATOM      6  C   UNL     1     107.691 111.811 108.514  1.00  0.00     0.008 C 
BRANCH   6   7
ATOM      7  C   UNL     1     107.292 111.752 109.993  1.00  0.00     0.072 C 
BRANCH   7   8
ATOM      8  C   UNL     1     107.013 110.341 110.418  1.00  0.00     0.224 C 
ATOM      9  O   UNL     1     107.396 109.403 109.737  1.00  0.00    -0.303 OA
ENDBRANCH   7   8
ENDBRANCH   6   7
ENDBRANCH   1   6
TORSDOF 6
ENDMDL
MODEL 5
REMARK VINA RESULT:    -2.001      9.099     10.373
REMARK INTER + INTRA:          -3.139
REMARK INTER:                  -2.842
REMARK INTRA:                  -0.298
REMARK UNBOUND:                -0.436
REMARK SMILES CCCCCCCC=O
REMARK SMILES IDX 5 1 4 2 3 3 2 4 1 5 6 6 7 7 8 8 9 9
REMARK H PARENT
REMARK Flexibility Score: inf
ROOT
ATOM      1  C   UNL     1     114.524 121.579 109.324  1.00  0.00     0.000 C 
ENDROOT
BRANCH   1   2
ATOM      2  C   UNL     1     113.031 121.577 108.956  1.00  0.00     0.000 C 
BRANCH   2   3
ATOM      3  C   UNL     1     112.258 122.733 109.608  1.00  0.00    -0.000 C 
BRANCH   3   4
ATOM      4  C   UNL     1     111.956 123.836 108.586  1.00  0.00    -0.003 C 
ATOM      5  C   UNL     1     111.889 123.272 107.171  1.00  0.00     0.004 C 
ENDBRANCH   3   4
ENDBRANCH   2   3
ENDBRANCH   1   2
BRANCH   1   6
ATOM      6  C   UNL     1     115.416 122.061 108.170  1.00  0.00     0.008 C 
BRANCH   6   7
ATOM      7  C   UNL     1     116.740 122.623 108.701  1.00  0.00     0.072 C 
BRANCH   7   8
ATOM      8  C   UNL     1     117.123 123.875 107.971  1.00  0.00     0.224 C 
ATOM      9  O   UNL     1     117.819 124.719 108.513  1.00  0.00    -0.303 OA
ENDBRANCH   7   8
ENDBRANCH   6   7
ENDBRANCH   1   6
TORSDOF 6
ENDMDL
MODEL 6
REMARK VINA RESULT:    -1.987      9.550     11.113
REMARK INTER + INTRA:          -3.120
REMARK INTER:                  -2.921
REMARK INTRA:                  -0.199
REMARK UNBOUND:                -0.436
REMARK SMILES CCCCCCCC=O
REMARK SMILES IDX 5 1 4 2 3 3 2 4 1 5 6 6 7 7 8 8 9 9
REMARK H PARENT
REMARK Flexibility Score: inf
ROOT
ATOM      1  C   UNL     1     117.541 110.351 109.465  1.00  0.00     0.000 C 
ENDROOT
BRANCH   1   2
ATOM      2  C   UNL     1     116.610 110.154 108.258  1.00  0.00     0.000 C 
BRANCH   2   3
ATOM      3  C   UNL     1     115.262 109.529 108.644  1.00  0.00    -0.000 C 
BRANCH   3   4
ATOM      4  C   UNL     1     114.806 108.513 107.590  1.00  0.00    -0.003 C 
ATOM      5  C   UNL     1     114.453 107.174 108.230  1.00  0.00     0.004 C 
ENDBRANCH   3   4
ENDBRANCH   2   3
ENDBRANCH   1   2
BRANCH   1   6
ATOM      6  C   UNL     1     119.026 110.362 109.072  1.00  0.00     0.008 C 
BRANCH   6   7
ATOM      7  C   UNL     1     119.773 109.195 109.728  1.00  0.00     0.072 C 
BRANCH   7   8
ATOM      8  C   UNL     1     120.007 108.087 108.744  1.00  0.00     0.224 C 
ATOM      9  O   UNL     1     119.087 107.364 108.397  1.00  0.00    -0.303 OA
ENDBRANCH   7   8
ENDBRANCH   6   7
ENDBRANCH   1   6
TORSDOF 6
ENDMDL
MODEL 7
REMARK VINA RESULT:    -1.984     14.187     14.927
REMARK INTER + INTRA:          -3.117
REMARK INTER:                  -2.842
REMARK INTRA:                  -0.275
REMARK UNBOUND:                -0.436
REMARK SMILES CCCCCCCC=O
REMARK SMILES IDX 5 1 4 2 3 3 2 4 1 5 6 6 7 7 8 8 9 9
REMARK H PARENT
REMARK Flexibility Score: inf
ROOT
ATOM      1  C   UNL     1     122.030 116.499 108.789  1.00  0.00     0.000 C 
ENDROOT
BRANCH   1   2
ATOM      2  C   UNL     1     122.440 117.453 107.656  1.00  0.00     0.000 C 
BRANCH   2   3
ATOM      3  C   UNL     1     121.974 118.896 107.900  1.00  0.00    -0.000 C 
BRANCH   3   4
ATOM      4  C   UNL     1     122.106 119.273 109.381  1.00  0.00    -0.003 C 
ATOM      5  C   UNL     1     123.378 120.075 109.634  1.00  0.00     0.004 C 
ENDBRANCH   3   4
ENDBRANCH   2   3
ENDBRANCH   1   2
BRANCH   1   6
ATOM      6  C   UNL     1     122.469 115.049 108.530  1.00  0.00     0.008 C 
BRANCH   6   7
ATOM      7  C   UNL     1     123.635 115.002 107.536  1.00  0.00     0.072 C 
BRANCH   7   8
ATOM      8  C   UNL     1     124.877 114.473 108.189  1.00  0.00     0.224 C 
ATOM      9  O   UNL     1     125.892 115.149 108.227  1.00  0.00    -0.303 OA
ENDBRANCH   7   8
ENDBRANCH   6   7
ENDBRANCH   1   6
TORSDOF 6
ENDMDL
MODEL 8
REMARK VINA RESULT:    -1.976     14.066     15.293
REMARK INTER + INTRA:          -3.106
REMARK INTER:                  -2.800
REMARK INTRA:                  -0.305
REMARK UNBOUND:                -0.436
REMARK SMILES CCCCCCCC=O
REMARK SMILES IDX 5 1 4 2 3 3 2 4 1 5 6 6 7 7 8 8 9 9
REMARK H PARENT
REMARK Flexibility Score: inf
ROOT
ATOM      1  C   UNL     1     121.945 117.455 107.663  1.00  0.00     0.000 C 
ENDROOT
BRANCH   1   2
ATOM      2  C   UNL     1     121.972 116.500 108.868  1.00  0.00     0.000 C 
BRANCH   2   3
ATOM      3  C   UNL     1     122.586 115.134 108.527  1.00  0.00    -0.000 C 
BRANCH   3   4
ATOM      4  C   UNL     1     123.855 115.298 107.683  1.00  0.00    -0.003 C 
ATOM      5  C   UNL     1     124.974 114.392 108.187  1.00  0.00     0.004 C 
ENDBRANCH   3   4
ENDBRANCH   2   3
ENDBRANCH   1   2
BRANCH   1   6
ATOM      6  C   UNL     1     121.705 118.916 108.073  1.00  0.00     0.008 C 
BRANCH   6   7
ATOM      7  C   UNL     1     122.080 119.141 109.542  1.00  0.00     0.072 C 
BRANCH   7   8
ATOM      8  C   UNL     1     123.319 119.977 109.658  1.00  0.00     0.224 C 
ATOM      9  O   UNL     1     124.380 119.574 109.209  1.00  0.00    -0.303 OA
ENDBRANCH   7   8
ENDBRANCH   6   7
ENDBRANCH   1   6
TORSDOF 6
ENDMDL
MODEL 9
REMARK VINA RESULT:    -1.949     14.283     15.842
REMARK INTER + INTRA:          -3.069
REMARK INTER:                  -2.642
REMARK INTRA:                  -0.426
REMARK UNBOUND:                -0.436
REMARK SMILES CCCCCCCC=O
REMARK SMILES IDX 5 1 4 2 3 3 2 4 1 5 6 6 7 7 8 8 9 9
REMARK H PARENT
REMARK Flexibility Score: inf
ROOT
ATOM      1  C   UNL     1     122.406 115.201 108.517  1.00  0.00     0.000 C 
ENDROOT
BRANCH   1   2
ATOM      2  C   UNL     1     123.613 115.153 107.566  1.00  0.00     0.000 C 
BRANCH   2   3
ATOM      3  C   UNL     1     124.817 114.418 108.174  1.00  0.00    -0.000 C 
BRANCH   3   4
ATOM      4  C   UNL     1     126.072 115.299 108.139  1.00  0.00    -0.003 C 
ATOM      5  C   UNL     1     125.951 116.390 107.080  1.00  0.00     0.004 C 
ENDBRANCH   3   4
ENDBRANCH   2   3
ENDBRANCH   1   2
BRANCH   1   6
ATOM      6  C   UNL     1     121.983 116.636 108.865  1.00  0.00     0.008 C 
BRANCH   6   7
ATOM      7  C   UNL     1     122.577 117.638 107.867  1.00  0.00     0.072 C 
BRANCH   7   8
ATOM      8  C   UNL     1     123.147 118.828 108.577  1.00  0.00     0.224 C 
ATOM      9  O   UNL     1     122.434 119.532 109.275  1.00  0.00    -0.303 OA
ENDBRANCH   7   8
ENDBRANCH   6   7
ENDBRANCH   1   6
TORSDOF 6
ENDMDL
