MODEL 1
REMARK VINA RESULT:    -6.392      0.000      0.000
REMARK INTER + INTRA:          -6.896
REMARK INTER:                  -6.766
REMARK INTRA:                  -0.130
REMARK UNBOUND:                -0.130
REMARK SMILES C=C(C)[C@@H]1CC=C(C)CC1
REMARK SMILES IDX 8 1 7 2 6 3 5 4 4 5 10 6 9 7 2 8 1 9 3 10
REMARK H PARENT
REMARK Flexibility Score: inf
ROOT
ATOM      1  C   UNL     1       4.836 -18.473  15.469  1.00  0.00     0.039 C 
ATOM      2  C   UNL     1       3.351 -18.362  15.256  1.00  0.00    -0.077 C 
ATOM      3  C   UNL     1       2.831 -18.726  14.064  1.00  0.00    -0.027 C 
ATOM      4  C   UNL     1       1.351 -18.701  13.771  1.00  0.00     0.035 C 
ATOM      5  C   UNL     1       0.590 -17.742  14.702  1.00  0.00     0.018 C 
ATOM      6  C   UNL     1       1.003 -17.991  16.159  1.00  0.00     0.013 C 
ATOM      7  C   UNL     1       2.502 -17.721  16.338  1.00  0.00     0.031 C 
ENDROOT
BRANCH   5   8
ATOM      8  C   UNL     1      -0.917 -17.869  14.517  1.00  0.00    -0.077 C 
ATOM      9  C   UNL     1      -1.418 -18.308  13.352  1.00  0.00     0.008 C 
ATOM     10  C   UNL     1      -1.877 -17.520  15.627  1.00  0.00     0.039 C 
ENDBRANCH   5   8
TORSDOF 1
ENDMDL
MODEL 2
REMARK VINA RESULT:    -6.313      1.258      4.593
REMARK INTER + INTRA:          -6.813
REMARK INTER:                  -6.684
REMARK INTRA:                  -0.129
REMARK UNBOUND:                -0.130
REMARK SMILES C=C(C)[C@@H]1CC=C(C)CC1
REMARK SMILES IDX 8 1 7 2 6 3 5 4 4 5 10 6 9 7 2 8 1 9 3 10
REMARK H PARENT
REMARK Flexibility Score: inf
ROOT
ATOM      1  C   UNL     1      -0.809 -18.346  13.427  1.00  0.00     0.039 C 
ATOM      2  C   UNL     1       0.395 -18.322  14.329  1.00  0.00    -0.077 C 
ATOM      3  C   UNL     1       0.244 -17.934  15.614  1.00  0.00    -0.027 C 
ATOM      4  C   UNL     1       1.378 -17.927  16.608  1.00  0.00     0.035 C 
ATOM      5  C   UNL     1       2.753 -17.861  15.923  1.00  0.00     0.018 C 
ATOM      6  C   UNL     1       2.826 -18.902  14.796  1.00  0.00     0.013 C 
ATOM      7  C   UNL     1       1.761 -18.607  13.733  1.00  0.00     0.031 C 
ENDROOT
BRANCH   5   8
ATOM      8  C   UNL     1       3.884 -18.042  16.927  1.00  0.00    -0.077 C 
ATOM      9  C   UNL     1       3.900 -19.112  17.737  1.00  0.00     0.008 C 
ATOM     10  C   UNL     1       5.009 -17.042  17.032  1.00  0.00     0.039 C 
ENDBRANCH   5   8
TORSDOF 1
ENDMDL
MODEL 3
REMARK VINA RESULT:    -6.044      6.262      7.364
REMARK INTER + INTRA:          -6.527
REMARK INTER:                  -6.396
REMARK INTRA:                  -0.132
REMARK UNBOUND:                -0.130
REMARK SMILES C=C(C)[C@@H]1CC=C(C)CC1
REMARK SMILES IDX 8 1 7 2 6 3 5 4 4 5 10 6 9 7 2 8 1 9 3 10
REMARK H PARENT
REMARK Flexibility Score: inf
ROOT
ATOM      1  C   UNL     1      -3.141 -18.895   8.001  1.00  0.00     0.039 C 
ATOM      2  C   UNL     1      -2.920 -17.660   8.829  1.00  0.00    -0.077 C 
ATOM      3  C   UNL     1      -2.015 -16.746   8.416  1.00  0.00    -0.027 C 
ATOM      4  C   UNL     1      -1.760 -15.452   9.148  1.00  0.00     0.035 C 
ATOM      5  C   UNL     1      -2.187 -15.525  10.624  1.00  0.00     0.018 C 
ATOM      6  C   UNL     1      -3.600 -16.114  10.731  1.00  0.00     0.013 C 
ATOM      7  C   UNL     1      -3.623 -17.541  10.168  1.00  0.00     0.031 C 
ENDROOT
BRANCH   5   8
ATOM      8  C   UNL     1      -2.096 -14.161  11.295  1.00  0.00    -0.077 C 
ATOM      9  C   UNL     1      -1.744 -13.081  10.581  1.00  0.00     0.008 C 
ATOM     10  C   UNL     1      -2.406 -13.984  12.761  1.00  0.00     0.039 C 
ENDBRANCH   5   8
TORSDOF 1
ENDMDL
MODEL 4
REMARK VINA RESULT:    -5.976      6.325      8.685
REMARK INTER + INTRA:          -6.455
REMARK INTER:                  -6.327
REMARK INTRA:                  -0.128
REMARK UNBOUND:                -0.130
REMARK SMILES C=C(C)[C@@H]1CC=C(C)CC1
REMARK SMILES IDX 8 1 7 2 6 3 5 4 4 5 10 6 9 7 2 8 1 9 3 10
REMARK H PARENT
REMARK Flexibility Score: inf
ROOT
ATOM      1  C   UNL     1      -2.192 -16.227  12.078  1.00  0.00     0.039 C 
ATOM      2  C   UNL     1      -2.849 -15.800  10.794  1.00  0.00    -0.077 C 
ATOM      3  C   UNL     1      -3.965 -16.440  10.384  1.00  0.00    -0.027 C 
ATOM      4  C   UNL     1      -4.725 -16.051   9.140  1.00  0.00     0.035 C 
ATOM      5  C   UNL     1      -3.848 -15.281   8.139  1.00  0.00     0.018 C 
ATOM      6  C   UNL     1      -3.088 -14.161   8.865  1.00  0.00     0.013 C 
ATOM      7  C   UNL     1      -2.163 -14.756   9.934  1.00  0.00     0.031 C 
ENDROOT
BRANCH   5   8
ATOM      8  C   UNL     1      -4.674 -14.738   6.981  1.00  0.00    -0.077 C 
ATOM      9  C   UNL     1      -5.024 -13.443   6.952  1.00  0.00     0.008 C 
ATOM     10  C   UNL     1      -5.108 -15.626   5.841  1.00  0.00     0.039 C 
ENDBRANCH   5   8
TORSDOF 1
ENDMDL
MODEL 5
REMARK VINA RESULT:    -5.947      6.244      9.227
REMARK INTER + INTRA:          -6.425
REMARK INTER:                  -6.295
REMARK INTRA:                  -0.130
REMARK UNBOUND:                -0.130
REMARK SMILES C=C(C)[C@@H]1CC=C(C)CC1
REMARK SMILES IDX 8 1 7 2 6 3 5 4 4 5 10 6 9 7 2 8 1 9 3 10
REMARK H PARENT
REMARK Flexibility Score: inf
ROOT
ATOM      1  C   UNL     1      -5.281 -15.360   5.373  1.00  0.00     0.039 C 
ATOM      2  C   UNL     1      -4.677 -15.578   6.734  1.00  0.00    -0.077 C 
ATOM      3  C   UNL     1      -5.419 -16.171   7.693  1.00  0.00    -0.027 C 
ATOM      4  C   UNL     1      -4.887 -16.480   9.070  1.00  0.00     0.035 C 
ATOM      5  C   UNL     1      -3.682 -15.598   9.440  1.00  0.00     0.018 C 
ATOM      6  C   UNL     1      -2.665 -15.593   8.289  1.00  0.00     0.013 C 
ATOM      7  C   UNL     1      -3.302 -15.006   7.023  1.00  0.00     0.031 C 
ENDROOT
BRANCH   5   8
ATOM      8  C   UNL     1      -3.045 -16.048  10.748  1.00  0.00    -0.077 C 
ATOM      9  C   UNL     1      -2.888 -17.356  11.005  1.00  0.00     0.008 C 
ATOM     10  C   UNL     1      -2.569 -15.050  11.775  1.00  0.00     0.039 C 
ENDBRANCH   5   8
TORSDOF 1
ENDMDL
MODEL 6
REMARK VINA RESULT:    -5.879      6.175      9.093
REMARK INTER + INTRA:          -6.353
REMARK INTER:                  -6.221
REMARK INTRA:                  -0.132
REMARK UNBOUND:                -0.130
REMARK SMILES C=C(C)[C@@H]1CC=C(C)CC1
REMARK SMILES IDX 8 1 7 2 6 3 5 4 4 5 10 6 9 7 2 8 1 9 3 10
REMARK H PARENT
REMARK Flexibility Score: inf
ROOT
ATOM      1  C   UNL     1      -5.415 -15.719   5.854  1.00  0.00     0.039 C 
ATOM      2  C   UNL     1      -4.722 -15.526   7.176  1.00  0.00    -0.077 C 
ATOM      3  C   UNL     1      -3.862 -14.495   7.320  1.00  0.00    -0.027 C 
ATOM      4  C   UNL     1      -3.161 -14.187   8.620  1.00  0.00     0.035 C 
ATOM      5  C   UNL     1      -3.079 -15.414   9.543  1.00  0.00     0.018 C 
ATOM      6  C   UNL     1      -4.457 -16.085   9.642  1.00  0.00     0.013 C 
ATOM      7  C   UNL     1      -4.910 -16.571   8.260  1.00  0.00     0.031 C 
ENDROOT
BRANCH   5   8
ATOM      8  C   UNL     1      -2.537 -15.041  10.916  1.00  0.00    -0.077 C 
ATOM      9  C   UNL     1      -2.134 -13.785  11.162  1.00  0.00     0.008 C 
ATOM     10  C   UNL     1      -2.449 -16.056  12.029  1.00  0.00     0.039 C 
ENDBRANCH   5   8
TORSDOF 1
ENDMDL
MODEL 7
REMARK VINA RESULT:    -5.812      1.098      4.267
REMARK INTER + INTRA:          -6.282
REMARK INTER:                  -6.150
REMARK INTRA:                  -0.132
REMARK UNBOUND:                -0.130
REMARK SMILES C=C(C)[C@@H]1CC=C(C)CC1
REMARK SMILES IDX 8 1 7 2 6 3 5 4 4 5 10 6 9 7 2 8 1 9 3 10
REMARK H PARENT
REMARK Flexibility Score: inf
ROOT
ATOM      1  C   UNL     1      -1.455 -17.881  13.624  1.00  0.00     0.039 C 
ATOM      2  C   UNL     1      -0.124 -18.050  14.304  1.00  0.00    -0.077 C 
ATOM      3  C   UNL     1       0.900 -18.595  13.613  1.00  0.00    -0.027 C 
ATOM      4  C   UNL     1       2.285 -18.757  14.187  1.00  0.00     0.035 C 
ATOM      5  C   UNL     1       2.279 -18.770  15.725  1.00  0.00     0.018 C 
ATOM      6  C   UNL     1       1.443 -17.596  16.254  1.00  0.00     0.013 C 
ATOM      7  C   UNL     1      -0.010 -17.725  15.781  1.00  0.00     0.031 C 
ENDROOT
BRANCH   5   8
ATOM      8  C   UNL     1       3.695 -18.747  16.286  1.00  0.00    -0.077 C 
ATOM      9  C   UNL     1       4.722 -18.376  15.506  1.00  0.00     0.008 C 
ATOM     10  C   UNL     1       3.979 -19.125  17.719  1.00  0.00     0.039 C 
ENDBRANCH   5   8
TORSDOF 1
ENDMDL
MODEL 8
REMARK VINA RESULT:    -5.720      6.188      7.544
REMARK INTER + INTRA:          -6.185
REMARK INTER:                  -6.062
REMARK INTRA:                  -0.123
REMARK UNBOUND:                -0.130
REMARK SMILES C=C(C)[C@@H]1CC=C(C)CC1
REMARK SMILES IDX 8 1 7 2 6 3 5 4 4 5 10 6 9 7 2 8 1 9 3 10
REMARK H PARENT
REMARK Flexibility Score: inf
ROOT
ATOM      1  C   UNL     1      -2.352 -13.937  12.998  1.00  0.00     0.039 C 
ATOM      2  C   UNL     1      -2.644 -14.715  11.744  1.00  0.00    -0.077 C 
ATOM      3  C   UNL     1      -3.385 -15.840  11.828  1.00  0.00    -0.027 C 
ATOM      4  C   UNL     1      -3.776 -16.659  10.623  1.00  0.00     0.035 C 
ATOM      5  C   UNL     1      -2.833 -16.426   9.430  1.00  0.00     0.018 C 
ATOM      6  C   UNL     1      -2.633 -14.919   9.209  1.00  0.00     0.013 C 
ATOM      7  C   UNL     1      -1.986 -14.284  10.446  1.00  0.00     0.031 C 
ENDROOT
BRANCH   5   8
ATOM      8  C   UNL     1      -3.348 -17.113   8.173  1.00  0.00    -0.077 C 
ATOM      9  C   UNL     1      -3.335 -18.452   8.084  1.00  0.00     0.008 C 
ATOM     10  C   UNL     1      -3.892 -16.320   7.010  1.00  0.00     0.039 C 
ENDBRANCH   5   8
TORSDOF 1
ENDMDL
MODEL 9
REMARK VINA RESULT:    -5.677      6.100      8.505
REMARK INTER + INTRA:          -6.139
REMARK INTER:                  -6.019
REMARK INTRA:                  -0.120
REMARK UNBOUND:                -0.130
REMARK SMILES C=C(C)[C@@H]1CC=C(C)CC1
REMARK SMILES IDX 8 1 7 2 6 3 5 4 4 5 10 6 9 7 2 8 1 9 3 10
REMARK H PARENT
REMARK Flexibility Score: inf
ROOT
ATOM      1  C   UNL     1      -2.347 -16.125  12.414  1.00  0.00     0.039 C 
ATOM      2  C   UNL     1      -2.898 -15.855  11.040  1.00  0.00    -0.077 C 
ATOM      3  C   UNL     1      -2.248 -14.990  10.231  1.00  0.00    -0.027 C 
ATOM      4  C   UNL     1      -2.691 -14.694   8.820  1.00  0.00     0.035 C 
ATOM      5  C   UNL     1      -4.180 -15.011   8.599  1.00  0.00     0.018 C 
ATOM      6  C   UNL     1      -4.504 -16.408   9.148  1.00  0.00     0.013 C 
ATOM      7  C   UNL     1      -4.235 -16.459  10.657  1.00  0.00     0.031 C 
ENDROOT
BRANCH   5   8
ATOM      8  C   UNL     1      -4.562 -14.884   7.130  1.00  0.00    -0.077 C 
ATOM      9  C   UNL     1      -5.110 -13.747   6.673  1.00  0.00     0.008 C 
ATOM     10  C   UNL     1      -4.329 -16.013   6.156  1.00  0.00     0.039 C 
ENDBRANCH   5   8
TORSDOF 1
ENDMDL
