MODEL 1
REMARK VINA RESULT:    -3.502      0.000      0.000
REMARK INTER + INTRA:          -4.380
REMARK INTER:                  -4.321
REMARK INTRA:                  -0.059
REMARK UNBOUND:                -0.059
REMARK SMILES CCCCCC(=O)[O-]
REMARK SMILES IDX 4 1 5 2 6 3 7 4 8 5 3 6 2 7 1 8
REMARK H PARENT
REMARK Flexibility Score: inf
ROOT
ATOM      1  C   UNL     1     -13.796  -7.603 -29.914  1.00  0.00     0.006 C 
ENDROOT
BRANCH   1   2
ATOM      2  C   UNL     1     -15.116  -7.544 -30.693  1.00  0.00     0.053 C 
BRANCH   2   3
ATOM      3  C   UNL     1     -15.506  -6.136 -31.020  1.00  0.00     0.041 C 
ATOM      4  O   UNL     1     -15.938  -5.848 -32.167  1.00  0.00    -0.550 OA
ATOM      5  O   UNL     1     -15.363  -5.135 -30.068  1.00  0.00    -0.550 OA
ENDBRANCH   2   3
ENDBRANCH   1   2
BRANCH   1   6
ATOM      6  C   UNL     1     -13.401  -9.042 -29.546  1.00  0.00     0.000 C 
BRANCH   6   7
ATOM      7  C   UNL     1     -12.212  -9.055 -28.579  1.00  0.00    -0.003 C 
ATOM      8  C   UNL     1     -12.680  -9.124 -27.128  1.00  0.00     0.004 C 
ENDBRANCH   6   7
ENDBRANCH   1   6
TORSDOF 4
ENDMDL
MODEL 2
REMARK VINA RESULT:    -3.492      3.574      4.983
REMARK INTER + INTRA:          -4.368
REMARK INTER:                  -4.317
REMARK INTRA:                  -0.052
REMARK UNBOUND:                -0.059
REMARK SMILES CCCCCC(=O)[O-]
REMARK SMILES IDX 4 1 5 2 6 3 7 4 8 5 3 6 2 7 1 8
REMARK H PARENT
REMARK Flexibility Score: inf
ROOT
ATOM      1  C   UNL     1     -15.498  -4.109 -32.714  1.00  0.00     0.006 C 
ENDROOT
BRANCH   1   2
ATOM      2  C   UNL     1     -14.551  -3.304 -33.613  1.00  0.00     0.053 C 
BRANCH   2   3
ATOM      3  C   UNL     1     -15.065  -1.921 -33.864  1.00  0.00     0.041 C 
ATOM      4  O   UNL     1     -14.966  -1.407 -35.009  1.00  0.00    -0.550 OA
ATOM      5  O   UNL     1     -15.622  -1.185 -32.826  1.00  0.00    -0.550 OA
ENDBRANCH   2   3
ENDBRANCH   1   2
BRANCH   1   6
ATOM      6  C   UNL     1     -14.746  -5.118 -31.832  1.00  0.00     0.000 C 
BRANCH   6   7
ATOM      7  C   UNL     1     -15.690  -6.211 -31.320  1.00  0.00    -0.003 C 
ATOM      8  C   UNL     1     -14.912  -7.354 -30.674  1.00  0.00     0.004 C 
ENDBRANCH   6   7
ENDBRANCH   1   6
TORSDOF 4
ENDMDL
MODEL 3
REMARK VINA RESULT:    -3.470      3.103      5.832
REMARK INTER + INTRA:          -4.341
REMARK INTER:                  -4.255
REMARK INTRA:                  -0.086
REMARK UNBOUND:                -0.059
REMARK SMILES CCCCCC(=O)[O-]
REMARK SMILES IDX 4 1 5 2 6 3 7 4 8 5 3 6 2 7 1 8
REMARK H PARENT
REMARK Flexibility Score: inf
ROOT
ATOM      1  C   UNL     1     -15.903  -4.220 -31.743  1.00  0.00     0.006 C 
ENDROOT
BRANCH   1   2
ATOM      2  C   UNL     1     -16.061  -5.745 -31.692  1.00  0.00     0.053 C 
BRANCH   2   3
ATOM      3  C   UNL     1     -14.895  -6.403 -31.020  1.00  0.00     0.041 C 
ATOM      4  O   UNL     1     -13.842  -5.751 -30.798  1.00  0.00    -0.550 OA
ATOM      5  O   UNL     1     -14.960  -7.746 -30.670  1.00  0.00    -0.550 OA
ENDBRANCH   2   3
ENDBRANCH   1   2
BRANCH   1   6
ATOM      6  C   UNL     1     -15.798  -3.693 -33.182  1.00  0.00     0.000 C 
BRANCH   6   7
ATOM      7  C   UNL     1     -14.756  -2.574 -33.284  1.00  0.00    -0.003 C 
ATOM      8  C   UNL     1     -15.143  -1.555 -34.351  1.00  0.00     0.004 C 
ENDBRANCH   6   7
ENDBRANCH   1   6
TORSDOF 4
ENDMDL
MODEL 4
REMARK VINA RESULT:    -3.425      2.541      4.982
REMARK INTER + INTRA:          -4.285
REMARK INTER:                  -4.195
REMARK INTRA:                  -0.089
REMARK UNBOUND:                -0.059
REMARK SMILES CCCCCC(=O)[O-]
REMARK SMILES IDX 4 1 5 2 6 3 7 4 8 5 3 6 2 7 1 8
REMARK H PARENT
REMARK Flexibility Score: inf
ROOT
ATOM      1  C   UNL     1     -14.939  -5.528 -31.377  1.00  0.00     0.006 C 
ENDROOT
BRANCH   1   2
ATOM      2  C   UNL     1     -15.391  -6.919 -30.915  1.00  0.00     0.053 C 
BRANCH   2   3
ATOM      3  C   UNL     1     -14.267  -7.695 -30.303  1.00  0.00     0.041 C 
ATOM      4  O   UNL     1     -14.285  -8.954 -30.316  1.00  0.00    -0.550 OA
ATOM      5  O   UNL     1     -13.214  -7.029 -29.688  1.00  0.00    -0.550 OA
ENDBRANCH   2   3
ENDBRANCH   1   2
BRANCH   1   6
ATOM      6  C   UNL     1     -16.125  -4.608 -31.704  1.00  0.00     0.000 C 
BRANCH   6   7
ATOM      7  C   UNL     1     -15.840  -3.766 -32.952  1.00  0.00    -0.003 C 
ATOM      8  C   UNL     1     -14.342  -3.671 -33.224  1.00  0.00     0.004 C 
ENDBRANCH   6   7
ENDBRANCH   1   6
TORSDOF 4
ENDMDL
MODEL 5
REMARK VINA RESULT:    -3.409      1.936      2.552
REMARK INTER + INTRA:          -4.265
REMARK INTER:                  -4.173
REMARK INTRA:                  -0.093
REMARK UNBOUND:                -0.059
REMARK SMILES CCCCCC(=O)[O-]
REMARK SMILES IDX 4 1 5 2 6 3 7 4 8 5 3 6 2 7 1 8
REMARK H PARENT
REMARK Flexibility Score: inf
ROOT
ATOM      1  C   UNL     1     -14.677  -6.192 -30.862  1.00  0.00     0.006 C 
ENDROOT
BRANCH   1   2
ATOM      2  C   UNL     1     -15.768  -5.478 -31.671  1.00  0.00     0.053 C 
BRANCH   2   3
ATOM      3  C   UNL     1     -15.200  -4.397 -32.537  1.00  0.00     0.041 C 
ATOM      4  O   UNL     1     -13.958  -4.324 -32.727  1.00  0.00    -0.550 OA
ATOM      5  O   UNL     1     -16.041  -3.448 -33.107  1.00  0.00    -0.550 OA
ENDBRANCH   2   3
ENDBRANCH   1   2
BRANCH   1   6
ATOM      6  C   UNL     1     -15.003  -7.674 -30.625  1.00  0.00     0.000 C 
BRANCH   6   7
ATOM      7  C   UNL     1     -13.865  -8.375 -29.876  1.00  0.00    -0.003 C 
ATOM      8  C   UNL     1     -12.889  -7.363 -29.283  1.00  0.00     0.004 C 
ENDBRANCH   6   7
ENDBRANCH   1   6
TORSDOF 4
ENDMDL
MODEL 6
REMARK VINA RESULT:    -3.365      3.823      5.387
REMARK INTER + INTRA:          -4.211
REMARK INTER:                  -4.145
REMARK INTRA:                  -0.066
REMARK UNBOUND:                -0.059
REMARK SMILES CCCCCC(=O)[O-]
REMARK SMILES IDX 4 1 5 2 6 3 7 4 8 5 3 6 2 7 1 8
REMARK H PARENT
REMARK Flexibility Score: inf
ROOT
ATOM      1  C   UNL     1     -14.452  -3.902 -33.265  1.00  0.00     0.006 C 
ENDROOT
BRANCH   1   2
ATOM      2  C   UNL     1     -15.672  -2.973 -33.231  1.00  0.00     0.053 C 
BRANCH   2   3
ATOM      3  C   UNL     1     -15.338  -1.598 -33.719  1.00  0.00     0.041 C 
ATOM      4  O   UNL     1     -15.403  -0.614 -32.936  1.00  0.00    -0.550 OA
ATOM      5  O   UNL     1     -14.986  -1.397 -35.048  1.00  0.00    -0.550 OA
ENDBRANCH   2   3
ENDBRANCH   1   2
BRANCH   1   6
ATOM      6  C   UNL     1     -14.318  -4.735 -31.981  1.00  0.00     0.000 C 
BRANCH   6   7
ATOM      7  C   UNL     1     -15.522  -5.666 -31.802  1.00  0.00    -0.003 C 
ATOM      8  C   UNL     1     -15.153  -6.895 -30.976  1.00  0.00     0.004 C 
ENDBRANCH   6   7
ENDBRANCH   1   6
TORSDOF 4
ENDMDL
MODEL 7
REMARK VINA RESULT:    -3.297      3.664      6.215
REMARK INTER + INTRA:          -4.127
REMARK INTER:                  -4.062
REMARK INTRA:                  -0.065
REMARK UNBOUND:                -0.059
REMARK SMILES CCCCCC(=O)[O-]
REMARK SMILES IDX 4 1 5 2 6 3 7 4 8 5 3 6 2 7 1 8
REMARK H PARENT
REMARK Flexibility Score: inf
ROOT
ATOM      1  C   UNL     1     -15.489  -3.400 -32.351  1.00  0.00     0.006 C 
ENDROOT
BRANCH   1   2
ATOM      2  C   UNL     1     -15.914  -4.871 -32.457  1.00  0.00     0.053 C 
BRANCH   2   3
ATOM      3  C   UNL     1     -15.790  -5.581 -31.145  1.00  0.00     0.041 C 
ATOM      4  O   UNL     1     -15.435  -6.788 -31.109  1.00  0.00    -0.550 OA
ATOM      5  O   UNL     1     -16.098  -4.919 -29.963  1.00  0.00    -0.550 OA
ENDBRANCH   2   3
ENDBRANCH   1   2
BRANCH   1   6
ATOM      6  C   UNL     1     -14.695  -2.934 -33.581  1.00  0.00     0.000 C 
BRANCH   6   7
ATOM      7  C   UNL     1     -15.293  -1.650 -34.167  1.00  0.00    -0.003 C 
ATOM      8  C   UNL     1     -15.163  -0.485 -33.191  1.00  0.00     0.004 C 
ENDBRANCH   6   7
ENDBRANCH   1   6
TORSDOF 4
ENDMDL
MODEL 8
REMARK VINA RESULT:    -3.247     25.903     26.934
REMARK INTER + INTRA:          -4.066
REMARK INTER:                  -3.848
REMARK INTRA:                  -0.218
REMARK UNBOUND:                -0.059
REMARK SMILES CCCCCC(=O)[O-]
REMARK SMILES IDX 4 1 5 2 6 3 7 4 8 5 3 6 2 7 1 8
REMARK H PARENT
REMARK Flexibility Score: inf
ROOT
ATOM      1  C   UNL     1       1.275  10.156 -15.989  1.00  0.00     0.006 C 
ENDROOT
BRANCH   1   2
ATOM      2  C   UNL     1       2.703  10.498 -16.434  1.00  0.00     0.053 C 
BRANCH   2   3
ATOM      3  C   UNL     1       2.950  10.111 -17.859  1.00  0.00     0.041 C 
ATOM      4  O   UNL     1       4.124   9.915 -18.268  1.00  0.00    -0.550 OA
ATOM      5  O   UNL     1       1.885   9.999 -18.744  1.00  0.00    -0.550 OA
ENDBRANCH   2   3
ENDBRANCH   1   2
BRANCH   1   6
ATOM      6  C   UNL     1       1.248   9.083 -14.890  1.00  0.00     0.000 C 
BRANCH   6   7
ATOM      7  C   UNL     1       1.147   7.679 -15.494  1.00  0.00    -0.003 C 
ATOM      8  C   UNL     1       0.198   7.659 -16.689  1.00  0.00     0.004 C 
ENDBRANCH   6   7
ENDBRANCH   1   6
TORSDOF 4
ENDMDL
MODEL 9
REMARK VINA RESULT:    -3.201      3.135      4.645
REMARK INTER + INTRA:          -4.009
REMARK INTER:                  -3.931
REMARK INTRA:                  -0.078
REMARK UNBOUND:                -0.059
REMARK SMILES CCCCCC(=O)[O-]
REMARK SMILES IDX 4 1 5 2 6 3 7 4 8 5 3 6 2 7 1 8
REMARK H PARENT
REMARK Flexibility Score: inf
ROOT
ATOM      1  C   UNL     1     -13.688  -7.660 -29.844  1.00  0.00     0.006 C 
ENDROOT
BRANCH   1   2
ATOM      2  C   UNL     1     -13.255  -9.074 -29.435  1.00  0.00     0.053 C 
BRANCH   2   3
ATOM      3  C   UNL     1     -12.353  -9.057 -28.240  1.00  0.00     0.041 C 
ATOM      4  O   UNL     1     -11.105  -9.124 -28.388  1.00  0.00    -0.550 OA
ATOM      5  O   UNL     1     -12.893  -8.998 -26.961  1.00  0.00    -0.550 OA
ENDBRANCH   2   3
ENDBRANCH   1   2
BRANCH   1   6
ATOM      6  C   UNL     1     -15.000  -7.661 -30.642  1.00  0.00     0.000 C 
BRANCH   6   7
ATOM      7  C   UNL     1     -15.292  -6.273 -31.222  1.00  0.00    -0.003 C 
ATOM      8  C   UNL     1     -14.753  -5.171 -30.314  1.00  0.00     0.004 C 
ENDBRANCH   6   7
ENDBRANCH   1   6
TORSDOF 4
ENDMDL
