MODEL 1
REMARK VINA RESULT:    -3.938      0.000      0.000
REMARK INTER + INTRA:          -4.650
REMARK INTER:                  -4.629
REMARK INTRA:                  -0.021
REMARK UNBOUND:                -0.021
REMARK SMILES [NH3+][C@@H](CO)C(=O)[O-]
REMARK SMILES IDX 3 1 2 2 1 3 5 7 6 8 7 9 4 10
REMARK H PARENT 1 4 1 5 1 6 4 11
REMARK Flexibility Score: inf
ROOT
ATOM      1  C   UNL     1      16.264   1.899 -25.085  1.00  0.00     0.227 C 
ENDROOT
BRANCH   1   2
ATOM      2  C   UNL     1      16.357   0.410 -25.466  1.00  0.00     0.253 C 
BRANCH   2   3
ATOM      3  N   UNL     1      15.196  -0.011 -26.262  1.00  0.00    -0.348 N 
ATOM      4  H   UNL     1      15.448  -0.792 -26.910  1.00  0.00     0.345 HD
ATOM      5  H   UNL     1      14.841   0.798 -26.822  1.00  0.00     0.345 HD
ATOM      6  H   UNL     1      14.428  -0.329 -25.626  1.00  0.00     0.345 HD
ENDBRANCH   2   3
BRANCH   2   7
ATOM      7  C   UNL     1      16.517  -0.451 -24.240  1.00  0.00     0.102 C 
ATOM      8  O   UNL     1      16.394   0.043 -23.088  1.00  0.00    -0.544 OA
ATOM      9  O   UNL     1      16.853  -1.792 -24.377  1.00  0.00    -0.544 OA
ENDBRANCH   2   7
ENDBRANCH   1   2
BRANCH   1  10
ATOM     10  O   UNL     1      15.194   2.529 -25.739  1.00  0.00    -0.390 OA
ATOM     11  H   UNL     1      15.337   3.508 -25.648  1.00  0.00     0.210 HD
ENDBRANCH   1  10
TORSDOF 4
ENDMDL
MODEL 2
REMARK VINA RESULT:    -3.790      8.796      9.553
REMARK INTER + INTRA:          -4.475
REMARK INTER:                  -4.243
REMARK INTRA:                  -0.233
REMARK UNBOUND:                -0.021
REMARK SMILES [NH3+][C@@H](CO)C(=O)[O-]
REMARK SMILES IDX 3 1 2 2 1 3 5 7 6 8 7 9 4 10
REMARK H PARENT 1 4 1 5 1 6 4 11
REMARK Flexibility Score: inf
ROOT
ATOM      1  C   UNL     1      19.456  -0.543 -16.930  1.00  0.00     0.227 C 
ENDROOT
BRANCH   1   2
ATOM      2  C   UNL     1      19.381   0.607 -15.908  1.00  0.00     0.253 C 
BRANCH   2   3
ATOM      3  N   UNL     1      19.943   0.206 -14.612  1.00  0.00    -0.348 N 
ATOM      4  H   UNL     1      19.851   0.975 -13.909  1.00  0.00     0.345 HD
ATOM      5  H   UNL     1      20.954  -0.036 -14.726  1.00  0.00     0.345 HD
ATOM      6  H   UNL     1      19.442  -0.641 -14.257  1.00  0.00     0.345 HD
ENDBRANCH   2   3
BRANCH   2   7
ATOM      7  C   UNL     1      17.966   1.104 -15.759  1.00  0.00     0.102 C 
ATOM      8  O   UNL     1      17.304   0.850 -14.718  1.00  0.00    -0.544 OA
ATOM      9  O   UNL     1      17.367   1.806 -16.797  1.00  0.00    -0.544 OA
ENDBRANCH   2   7
ENDBRANCH   1   2
BRANCH   1  10
ATOM     10  O   UNL     1      19.035  -0.126 -18.202  1.00  0.00    -0.390 OA
ATOM     11  H   UNL     1      19.012  -0.935 -18.777  1.00  0.00     0.210 HD
ENDBRANCH   1  10
TORSDOF 4
ENDMDL
MODEL 3
REMARK VINA RESULT:    -3.785      9.250      9.511
REMARK INTER + INTRA:          -4.470
REMARK INTER:                  -4.085
REMARK INTRA:                  -0.385
REMARK UNBOUND:                -0.021
REMARK SMILES [NH3+][C@@H](CO)C(=O)[O-]
REMARK SMILES IDX 3 1 2 2 1 3 5 7 6 8 7 9 4 10
REMARK H PARENT 1 4 1 5 1 6 4 11
REMARK Flexibility Score: inf
ROOT
ATOM      1  C   UNL     1      19.110   2.971 -16.358  1.00  0.00     0.227 C 
ENDROOT
BRANCH   1   2
ATOM      2  C   UNL     1      18.433   1.635 -16.719  1.00  0.00     0.253 C 
BRANCH   2   3
ATOM      3  N   UNL     1      17.152   1.854 -17.403  1.00  0.00    -0.348 N 
ATOM      4  H   UNL     1      16.440   2.254 -16.749  1.00  0.00     0.345 HD
ATOM      5  H   UNL     1      16.796   0.948 -17.784  1.00  0.00     0.345 HD
ATOM      6  H   UNL     1      17.288   2.515 -18.204  1.00  0.00     0.345 HD
ENDBRANCH   2   3
BRANCH   2   7
ATOM      7  C   UNL     1      18.258   0.772 -15.497  1.00  0.00     0.102 C 
ATOM      8  O   UNL     1      17.221   0.868 -14.787  1.00  0.00    -0.544 OA
ATOM      9  O   UNL     1      19.268  -0.103 -15.118  1.00  0.00    -0.544 OA
ENDBRANCH   2   7
ENDBRANCH   1   2
BRANCH   1  10
ATOM     10  O   UNL     1      19.576   2.968 -15.034  1.00  0.00    -0.390 OA
ATOM     11  H   UNL     1      19.913   3.882 -14.846  1.00  0.00     0.210 HD
ENDBRANCH   1  10
TORSDOF 4
ENDMDL
MODEL 4
REMARK VINA RESULT:    -3.777      1.636      2.057
REMARK INTER + INTRA:          -4.461
REMARK INTER:                  -4.082
REMARK INTRA:                  -0.379
REMARK UNBOUND:                -0.021
REMARK SMILES [NH3+][C@@H](CO)C(=O)[O-]
REMARK SMILES IDX 3 1 2 2 1 3 5 7 6 8 7 9 4 10
REMARK H PARENT 1 4 1 5 1 6 4 11
REMARK Flexibility Score: inf
ROOT
ATOM      1  C   UNL     1      16.128   0.801 -26.076  1.00  0.00     0.227 C 
ENDROOT
BRANCH   1   2
ATOM      2  C   UNL     1      17.330   0.240 -25.294  1.00  0.00     0.253 C 
BRANCH   2   3
ATOM      3  N   UNL     1      18.287  -0.424 -26.189  1.00  0.00    -0.348 N 
ATOM      4  H   UNL     1      19.016  -0.938 -25.644  1.00  0.00     0.345 HD
ATOM      5  H   UNL     1      18.751   0.288 -26.798  1.00  0.00     0.345 HD
ATOM      6  H   UNL     1      17.781  -1.102 -26.806  1.00  0.00     0.345 HD
ENDBRANCH   2   3
BRANCH   2   7
ATOM      7  C   UNL     1      16.874  -0.688 -24.198  1.00  0.00     0.102 C 
ATOM      8  O   UNL     1      16.854  -1.935 -24.380  1.00  0.00    -0.544 OA
ATOM      9  O   UNL     1      16.424  -0.166 -22.992  1.00  0.00    -0.544 OA
ENDBRANCH   2   7
ENDBRANCH   1   2
BRANCH   1  10
ATOM     10  O   UNL     1      14.949   0.101 -25.776  1.00  0.00    -0.390 OA
ATOM     11  H   UNL     1      14.607   0.468 -24.919  1.00  0.00     0.210 HD
ENDBRANCH   1  10
TORSDOF 4
ENDMDL
MODEL 5
REMARK VINA RESULT:    -3.760      8.282      9.113
REMARK INTER + INTRA:          -4.441
REMARK INTER:                  -4.183
REMARK INTRA:                  -0.258
REMARK UNBOUND:                -0.021
REMARK SMILES [NH3+][C@@H](CO)C(=O)[O-]
REMARK SMILES IDX 3 1 2 2 1 3 5 7 6 8 7 9 4 10
REMARK H PARENT 1 4 1 5 1 6 4 11
REMARK Flexibility Score: inf
ROOT
ATOM      1  C   UNL     1      19.019   1.066 -17.931  1.00  0.00     0.227 C 
ENDROOT
BRANCH   1   2
ATOM      2  C   UNL     1      19.232   0.865 -16.419  1.00  0.00     0.253 C 
BRANCH   2   3
ATOM      3  N   UNL     1      19.378  -0.559 -16.086  1.00  0.00    -0.348 N 
ATOM      4  H   UNL     1      18.551  -0.905 -15.550  1.00  0.00     0.345 HD
ATOM      5  H   UNL     1      20.242  -0.699 -15.514  1.00  0.00     0.345 HD
ATOM      6  H   UNL     1      19.474  -1.119 -16.965  1.00  0.00     0.345 HD
ENDBRANCH   2   3
BRANCH   2   7
ATOM      7  C   UNL     1      18.117   1.498 -15.629  1.00  0.00     0.102 C 
ATOM      8  O   UNL     1      17.391   0.800 -14.872  1.00  0.00    -0.544 OA
ATOM      9  O   UNL     1      17.853   2.854 -15.771  1.00  0.00    -0.544 OA
ENDBRANCH   2   7
ENDBRANCH   1   2
BRANCH   1  10
ATOM     10  O   UNL     1      17.677   1.351 -18.226  1.00  0.00    -0.390 OA
ATOM     11  H   UNL     1      17.602   2.338 -18.300  1.00  0.00     0.210 HD
ENDBRANCH   1  10
TORSDOF 4
ENDMDL
MODEL 6
REMARK VINA RESULT:    -3.710      8.057      8.908
REMARK INTER + INTRA:          -4.382
REMARK INTER:                  -4.151
REMARK INTRA:                  -0.231
REMARK UNBOUND:                -0.021
REMARK SMILES [NH3+][C@@H](CO)C(=O)[O-]
REMARK SMILES IDX 3 1 2 2 1 3 5 7 6 8 7 9 4 10
REMARK H PARENT 1 4 1 5 1 6 4 11
REMARK Flexibility Score: inf
ROOT
ATOM      1  C   UNL     1      19.395   0.791 -18.047  1.00  0.00     0.227 C 
ENDROOT
BRANCH   1   2
ATOM      2  C   UNL     1      18.305   1.340 -17.107  1.00  0.00     0.253 C 
BRANCH   2   3
ATOM      3  N   UNL     1      18.396   2.801 -16.981  1.00  0.00    -0.348 N 
ATOM      4  H   UNL     1      18.544   3.250 -17.913  1.00  0.00     0.345 HD
ATOM      5  H   UNL     1      19.190   3.051 -16.348  1.00  0.00     0.345 HD
ATOM      6  H   UNL     1      17.513   3.173 -16.560  1.00  0.00     0.345 HD
ENDBRANCH   2   3
BRANCH   2   7
ATOM      7  C   UNL     1      18.370   0.671 -15.759  1.00  0.00     0.102 C 
ATOM      8  O   UNL     1      17.461   0.856 -14.906  1.00  0.00    -0.544 OA
ATOM      9  O   UNL     1      19.465  -0.118 -15.430  1.00  0.00    -0.544 OA
ENDBRANCH   2   7
ENDBRANCH   1   2
BRANCH   1  10
ATOM     10  O   UNL     1      19.210  -0.576 -18.303  1.00  0.00    -0.390 OA
ATOM     11  H   UNL     1      19.868  -1.066 -17.743  1.00  0.00     0.210 HD
ENDBRANCH   1  10
TORSDOF 4
ENDMDL
MODEL 7
REMARK VINA RESULT:    -3.671      8.554      9.197
REMARK INTER + INTRA:          -4.336
REMARK INTER:                  -4.124
REMARK INTRA:                  -0.212
REMARK UNBOUND:                -0.021
REMARK SMILES [NH3+][C@@H](CO)C(=O)[O-]
REMARK SMILES IDX 3 1 2 2 1 3 5 7 6 8 7 9 4 10
REMARK H PARENT 1 4 1 5 1 6 4 11
REMARK Flexibility Score: inf
ROOT
ATOM      1  C   UNL     1      17.867   1.853 -15.668  1.00  0.00     0.227 C 
ENDROOT
BRANCH   1   2
ATOM      2  C   UNL     1      18.812   1.254 -16.726  1.00  0.00     0.253 C 
BRANCH   2   3
ATOM      3  N   UNL     1      18.163   1.186 -18.043  1.00  0.00    -0.348 N 
ATOM      4  H   UNL     1      18.873   1.139 -18.809  1.00  0.00     0.345 HD
ATOM      5  H   UNL     1      17.562   2.030 -18.183  1.00  0.00     0.345 HD
ATOM      6  H   UNL     1      17.552   0.338 -18.092  1.00  0.00     0.345 HD
ENDBRANCH   2   3
BRANCH   2   7
ATOM      7  C   UNL     1      19.315  -0.099 -16.297  1.00  0.00     0.102 C 
ATOM      8  O   UNL     1      19.352  -1.059 -17.111  1.00  0.00    -0.544 OA
ATOM      9  O   UNL     1      19.697  -0.307 -14.977  1.00  0.00    -0.544 OA
ENDBRANCH   2   7
ENDBRANCH   1   2
BRANCH   1  10
ATOM     10  O   UNL     1      17.256   0.849 -14.900  1.00  0.00    -0.390 OA
ATOM     11  H   UNL     1      16.539   0.453 -15.462  1.00  0.00     0.210 HD
ENDBRANCH   1  10
TORSDOF 4
ENDMDL
MODEL 8
REMARK VINA RESULT:    -3.667     15.334     16.543
REMARK INTER + INTRA:          -4.331
REMARK INTER:                  -4.315
REMARK INTRA:                  -0.016
REMARK UNBOUND:                -0.021
REMARK SMILES [NH3+][C@@H](CO)C(=O)[O-]
REMARK SMILES IDX 3 1 2 2 1 3 5 7 6 8 7 9 4 10
REMARK H PARENT 1 4 1 5 1 6 4 11
REMARK Flexibility Score: inf
ROOT
ATOM      1  C   UNL     1      26.278 -10.889 -25.590  1.00  0.00     0.227 C 
ENDROOT
BRANCH   1   2
ATOM      2  C   UNL     1      25.916 -12.251 -24.969  1.00  0.00     0.253 C 
BRANCH   2   3
ATOM      3  N   UNL     1      26.309 -12.314 -23.555  1.00  0.00    -0.348 N 
ATOM      4  H   UNL     1      26.749 -11.417 -23.247  1.00  0.00     0.345 HD
ATOM      5  H   UNL     1      26.988 -13.096 -23.412  1.00  0.00     0.345 HD
ATOM      6  H   UNL     1      25.466 -12.501 -22.963  1.00  0.00     0.345 HD
ENDBRANCH   2   3
BRANCH   2   7
ATOM      7  C   UNL     1      26.528 -13.381 -25.755  1.00  0.00     0.102 C 
ATOM      8  O   UNL     1      27.286 -13.147 -26.733  1.00  0.00    -0.544 OA
ATOM      9  O   UNL     1      26.215 -14.696 -25.432  1.00  0.00    -0.544 OA
ENDBRANCH   2   7
ENDBRANCH   1   2
BRANCH   1  10
ATOM     10  O   UNL     1      26.588  -9.942 -24.602  1.00  0.00    -0.390 OA
ATOM     11  H   UNL     1      27.547  -9.713 -24.713  1.00  0.00     0.210 HD
ENDBRANCH   1  10
TORSDOF 4
ENDMDL
MODEL 9
REMARK VINA RESULT:    -3.648      2.030      2.446
REMARK INTER + INTRA:          -4.309
REMARK INTER:                  -4.056
REMARK INTRA:                  -0.253
REMARK UNBOUND:                -0.021
REMARK SMILES [NH3+][C@@H](CO)C(=O)[O-]
REMARK SMILES IDX 3 1 2 2 1 3 5 7 6 8 7 9 4 10
REMARK H PARENT 1 4 1 5 1 6 4 11
REMARK Flexibility Score: inf
ROOT
ATOM      1  C   UNL     1      16.723   0.704 -23.429  1.00  0.00     0.227 C 
ENDROOT
BRANCH   1   2
ATOM      2  C   UNL     1      16.929   0.019 -24.793  1.00  0.00     0.253 C 
BRANCH   2   3
ATOM      3  N   UNL     1      15.645  -0.247 -25.456  1.00  0.00    -0.348 N 
ATOM      4  H   UNL     1      14.982  -0.732 -24.809  1.00  0.00     0.345 HD
ATOM      5  H   UNL     1      15.801  -0.844 -26.299  1.00  0.00     0.345 HD
ATOM      6  H   UNL     1      15.216   0.655 -25.769  1.00  0.00     0.345 HD
ENDBRANCH   2   3
BRANCH   2   7
ATOM      7  C   UNL     1      17.738  -1.243 -24.646  1.00  0.00     0.102 C 
ATOM      8  O   UNL     1      18.959  -1.263 -24.956  1.00  0.00    -0.544 OA
ATOM      9  O   UNL     1      17.123  -2.411 -24.213  1.00  0.00    -0.544 OA
ENDBRANCH   2   7
ENDBRANCH   1   2
BRANCH   1  10
ATOM     10  O   UNL     1      16.692  -0.233 -22.385  1.00  0.00    -0.390 OA
ATOM     11  H   UNL     1      15.892  -0.802 -22.533  1.00  0.00     0.210 HD
ENDBRANCH   1  10
TORSDOF 4
ENDMDL
