MODEL 1
REMARK VINA RESULT:    -4.631      0.000      0.000
REMARK INTER + INTRA:         -11.211
REMARK INTER:                  -8.557
REMARK INTRA:                  -2.654
REMARK UNBOUND:                -2.654
REMARK SMILES CCCCCCCCCCCCCCCCO
REMARK SMILES IDX 9 1 8 2 7 3 6 4 5 5 4 6 3 7 2 8 1 9 10 10 11 11 12 12 13 13
REMARK SMILES IDX 14 14 15 15 16 16 17 17
REMARK H PARENT 17 18
REMARK Flexibility Score: inf
ROOT
ATOM      1  C   UNL     1     204.869 202.925 229.809  1.00  0.00     0.000 C 
ENDROOT
BRANCH   1   2
ATOM      2  C   UNL     1     203.499 202.289 229.513  1.00  0.00    -0.000 C 
BRANCH   2   3
ATOM      3  C   UNL     1     202.423 202.691 230.536  1.00  0.00    -0.000 C 
BRANCH   3   4
ATOM      4  C   UNL     1     202.127 201.573 231.549  1.00  0.00    -0.000 C 
BRANCH   4   5
ATOM      5  C   UNL     1     202.733 200.222 231.129  1.00  0.00    -0.000 C 
BRANCH   5   6
ATOM      6  C   UNL     1     203.445 199.502 232.287  1.00  0.00    -0.000 C 
BRANCH   6   7
ATOM      7  C   UNL     1     203.279 200.160 233.671  1.00  0.00    -0.000 C 
BRANCH   7   8
ATOM      8  C   UNL     1     204.391 199.836 234.683  1.00  0.00    -0.003 C 
ATOM      9  C   UNL     1     204.217 200.566 236.013  1.00  0.00     0.004 C 
ENDBRANCH   7   8
ENDBRANCH   6   7
ENDBRANCH   5   6
ENDBRANCH   4   5
ENDBRANCH   3   4
ENDBRANCH   2   3
ENDBRANCH   1   2
BRANCH   1  10
ATOM     10  C   UNL     1     205.990 201.929 230.174  1.00  0.00     0.000 C 
BRANCH  10  11
ATOM     11  C   UNL     1     206.277 201.794 231.681  1.00  0.00     0.000 C 
BRANCH  11  12
ATOM     12  C   UNL     1     206.329 203.148 232.402  1.00  0.00     0.000 C 
BRANCH  12  13
ATOM     13  C   UNL     1     205.360 203.172 233.594  1.00  0.00     0.000 C 
BRANCH  13  14
ATOM     14  C   UNL     1     204.263 204.243 233.455  1.00  0.00     0.002 C 
BRANCH  14  15
ATOM     15  C   UNL     1     204.609 205.408 232.510  1.00  0.00     0.028 C 
BRANCH  15  16
ATOM     16  C   UNL     1     203.406 205.906 231.707  1.00  0.00     0.156 C 
BRANCH  16  17
ATOM     17  O   UNL     1     203.822 206.257 230.416  1.00  0.00    -0.396 OA
ATOM     18  H   UNL     1     204.725 206.659 230.518  1.00  0.00     0.210 HD
ENDBRANCH  16  17
ENDBRANCH  15  16
ENDBRANCH  14  15
ENDBRANCH  13  14
ENDBRANCH  12  13
ENDBRANCH  11  12
ENDBRANCH  10  11
ENDBRANCH   1  10
TORSDOF 15
ENDMDL
MODEL 2
REMARK VINA RESULT:    -4.580      2.798      4.794
REMARK INTER + INTRA:         -11.116
REMARK INTER:                  -8.738
REMARK INTRA:                  -2.378
REMARK UNBOUND:                -2.654
REMARK SMILES CCCCCCCCCCCCCCCCO
REMARK SMILES IDX 9 1 8 2 7 3 6 4 5 5 4 6 3 7 2 8 1 9 10 10 11 11 12 12 13 13
REMARK SMILES IDX 14 14 15 15 16 16 17 17
REMARK H PARENT 17 18
REMARK Flexibility Score: inf
ROOT
ATOM      1  C   UNL     1     201.926 204.041 229.856  1.00  0.00     0.000 C 
ENDROOT
BRANCH   1   2
ATOM      2  C   UNL     1     201.024 204.448 231.035  1.00  0.00    -0.000 C 
BRANCH   2   3
ATOM      3  C   UNL     1     200.645 203.259 231.934  1.00  0.00    -0.000 C 
BRANCH   3   4
ATOM      4  C   UNL     1     200.134 203.704 233.314  1.00  0.00    -0.000 C 
BRANCH   4   5
ATOM      5  C   UNL     1     201.249 203.729 234.375  1.00  0.00    -0.000 C 
BRANCH   5   6
ATOM      6  C   UNL     1     202.525 203.003 233.915  1.00  0.00    -0.000 C 
BRANCH   6   7
ATOM      7  C   UNL     1     203.782 203.891 233.805  1.00  0.00    -0.000 C 
BRANCH   7   8
ATOM      8  C   UNL     1     203.535 205.395 234.008  1.00  0.00    -0.003 C 
ATOM      9  C   UNL     1     204.255 206.262 232.977  1.00  0.00     0.004 C 
ENDBRANCH   7   8
ENDBRANCH   6   7
ENDBRANCH   5   6
ENDBRANCH   4   5
ENDBRANCH   3   4
ENDBRANCH   2   3
ENDBRANCH   1   2
BRANCH   1  10
ATOM     10  C   UNL     1     203.437 204.007 230.165  1.00  0.00     0.000 C 
BRANCH  10  11
ATOM     11  C   UNL     1     204.175 202.748 229.676  1.00  0.00     0.000 C 
BRANCH  11  12
ATOM     12  C   UNL     1     205.230 202.249 230.674  1.00  0.00     0.000 C 
BRANCH  12  13
ATOM     13  C   UNL     1     204.698 201.054 231.481  1.00  0.00     0.000 C 
BRANCH  13  14
ATOM     14  C   UNL     1     203.476 200.385 230.826  1.00  0.00     0.002 C 
BRANCH  14  15
ATOM     15  C   UNL     1     202.355 199.984 231.801  1.00  0.00     0.028 C 
BRANCH  15  16
ATOM     16  C   UNL     1     202.807 198.966 232.850  1.00  0.00     0.156 C 
BRANCH  16  17
ATOM     17  O   UNL     1     202.219 197.725 232.575  1.00  0.00    -0.396 OA
ATOM     18  H   UNL     1     202.888 197.213 232.049  1.00  0.00     0.210 HD
ENDBRANCH  16  17
ENDBRANCH  15  16
ENDBRANCH  14  15
ENDBRANCH  13  14
ENDBRANCH  12  13
ENDBRANCH  11  12
ENDBRANCH  10  11
ENDBRANCH   1  10
TORSDOF 15
ENDMDL
MODEL 3
REMARK VINA RESULT:    -4.569      1.812      3.256
REMARK INTER + INTRA:         -11.096
REMARK INTER:                  -8.589
REMARK INTRA:                  -2.507
REMARK UNBOUND:                -2.654
REMARK SMILES CCCCCCCCCCCCCCCCO
REMARK SMILES IDX 9 1 8 2 7 3 6 4 5 5 4 6 3 7 2 8 1 9 10 10 11 11 12 12 13 13
REMARK SMILES IDX 14 14 15 15 16 16 17 17
REMARK H PARENT 17 18
REMARK Flexibility Score: inf
ROOT
ATOM      1  C   UNL     1     204.700 201.153 230.814  1.00  0.00     0.000 C 
ENDROOT
BRANCH   1   2
ATOM      2  C   UNL     1     203.185 200.884 230.851  1.00  0.00    -0.000 C 
BRANCH   2   3
ATOM      3  C   UNL     1     202.708 200.349 232.213  1.00  0.00    -0.000 C 
BRANCH   3   4
ATOM      4  C   UNL     1     203.800 199.555 232.948  1.00  0.00    -0.000 C 
BRANCH   4   5
ATOM      5  C   UNL     1     204.067 200.094 234.365  1.00  0.00    -0.000 C 
BRANCH   5   6
ATOM      6  C   UNL     1     205.417 200.822 234.481  1.00  0.00    -0.000 C 
BRANCH   6   7
ATOM      7  C   UNL     1     205.346 202.359 234.377  1.00  0.00    -0.000 C 
BRANCH   7   8
ATOM      8  C   UNL     1     206.454 203.005 233.528  1.00  0.00    -0.003 C 
ATOM      9  C   UNL     1     207.494 201.999 233.040  1.00  0.00     0.004 C 
ENDBRANCH   7   8
ENDBRANCH   6   7
ENDBRANCH   5   6
ENDBRANCH   4   5
ENDBRANCH   3   4
ENDBRANCH   2   3
ENDBRANCH   1   2
BRANCH   1  10
ATOM     10  C   UNL     1     205.150 202.233 229.808  1.00  0.00     0.000 C 
BRANCH  10  11
ATOM     11  C   UNL     1     204.137 203.368 229.571  1.00  0.00     0.000 C 
BRANCH  11  12
ATOM     12  C   UNL     1     204.505 204.661 230.311  1.00  0.00     0.000 C 
BRANCH  12  13
ATOM     13  C   UNL     1     203.305 205.199 231.106  1.00  0.00     0.000 C 
BRANCH  13  14
ATOM     14  C   UNL     1     202.955 204.327 232.325  1.00  0.00     0.002 C 
BRANCH  14  15
ATOM     15  C   UNL     1     201.483 203.883 232.405  1.00  0.00     0.028 C 
BRANCH  15  16
ATOM     16  C   UNL     1     200.695 204.187 231.129  1.00  0.00     0.156 C 
BRANCH  16  17
ATOM     17  O   UNL     1     200.356 202.985 230.495  1.00  0.00    -0.396 OA
ATOM     18  H   UNL     1     200.759 202.262 231.043  1.00  0.00     0.210 HD
ENDBRANCH  16  17
ENDBRANCH  15  16
ENDBRANCH  14  15
ENDBRANCH  13  14
ENDBRANCH  12  13
ENDBRANCH  11  12
ENDBRANCH  10  11
ENDBRANCH   1  10
TORSDOF 15
ENDMDL
MODEL 4
REMARK VINA RESULT:    -4.553      2.721      5.242
REMARK INTER + INTRA:         -11.067
REMARK INTER:                  -8.722
REMARK INTRA:                  -2.345
REMARK UNBOUND:                -2.654
REMARK SMILES CCCCCCCCCCCCCCCCO
REMARK SMILES IDX 9 1 8 2 7 3 6 4 5 5 4 6 3 7 2 8 1 9 10 10 11 11 12 12 13 13
REMARK SMILES IDX 14 14 15 15 16 16 17 17
REMARK H PARENT 17 18
REMARK Flexibility Score: inf
ROOT
ATOM      1  C   UNL     1     200.600 204.028 231.492  1.00  0.00     0.000 C 
ENDROOT
BRANCH   1   2
ATOM      2  C   UNL     1     201.206 203.987 230.078  1.00  0.00    -0.000 C 
BRANCH   2   3
ATOM      3  C   UNL     1     202.181 202.812 229.882  1.00  0.00    -0.000 C 
BRANCH   3   4
ATOM      4  C   UNL     1     203.432 203.214 229.083  1.00  0.00    -0.000 C 
BRANCH   4   5
ATOM      5  C   UNL     1     204.655 203.455 229.986  1.00  0.00    -0.000 C 
BRANCH   5   6
ATOM      6  C   UNL     1     204.788 204.922 230.429  1.00  0.00    -0.000 C 
BRANCH   6   7
ATOM      7  C   UNL     1     204.627 205.168 231.943  1.00  0.00    -0.000 C 
BRANCH   7   8
ATOM      8  C   UNL     1     203.496 206.137 232.328  1.00  0.00    -0.003 C 
ATOM      9  C   UNL     1     203.431 206.410 233.829  1.00  0.00     0.004 C 
ENDBRANCH   7   8
ENDBRANCH   6   7
ENDBRANCH   5   6
ENDBRANCH   4   5
ENDBRANCH   3   4
ENDBRANCH   2   3
ENDBRANCH   1   2
BRANCH   1  10
ATOM     10  C   UNL     1     201.024 202.873 232.423  1.00  0.00     0.000 C 
BRANCH  10  11
ATOM     11  C   UNL     1     201.444 203.298 233.841  1.00  0.00     0.000 C 
BRANCH  11  12
ATOM     12  C   UNL     1     202.751 202.637 234.300  1.00  0.00     0.000 C 
BRANCH  12  13
ATOM     13  C   UNL     1     203.384 201.826 233.159  1.00  0.00     0.000 C 
BRANCH  13  14
ATOM     14  C   UNL     1     204.332 200.722 233.662  1.00  0.00     0.002 C 
BRANCH  14  15
ATOM     15  C   UNL     1     203.771 199.291 233.568  1.00  0.00     0.028 C 
BRANCH  15  16
ATOM     16  C   UNL     1     202.562 199.181 232.636  1.00  0.00     0.156 C 
BRANCH  16  17
ATOM     17  O   UNL     1     202.198 197.835 232.506  1.00  0.00    -0.396 OA
ATOM     18  H   UNL     1     202.216 197.455 233.424  1.00  0.00     0.210 HD
ENDBRANCH  16  17
ENDBRANCH  15  16
ENDBRANCH  14  15
ENDBRANCH  13  14
ENDBRANCH  12  13
ENDBRANCH  11  12
ENDBRANCH  10  11
ENDBRANCH   1  10
TORSDOF 15
ENDMDL
MODEL 5
REMARK VINA RESULT:    -4.549      2.131      3.901
REMARK INTER + INTRA:         -11.059
REMARK INTER:                  -8.743
REMARK INTRA:                  -2.316
REMARK UNBOUND:                -2.654
REMARK SMILES CCCCCCCCCCCCCCCCO
REMARK SMILES IDX 9 1 8 2 7 3 6 4 5 5 4 6 3 7 2 8 1 9 10 10 11 11 12 12 13 13
REMARK SMILES IDX 14 14 15 15 16 16 17 17
REMARK H PARENT 17 18
REMARK Flexibility Score: inf
ROOT
ATOM      1  C   UNL     1     205.720 202.156 230.060  1.00  0.00     0.000 C 
ENDROOT
BRANCH   1   2
ATOM      2  C   UNL     1     206.422 202.161 231.429  1.00  0.00    -0.000 C 
BRANCH   2   3
ATOM      3  C   UNL     1     206.071 203.399 232.274  1.00  0.00    -0.000 C 
BRANCH   3   4
ATOM      4  C   UNL     1     205.442 203.028 233.627  1.00  0.00    -0.000 C 
BRANCH   4   5
ATOM      5  C   UNL     1     205.868 201.631 234.112  1.00  0.00    -0.000 C 
BRANCH   5   6
ATOM      6  C   UNL     1     204.741 200.590 233.994  1.00  0.00    -0.000 C 
BRANCH   6   7
ATOM      7  C   UNL     1     203.387 201.140 233.503  1.00  0.00    -0.000 C 
BRANCH   7   8
ATOM      8  C   UNL     1     202.477 200.109 232.813  1.00  0.00    -0.003 C 
ATOM      9  C   UNL     1     202.608 200.123 231.291  1.00  0.00     0.004 C 
ENDBRANCH   7   8
ENDBRANCH   6   7
ENDBRANCH   5   6
ENDBRANCH   4   5
ENDBRANCH   3   4
ENDBRANCH   2   3
ENDBRANCH   1   2
BRANCH   1  10
ATOM     10  C   UNL     1     204.760 203.338 229.808  1.00  0.00     0.000 C 
BRANCH  10  11
ATOM     11  C   UNL     1     203.384 202.951 229.236  1.00  0.00     0.000 C 
BRANCH  11  12
ATOM     12  C   UNL     1     202.227 203.710 229.901  1.00  0.00     0.000 C 
BRANCH  12  13
ATOM     13  C   UNL     1     202.691 204.386 231.201  1.00  0.00     0.000 C 
BRANCH  13  14
ATOM     14  C   UNL     1     201.689 204.212 232.357  1.00  0.00     0.002 C 
BRANCH  14  15
ATOM     15  C   UNL     1     200.492 203.296 232.048  1.00  0.00     0.028 C 
BRANCH  15  16
ATOM     16  C   UNL     1     199.416 203.328 233.135  1.00  0.00     0.156 C 
BRANCH  16  17
ATOM     17  O   UNL     1     198.337 204.106 232.696  1.00  0.00    -0.396 OA
ATOM     18  H   UNL     1     197.735 203.489 232.202  1.00  0.00     0.210 HD
ENDBRANCH  16  17
ENDBRANCH  15  16
ENDBRANCH  14  15
ENDBRANCH  13  14
ENDBRANCH  12  13
ENDBRANCH  11  12
ENDBRANCH  10  11
ENDBRANCH   1  10
TORSDOF 15
ENDMDL
MODEL 6
REMARK VINA RESULT:    -4.539      2.446      4.978
REMARK INTER + INTRA:         -11.041
REMARK INTER:                  -8.499
REMARK INTRA:                  -2.542
REMARK UNBOUND:                -2.654
REMARK SMILES CCCCCCCCCCCCCCCCO
REMARK SMILES IDX 9 1 8 2 7 3 6 4 5 5 4 6 3 7 2 8 1 9 10 10 11 11 12 12 13 13
REMARK SMILES IDX 14 14 15 15 16 16 17 17
REMARK H PARENT 17 18
REMARK Flexibility Score: inf
ROOT
ATOM      1  C   UNL     1     202.616 203.027 229.604  1.00  0.00     0.000 C 
ENDROOT
BRANCH   1   2
ATOM      2  C   UNL     1     204.105 203.419 229.601  1.00  0.00    -0.000 C 
BRANCH   2   3
ATOM      3  C   UNL     1     204.586 203.941 230.965  1.00  0.00    -0.000 C 
BRANCH   3   4
ATOM      4  C   UNL     1     205.052 205.405 230.904  1.00  0.00    -0.000 C 
BRANCH   4   5
ATOM      5  C   UNL     1     204.683 206.194 232.173  1.00  0.00    -0.000 C 
BRANCH   5   6
ATOM      6  C   UNL     1     203.843 205.370 233.164  1.00  0.00    -0.000 C 
BRANCH   6   7
ATOM      7  C   UNL     1     202.736 206.154 233.897  1.00  0.00    -0.000 C 
BRANCH   7   8
ATOM      8  C   UNL     1     202.178 205.468 235.156  1.00  0.00    -0.003 C 
ATOM      9  C   UNL     1     203.197 204.560 235.841  1.00  0.00     0.004 C 
ENDBRANCH   7   8
ENDBRANCH   6   7
ENDBRANCH   5   6
ENDBRANCH   4   5
ENDBRANCH   3   4
ENDBRANCH   2   3
ENDBRANCH   1   2
BRANCH   1  10
ATOM     10  C   UNL     1     201.637 204.168 229.949  1.00  0.00     0.000 C 
BRANCH  10  11
ATOM     11  C   UNL     1     200.879 203.997 231.278  1.00  0.00     0.000 C 
BRANCH  11  12
ATOM     12  C   UNL     1     200.859 202.544 231.772  1.00  0.00     0.000 C 
BRANCH  12  13
ATOM     13  C   UNL     1     201.368 202.449 233.218  1.00  0.00     0.000 C 
BRANCH  13  14
ATOM     14  C   UNL     1     202.737 201.753 233.327  1.00  0.00     0.002 C 
BRANCH  14  15
ATOM     15  C   UNL     1     202.806 200.353 232.692  1.00  0.00     0.028 C 
BRANCH  15  16
ATOM     16  C   UNL     1     203.929 200.217 231.661  1.00  0.00     0.156 C 
BRANCH  16  17
ATOM     17  O   UNL     1     203.401 199.721 230.463  1.00  0.00    -0.396 OA
ATOM     18  H   UNL     1     202.706 200.370 230.178  1.00  0.00     0.210 HD
ENDBRANCH  16  17
ENDBRANCH  15  16
ENDBRANCH  14  15
ENDBRANCH  13  14
ENDBRANCH  12  13
ENDBRANCH  11  12
ENDBRANCH  10  11
ENDBRANCH   1  10
TORSDOF 15
ENDMDL
MODEL 7
REMARK VINA RESULT:    -4.491      1.412      3.360
REMARK INTER + INTRA:         -10.951
REMARK INTER:                  -8.696
REMARK INTRA:                  -2.255
REMARK UNBOUND:                -2.654
REMARK SMILES CCCCCCCCCCCCCCCCO
REMARK SMILES IDX 9 1 8 2 7 3 6 4 5 5 4 6 3 7 2 8 1 9 10 10 11 11 12 12 13 13
REMARK SMILES IDX 14 14 15 15 16 16 17 17
REMARK H PARENT 17 18
REMARK Flexibility Score: inf
ROOT
ATOM      1  C   UNL     1     206.380 201.861 231.303  1.00  0.00     0.000 C 
ENDROOT
BRANCH   1   2
ATOM      2  C   UNL     1     206.940 202.861 232.331  1.00  0.00    -0.000 C 
BRANCH   2   3
ATOM      3  C   UNL     1     206.655 202.444 233.784  1.00  0.00    -0.000 C 
BRANCH   3   4
ATOM      4  C   UNL     1     205.192 202.023 234.000  1.00  0.00    -0.000 C 
BRANCH   4   5
ATOM      5  C   UNL     1     205.066 200.591 234.548  1.00  0.00    -0.000 C 
BRANCH   5   6
ATOM      6  C   UNL     1     203.986 199.768 233.824  1.00  0.00    -0.000 C 
BRANCH   6   7
ATOM      7  C   UNL     1     203.120 200.558 232.822  1.00  0.00    -0.000 C 
BRANCH   7   8
ATOM      8  C   UNL     1     203.151 200.030 231.378  1.00  0.00    -0.003 C 
ATOM      9  C   UNL     1     201.967 200.512 230.542  1.00  0.00     0.004 C 
ENDBRANCH   7   8
ENDBRANCH   6   7
ENDBRANCH   5   6
ENDBRANCH   4   5
ENDBRANCH   3   4
ENDBRANCH   2   3
ENDBRANCH   1   2
BRANCH   1  10
ATOM     10  C   UNL     1     205.458 202.472 230.227  1.00  0.00     0.000 C 
BRANCH  10  11
ATOM     11  C   UNL     1     205.014 203.921 230.495  1.00  0.00     0.000 C 
BRANCH  11  12
ATOM     12  C   UNL     1     203.529 204.157 230.185  1.00  0.00     0.000 C 
BRANCH  12  13
ATOM     13  C   UNL     1     202.680 204.059 231.462  1.00  0.00     0.000 C 
BRANCH  13  14
ATOM     14  C   UNL     1     203.316 204.786 232.662  1.00  0.00     0.002 C 
BRANCH  14  15
ATOM     15  C   UNL     1     203.433 206.312 232.508  1.00  0.00     0.028 C 
BRANCH  15  16
ATOM     16  C   UNL     1     204.808 206.851 232.906  1.00  0.00     0.156 C 
BRANCH  16  17
ATOM     17  O   UNL     1     204.787 208.251 232.868  1.00  0.00    -0.396 OA
ATOM     18  H   UNL     1     203.859 208.506 232.621  1.00  0.00     0.210 HD
ENDBRANCH  16  17
ENDBRANCH  15  16
ENDBRANCH  14  15
ENDBRANCH  13  14
ENDBRANCH  12  13
ENDBRANCH  11  12
ENDBRANCH  10  11
ENDBRANCH   1  10
TORSDOF 15
ENDMDL
MODEL 8
REMARK VINA RESULT:    -4.471      2.511      5.037
REMARK INTER + INTRA:         -10.914
REMARK INTER:                  -8.594
REMARK INTRA:                  -2.321
REMARK UNBOUND:                -2.654
REMARK SMILES CCCCCCCCCCCCCCCCO
REMARK SMILES IDX 9 1 8 2 7 3 6 4 5 5 4 6 3 7 2 8 1 9 10 10 11 11 12 12 13 13
REMARK SMILES IDX 14 14 15 15 16 16 17 17
REMARK H PARENT 17 18
REMARK Flexibility Score: inf
ROOT
ATOM      1  C   UNL     1     205.058 203.506 230.300  1.00  0.00     0.000 C 
ENDROOT
BRANCH   1   2
ATOM      2  C   UNL     1     205.771 202.143 230.341  1.00  0.00    -0.000 C 
BRANCH   2   3
ATOM      3  C   UNL     1     206.645 201.965 231.594  1.00  0.00    -0.000 C 
BRANCH   3   4
ATOM      4  C   UNL     1     206.498 203.132 232.585  1.00  0.00    -0.000 C 
BRANCH   4   5
ATOM      5  C   UNL     1     205.866 202.695 233.919  1.00  0.00    -0.000 C 
BRANCH   5   6
ATOM      6  C   UNL     1     204.328 202.725 233.888  1.00  0.00    -0.000 C 
BRANCH   6   7
ATOM      7  C   UNL     1     203.684 203.992 234.486  1.00  0.00    -0.000 C 
BRANCH   7   8
ATOM      8  C   UNL     1     203.270 205.059 233.457  1.00  0.00    -0.003 C 
ATOM      9  C   UNL     1     204.339 206.128 233.245  1.00  0.00     0.004 C 
ENDBRANCH   7   8
ENDBRANCH   6   7
ENDBRANCH   5   6
ENDBRANCH   4   5
ENDBRANCH   3   4
ENDBRANCH   2   3
ENDBRANCH   1   2
BRANCH   1  10
ATOM     10  C   UNL     1     203.736 203.532 229.504  1.00  0.00     0.000 C 
BRANCH  10  11
ATOM     11  C   UNL     1     202.510 204.029 230.291  1.00  0.00     0.000 C 
BRANCH  11  12
ATOM     12  C   UNL     1     201.389 202.983 230.372  1.00  0.00     0.000 C 
BRANCH  12  13
ATOM     13  C   UNL     1     201.692 201.939 231.459  1.00  0.00     0.000 C 
BRANCH  13  14
ATOM     14  C   UNL     1     202.128 200.581 230.881  1.00  0.00     0.002 C 
BRANCH  14  15
ATOM     15  C   UNL     1     203.224 199.856 231.683  1.00  0.00     0.028 C 
BRANCH  15  16
ATOM     16  C   UNL     1     202.679 199.100 232.896  1.00  0.00     0.156 C 
BRANCH  16  17
ATOM     17  O   UNL     1     202.193 197.852 232.485  1.00  0.00    -0.396 OA
ATOM     18  H   UNL     1     202.639 197.179 233.062  1.00  0.00     0.210 HD
ENDBRANCH  16  17
ENDBRANCH  15  16
ENDBRANCH  14  15
ENDBRANCH  13  14
ENDBRANCH  12  13
ENDBRANCH  11  12
ENDBRANCH  10  11
ENDBRANCH   1  10
TORSDOF 15
ENDMDL
MODEL 9
REMARK VINA RESULT:    -4.416      2.048      4.325
REMARK INTER + INTRA:         -10.814
REMARK INTER:                  -8.385
REMARK INTRA:                  -2.429
REMARK UNBOUND:                -2.654
REMARK SMILES CCCCCCCCCCCCCCCCO
REMARK SMILES IDX 9 1 8 2 7 3 6 4 5 5 4 6 3 7 2 8 1 9 10 10 11 11 12 12 13 13
REMARK SMILES IDX 14 14 15 15 16 16 17 17
REMARK H PARENT 17 18
REMARK Flexibility Score: inf
ROOT
ATOM      1  C   UNL     1     206.149 201.869 231.194  1.00  0.00     0.000 C 
ENDROOT
BRANCH   1   2
ATOM      2  C   UNL     1     205.472 202.329 229.890  1.00  0.00    -0.000 C 
BRANCH   2   3
ATOM      3  C   UNL     1     204.720 203.662 230.046  1.00  0.00    -0.000 C 
BRANCH   3   4
ATOM      4  C   UNL     1     203.266 203.466 230.508  1.00  0.00    -0.000 C 
BRANCH   4   5
ATOM      5  C   UNL     1     202.944 204.255 231.789  1.00  0.00    -0.000 C 
BRANCH   5   6
ATOM      6  C   UNL     1     203.748 205.562 231.903  1.00  0.00    -0.000 C 
BRANCH   6   7
ATOM      7  C   UNL     1     204.176 205.948 233.334  1.00  0.00    -0.000 C 
BRANCH   7   8
ATOM      8  C   UNL     1     203.422 205.216 234.457  1.00  0.00    -0.003 C 
ATOM      9  C   UNL     1     202.368 206.089 235.134  1.00  0.00     0.004 C 
ENDBRANCH   7   8
ENDBRANCH   6   7
ENDBRANCH   5   6
ENDBRANCH   4   5
ENDBRANCH   3   4
ENDBRANCH   2   3
ENDBRANCH   1   2
BRANCH   1  10
ATOM     10  C   UNL     1     206.633 203.005 232.118  1.00  0.00     0.000 C 
BRANCH  10  11
ATOM     11  C   UNL     1     206.231 202.859 233.597  1.00  0.00     0.000 C 
BRANCH  11  12
ATOM     12  C   UNL     1     205.975 201.402 234.005  1.00  0.00     0.000 C 
BRANCH  12  13
ATOM     13  C   UNL     1     204.597 201.252 234.669  1.00  0.00     0.000 C 
BRANCH  13  14
ATOM     14  C   UNL     1     203.445 201.181 233.650  1.00  0.00     0.002 C 
BRANCH  14  15
ATOM     15  C   UNL     1     203.287 199.823 232.943  1.00  0.00     0.028 C 
BRANCH  15  16
ATOM     16  C   UNL     1     202.514 199.919 231.626  1.00  0.00     0.156 C 
BRANCH  16  17
ATOM     17  O   UNL     1     203.395 199.719 230.556  1.00  0.00    -0.396 OA
ATOM     18  H   UNL     1     204.163 200.329 230.713  1.00  0.00     0.210 HD
ENDBRANCH  16  17
ENDBRANCH  15  16
ENDBRANCH  14  15
ENDBRANCH  13  14
ENDBRANCH  12  13
ENDBRANCH  11  12
ENDBRANCH  10  11
ENDBRANCH   1  10
TORSDOF 15
ENDMDL
