MODEL 1
REMARK VINA RESULT:    -5.510      0.000      0.000
REMARK INTER + INTRA:          -6.072
REMARK INTER:                  -5.833
REMARK INTRA:                  -0.240
REMARK UNBOUND:                -0.240
REMARK SMILES O=c1cc(-c2ccccc2)oc2ccccc12
REMARK SMILES IDX 4 1 3 2 2 3 1 4 17 5 16 6 15 7 14 8 13 9 12 10 11 11 5 12
REMARK SMILES IDX 8 13 7 14 9 15 6 16 10 17
REMARK H PARENT
REMARK Flexibility Score: inf
ROOT
ATOM      1  C   UNL     1      15.493  -5.746  13.460  1.00  0.00     0.138 A 
ATOM      2  C   UNL     1      15.621  -7.062  13.950  1.00  0.00     0.100 A 
ATOM      3  C   UNL     1      15.500  -8.140  13.069  1.00  0.00     0.193 A 
ATOM      4  O   UNL     1      15.614  -9.317  13.508  1.00  0.00    -0.289 OA
ATOM      5  C   UNL     1      15.252  -7.897  11.711  1.00  0.00     0.065 A 
ATOM      6  C   UNL     1      15.120  -8.935  10.772  1.00  0.00     0.016 A 
ATOM      7  C   UNL     1      14.873  -8.636   9.428  1.00  0.00     0.001 A 
ATOM      8  C   UNL     1      14.759  -7.307   9.013  1.00  0.00     0.004 A 
ATOM      9  C   UNL     1      14.890  -6.269   9.940  1.00  0.00     0.048 A 
ATOM     10  C   UNL     1      15.136  -6.556  11.287  1.00  0.00     0.138 A 
ATOM     11  O   UNL     1      15.259  -5.562  12.160  1.00  0.00    -0.456 OA
ENDROOT
BRANCH   1  12
ATOM     12  C   UNL     1      15.610  -4.538  14.333  1.00  0.00     0.017 A 
ATOM     13  C   UNL     1      15.766  -2.297  16.044  1.00  0.00     0.000 A 
ATOM     14  C   UNL     1      14.923  -3.362  16.363  1.00  0.00     0.001 A 
ATOM     15  C   UNL     1      16.531  -2.341  14.880  1.00  0.00     0.001 A 
ATOM     16  C   UNL     1      14.845  -4.473  15.517  1.00  0.00     0.012 A 
ATOM     17  C   UNL     1      16.458  -3.448  14.028  1.00  0.00     0.012 A 
ENDBRANCH   1  12
TORSDOF 1
ENDMDL
MODEL 2
REMARK VINA RESULT:    -5.296      8.928     11.467
REMARK INTER + INTRA:          -5.846
REMARK INTER:                  -5.594
REMARK INTRA:                  -0.252
REMARK UNBOUND:                -0.240
REMARK SMILES O=c1cc(-c2ccccc2)oc2ccccc12
REMARK SMILES IDX 4 1 3 2 2 3 1 4 17 5 16 6 15 7 14 8 13 9 12 10 11 11 5 12
REMARK SMILES IDX 8 13 7 14 9 15 6 16 10 17
REMARK H PARENT
REMARK Flexibility Score: inf
ROOT
ATOM      1  C   UNL     1      17.219 -14.298  19.408  1.00  0.00     0.138 A 
ATOM      2  C   UNL     1      18.591 -14.253  19.730  1.00  0.00     0.100 A 
ATOM      3  C   UNL     1      19.291 -13.051  19.594  1.00  0.00     0.193 A 
ATOM      4  O   UNL     1      20.518 -13.011  19.882  1.00  0.00    -0.289 OA
ATOM      5  C   UNL     1      18.620 -11.909  19.136  1.00  0.00     0.065 A 
ATOM      6  C   UNL     1      19.265 -10.670  18.977  1.00  0.00     0.016 A 
ATOM      7  C   UNL     1      18.546  -9.561  18.517  1.00  0.00     0.001 A 
ATOM      8  C   UNL     1      17.187  -9.679  18.216  1.00  0.00     0.004 A 
ATOM      9  C   UNL     1      16.538 -10.907  18.372  1.00  0.00     0.048 A 
ATOM     10  C   UNL     1      17.247 -12.024  18.831  1.00  0.00     0.138 A 
ATOM     11  O   UNL     1      16.620 -13.187  18.977  1.00  0.00    -0.456 OA
ENDROOT
BRANCH   1  12
ATOM     12  C   UNL     1      16.396 -15.541  19.526  1.00  0.00     0.017 A 
ATOM     13  C   UNL     1      14.893 -17.912  19.829  1.00  0.00     0.000 A 
ATOM     14  C   UNL     1      15.920 -17.616  20.726  1.00  0.00     0.001 A 
ATOM     15  C   UNL     1      14.610 -17.035  18.784  1.00  0.00     0.001 A 
ATOM     16  C   UNL     1      16.665 -16.442  20.578  1.00  0.00     0.012 A 
ATOM     17  C   UNL     1      15.350 -15.859  18.628  1.00  0.00     0.012 A 
ENDBRANCH   1  12
TORSDOF 1
ENDMDL
MODEL 3
REMARK VINA RESULT:    -5.195      3.216      5.499
REMARK INTER + INTRA:          -5.738
REMARK INTER:                  -5.517
REMARK INTRA:                  -0.221
REMARK UNBOUND:                -0.240
REMARK SMILES O=c1cc(-c2ccccc2)oc2ccccc12
REMARK SMILES IDX 4 1 3 2 2 3 1 4 17 5 16 6 15 7 14 8 13 9 12 10 11 11 5 12
REMARK SMILES IDX 8 13 7 14 9 15 6 16 10 17
REMARK H PARENT
REMARK Flexibility Score: inf
ROOT
ATOM      1  C   UNL     1      15.326  -6.947   9.644  1.00  0.00     0.138 A 
ATOM      2  C   UNL     1      14.164  -6.411   9.052  1.00  0.00     0.100 A 
ATOM      3  C   UNL     1      14.243  -5.825   7.786  1.00  0.00     0.193 A 
ATOM      4  O   UNL     1      13.204  -5.345   7.257  1.00  0.00    -0.289 OA
ATOM      5  C   UNL     1      15.478  -5.777   7.123  1.00  0.00     0.065 A 
ATOM      6  C   UNL     1      15.627  -5.203   5.849  1.00  0.00     0.016 A 
ATOM      7  C   UNL     1      16.883  -5.182   5.233  1.00  0.00     0.001 A 
ATOM      8  C   UNL     1      17.992  -5.733   5.879  1.00  0.00     0.004 A 
ATOM      9  C   UNL     1      17.853  -6.306   7.146  1.00  0.00     0.048 A 
ATOM     10  C   UNL     1      16.601  -6.332   7.772  1.00  0.00     0.138 A 
ATOM     11  O   UNL     1      16.479  -6.881   8.977  1.00  0.00    -0.456 OA
ENDROOT
BRANCH   1  12
ATOM     12  C   UNL     1      15.329  -7.591  10.993  1.00  0.00     0.017 A 
ATOM     13  C   UNL     1      15.360  -8.723  13.579  1.00  0.00     0.000 A 
ATOM     14  C   UNL     1      15.696  -7.381  13.400  1.00  0.00     0.001 A 
ATOM     15  C   UNL     1      15.008  -9.504  12.480  1.00  0.00     0.001 A 
ATOM     16  C   UNL     1      15.681  -6.819  12.120  1.00  0.00     0.012 A 
ATOM     17  C   UNL     1      14.991  -8.950  11.196  1.00  0.00     0.012 A 
ENDBRANCH   1  12
TORSDOF 1
ENDMDL
MODEL 4
REMARK VINA RESULT:    -5.163      9.439     11.180
REMARK INTER + INTRA:          -5.705
REMARK INTER:                  -5.467
REMARK INTRA:                  -0.238
REMARK UNBOUND:                -0.240
REMARK SMILES O=c1cc(-c2ccccc2)oc2ccccc12
REMARK SMILES IDX 4 1 3 2 2 3 1 4 17 5 16 6 15 7 14 8 13 9 12 10 11 11 5 12
REMARK SMILES IDX 8 13 7 14 9 15 6 16 10 17
REMARK H PARENT
REMARK Flexibility Score: inf
ROOT
ATOM      1  C   UNL     1      16.962 -13.777  19.666  1.00  0.00     0.138 A 
ATOM      2  C   UNL     1      17.714 -14.320  20.728  1.00  0.00     0.100 A 
ATOM      3  C   UNL     1      17.484 -15.637  21.132  1.00  0.00     0.193 A 
ATOM      4  O   UNL     1      18.157 -16.122  22.081  1.00  0.00    -0.289 OA
ATOM      5  C   UNL     1      16.507 -16.400  20.476  1.00  0.00     0.065 A 
ATOM      6  C   UNL     1      16.226 -17.730  20.833  1.00  0.00     0.016 A 
ATOM      7  C   UNL     1      15.240 -18.446  20.144  1.00  0.00     0.001 A 
ATOM      8  C   UNL     1      14.534 -17.844  19.101  1.00  0.00     0.004 A 
ATOM      9  C   UNL     1      14.807 -16.521  18.740  1.00  0.00     0.048 A 
ATOM     10  C   UNL     1      15.791 -15.795  19.422  1.00  0.00     0.138 A 
ATOM     11  O   UNL     1      16.044 -14.539  19.070  1.00  0.00    -0.456 OA
ENDROOT
BRANCH   1  12
ATOM     12  C   UNL     1      17.145 -12.378  19.171  1.00  0.00     0.017 A 
ATOM     13  C   UNL     1      17.397  -9.720  18.252  1.00  0.00     0.000 A 
ATOM     14  C   UNL     1      16.155 -10.200  18.668  1.00  0.00     0.001 A 
ATOM     15  C   UNL     1      18.514 -10.553  18.291  1.00  0.00     0.001 A 
ATOM     16  C   UNL     1      16.029 -11.516  19.123  1.00  0.00     0.012 A 
ATOM     17  C   UNL     1      18.396 -11.871  18.745  1.00  0.00     0.012 A 
ENDBRANCH   1  12
TORSDOF 1
ENDMDL
MODEL 5
REMARK VINA RESULT:    -5.162      3.374      7.302
REMARK INTER + INTRA:          -5.704
REMARK INTER:                  -5.482
REMARK INTRA:                  -0.221
REMARK UNBOUND:                -0.240
REMARK SMILES O=c1cc(-c2ccccc2)oc2ccccc12
REMARK SMILES IDX 4 1 3 2 2 3 1 4 17 5 16 6 15 7 14 8 13 9 12 10 11 11 5 12
REMARK SMILES IDX 8 13 7 14 9 15 6 16 10 17
REMARK H PARENT
REMARK Flexibility Score: inf
ROOT
ATOM      1  C   UNL     1      14.707 -10.866  11.530  1.00  0.00     0.138 A 
ATOM      2  C   UNL     1      14.507 -10.283  10.262  1.00  0.00     0.100 A 
ATOM      3  C   UNL     1      14.678  -8.906  10.102  1.00  0.00     0.193 A 
ATOM      4  O   UNL     1      14.499  -8.385   8.968  1.00  0.00    -0.289 OA
ATOM      5  C   UNL     1      15.044  -8.123  11.206  1.00  0.00     0.065 A 
ATOM      6  C   UNL     1      15.232  -6.733  11.114  1.00  0.00     0.016 A 
ATOM      7  C   UNL     1      15.598  -6.000  12.248  1.00  0.00     0.001 A 
ATOM      8  C   UNL     1      15.780  -6.644  13.474  1.00  0.00     0.004 A 
ATOM      9  C   UNL     1      15.595  -8.026  13.574  1.00  0.00     0.048 A 
ATOM     10  C   UNL     1      15.228  -8.770  12.446  1.00  0.00     0.138 A 
ATOM     11  O   UNL     1      15.056 -10.084  12.552  1.00  0.00    -0.456 OA
ENDROOT
BRANCH   1  12
ATOM     12  C   UNL     1      14.547 -12.331  11.787  1.00  0.00     0.017 A 
ATOM     13  C   UNL     1      14.147 -15.082  12.279  1.00  0.00     0.000 A 
ATOM     14  C   UNL     1      13.057 -14.211  12.253  1.00  0.00     0.001 A 
ATOM     15  C   UNL     1      15.433 -14.592  12.060  1.00  0.00     0.001 A 
ATOM     16  C   UNL     1      13.253 -12.849  12.010  1.00  0.00     0.012 A 
ATOM     17  C   UNL     1      15.638 -13.230  11.817  1.00  0.00     0.012 A 
ENDBRANCH   1  12
TORSDOF 1
ENDMDL
MODEL 6
REMARK VINA RESULT:    -5.141      2.222      5.949
REMARK INTER + INTRA:          -5.682
REMARK INTER:                  -5.461
REMARK INTRA:                  -0.221
REMARK UNBOUND:                -0.240
REMARK SMILES O=c1cc(-c2ccccc2)oc2ccccc12
REMARK SMILES IDX 4 1 3 2 2 3 1 4 17 5 16 6 15 7 14 8 13 9 12 10 11 11 5 12
REMARK SMILES IDX 8 13 7 14 9 15 6 16 10 17
REMARK H PARENT
REMARK Flexibility Score: inf
ROOT
ATOM      1  C   UNL     1      15.490  -7.125   9.564  1.00  0.00     0.138 A 
ATOM      2  C   UNL     1      15.176  -8.492   9.718  1.00  0.00     0.100 A 
ATOM      3  C   UNL     1      14.998  -9.017  11.001  1.00  0.00     0.193 A 
ATOM      4  O   UNL     1      14.718 -10.238  11.138  1.00  0.00    -0.289 OA
ATOM      5  C   UNL     1      15.136  -8.178  12.115  1.00  0.00     0.065 A 
ATOM      6  C   UNL     1      14.969  -8.642  13.432  1.00  0.00     0.016 A 
ATOM      7  C   UNL     1      15.118  -7.761  14.508  1.00  0.00     0.001 A 
ATOM      8  C   UNL     1      15.429  -6.418  14.281  1.00  0.00     0.004 A 
ATOM      9  C   UNL     1      15.595  -5.948  12.974  1.00  0.00     0.048 A 
ATOM     10  C   UNL     1      15.450  -6.821  11.890  1.00  0.00     0.138 A 
ATOM     11  O   UNL     1      15.610  -6.364  10.652  1.00  0.00    -0.456 OA
ENDROOT
BRANCH   1  12
ATOM     12  C   UNL     1      15.696  -6.484   8.229  1.00  0.00     0.017 A 
ATOM     13  C   UNL     1      16.180  -5.288   5.717  1.00  0.00     0.000 A 
ATOM     14  C   UNL     1      17.245  -5.774   6.476  1.00  0.00     0.001 A 
ATOM     15  C   UNL     1      14.876  -5.394   6.200  1.00  0.00     0.001 A 
ATOM     16  C   UNL     1      17.007  -6.367   7.720  1.00  0.00     0.012 A 
ATOM     17  C   UNL     1      14.630  -5.985   7.443  1.00  0.00     0.012 A 
ENDBRANCH   1  12
TORSDOF 1
ENDMDL
MODEL 7
REMARK VINA RESULT:    -5.082      3.927      6.689
REMARK INTER + INTRA:          -5.619
REMARK INTER:                  -5.375
REMARK INTRA:                  -0.244
REMARK UNBOUND:                -0.240
REMARK SMILES O=c1cc(-c2ccccc2)oc2ccccc12
REMARK SMILES IDX 4 1 3 2 2 3 1 4 17 5 16 6 15 7 14 8 13 9 12 10 11 11 5 12
REMARK SMILES IDX 8 13 7 14 9 15 6 16 10 17
REMARK H PARENT
REMARK Flexibility Score: inf
ROOT
ATOM      1  C   UNL     1      15.728  -6.942   8.126  1.00  0.00     0.138 A 
ATOM      2  C   UNL     1      14.814  -6.932   7.053  1.00  0.00     0.100 A 
ATOM      3  C   UNL     1      15.168  -6.308   5.853  1.00  0.00     0.193 A 
ATOM      4  O   UNL     1      14.350  -6.299   4.893  1.00  0.00    -0.289 OA
ATOM      5  C   UNL     1      16.425  -5.700   5.736  1.00  0.00     0.065 A 
ATOM      6  C   UNL     1      16.843  -5.057   4.557  1.00  0.00     0.016 A 
ATOM      7  C   UNL     1      18.110  -4.466   4.494  1.00  0.00     0.001 A 
ATOM      8  C   UNL     1      18.965  -4.515   5.598  1.00  0.00     0.004 A 
ATOM      9  C   UNL     1      18.557  -5.154   6.773  1.00  0.00     0.048 A 
ATOM     10  C   UNL     1      17.291  -5.747   6.848  1.00  0.00     0.138 A 
ATOM     11  O   UNL     1      16.914  -6.352   7.970  1.00  0.00    -0.456 OA
ENDROOT
BRANCH   1  12
ATOM     12  C   UNL     1      15.430  -7.587   9.442  1.00  0.00     0.017 A 
ATOM     13  C   UNL     1      14.835  -8.883  11.879  1.00  0.00     0.000 A 
ATOM     14  C   UNL     1      14.565  -9.518  10.666  1.00  0.00     0.001 A 
ATOM     15  C   UNL     1      15.400  -7.609  11.886  1.00  0.00     0.001 A 
ATOM     16  C   UNL     1      14.859  -8.877   9.458  1.00  0.00     0.012 A 
ATOM     17  C   UNL     1      15.697  -6.961  10.683  1.00  0.00     0.012 A 
ENDBRANCH   1  12
TORSDOF 1
ENDMDL
MODEL 8
REMARK VINA RESULT:    -4.971      3.640      6.931
REMARK INTER + INTRA:          -5.502
REMARK INTER:                  -5.281
REMARK INTRA:                  -0.221
REMARK UNBOUND:                -0.240
REMARK SMILES O=c1cc(-c2ccccc2)oc2ccccc12
REMARK SMILES IDX 4 1 3 2 2 3 1 4 17 5 16 6 15 7 14 8 13 9 12 10 11 11 5 12
REMARK SMILES IDX 8 13 7 14 9 15 6 16 10 17
REMARK H PARENT
REMARK Flexibility Score: inf
ROOT
ATOM      1  C   UNL     1      14.702 -10.677  11.578  1.00  0.00     0.138 A 
ATOM      2  C   UNL     1      15.050  -9.772  12.603  1.00  0.00     0.100 A 
ATOM      3  C   UNL     1      15.297  -8.434  12.286  1.00  0.00     0.193 A 
ATOM      4  O   UNL     1      15.608  -7.626  13.202  1.00  0.00    -0.289 OA
ATOM      5  C   UNL     1      15.198  -8.011  10.953  1.00  0.00     0.065 A 
ATOM      6  C   UNL     1      15.433  -6.680  10.566  1.00  0.00     0.016 A 
ATOM      7  C   UNL     1      15.320  -6.311   9.222  1.00  0.00     0.001 A 
ATOM      8  C   UNL     1      14.971  -7.262   8.259  1.00  0.00     0.004 A 
ATOM      9  C   UNL     1      14.734  -8.587   8.635  1.00  0.00     0.048 A 
ATOM     10  C   UNL     1      14.846  -8.968   9.977  1.00  0.00     0.138 A 
ATOM     11  O   UNL     1      14.618 -10.230  10.325  1.00  0.00    -0.456 OA
ENDROOT
BRANCH   1  12
ATOM     12  C   UNL     1      14.420 -12.123  11.831  1.00  0.00     0.017 A 
ATOM     13  C   UNL     1      13.983 -14.873  12.303  1.00  0.00     0.000 A 
ATOM     14  C   UNL     1      15.279 -14.396  12.100  1.00  0.00     0.001 A 
ATOM     15  C   UNL     1      12.905 -13.990  12.273  1.00  0.00     0.001 A 
ATOM     16  C   UNL     1      15.497 -13.035  11.867  1.00  0.00     0.012 A 
ATOM     17  C   UNL     1      13.115 -12.627  12.040  1.00  0.00     0.012 A 
ENDBRANCH   1  12
TORSDOF 1
ENDMDL
MODEL 9
REMARK VINA RESULT:    -4.867     10.308     12.247
REMARK INTER + INTRA:          -5.391
REMARK INTER:                  -5.138
REMARK INTRA:                  -0.253
REMARK UNBOUND:                -0.240
REMARK SMILES O=c1cc(-c2ccccc2)oc2ccccc12
REMARK SMILES IDX 4 1 3 2 2 3 1 4 17 5 16 6 15 7 14 8 13 9 12 10 11 11 5 12
REMARK SMILES IDX 8 13 7 14 9 15 6 16 10 17
REMARK H PARENT
REMARK Flexibility Score: inf
ROOT
ATOM      1  C   UNL     1      15.918 -15.081  19.740  1.00  0.00     0.138 A 
ATOM      2  C   UNL     1      16.239 -16.386  19.313  1.00  0.00     0.100 A 
ATOM      3  C   UNL     1      15.358 -17.436  19.586  1.00  0.00     0.193 A 
ATOM      4  O   UNL     1      15.645 -18.603  19.205  1.00  0.00    -0.289 OA
ATOM      5  C   UNL     1      14.169 -17.176  20.282  1.00  0.00     0.065 A 
ATOM      6  C   UNL     1      13.239 -18.186  20.588  1.00  0.00     0.016 A 
ATOM      7  C   UNL     1      12.068 -17.871  21.284  1.00  0.00     0.001 A 
ATOM      8  C   UNL     1      11.815 -16.554  21.676  1.00  0.00     0.004 A 
ATOM      9  C   UNL     1      12.733 -15.544  21.375  1.00  0.00     0.048 A 
ATOM     10  C   UNL     1      13.909 -15.847  20.680  1.00  0.00     0.138 A 
ATOM     11  O   UNL     1      14.775 -14.879  20.397  1.00  0.00    -0.456 OA
ENDROOT
BRANCH   1  12
ATOM     12  C   UNL     1      16.804 -13.903  19.489  1.00  0.00     0.017 A 
ATOM     13  C   UNL     1      18.553 -11.736  19.022  1.00  0.00     0.000 A 
ATOM     14  C   UNL     1      19.068 -13.013  19.251  1.00  0.00     0.001 A 
ATOM     15  C   UNL     1      17.174 -11.532  19.023  1.00  0.00     0.001 A 
ATOM     16  C   UNL     1      18.202 -14.087  19.482  1.00  0.00     0.012 A 
ATOM     17  C   UNL     1      16.302 -12.601  19.254  1.00  0.00     0.012 A 
ENDBRANCH   1  12
TORSDOF 1
ENDMDL
