MODEL 1
REMARK VINA RESULT:    -2.029      0.000      0.000
REMARK INTER + INTRA:          -2.029
REMARK INTER:                  -2.029
REMARK INTRA:                   0.000
REMARK UNBOUND:                 0.000
REMARK SMILES CC(=O)[O-]
REMARK SMILES IDX 1 1 2 2 3 3 4 4
REMARK H PARENT
REMARK Flexibility Score: inf
ROOT
ATOM      1  C   UNL     1     169.475 173.772 153.618  1.00  0.00     0.063 C 
ATOM      2  C   UNL     1     170.800 173.090 153.613  1.00  0.00     0.038 C 
ATOM      3  O   UNL     1     171.571 173.216 152.626  1.00  0.00    -0.550 OA
ATOM      4  O   UNL     1     171.210 172.354 154.717  1.00  0.00    -0.550 OA
ENDROOT
TORSDOF 0
ENDMDL
MODEL 2
REMARK VINA RESULT:    -2.023      0.093      1.619
REMARK INTER + INTRA:          -2.023
REMARK INTER:                  -2.023
REMARK INTRA:                   0.000
REMARK UNBOUND:                 0.000
REMARK SMILES CC(=O)[O-]
REMARK SMILES IDX 1 1 2 2 3 3 4 4
REMARK H PARENT
REMARK Flexibility Score: inf
ROOT
ATOM      1  C   UNL     1     169.473 173.788 153.610  1.00  0.00     0.063 C 
ATOM      2  C   UNL     1     170.795 173.101 153.635  1.00  0.00     0.038 C 
ATOM      3  O   UNL     1     171.140 172.431 154.644  1.00  0.00    -0.550 OA
ATOM      4  O   UNL     1     171.629 173.154 152.526  1.00  0.00    -0.550 OA
ENDROOT
TORSDOF 0
ENDMDL
MODEL 3
REMARK VINA RESULT:    -1.874      1.672      1.904
REMARK INTER + INTRA:          -1.874
REMARK INTER:                  -1.874
REMARK INTRA:                   0.000
REMARK UNBOUND:                 0.000
REMARK SMILES CC(=O)[O-]
REMARK SMILES IDX 1 1 2 2 3 3 4 4
REMARK H PARENT
REMARK Flexibility Score: inf
ROOT
ATOM      1  C   UNL     1     171.270 173.170 152.871  1.00  0.00     0.063 C 
ATOM      2  C   UNL     1     170.075 173.096 153.757  1.00  0.00     0.038 C 
ATOM      3  O   UNL     1     169.314 174.092 153.877  1.00  0.00    -0.550 OA
ATOM      4  O   UNL     1     169.766 171.911 154.413  1.00  0.00    -0.550 OA
ENDROOT
TORSDOF 0
ENDMDL
MODEL 4
REMARK VINA RESULT:    -1.863      1.426      2.053
REMARK INTER + INTRA:          -1.863
REMARK INTER:                  -1.863
REMARK INTRA:                   0.000
REMARK UNBOUND:                 0.000
REMARK SMILES CC(=O)[O-]
REMARK SMILES IDX 1 1 2 2 3 3 4 4
REMARK H PARENT
REMARK Flexibility Score: inf
ROOT
ATOM      1  C   UNL     1     170.581 171.844 154.508  1.00  0.00     0.063 C 
ATOM      2  C   UNL     1     170.532 173.109 153.723  1.00  0.00     0.038 C 
ATOM      3  O   UNL     1     169.654 173.976 153.974  1.00  0.00    -0.550 OA
ATOM      4  O   UNL     1     171.487 173.361 152.747  1.00  0.00    -0.550 OA
ENDROOT
TORSDOF 0
ENDMDL
MODEL 5
REMARK VINA RESULT:    -1.853     16.083     16.605
REMARK INTER + INTRA:          -1.853
REMARK INTER:                  -1.853
REMARK INTRA:                   0.000
REMARK UNBOUND:                 0.000
REMARK SMILES CC(=O)[O-]
REMARK SMILES IDX 1 1 2 2 3 3 4 4
REMARK H PARENT
REMARK Flexibility Score: inf
ROOT
ATOM      1  C   UNL     1     158.450 173.129 162.888  1.00  0.00     0.063 C 
ATOM      2  C   UNL     1     156.966 173.167 162.759  1.00  0.00     0.038 C 
ATOM      3  O   UNL     1     156.425 173.902 161.892  1.00  0.00    -0.550 OA
ATOM      4  O   UNL     1     156.175 172.353 163.560  1.00  0.00    -0.550 OA
ENDROOT
TORSDOF 0
ENDMDL
MODEL 6
REMARK VINA RESULT:    -1.847     16.686     17.236
REMARK INTER + INTRA:          -1.847
REMARK INTER:                  -1.847
REMARK INTRA:                   0.000
REMARK UNBOUND:                 0.000
REMARK SMILES CC(=O)[O-]
REMARK SMILES IDX 1 1 2 2 3 3 4 4
REMARK H PARENT
REMARK Flexibility Score: inf
ROOT
ATOM      1  C   UNL     1     155.411 172.091 163.724  1.00  0.00     0.063 C 
ATOM      2  C   UNL     1     156.436 172.886 162.990  1.00  0.00     0.038 C 
ATOM      3  O   UNL     1     157.661 172.673 163.187  1.00  0.00    -0.550 OA
ATOM      4  O   UNL     1     156.044 173.828 162.048  1.00  0.00    -0.550 OA
ENDROOT
TORSDOF 0
ENDMDL
MODEL 7
REMARK VINA RESULT:    -1.815      8.136      8.415
REMARK INTER + INTRA:          -1.815
REMARK INTER:                  -1.815
REMARK INTRA:                   0.000
REMARK UNBOUND:                 0.000
REMARK SMILES CC(=O)[O-]
REMARK SMILES IDX 1 1 2 2 3 3 4 4
REMARK H PARENT
REMARK Flexibility Score: inf
ROOT
ATOM      1  C   UNL     1     168.633 174.642 161.355  1.00  0.00     0.063 C 
ATOM      2  C   UNL     1     167.208 174.609 160.921  1.00  0.00     0.038 C 
ATOM      3  O   UNL     1     166.806 175.382 160.012  1.00  0.00    -0.550 OA
ATOM      4  O   UNL     1     166.330 173.689 161.480  1.00  0.00    -0.550 OA
ENDROOT
TORSDOF 0
ENDMDL
MODEL 8
REMARK VINA RESULT:    -1.814      7.968      8.343
REMARK INTER + INTRA:          -1.814
REMARK INTER:                  -1.814
REMARK INTRA:                   0.000
REMARK UNBOUND:                 0.000
REMARK SMILES CC(=O)[O-]
REMARK SMILES IDX 1 1 2 2 3 3 4 4
REMARK H PARENT
REMARK Flexibility Score: inf
ROOT
ATOM      1  C   UNL     1     166.532 175.488 160.048  1.00  0.00     0.063 C 
ATOM      2  C   UNL     1     167.323 174.622 160.968  1.00  0.00     0.038 C 
ATOM      3  O   UNL     1     166.759 173.688 161.597  1.00  0.00    -0.550 OA
ATOM      4  O   UNL     1     168.693 174.808 161.096  1.00  0.00    -0.550 OA
ENDROOT
TORSDOF 0
ENDMDL
MODEL 9
REMARK VINA RESULT:    -1.751     17.560     18.165
REMARK INTER + INTRA:          -1.751
REMARK INTER:                  -1.751
REMARK INTRA:                   0.000
REMARK UNBOUND:                 0.000
REMARK SMILES CC(=O)[O-]
REMARK SMILES IDX 1 1 2 2 3 3 4 4
REMARK H PARENT
REMARK Flexibility Score: inf
ROOT
ATOM      1  C   UNL     1     154.762 171.364 163.952  1.00  0.00     0.063 C 
ATOM      2  C   UNL     1     155.493 172.492 163.308  1.00  0.00     0.038 C 
ATOM      3  O   UNL     1     154.855 173.439 162.779  1.00  0.00    -0.550 OA
ATOM      4  O   UNL     1     156.882 172.528 163.335  1.00  0.00    -0.550 OA
ENDROOT
TORSDOF 0
ENDMDL
