MODEL 1
REMARK VINA RESULT:    -4.273      0.000      0.000
REMARK INTER + INTRA:          -5.802
REMARK INTER:                  -5.522
REMARK INTRA:                  -0.280
REMARK UNBOUND:                -0.280
REMARK SMILES C=CC(=O)CCCCC
REMARK SMILES IDX 6 1 7 2 8 3 9 4 5 5 3 6 4 7 2 8 1 9
REMARK H PARENT
REMARK Flexibility Score: inf
ROOT
ATOM      1  C   UNL     1     -26.119  19.145 -33.775  1.00  0.00     0.008 C 
ENDROOT
BRANCH   1   2
ATOM      2  C   UNL     1     -27.530  19.740 -33.841  1.00  0.00     0.000 C 
BRANCH   2   3
ATOM      3  C   UNL     1     -27.504  21.148 -34.448  1.00  0.00    -0.003 C 
ATOM      4  C   UNL     1     -27.747  22.212 -33.382  1.00  0.00     0.004 C 
ENDBRANCH   2   3
ENDBRANCH   1   2
BRANCH   1   5
ATOM      5  C   UNL     1     -25.179  19.848 -34.761  1.00  0.00     0.080 C 
BRANCH   5   6
ATOM      6  C   UNL     1     -23.748  19.641 -34.362  1.00  0.00     0.155 C 
ATOM      7  O   UNL     1     -23.060  18.767 -34.958  1.00  0.00    -0.295 OA
BRANCH   6   8
ATOM      8  C   UNL     1     -23.143  20.485 -33.313  1.00  0.00     0.039 C 
ATOM      9  C   UNL     1     -22.736  19.993 -32.145  1.00  0.00     0.012 C 
ENDBRANCH   6   8
ENDBRANCH   5   6
ENDBRANCH   1   5
TORSDOF 5
ENDMDL
MODEL 2
REMARK VINA RESULT:    -4.241      1.809      4.322
REMARK INTER + INTRA:          -5.761
REMARK INTER:                  -5.470
REMARK INTRA:                  -0.291
REMARK UNBOUND:                -0.280
REMARK SMILES C=CC(=O)CCCCC
REMARK SMILES IDX 6 1 7 2 8 3 9 4 5 5 3 6 4 7 2 8 1 9
REMARK H PARENT
REMARK Flexibility Score: inf
ROOT
ATOM      1  C   UNL     1     -24.937  19.901 -34.757  1.00  0.00     0.008 C 
ENDROOT
BRANCH   1   2
ATOM      2  C   UNL     1     -23.481  19.673 -34.335  1.00  0.00     0.000 C 
BRANCH   2   3
ATOM      3  C   UNL     1     -23.065  20.659 -33.238  1.00  0.00    -0.003 C 
ATOM      4  C   UNL     1     -22.673  19.926 -31.958  1.00  0.00     0.004 C 
ENDBRANCH   2   3
ENDBRANCH   1   2
BRANCH   1   5
ATOM      5  C   UNL     1     -25.901  19.151 -33.831  1.00  0.00     0.080 C 
BRANCH   5   6
ATOM      6  C   UNL     1     -27.278  19.740 -33.916  1.00  0.00     0.155 C 
ATOM      7  O   UNL     1     -28.274  19.028 -33.615  1.00  0.00    -0.295 OA
BRANCH   6   8
ATOM      8  C   UNL     1     -27.455  21.153 -34.305  1.00  0.00     0.039 C 
ATOM      9  C   UNL     1     -27.673  22.119 -33.414  1.00  0.00     0.012 C 
ENDBRANCH   6   8
ENDBRANCH   5   6
ENDBRANCH   1   5
TORSDOF 5
ENDMDL
MODEL 3
REMARK VINA RESULT:    -4.071      1.975      4.307
REMARK INTER + INTRA:          -5.540
REMARK INTER:                  -5.113
REMARK INTRA:                  -0.427
REMARK UNBOUND:                -0.280
REMARK SMILES C=CC(=O)CCCCC
REMARK SMILES IDX 6 1 7 2 8 3 9 4 5 5 3 6 4 7 2 8 1 9
REMARK H PARENT
REMARK Flexibility Score: inf
ROOT
ATOM      1  C   UNL     1     -24.159  19.436 -34.666  1.00  0.00     0.008 C 
ENDROOT
BRANCH   1   2
ATOM      2  C   UNL     1     -23.462  20.378 -33.677  1.00  0.00     0.000 C 
BRANCH   2   3
ATOM      3  C   UNL     1     -22.935  19.606 -32.462  1.00  0.00    -0.003 C 
ATOM      4  C   UNL     1     -23.552  18.212 -32.385  1.00  0.00     0.004 C 
ENDBRANCH   2   3
ENDBRANCH   1   2
BRANCH   1   5
ATOM      5  C   UNL     1     -25.443  20.069 -35.215  1.00  0.00     0.080 C 
BRANCH   5   6
ATOM      6  C   UNL     1     -26.514  20.082 -34.166  1.00  0.00     0.155 C 
ATOM      7  O   UNL     1     -27.045  21.179 -33.840  1.00  0.00    -0.295 OA
BRANCH   6   8
ATOM      8  C   UNL     1     -26.969  18.817 -33.557  1.00  0.00     0.039 C 
ATOM      9  C   UNL     1     -28.241  18.423 -33.591  1.00  0.00     0.012 C 
ENDBRANCH   6   8
ENDBRANCH   5   6
ENDBRANCH   1   5
TORSDOF 5
ENDMDL
MODEL 4
REMARK VINA RESULT:    -4.006      0.895      1.724
REMARK INTER + INTRA:          -5.457
REMARK INTER:                  -5.248
REMARK INTRA:                  -0.210
REMARK UNBOUND:                -0.280
REMARK SMILES C=CC(=O)CCCCC
REMARK SMILES IDX 6 1 7 2 8 3 9 4 5 5 3 6 4 7 2 8 1 9
REMARK H PARENT
REMARK Flexibility Score: inf
ROOT
ATOM      1  C   UNL     1     -26.302  19.341 -33.924  1.00  0.00     0.008 C 
ENDROOT
BRANCH   1   2
ATOM      2  C   UNL     1     -27.627  20.114 -33.940  1.00  0.00     0.000 C 
BRANCH   2   3
ATOM      3  C   UNL     1     -28.821  19.157 -33.865  1.00  0.00    -0.003 C 
ATOM      4  C   UNL     1     -28.378  17.750 -33.472  1.00  0.00     0.004 C 
ENDBRANCH   2   3
ENDBRANCH   1   2
BRANCH   1   5
ATOM      5  C   UNL     1     -25.285  19.973 -34.880  1.00  0.00     0.080 C 
BRANCH   5   6
ATOM      6  C   UNL     1     -23.885  19.690 -34.422  1.00  0.00     0.155 C 
ATOM      7  O   UNL     1     -23.233  18.758 -34.968  1.00  0.00    -0.295 OA
BRANCH   6   8
ATOM      8  C   UNL     1     -23.267  20.525 -33.374  1.00  0.00     0.039 C 
ATOM      9  C   UNL     1     -22.731  20.007 -32.270  1.00  0.00     0.012 C 
ENDBRANCH   6   8
ENDBRANCH   5   6
ENDBRANCH   1   5
TORSDOF 5
ENDMDL
MODEL 5
REMARK VINA RESULT:    -3.869      8.849      9.732
REMARK INTER + INTRA:          -5.279
REMARK INTER:                  -4.684
REMARK INTRA:                  -0.595
REMARK UNBOUND:                -0.280
REMARK SMILES C=CC(=O)CCCCC
REMARK SMILES IDX 6 1 7 2 8 3 9 4 5 5 3 6 4 7 2 8 1 9
REMARK H PARENT
REMARK Flexibility Score: inf
ROOT
ATOM      1  C   UNL     1     -27.845  10.743 -28.203  1.00  0.00     0.008 C 
ENDROOT
BRANCH   1   2
ATOM      2  C   UNL     1     -28.536  12.103 -28.355  1.00  0.00     0.000 C 
BRANCH   2   3
ATOM      3  C   UNL     1     -29.728  12.008 -29.314  1.00  0.00    -0.003 C 
ATOM      4  C   UNL     1     -29.461  12.779 -30.604  1.00  0.00     0.004 C 
ENDBRANCH   2   3
ENDBRANCH   1   2
BRANCH   1   5
ATOM      5  C   UNL     1     -26.330  10.871 -28.395  1.00  0.00     0.080 C 
BRANCH   5   6
ATOM      6  C   UNL     1     -26.012  11.305 -29.795  1.00  0.00     0.155 C 
ATOM      7  O   UNL     1     -26.434  10.619 -30.766  1.00  0.00    -0.295 OA
BRANCH   6   8
ATOM      8  C   UNL     1     -25.250  12.547 -30.030  1.00  0.00     0.039 C 
ATOM      9  C   UNL     1     -25.830  13.679 -30.424  1.00  0.00     0.012 C 
ENDBRANCH   6   8
ENDBRANCH   5   6
ENDBRANCH   1   5
TORSDOF 5
ENDMDL
MODEL 6
REMARK VINA RESULT:    -3.670     11.555     13.181
REMARK INTER + INTRA:          -5.022
REMARK INTER:                  -4.464
REMARK INTRA:                  -0.558
REMARK UNBOUND:                -0.280
REMARK SMILES C=CC(=O)CCCCC
REMARK SMILES IDX 6 1 7 2 8 3 9 4 5 5 3 6 4 7 2 8 1 9
REMARK H PARENT
REMARK Flexibility Score: inf
ROOT
ATOM      1  C   UNL     1     -14.584  14.889 -31.236  1.00  0.00     0.008 C 
ENDROOT
BRANCH   1   2
ATOM      2  C   UNL     1     -13.301  14.359 -30.583  1.00  0.00     0.000 C 
BRANCH   2   3
ATOM      3  C   UNL     1     -12.272  13.955 -31.644  1.00  0.00    -0.003 C 
ATOM      4  C   UNL     1     -12.946  13.290 -32.841  1.00  0.00     0.004 C 
ENDBRANCH   2   3
ENDBRANCH   1   2
BRANCH   1   5
ATOM      5  C   UNL     1     -15.828  14.320 -30.545  1.00  0.00     0.080 C 
BRANCH   5   6
ATOM      6  C   UNL     1     -16.434  13.225 -31.371  1.00  0.00     0.155 C 
ATOM      7  O   UNL     1     -16.958  13.506 -32.483  1.00  0.00    -0.295 OA
BRANCH   6   8
ATOM      8  C   UNL     1     -16.374  11.826 -30.901  1.00  0.00     0.039 C 
ATOM      9  C   UNL     1     -15.267  11.091 -30.983  1.00  0.00     0.012 C 
ENDBRANCH   6   8
ENDBRANCH   5   6
ENDBRANCH   1   5
TORSDOF 5
ENDMDL
MODEL 7
REMARK VINA RESULT:    -3.568      9.142     10.388
REMARK INTER + INTRA:          -4.891
REMARK INTER:                  -4.468
REMARK INTRA:                  -0.423
REMARK UNBOUND:                -0.280
REMARK SMILES C=CC(=O)CCCCC
REMARK SMILES IDX 6 1 7 2 8 3 9 4 5 5 3 6 4 7 2 8 1 9
REMARK H PARENT
REMARK Flexibility Score: inf
ROOT
ATOM      1  C   UNL     1     -26.272  11.397 -30.462  1.00  0.00     0.008 C 
ENDROOT
BRANCH   1   2
ATOM      2  C   UNL     1     -24.852  11.790 -30.037  1.00  0.00     0.000 C 
BRANCH   2   3
ATOM      3  C   UNL     1     -24.624  13.296 -30.208  1.00  0.00    -0.003 C 
ATOM      4  C   UNL     1     -25.923  14.013 -30.564  1.00  0.00     0.004 C 
ENDBRANCH   2   3
ENDBRANCH   1   2
BRANCH   1   5
ATOM      5  C   UNL     1     -26.775  10.195 -29.656  1.00  0.00     0.080 C 
BRANCH   5   6
ATOM      6  C   UNL     1     -27.545  10.653 -28.453  1.00  0.00     0.155 C 
ATOM      7  O   UNL     1     -27.566   9.929 -27.420  1.00  0.00    -0.295 OA
BRANCH   6   8
ATOM      8  C   UNL     1     -28.233  11.959 -28.469  1.00  0.00     0.039 C 
ATOM      9  C   UNL     1     -29.518  12.087 -28.795  1.00  0.00     0.012 C 
ENDBRANCH   6   8
ENDBRANCH   5   6
ENDBRANCH   1   5
TORSDOF 5
ENDMDL
MODEL 8
REMARK VINA RESULT:    -3.555     11.445     12.167
REMARK INTER + INTRA:          -4.874
REMARK INTER:                  -4.386
REMARK INTRA:                  -0.488
REMARK UNBOUND:                -0.280
REMARK SMILES C=CC(=O)CCCCC
REMARK SMILES IDX 6 1 7 2 8 3 9 4 5 5 3 6 4 7 2 8 1 9
REMARK H PARENT
REMARK Flexibility Score: inf
ROOT
ATOM      1  C   UNL     1     -16.893  12.911 -32.058  1.00  0.00     0.008 C 
ENDROOT
BRANCH   1   2
ATOM      2  C   UNL     1     -17.967  12.228 -31.204  1.00  0.00     0.000 C 
BRANCH   2   3
ATOM      3  C   UNL     1     -17.503  12.084 -29.750  1.00  0.00    -0.003 C 
ATOM      4  C   UNL     1     -17.455  13.439 -29.050  1.00  0.00     0.004 C 
ENDBRANCH   2   3
ENDBRANCH   1   2
BRANCH   1   5
ATOM      5  C   UNL     1     -15.579  12.122 -32.025  1.00  0.00     0.080 C 
BRANCH   5   6
ATOM      6  C   UNL     1     -14.405  13.055 -32.019  1.00  0.00     0.155 C 
ATOM      7  O   UNL     1     -13.678  13.139 -33.046  1.00  0.00    -0.295 OA
BRANCH   6   8
ATOM      8  C   UNL     1     -14.135  13.896 -30.837  1.00  0.00     0.039 C 
ATOM      9  C   UNL     1     -14.342  15.212 -30.832  1.00  0.00     0.012 C 
ENDBRANCH   6   8
ENDBRANCH   5   6
ENDBRANCH   1   5
TORSDOF 5
ENDMDL
MODEL 9
REMARK VINA RESULT:    -3.527     11.545     12.740
REMARK INTER + INTRA:          -4.837
REMARK INTER:                  -4.271
REMARK INTRA:                  -0.566
REMARK UNBOUND:                -0.280
REMARK SMILES C=CC(=O)CCCCC
REMARK SMILES IDX 6 1 7 2 8 3 9 4 5 5 3 6 4 7 2 8 1 9
REMARK H PARENT
REMARK Flexibility Score: inf
ROOT
ATOM      1  C   UNL     1     -14.299  12.166 -31.553  1.00  0.00     0.008 C 
ENDROOT
BRANCH   1   2
ATOM      2  C   UNL     1     -13.397  13.370 -31.844  1.00  0.00     0.000 C 
BRANCH   2   3
ATOM      3  C   UNL     1     -13.397  14.354 -30.669  1.00  0.00    -0.003 C 
ATOM      4  C   UNL     1     -14.423  15.464 -30.880  1.00  0.00     0.004 C 
ENDBRANCH   2   3
ENDBRANCH   1   2
BRANCH   1   5
ATOM      5  C   UNL     1     -15.599  12.244 -32.362  1.00  0.00     0.080 C 
BRANCH   5   6
ATOM      6  C   UNL     1     -16.761  12.546 -31.463  1.00  0.00     0.155 C 
ATOM      7  O   UNL     1     -17.895  12.764 -31.971  1.00  0.00    -0.295 OA
BRANCH   6   8
ATOM      8  C   UNL     1     -16.583  12.542 -29.998  1.00  0.00     0.039 C 
ATOM      9  C   UNL     1     -17.243  13.374 -29.195  1.00  0.00     0.012 C 
ENDBRANCH   6   8
ENDBRANCH   5   6
ENDBRANCH   1   5
TORSDOF 5
ENDMDL
