MODEL 1
REMARK VINA RESULT:    -5.267      0.000      0.000
REMARK INTER + INTRA:          -5.421
REMARK INTER:                  -5.421
REMARK INTRA:                   0.000
REMARK UNBOUND:                 0.000
REMARK SMILES Cc1cccc(O)c1C
REMARK SMILES IDX 1 1 2 2 8 3 6 4 5 5 4 6 3 7 9 8 7 9
REMARK H PARENT 7 10
REMARK Flexibility Score: inf
ROOT
ATOM      1  C   UNL     1     -13.994   4.560  -8.513  1.00  0.00     0.045 C 
ATOM      2  C   UNL     1     -13.745   3.135  -8.932  1.00  0.00    -0.045 A 
ATOM      3  C   UNL     1     -12.453   2.542  -8.861  1.00  0.00    -0.006 A 
ATOM      4  C   UNL     1     -12.292   1.194  -9.271  1.00  0.00     0.118 A 
ATOM      5  C   UNL     1     -13.391   0.467  -9.738  1.00  0.00     0.046 A 
ATOM      6  C   UNL     1     -14.651   1.054  -9.805  1.00  0.00     0.004 A 
ATOM      7  C   UNL     1     -14.829   2.376  -9.406  1.00  0.00     0.004 A 
ATOM      8  C   UNL     1     -11.251   3.309  -8.359  1.00  0.00     0.048 C 
ENDROOT
BRANCH   4   9
ATOM      9  O   UNL     1     -11.054   0.546  -9.229  1.00  0.00    -0.508 OA
ATOM     10  H   UNL     1     -10.718  -0.061  -9.965  1.00  0.00     0.293 HD
ENDBRANCH   4   9
TORSDOF 1
ENDMDL
MODEL 2
REMARK VINA RESULT:    -4.822      1.951      3.272
REMARK INTER + INTRA:          -4.963
REMARK INTER:                  -4.963
REMARK INTRA:                   0.000
REMARK UNBOUND:                 0.000
REMARK SMILES Cc1cccc(O)c1C
REMARK SMILES IDX 1 1 2 2 8 3 6 4 5 5 4 6 3 7 9 8 7 9
REMARK H PARENT 7 10
REMARK Flexibility Score: inf
ROOT
ATOM      1  C   UNL     1     -12.499   2.747  -8.890  1.00  0.00     0.045 C 
ATOM      2  C   UNL     1     -12.625   1.341  -9.415  1.00  0.00    -0.045 A 
ATOM      3  C   UNL     1     -13.861   0.821  -9.891  1.00  0.00    -0.006 A 
ATOM      4  C   UNL     1     -13.907  -0.512 -10.372  1.00  0.00     0.118 A 
ATOM      5  C   UNL     1     -12.749  -1.297 -10.375  1.00  0.00     0.046 A 
ATOM      6  C   UNL     1     -11.545  -0.781  -9.908  1.00  0.00     0.004 A 
ATOM      7  C   UNL     1     -11.480   0.526  -9.432  1.00  0.00     0.004 A 
ATOM      8  C   UNL     1     -15.125   1.651  -9.897  1.00  0.00     0.048 C 
ENDROOT
BRANCH   4   9
ATOM      9  O   UNL     1     -15.085  -1.090 -10.854  1.00  0.00    -0.508 OA
ATOM     10  H   UNL     1     -15.310  -1.158 -11.838  1.00  0.00     0.293 HD
ENDBRANCH   4   9
TORSDOF 1
ENDMDL
MODEL 3
REMARK VINA RESULT:    -4.618     15.623     16.563
REMARK INTER + INTRA:          -4.753
REMARK INTER:                  -4.753
REMARK INTRA:                   0.000
REMARK UNBOUND:                 0.000
REMARK SMILES Cc1cccc(O)c1C
REMARK SMILES IDX 1 1 2 2 8 3 6 4 5 5 4 6 3 7 9 8 7 9
REMARK H PARENT 7 10
REMARK Flexibility Score: inf
ROOT
ATOM      1  C   UNL     1     -12.030   7.384   6.493  1.00  0.00     0.045 C 
ATOM      2  C   UNL     1     -11.654   6.021   7.012  1.00  0.00    -0.045 A 
ATOM      3  C   UNL     1     -11.861   4.838   6.249  1.00  0.00    -0.006 A 
ATOM      4  C   UNL     1     -11.482   3.588   6.801  1.00  0.00     0.118 A 
ATOM      5  C   UNL     1     -10.915   3.529   8.078  1.00  0.00     0.046 A 
ATOM      6  C   UNL     1     -10.715   4.689   8.818  1.00  0.00     0.004 A 
ATOM      7  C   UNL     1     -11.080   5.926   8.292  1.00  0.00     0.004 A 
ATOM      8  C   UNL     1     -12.473   4.879   4.868  1.00  0.00     0.048 C 
ENDROOT
BRANCH   4   9
ATOM      9  O   UNL     1     -11.656   2.386   6.111  1.00  0.00    -0.508 OA
ATOM     10  H   UNL     1     -12.042   1.551   6.532  1.00  0.00     0.293 HD
ENDBRANCH   4   9
TORSDOF 1
ENDMDL
MODEL 4
REMARK VINA RESULT:    -4.581      7.524      8.912
REMARK INTER + INTRA:          -4.715
REMARK INTER:                  -4.715
REMARK INTRA:                   0.000
REMARK UNBOUND:                 0.000
REMARK SMILES Cc1cccc(O)c1C
REMARK SMILES IDX 1 1 2 2 8 3 6 4 5 5 4 6 3 7 9 8 7 9
REMARK H PARENT 7 10
REMARK Flexibility Score: inf
ROOT
ATOM      1  C   UNL     1     -11.774  -5.904  -5.009  1.00  0.00     0.045 C 
ATOM      2  C   UNL     1     -11.642  -6.356  -6.439  1.00  0.00    -0.045 A 
ATOM      3  C   UNL     1     -11.113  -5.510  -7.454  1.00  0.00    -0.006 A 
ATOM      4  C   UNL     1     -11.018  -6.003  -8.780  1.00  0.00     0.118 A 
ATOM      5  C   UNL     1     -11.441  -7.302  -9.078  1.00  0.00     0.046 A 
ATOM      6  C   UNL     1     -11.957  -8.123  -8.081  1.00  0.00     0.004 A 
ATOM      7  C   UNL     1     -12.058  -7.657  -6.772  1.00  0.00     0.004 A 
ATOM      8  C   UNL     1     -10.650  -4.103  -7.155  1.00  0.00     0.048 C 
ENDROOT
BRANCH   4   9
ATOM      9  O   UNL     1     -10.509  -5.229  -9.827  1.00  0.00    -0.508 OA
ATOM     10  H   UNL     1     -11.079  -4.863 -10.578  1.00  0.00     0.293 HD
ENDBRANCH   4   9
TORSDOF 1
ENDMDL
MODEL 5
REMARK VINA RESULT:    -4.541     15.601     16.546
REMARK INTER + INTRA:          -4.674
REMARK INTER:                  -4.674
REMARK INTRA:                   0.000
REMARK UNBOUND:                 0.000
REMARK SMILES Cc1cccc(O)c1C
REMARK SMILES IDX 1 1 2 2 8 3 6 4 5 5 4 6 3 7 9 8 7 9
REMARK H PARENT 7 10
REMARK Flexibility Score: inf
ROOT
ATOM      1  C   UNL     1      -9.050   6.650   6.894  1.00  0.00     0.045 C 
ATOM      2  C   UNL     1     -10.103   5.609   6.621  1.00  0.00    -0.045 A 
ATOM      3  C   UNL     1     -10.795   4.941   7.669  1.00  0.00    -0.006 A 
ATOM      4  C   UNL     1     -11.776   3.971   7.338  1.00  0.00     0.118 A 
ATOM      5  C   UNL     1     -12.050   3.681   5.998  1.00  0.00     0.046 A 
ATOM      6  C   UNL     1     -11.369   4.337   4.978  1.00  0.00     0.004 A 
ATOM      7  C   UNL     1     -10.404   5.294   5.284  1.00  0.00     0.004 A 
ATOM      8  C   UNL     1     -10.515   5.239   9.125  1.00  0.00     0.048 C 
ENDROOT
BRANCH   4   9
ATOM      9  O   UNL     1     -12.495   3.276   8.314  1.00  0.00    -0.508 OA
ATOM     10  H   UNL     1     -12.067   2.643   8.977  1.00  0.00     0.293 HD
ENDBRANCH   4   9
TORSDOF 1
ENDMDL
MODEL 6
REMARK VINA RESULT:    -4.519     16.039     16.983
REMARK INTER + INTRA:          -4.651
REMARK INTER:                  -4.651
REMARK INTRA:                   0.000
REMARK UNBOUND:                 0.000
REMARK SMILES Cc1cccc(O)c1C
REMARK SMILES IDX 1 1 2 2 8 3 6 4 5 5 4 6 3 7 9 8 7 9
REMARK H PARENT 7 10
REMARK Flexibility Score: inf
ROOT
ATOM      1  C   UNL     1     -12.118   4.241   5.009  1.00  0.00     0.045 C 
ATOM      2  C   UNL     1     -11.645   4.500   6.416  1.00  0.00    -0.045 A 
ATOM      3  C   UNL     1     -10.566   5.384   6.699  1.00  0.00    -0.006 A 
ATOM      4  C   UNL     1     -10.175   5.580   8.048  1.00  0.00     0.118 A 
ATOM      5  C   UNL     1     -10.843   4.910   9.077  1.00  0.00     0.046 A 
ATOM      6  C   UNL     1     -11.897   4.048   8.792  1.00  0.00     0.004 A 
ATOM      7  C   UNL     1     -12.297   3.843   7.474  1.00  0.00     0.004 A 
ATOM      8  C   UNL     1      -9.829   6.118   5.603  1.00  0.00     0.048 C 
ENDROOT
BRANCH   4   9
ATOM      9  O   UNL     1      -9.125   6.432   8.402  1.00  0.00    -0.508 OA
ATOM     10  H   UNL     1      -8.329   6.615   7.805  1.00  0.00     0.293 HD
ENDBRANCH   4   9
TORSDOF 1
ENDMDL
MODEL 7
REMARK VINA RESULT:    -4.454      7.537      8.820
REMARK INTER + INTRA:          -4.584
REMARK INTER:                  -4.584
REMARK INTRA:                   0.000
REMARK UNBOUND:                 0.000
REMARK SMILES Cc1cccc(O)c1C
REMARK SMILES IDX 1 1 2 2 8 3 6 4 5 5 4 6 3 7 9 8 7 9
REMARK H PARENT 7 10
REMARK Flexibility Score: inf
ROOT
ATOM      1  C   UNL     1     -11.763  -5.896  -5.041  1.00  0.00     0.045 C 
ATOM      2  C   UNL     1     -11.380  -5.641  -6.475  1.00  0.00    -0.045 A 
ATOM      3  C   UNL     1     -11.760  -6.520  -7.527  1.00  0.00    -0.006 A 
ATOM      4  C   UNL     1     -11.364  -6.217  -8.855  1.00  0.00     0.118 A 
ATOM      5  C   UNL     1     -10.609  -5.069  -9.116  1.00  0.00     0.046 A 
ATOM      6  C   UNL     1     -10.241  -4.214  -8.082  1.00  0.00     0.004 A 
ATOM      7  C   UNL     1     -10.622  -4.495  -6.772  1.00  0.00     0.004 A 
ATOM      8  C   UNL     1     -12.574  -7.767  -7.268  1.00  0.00     0.048 C 
ENDROOT
BRANCH   4   9
ATOM      9  O   UNL     1     -11.700  -7.034  -9.937  1.00  0.00    -0.508 OA
ATOM     10  H   UNL     1     -11.307  -6.923 -10.863  1.00  0.00     0.293 HD
ENDBRANCH   4   9
TORSDOF 1
ENDMDL
MODEL 8
REMARK VINA RESULT:    -4.381      7.326      8.722
REMARK INTER + INTRA:          -4.509
REMARK INTER:                  -4.509
REMARK INTRA:                   0.000
REMARK UNBOUND:                 0.000
REMARK SMILES Cc1cccc(O)c1C
REMARK SMILES IDX 1 1 2 2 8 3 6 4 5 5 4 6 3 7 9 8 7 9
REMARK H PARENT 7 10
REMARK Flexibility Score: inf
ROOT
ATOM      1  C   UNL     1     -14.005  -6.521  -8.521  1.00  0.00     0.045 C 
ATOM      2  C   UNL     1     -12.989  -6.298  -7.431  1.00  0.00    -0.045 A 
ATOM      3  C   UNL     1     -11.855  -5.459  -7.616  1.00  0.00    -0.006 A 
ATOM      4  C   UNL     1     -10.939  -5.295  -6.546  1.00  0.00     0.118 A 
ATOM      5  C   UNL     1     -11.155  -5.953  -5.331  1.00  0.00     0.046 A 
ATOM      6  C   UNL     1     -12.266  -6.772  -5.158  1.00  0.00     0.004 A 
ATOM      7  C   UNL     1     -13.177  -6.945  -6.197  1.00  0.00     0.004 A 
ATOM      8  C   UNL     1     -11.601  -4.739  -8.920  1.00  0.00     0.048 C 
ENDROOT
BRANCH   4   9
ATOM      9  O   UNL     1      -9.804  -4.487  -6.655  1.00  0.00    -0.508 OA
ATOM     10  H   UNL     1      -9.679  -3.628  -6.136  1.00  0.00     0.293 HD
ENDBRANCH   4   9
TORSDOF 1
ENDMDL
MODEL 9
REMARK VINA RESULT:    -4.363     15.691     16.468
REMARK INTER + INTRA:          -4.491
REMARK INTER:                  -4.491
REMARK INTRA:                   0.000
REMARK UNBOUND:                 0.000
REMARK SMILES Cc1cccc(O)c1C
REMARK SMILES IDX 1 1 2 2 8 3 6 4 5 5 4 6 3 7 9 8 7 9
REMARK H PARENT 7 10
REMARK Flexibility Score: inf
ROOT
ATOM      1  C   UNL     1     -12.947   6.258   9.100  1.00  0.00     0.045 C 
ATOM      2  C   UNL     1     -12.722   5.577   7.776  1.00  0.00    -0.045 A 
ATOM      3  C   UNL     1     -12.190   4.260   7.685  1.00  0.00    -0.006 A 
ATOM      4  C   UNL     1     -12.004   3.680   6.404  1.00  0.00     0.118 A 
ATOM      5  C   UNL     1     -12.341   4.399   5.253  1.00  0.00     0.046 A 
ATOM      6  C   UNL     1     -12.860   5.686   5.350  1.00  0.00     0.004 A 
ATOM      7  C   UNL     1     -13.050   6.272   6.599  1.00  0.00     0.004 A 
ATOM      8  C   UNL     1     -11.818   3.464   8.915  1.00  0.00     0.048 C 
ENDROOT
BRANCH   4   9
ATOM      9  O   UNL     1     -11.487   2.392   6.237  1.00  0.00    -0.508 OA
ATOM     10  H   UNL     1     -10.546   2.131   6.500  1.00  0.00     0.293 HD
ENDBRANCH   4   9
TORSDOF 1
ENDMDL
