MODEL 1
REMARK VINA RESULT:    -4.183      0.000      0.000
REMARK INTER + INTRA:          -5.289
REMARK INTER:                  -5.161
REMARK INTRA:                  -0.129
REMARK UNBOUND:                -0.129
REMARK SMILES CCCCCC(=O)[O-]
REMARK SMILES IDX 4 1 5 2 6 3 7 4 8 5 3 6 2 7 1 8
REMARK H PARENT
REMARK Flexibility Score: inf
ROOT
ATOM      1  C   UNL     1       1.667   7.036  21.717  1.00  0.00     0.006 C 
ENDROOT
BRANCH   1   2
ATOM      2  C   UNL     1       0.758   7.422  20.545  1.00  0.00     0.053 C 
BRANCH   2   3
ATOM      3  C   UNL     1       1.369   8.532  19.751  1.00  0.00     0.041 C 
ATOM      4  O   UNL     1       1.000   8.741  18.566  1.00  0.00    -0.550 OA
ATOM      5  O   UNL     1       2.383   9.306  20.304  1.00  0.00    -0.550 OA
ENDBRANCH   2   3
ENDBRANCH   1   2
BRANCH   1   6
ATOM      6  C   UNL     1       0.843   6.682  22.959  1.00  0.00     0.000 C 
BRANCH   6   7
ATOM      7  C   UNL     1      -0.659   6.731  22.656  1.00  0.00    -0.003 C 
ATOM      8  C   UNL     1      -1.484   6.656  23.937  1.00  0.00     0.004 C 
ENDBRANCH   6   7
ENDBRANCH   1   6
TORSDOF 4
ENDMDL
MODEL 2
REMARK VINA RESULT:    -4.094      2.699      4.678
REMARK INTER + INTRA:          -5.180
REMARK INTER:                  -5.122
REMARK INTRA:                  -0.059
REMARK UNBOUND:                -0.129
REMARK SMILES CCCCCC(=O)[O-]
REMARK SMILES IDX 4 1 5 2 6 3 7 4 8 5 3 6 2 7 1 8
REMARK H PARENT
REMARK Flexibility Score: inf
ROOT
ATOM      1  C   UNL     1       1.006   7.400  20.477  1.00  0.00     0.006 C 
ENDROOT
BRANCH   1   2
ATOM      2  C   UNL     1      -0.333   7.070  21.144  1.00  0.00     0.053 C 
BRANCH   2   3
ATOM      3  C   UNL     1      -0.140   6.792  22.601  1.00  0.00     0.041 C 
ATOM      4  O   UNL     1       1.012   6.563  23.055  1.00  0.00    -0.550 OA
ATOM      5  O   UNL     1      -1.239   6.737  23.449  1.00  0.00    -0.550 OA
ENDBRANCH   2   3
ENDBRANCH   1   2
BRANCH   1   6
ATOM      6  C   UNL     1       0.875   8.614  19.552  1.00  0.00     0.000 C 
BRANCH   6   7
ATOM      7  C   UNL     1       1.117   8.220  18.090  1.00  0.00    -0.003 C 
ATOM      8  C   UNL     1       2.022   9.228  17.389  1.00  0.00     0.004 C 
ENDBRANCH   6   7
ENDBRANCH   1   6
TORSDOF 4
ENDMDL
MODEL 3
REMARK VINA RESULT:    -4.059      2.578      4.959
REMARK INTER + INTRA:          -5.137
REMARK INTER:                  -5.074
REMARK INTRA:                  -0.063
REMARK UNBOUND:                -0.129
REMARK SMILES CCCCCC(=O)[O-]
REMARK SMILES IDX 4 1 5 2 6 3 7 4 8 5 3 6 2 7 1 8
REMARK H PARENT
REMARK Flexibility Score: inf
ROOT
ATOM      1  C   UNL     1       0.941   8.484  19.425  1.00  0.00     0.006 C 
ENDROOT
BRANCH   1   2
ATOM      2  C   UNL     1       0.112   7.355  20.045  1.00  0.00     0.053 C 
BRANCH   2   3
ATOM      3  C   UNL     1       0.613   7.028  21.416  1.00  0.00     0.041 C 
ATOM      4  O   UNL     1       1.849   7.024  21.654  1.00  0.00    -0.550 OA
ATOM      5  O   UNL     1      -0.283   6.678  22.418  1.00  0.00    -0.550 OA
ENDBRANCH   2   3
ENDBRANCH   1   2
BRANCH   1   6
ATOM      6  C   UNL     1       1.146   8.255  17.924  1.00  0.00     0.000 C 
BRANCH   6   7
ATOM      7  C   UNL     1       2.120   9.284  17.338  1.00  0.00    -0.003 C 
ATOM      8  C   UNL     1       1.483  10.052  16.184  1.00  0.00     0.004 C 
ENDBRANCH   6   7
ENDBRANCH   1   6
TORSDOF 4
ENDMDL
MODEL 4
REMARK VINA RESULT:    -3.715      2.397      2.991
REMARK INTER + INTRA:          -4.713
REMARK INTER:                  -4.634
REMARK INTRA:                  -0.079
REMARK UNBOUND:                -0.129
REMARK SMILES CCCCCC(=O)[O-]
REMARK SMILES IDX 4 1 5 2 6 3 7 4 8 5 3 6 2 7 1 8
REMARK H PARENT
REMARK Flexibility Score: inf
ROOT
ATOM      1  C   UNL     1       0.339   7.298  19.474  1.00  0.00     0.006 C 
ENDROOT
BRANCH   1   2
ATOM      2  C   UNL     1      -0.011   5.953  18.830  1.00  0.00     0.053 C 
BRANCH   2   3
ATOM      3  C   UNL     1       0.200   6.010  17.350  1.00  0.00     0.041 C 
ATOM      4  O   UNL     1      -0.306   5.132  16.603  1.00  0.00    -0.550 OA
ATOM      5  O   UNL     1       0.998   7.006  16.800  1.00  0.00    -0.550 OA
ENDBRANCH   2   3
ENDBRANCH   1   2
BRANCH   1   6
ATOM      6  C   UNL     1       0.743   7.117  20.941  1.00  0.00     0.000 C 
BRANCH   6   7
ATOM      7  C   UNL     1      -0.492   6.969  21.838  1.00  0.00    -0.003 C 
ATOM      8  C   UNL     1      -0.106   6.479  23.231  1.00  0.00     0.004 C 
ENDBRANCH   6   7
ENDBRANCH   1   6
TORSDOF 4
ENDMDL
MODEL 5
REMARK VINA RESULT:    -3.709      2.083      2.843
REMARK INTER + INTRA:          -4.705
REMARK INTER:                  -4.578
REMARK INTRA:                  -0.127
REMARK UNBOUND:                -0.129
REMARK SMILES CCCCCC(=O)[O-]
REMARK SMILES IDX 4 1 5 2 6 3 7 4 8 5 3 6 2 7 1 8
REMARK H PARENT
REMARK Flexibility Score: inf
ROOT
ATOM      1  C   UNL     1       0.526   8.643  19.592  1.00  0.00     0.006 C 
ENDROOT
BRANCH   1   2
ATOM      2  C   UNL     1       1.773   8.866  18.730  1.00  0.00     0.053 C 
BRANCH   2   3
ATOM      3  C   UNL     1       1.426   8.794  17.277  1.00  0.00     0.041 C 
ATOM      4  O   UNL     1       1.628   7.735  16.628  1.00  0.00    -0.550 OA
ATOM      5  O   UNL     1       0.924   9.915  16.626  1.00  0.00    -0.550 OA
ENDBRANCH   2   3
ENDBRANCH   1   2
BRANCH   1   6
ATOM      6  C   UNL     1       0.328   7.155  19.899  1.00  0.00     0.000 C 
BRANCH   6   7
ATOM      7  C   UNL     1      -0.003   6.938  21.380  1.00  0.00    -0.003 C 
ATOM      8  C   UNL     1       1.264   6.897  22.228  1.00  0.00     0.004 C 
ENDBRANCH   6   7
ENDBRANCH   1   6
TORSDOF 4
ENDMDL
MODEL 6
REMARK VINA RESULT:    -3.614     15.745     16.467
REMARK INTER + INTRA:          -4.588
REMARK INTER:                  -4.520
REMARK INTRA:                  -0.068
REMARK UNBOUND:                -0.129
REMARK SMILES CCCCCC(=O)[O-]
REMARK SMILES IDX 4 1 5 2 6 3 7 4 8 5 3 6 2 7 1 8
REMARK H PARENT
REMARK Flexibility Score: inf
ROOT
ATOM      1  C   UNL     1      -5.248  -3.879  11.532  1.00  0.00     0.006 C 
ENDROOT
BRANCH   1   2
ATOM      2  C   UNL     1      -4.419  -2.667  11.970  1.00  0.00     0.053 C 
BRANCH   2   3
ATOM      3  C   UNL     1      -4.398  -1.630  10.893  1.00  0.00     0.041 C 
ATOM      4  O   UNL     1      -5.127  -1.758   9.875  1.00  0.00    -0.550 OA
ATOM      5  O   UNL     1      -3.534  -0.546  10.990  1.00  0.00    -0.550 OA
ENDBRANCH   2   3
ENDBRANCH   1   2
BRANCH   1   6
ATOM      6  C   UNL     1      -4.346  -5.001  11.006  1.00  0.00     0.000 C 
BRANCH   6   7
ATOM      7  C   UNL     1      -5.174  -6.217  10.576  1.00  0.00    -0.003 C 
ATOM      8  C   UNL     1      -4.304  -7.259   9.881  1.00  0.00     0.004 C 
ENDBRANCH   6   7
ENDBRANCH   1   6
TORSDOF 4
ENDMDL
MODEL 7
REMARK VINA RESULT:    -3.586      3.191      5.714
REMARK INTER + INTRA:          -4.553
REMARK INTER:                  -4.404
REMARK INTRA:                  -0.149
REMARK UNBOUND:                -0.129
REMARK SMILES CCCCCC(=O)[O-]
REMARK SMILES IDX 4 1 5 2 6 3 7 4 8 5 3 6 2 7 1 8
REMARK H PARENT
REMARK Flexibility Score: inf
ROOT
ATOM      1  C   UNL     1       2.333   9.249  17.243  1.00  0.00     0.006 C 
ENDROOT
BRANCH   1   2
ATOM      2  C   UNL     1       1.088   8.580  17.834  1.00  0.00     0.053 C 
BRANCH   2   3
ATOM      3  C   UNL     1       1.162   8.562  19.328  1.00  0.00     0.041 C 
ATOM      4  O   UNL     1       0.219   8.073  20.003  1.00  0.00    -0.550 OA
ATOM      5  O   UNL     1       2.251   9.132  19.976  1.00  0.00    -0.550 OA
ENDBRANCH   2   3
ENDBRANCH   1   2
BRANCH   1   6
ATOM      6  C   UNL     1       1.947  10.330  16.227  1.00  0.00     0.000 C 
BRANCH   6   7
ATOM      7  C   UNL     1       0.443  10.296  15.932  1.00  0.00    -0.003 C 
ATOM      8  C   UNL     1       0.177  10.077  14.446  1.00  0.00     0.004 C 
ENDBRANCH   6   7
ENDBRANCH   1   6
TORSDOF 4
ENDMDL
MODEL 8
REMARK VINA RESULT:    -3.484      3.533      4.702
REMARK INTER + INTRA:          -4.427
REMARK INTER:                  -4.368
REMARK INTRA:                  -0.059
REMARK UNBOUND:                -0.129
REMARK SMILES CCCCCC(=O)[O-]
REMARK SMILES IDX 4 1 5 2 6 3 7 4 8 5 3 6 2 7 1 8
REMARK H PARENT
REMARK Flexibility Score: inf
ROOT
ATOM      1  C   UNL     1      -0.066   5.854  18.829  1.00  0.00     0.006 C 
ENDROOT
BRANCH   1   2
ATOM      2  C   UNL     1       0.322   7.214  19.418  1.00  0.00     0.053 C 
BRANCH   2   3
ATOM      3  C   UNL     1       0.507   7.111  20.899  1.00  0.00     0.041 C 
ATOM      4  O   UNL     1      -0.489   6.960  21.653  1.00  0.00    -0.550 OA
ATOM      5  O   UNL     1       1.777   7.232  21.450  1.00  0.00    -0.550 OA
ENDBRANCH   2   3
ENDBRANCH   1   2
BRANCH   1   6
ATOM      6  C   UNL     1       0.057   5.861  17.302  1.00  0.00     0.000 C 
BRANCH   6   7
ATOM      7  C   UNL     1      -0.666   4.658  16.686  1.00  0.00    -0.003 C 
ATOM      8  C   UNL     1      -2.008   5.068  16.087  1.00  0.00     0.004 C 
ENDBRANCH   6   7
ENDBRANCH   1   6
TORSDOF 4
ENDMDL
MODEL 9
REMARK VINA RESULT:    -3.447      6.928      7.667
REMARK INTER + INTRA:          -4.382
REMARK INTER:                  -4.185
REMARK INTRA:                  -0.196
REMARK UNBOUND:                -0.129
REMARK SMILES CCCCCC(=O)[O-]
REMARK SMILES IDX 4 1 5 2 6 3 7 4 8 5 3 6 2 7 1 8
REMARK H PARENT
REMARK Flexibility Score: inf
ROOT
ATOM      1  C   UNL     1      -3.287   4.980  15.800  1.00  0.00     0.006 C 
ENDROOT
BRANCH   1   2
ATOM      2  C   UNL     1      -1.919   4.391  15.444  1.00  0.00     0.053 C 
BRANCH   2   3
ATOM      3  C   UNL     1      -1.232   3.881  16.671  1.00  0.00     0.041 C 
ATOM      4  O   UNL     1      -0.491   4.643  17.345  1.00  0.00    -0.550 OA
ATOM      5  O   UNL     1      -1.370   2.549  17.042  1.00  0.00    -0.550 OA
ENDBRANCH   2   3
ENDBRANCH   1   2
BRANCH   1   6
ATOM      6  C   UNL     1      -4.419   4.040  15.373  1.00  0.00     0.000 C 
BRANCH   6   7
ATOM      7  C   UNL     1      -5.382   3.773  16.536  1.00  0.00    -0.003 C 
ATOM      8  C   UNL     1      -5.027   2.477  17.259  1.00  0.00     0.004 C 
ENDBRANCH   6   7
ENDBRANCH   1   6
TORSDOF 4
ENDMDL
