MODEL 1
REMARK VINA RESULT:    -3.073      0.000      0.000
REMARK INTER + INTRA:          -3.033
REMARK INTER:                  -3.791
REMARK INTRA:                   0.759
REMARK UNBOUND:                 0.759
REMARK SMILES CC1=CC=CC(C)(C)CC1=O
REMARK SMILES IDX 1 1 2 2 3 3 10 4 11 5 9 6 4 8 5 9 6 10 7 11 8 12
REMARK H PARENT
REMARK Flexibility Score: 80.00
ROOT
ATOM      1  C   UNL     1       7.641  18.412  15.936  1.00  0.00     0.048 C 
ATOM      2  C   UNL     1       6.176  18.316  15.574  1.00  0.00    -0.008 C 
ATOM      3  C   UNL     1       5.398  19.389  15.831  1.00  0.00     0.007 C 
ENDROOT
BRANCH   2   4
ATOM      4  C   UNL     1       5.728  17.076  14.895  1.00  0.00     0.159 C 
ATOM      5  O   UNL     1       6.597  16.251  14.497  1.00  0.00    -0.295 OA
BRANCH   4   6
ATOM      6  C   UNL     1       4.288  16.735  14.663  1.00  0.00     0.091 CG0
ATOM      7  G   UNL     1       3.533  17.805  13.843  1.00  0.00     0.000 G0
ENDBRANCH   4   6
ENDBRANCH   2   4
BRANCH   3   8
ATOM      8  C   UNL     1       3.955  19.602  15.569  1.00  0.00    -0.003 C 
ATOM      9  C   UNL     1       3.145  18.948  14.727  1.00  0.00    -0.020 C 
BRANCH   9  10
ATOM     10  C   UNL     1       3.521  17.784  13.841  1.00  0.00    -0.010 CG0
ATOM     11  C   UNL     1       4.317  18.290  12.615  1.00  0.00     0.016 C 
ATOM     12  C   UNL     1       2.221  17.125  13.327  1.00  0.00     0.016 C 
ATOM     13  G   UNL     1       4.300  16.734  14.664  1.00  0.00     0.000 G0
ENDBRANCH   9  10
ENDBRANCH   3   8
TORSDOF 0
ENDMDL
MODEL 2
REMARK VINA RESULT:    -3.043     14.126     15.839
REMARK INTER + INTRA:          -2.996
REMARK INTER:                  -3.745
REMARK INTRA:                   0.749
REMARK UNBOUND:                 0.759
REMARK SMILES CC1=CC=CC(C)(C)CC1=O
REMARK SMILES IDX 1 1 2 2 3 3 10 4 11 5 9 6 4 8 5 9 6 10 7 11 8 12
REMARK H PARENT
REMARK Flexibility Score: 80.00
ROOT
ATOM      1  C   UNL     1      12.516  27.818  15.114  1.00  0.00     0.048 C 
ATOM      2  C   UNL     1      13.909  28.312  14.799  1.00  0.00    -0.008 C 
ATOM      3  C   UNL     1      14.950  27.572  15.240  1.00  0.00     0.007 C 
ENDROOT
BRANCH   2   4
ATOM      4  C   UNL     1      14.020  29.533  13.964  1.00  0.00     0.159 C 
ATOM      5  O   UNL     1      12.987  29.971  13.387  1.00  0.00    -0.295 OA
BRANCH   4   6
ATOM      6  C   UNL     1      15.298  30.290  13.773  1.00  0.00     0.091 CG0
ATOM      7  G   UNL     1      16.415  29.446  13.120  1.00  0.00     0.000 G0
ENDBRANCH   4   6
ENDBRANCH   2   4
BRANCH   3   8
ATOM      8  C   UNL     1      16.406  27.782  15.067  1.00  0.00    -0.003 C 
ATOM      9  C   UNL     1      17.049  28.553  14.181  1.00  0.00    -0.020 C 
BRANCH   9  10
ATOM     10  C   UNL     1      16.414  29.438  13.136  1.00  0.00    -0.010 CG0
ATOM     11  C   UNL     1      15.918  28.580  11.949  1.00  0.00     0.016 C 
ATOM     12  C   UNL     1      17.493  30.410  12.604  1.00  0.00     0.016 C 
ATOM     13  G   UNL     1      15.287  30.276  13.778  1.00  0.00     0.000 G0
ENDBRANCH   9  10
ENDBRANCH   3   8
TORSDOF 0
ENDMDL
MODEL 3
REMARK VINA RESULT:    -3.000      2.255      3.921
REMARK INTER + INTRA:          -2.943
REMARK INTER:                  -3.692
REMARK INTRA:                   0.750
REMARK UNBOUND:                 0.759
REMARK SMILES CC1=CC=CC(C)(C)CC1=O
REMARK SMILES IDX 1 1 2 2 3 3 10 4 11 5 9 6 4 8 5 9 6 10 7 11 8 12
REMARK H PARENT
REMARK Flexibility Score: 80.00
ROOT
ATOM      1  C   UNL     1       3.191  19.829  14.960  1.00  0.00     0.048 C 
ATOM      2  C   UNL     1       4.388  18.914  15.075  1.00  0.00    -0.008 C 
ATOM      3  C   UNL     1       4.189  17.595  14.863  1.00  0.00     0.007 C 
ENDROOT
BRANCH   2   4
ATOM      4  C   UNL     1       5.702  19.549  15.340  1.00  0.00     0.159 C 
ATOM      5  O   UNL     1       5.801  20.804  15.247  1.00  0.00    -0.295 OA
BRANCH   4   6
ATOM      6  C   UNL     1       6.929  18.781  15.726  1.00  0.00     0.091 CG0
ATOM      7  G   UNL     1       7.352  17.737  14.670  1.00  0.00     0.000 G0
ENDBRANCH   4   6
ENDBRANCH   2   4
BRANCH   3   8
ATOM      8  C   UNL     1       5.156  16.473  14.879  1.00  0.00    -0.003 C 
ATOM      9  C   UNL     1       6.491  16.507  14.789  1.00  0.00    -0.020 C 
BRANCH   9  10
ATOM     10  C   UNL     1       7.351  17.744  14.672  1.00  0.00    -0.010 CG0
ATOM     11  C   UNL     1       7.291  18.294  13.228  1.00  0.00     0.016 C 
ATOM     12  C   UNL     1       8.815  17.346  14.972  1.00  0.00     0.016 C 
ATOM     13  G   UNL     1       6.911  18.785  15.725  1.00  0.00     0.000 G0
ENDBRANCH   9  10
ENDBRANCH   3   8
TORSDOF 0
ENDMDL
MODEL 4
REMARK VINA RESULT:    -2.987      1.938      2.477
REMARK INTER + INTRA:          -2.927
REMARK INTER:                  -3.677
REMARK INTRA:                   0.750
REMARK UNBOUND:                 0.759
REMARK SMILES CC1=CC=CC(C)(C)CC1=O
REMARK SMILES IDX 1 1 2 2 3 3 10 4 11 5 9 6 4 8 5 9 6 10 7 11 8 12
REMARK H PARENT
REMARK Flexibility Score: 80.00
ROOT
ATOM      1  C   UNL     1       8.709  20.251  15.914  1.00  0.00     0.048 C 
ATOM      2  C   UNL     1       7.657  19.209  15.613  1.00  0.00    -0.008 C 
ATOM      3  C   UNL     1       6.367  19.539  15.842  1.00  0.00     0.007 C 
ENDROOT
BRANCH   2   4
ATOM      4  C   UNL     1       8.121  17.931  15.020  1.00  0.00     0.159 C 
ATOM      5  O   UNL     1       9.316  17.844  14.623  1.00  0.00    -0.295 OA
BRANCH   4   6
ATOM      6  C   UNL     1       7.249  16.722  14.875  1.00  0.00     0.091 CG0
ATOM      7  G   UNL     1       5.988  16.980  14.022  1.00  0.00     0.000 G0
ENDBRANCH   4   6
ENDBRANCH   2   4
BRANCH   3   8
ATOM      8  C   UNL     1       5.131  18.752  15.623  1.00  0.00    -0.003 C 
ATOM      9  C   UNL     1       4.942  17.675  14.850  1.00  0.00    -0.020 C 
BRANCH   9  10
ATOM     10  C   UNL     1       5.987  16.975  14.015  1.00  0.00    -0.010 CG0
ATOM     11  C   UNL     1       6.271  17.791  12.732  1.00  0.00     0.016 C 
ATOM     12  C   UNL     1       5.427  15.598  13.590  1.00  0.00     0.016 C 
ATOM     13  G   UNL     1       7.257  16.737  14.862  1.00  0.00     0.000 G0
ENDBRANCH   9  10
ENDBRANCH   3   8
TORSDOF 0
ENDMDL
MODEL 5
REMARK VINA RESULT:    -2.908      1.907      3.413
REMARK INTER + INTRA:          -2.830
REMARK INTER:                  -3.868
REMARK INTRA:                   1.038
REMARK UNBOUND:                 0.759
REMARK SMILES CC1=CC=CC(C)(C)CC1=O
REMARK SMILES IDX 1 1 2 2 3 3 10 4 11 5 9 6 4 8 5 9 6 10 7 11 8 12
REMARK H PARENT
REMARK Flexibility Score: 80.00
ROOT
ATOM      1  C   UNL     1       4.246  19.727  15.943  1.00  0.00     0.048 C 
ATOM      2  C   UNL     1       5.382  18.816  15.541  1.00  0.00    -0.008 C 
ATOM      3  C   UNL     1       6.613  19.105  16.015  1.00  0.00     0.007 C 
ENDROOT
BRANCH   2   4
ATOM      4  C   UNL     1       5.040  17.631  14.716  1.00  0.00     0.159 C 
ATOM      5  O   UNL     1       3.922  17.600  14.130  1.00  0.00    -0.295 OA
BRANCH   4   6
ATOM      6  C   UNL     1       5.958  16.463  14.525  1.00  0.00     0.091 CG0
ATOM      7  G   UNL     1       7.309  16.848  13.883  1.00  0.00     0.000 G0
ENDBRANCH   4   6
ENDBRANCH   2   4
BRANCH   3   8
ATOM      8  C   UNL     1       7.899  18.394  15.821  1.00  0.00    -0.003 C 
ATOM      9  C   UNL     1       8.208  17.436  14.939  1.00  0.00    -0.020 C 
BRANCH   9  10
ATOM     10  C   UNL     1       7.295  16.857  13.885  1.00  0.00    -0.010 CG0
ATOM     11  C   UNL     1       7.985  15.663  13.186  1.00  0.00     0.016 C 
ATOM     12  C   UNL     1       7.034  17.947  12.819  1.00  0.00     0.016 C 
ATOM     13  G   UNL     1       5.941  16.474  14.522  1.00  0.00     0.000 G0
ENDBRANCH   9  10
ENDBRANCH   3   8
TORSDOF 0
ENDMDL
MODEL 6
REMARK VINA RESULT:    -2.894     12.798     13.858
REMARK INTER + INTRA:          -2.812
REMARK INTER:                  -3.555
REMARK INTRA:                   0.742
REMARK UNBOUND:                 0.759
REMARK SMILES CC1=CC=CC(C)(C)CC1=O
REMARK SMILES IDX 1 1 2 2 3 3 10 4 11 5 9 6 4 8 5 9 6 10 7 11 8 12
REMARK H PARENT
REMARK Flexibility Score: 80.00
ROOT
ATOM      1  C   UNL     1       6.264  30.533  15.995  1.00  0.00     0.048 C 
ATOM      2  C   UNL     1       5.095  31.300  15.421  1.00  0.00    -0.008 C 
ATOM      3  C   UNL     1       5.292  32.601  15.115  1.00  0.00     0.007 C 
ENDROOT
BRANCH   2   4
ATOM      4  C   UNL     1       3.846  30.540  15.169  1.00  0.00     0.159 C 
ATOM      5  O   UNL     1       3.873  29.281  15.250  1.00  0.00    -0.295 OA
BRANCH   4   6
ATOM      6  C   UNL     1       2.538  31.189  14.833  1.00  0.00     0.091 CG0
ATOM      7  G   UNL     1       2.596  32.049  13.551  1.00  0.00     0.000 G0
ENDBRANCH   4   6
ENDBRANCH   2   4
BRANCH   3   8
ATOM      8  C   UNL     1       4.360  33.589  14.523  1.00  0.00    -0.003 C 
ATOM      9  C   UNL     1       3.225  33.379  13.846  1.00  0.00    -0.020 C 
BRANCH   9  10
ATOM     10  C   UNL     1       2.595  32.040  13.543  1.00  0.00    -0.010 CG0
ATOM     11  C   UNL     1       3.351  31.352  12.382  1.00  0.00     0.016 C 
ATOM     12  C   UNL     1       1.138  32.281  13.087  1.00  0.00     0.016 C 
ATOM     13  G   UNL     1       2.562  31.178  14.824  1.00  0.00     0.000 G0
ENDBRANCH   9  10
ENDBRANCH   3   8
TORSDOF 0
ENDMDL
MODEL 7
REMARK VINA RESULT:    -2.871     12.650     13.787
REMARK INTER + INTRA:          -2.784
REMARK INTER:                  -3.528
REMARK INTRA:                   0.744
REMARK UNBOUND:                 0.759
REMARK SMILES CC1=CC=CC(C)(C)CC1=O
REMARK SMILES IDX 1 1 2 2 3 3 10 4 11 5 9 6 4 8 5 9 6 10 7 11 8 12
REMARK H PARENT
REMARK Flexibility Score: 80.00
ROOT
ATOM      1  C   UNL     1       6.009  28.510  15.499  1.00  0.00     0.048 C 
ATOM      2  C   UNL     1       5.546  29.948  15.439  1.00  0.00    -0.008 C 
ATOM      3  C   UNL     1       6.346  30.886  15.990  1.00  0.00     0.007 C 
ENDROOT
BRANCH   2   4
ATOM      4  C   UNL     1       4.282  30.221  14.711  1.00  0.00     0.159 C 
ATOM      5  O   UNL     1       3.762  29.296  14.027  1.00  0.00    -0.295 OA
BRANCH   4   6
ATOM      6  C   UNL     1       3.574  31.540  14.752  1.00  0.00     0.091 CG0
ATOM      7  G   UNL     1       4.440  32.712  14.241  1.00  0.00     0.000 G0
ENDBRANCH   4   6
ENDBRANCH   2   4
BRANCH   3   8
ATOM      8  C   UNL     1       6.178  32.356  16.062  1.00  0.00    -0.003 C 
ATOM      9  C   UNL     1       5.387  33.152  15.332  1.00  0.00    -0.020 C 
BRANCH   9  10
ATOM     10  C   UNL     1       4.430  32.716  14.248  1.00  0.00    -0.010 CG0
ATOM     11  C   UNL     1       5.212  32.394  12.953  1.00  0.00     0.016 C 
ATOM     12  C   UNL     1       3.471  33.890  13.946  1.00  0.00     0.016 C 
ATOM     13  G   UNL     1       3.587  31.522  14.746  1.00  0.00     0.000 G0
ENDBRANCH   9  10
ENDBRANCH   3   8
TORSDOF 0
ENDMDL
MODEL 8
REMARK VINA RESULT:    -2.869      2.451      3.421
REMARK INTER + INTRA:          -2.782
REMARK INTER:                  -3.526
REMARK INTRA:                   0.745
REMARK UNBOUND:                 0.759
REMARK SMILES CC1=CC=CC(C)(C)CC1=O
REMARK SMILES IDX 1 1 2 2 3 3 10 4 11 5 9 6 4 8 5 9 6 10 7 11 8 12
REMARK H PARENT
REMARK Flexibility Score: 80.00
ROOT
ATOM      1  C   UNL     1       9.129  20.967  16.223  1.00  0.00     0.048 C 
ATOM      2  C   UNL     1       8.131  20.044  15.563  1.00  0.00    -0.008 C 
ATOM      3  C   UNL     1       8.128  18.749  15.949  1.00  0.00     0.007 C 
ENDROOT
BRANCH   2   4
ATOM      4  C   UNL     1       7.183  20.652  14.598  1.00  0.00     0.159 C 
ATOM      5  O   UNL     1       7.115  21.910  14.523  1.00  0.00    -0.295 OA
BRANCH   4   6
ATOM      6  C   UNL     1       6.302  19.852  13.689  1.00  0.00     0.091 CG0
ATOM      7  G   UNL     1       5.335  18.916  14.446  1.00  0.00     0.000 G0
ENDBRANCH   4   6
ENDBRANCH   2   4
BRANCH   3   8
ATOM      8  C   UNL     1       7.263  17.629  15.509  1.00  0.00    -0.003 C 
ATOM      9  C   UNL     1       6.082  17.670  14.881  1.00  0.00    -0.020 C 
BRANCH   9  10
ATOM     10  C   UNL     1       5.346  18.911  14.436  1.00  0.00    -0.010 CG0
ATOM     11  C   UNL     1       4.660  19.582  15.649  1.00  0.00     0.016 C 
ATOM     12  C   UNL     1       4.243  18.489  13.437  1.00  0.00     0.016 C 
ATOM     13  G   UNL     1       6.320  19.860  13.703  1.00  0.00     0.000 G0
ENDBRANCH   9  10
ENDBRANCH   3   8
TORSDOF 0
ENDMDL
MODEL 9
REMARK VINA RESULT:    -2.714     10.593     12.230
REMARK INTER + INTRA:          -2.591
REMARK INTER:                  -3.345
REMARK INTRA:                   0.754
REMARK UNBOUND:                 0.759
REMARK SMILES CC1=CC=CC(C)(C)CC1=O
REMARK SMILES IDX 1 1 2 2 3 3 10 4 11 5 9 6 4 8 5 9 6 10 7 11 8 12
REMARK H PARENT
REMARK Flexibility Score: 80.00
ROOT
ATOM      1  C   UNL     1      14.199  18.324  16.616  1.00  0.00     0.048 C 
ATOM      2  C   UNL     1      15.024  17.058  16.573  1.00  0.00    -0.008 C 
ATOM      3  C   UNL     1      14.432  15.913  16.977  1.00  0.00     0.007 C 
ENDROOT
BRANCH   2   4
ATOM      4  C   UNL     1      16.396  17.164  16.018  1.00  0.00     0.159 C 
ATOM      5  O   UNL     1      16.736  18.232  15.438  1.00  0.00    -0.295 OA
BRANCH   4   6
ATOM      6  C   UNL     1      17.414  16.070  16.118  1.00  0.00     0.091 CG0
ATOM      7  G   UNL     1      16.956  14.749  15.462  1.00  0.00     0.000 G0
ENDBRANCH   4   6
ENDBRANCH   2   4
BRANCH   3   8
ATOM      8  C   UNL     1      14.967  14.532  17.023  1.00  0.00    -0.003 C 
ATOM      9  C   UNL     1      16.023  14.014  16.384  1.00  0.00    -0.020 C 
BRANCH   9  10
ATOM     10  C   UNL     1      16.962  14.751  15.458  1.00  0.00    -0.010 CG0
ATOM     11  C   UNL     1      16.289  14.961  14.082  1.00  0.00     0.016 C 
ATOM     12  C   UNL     1      18.220  13.876  15.246  1.00  0.00     0.016 C 
ATOM     13  G   UNL     1      17.405  16.078  16.113  1.00  0.00     0.000 G0
ENDBRANCH   9  10
ENDBRANCH   3   8
TORSDOF 0
ENDMDL
