MODEL 1
REMARK VINA RESULT:    -2.665      0.000      0.000
REMARK INTER + INTRA:          -2.985
REMARK INTER:                  -2.977
REMARK INTRA:                  -0.008
REMARK UNBOUND:                -0.008
REMARK SMILES CCCC(=O)[O-]
REMARK SMILES IDX 3 1 4 2 5 3 6 4 2 5 1 6
REMARK H PARENT
REMARK Flexibility Score: inf
ROOT
ATOM      1  C   UNL     1       4.596  -1.666  -4.331  1.00  0.00     0.052 C 
ENDROOT
BRANCH   1   2
ATOM      2  C   UNL     1       3.432  -1.902  -3.417  1.00  0.00     0.041 C 
ATOM      3  O   UNL     1       3.551  -1.714  -2.178  1.00  0.00    -0.550 OA
ATOM      4  O   UNL     1       2.207  -2.296  -3.939  1.00  0.00    -0.550 OA
ENDBRANCH   1   2
BRANCH   1   5
ATOM      5  C   UNL     1       5.307  -0.344  -4.015  1.00  0.00     0.003 C 
ATOM      6  C   UNL     1       5.695   0.425  -5.277  1.00  0.00     0.004 C 
ENDBRANCH   1   5
TORSDOF 2
ENDMDL
MODEL 2
REMARK VINA RESULT:    -2.644      0.154      1.331
REMARK INTER + INTRA:          -2.961
REMARK INTER:                  -2.951
REMARK INTRA:                  -0.010
REMARK UNBOUND:                -0.008
REMARK SMILES CCCC(=O)[O-]
REMARK SMILES IDX 3 1 4 2 5 3 6 4 2 5 1 6
REMARK H PARENT
REMARK Flexibility Score: inf
ROOT
ATOM      1  C   UNL     1       4.456  -1.626  -4.450  1.00  0.00     0.052 C 
ENDROOT
BRANCH   1   2
ATOM      2  C   UNL     1       3.339  -1.906  -3.491  1.00  0.00     0.041 C 
ATOM      3  O   UNL     1       2.227  -2.315  -3.915  1.00  0.00    -0.550 OA
ATOM      4  O   UNL     1       3.540  -1.746  -2.126  1.00  0.00    -0.550 OA
ENDBRANCH   1   2
BRANCH   1   5
ATOM      5  C   UNL     1       5.357  -0.487  -3.955  1.00  0.00     0.003 C 
ATOM      6  C   UNL     1       5.668   0.529  -5.053  1.00  0.00     0.004 C 
ENDBRANCH   1   5
TORSDOF 2
ENDMDL
MODEL 3
REMARK VINA RESULT:    -2.544      5.910      6.289
REMARK INTER + INTRA:          -2.849
REMARK INTER:                  -2.835
REMARK INTRA:                  -0.014
REMARK UNBOUND:                -0.008
REMARK SMILES CCCC(=O)[O-]
REMARK SMILES IDX 3 1 4 2 5 3 6 4 2 5 1 6
REMARK H PARENT
REMARK Flexibility Score: inf
ROOT
ATOM      1  C   UNL     1      -0.995  -0.226  -8.325  1.00  0.00     0.052 C 
ENDROOT
BRANCH   1   2
ATOM      2  C   UNL     1      -0.958  -0.806  -6.944  1.00  0.00     0.041 C 
ATOM      3  O   UNL     1       0.142  -1.111  -6.413  1.00  0.00    -0.550 OA
ATOM      4  O   UNL     1      -2.138  -0.977  -6.231  1.00  0.00    -0.550 OA
ENDBRANCH   1   2
BRANCH   1   5
ATOM      5  C   UNL     1       0.224   0.664  -8.599  1.00  0.00     0.003 C 
ATOM      6  C   UNL     1      -0.171   2.065  -9.064  1.00  0.00     0.004 C 
ENDBRANCH   1   5
TORSDOF 2
ENDMDL
MODEL 4
REMARK VINA RESULT:    -2.526      1.203      1.527
REMARK INTER + INTRA:          -2.830
REMARK INTER:                  -2.815
REMARK INTRA:                  -0.015
REMARK UNBOUND:                -0.008
REMARK SMILES CCCC(=O)[O-]
REMARK SMILES IDX 3 1 4 2 5 3 6 4 2 5 1 6
REMARK H PARENT
REMARK Flexibility Score: inf
ROOT
ATOM      1  C   UNL     1       4.300  -2.063  -4.861  1.00  0.00     0.052 C 
ENDROOT
BRANCH   1   2
ATOM      2  C   UNL     1       3.105  -2.827  -4.376  1.00  0.00     0.041 C 
ATOM      3  O   UNL     1       2.159  -2.227  -3.801  1.00  0.00    -0.550 OA
ATOM      4  O   UNL     1       3.023  -4.197  -4.590  1.00  0.00    -0.550 OA
ENDBRANCH   1   2
BRANCH   1   5
ATOM      5  C   UNL     1       4.903  -1.190  -3.753  1.00  0.00     0.003 C 
ATOM      6  C   UNL     1       5.579   0.065  -4.303  1.00  0.00     0.004 C 
ENDBRANCH   1   5
TORSDOF 2
ENDMDL
MODEL 5
REMARK VINA RESULT:    -2.386      6.931      7.561
REMARK INTER + INTRA:          -2.673
REMARK INTER:                  -2.625
REMARK INTRA:                  -0.048
REMARK UNBOUND:                -0.008
REMARK SMILES CCCC(=O)[O-]
REMARK SMILES IDX 3 1 4 2 5 3 6 4 2 5 1 6
REMARK H PARENT
REMARK Flexibility Score: inf
ROOT
ATOM      1  C   UNL     1      -1.823  -1.189  -8.264  1.00  0.00     0.052 C 
ENDROOT
BRANCH   1   2
ATOM      2  C   UNL     1      -1.678  -1.019  -6.782  1.00  0.00     0.041 C 
ATOM      3  O   UNL     1      -0.640  -0.493  -6.302  1.00  0.00    -0.550 OA
ATOM      4  O   UNL     1      -2.706  -1.412  -5.934  1.00  0.00    -0.550 OA
ENDBRANCH   1   2
BRANCH   1   5
ATOM      5  C   UNL     1      -2.246   0.119  -8.946  1.00  0.00     0.003 C 
ATOM      6  C   UNL     1      -3.740   0.397  -8.795  1.00  0.00     0.004 C 
ENDBRANCH   1   5
TORSDOF 2
ENDMDL
MODEL 6
REMARK VINA RESULT:    -2.358      1.831      2.686
REMARK INTER + INTRA:          -2.642
REMARK INTER:                  -2.623
REMARK INTRA:                  -0.019
REMARK UNBOUND:                -0.008
REMARK SMILES CCCC(=O)[O-]
REMARK SMILES IDX 3 1 4 2 5 3 6 4 2 5 1 6
REMARK H PARENT
REMARK Flexibility Score: inf
ROOT
ATOM      1  C   UNL     1       4.547  -2.867  -3.898  1.00  0.00     0.052 C 
ENDROOT
BRANCH   1   2
ATOM      2  C   UNL     1       3.334  -2.154  -3.382  1.00  0.00     0.041 C 
ATOM      3  O   UNL     1       2.225  -2.289  -3.960  1.00  0.00    -0.550 OA
ATOM      4  O   UNL     1       3.425  -1.366  -2.241  1.00  0.00    -0.550 OA
ENDBRANCH   1   2
BRANCH   1   5
ATOM      5  C   UNL     1       5.815  -2.448  -3.143  1.00  0.00     0.003 C 
ATOM      6  C   UNL     1       6.187  -3.433  -2.037  1.00  0.00     0.004 C 
ENDBRANCH   1   5
TORSDOF 2
ENDMDL
MODEL 7
REMARK VINA RESULT:    -2.283      8.530      8.947
REMARK INTER + INTRA:          -2.558
REMARK INTER:                  -2.552
REMARK INTRA:                  -0.006
REMARK UNBOUND:                -0.008
REMARK SMILES CCCC(=O)[O-]
REMARK SMILES IDX 3 1 4 2 5 3 6 4 2 5 1 6
REMARK H PARENT
REMARK Flexibility Score: inf
ROOT
ATOM      1  C   UNL     1      -4.164  -3.726  -3.763  1.00  0.00     0.052 C 
ENDROOT
BRANCH   1   2
ATOM      2  C   UNL     1      -3.777  -4.590  -2.602  1.00  0.00     0.041 C 
ATOM      3  O   UNL     1      -4.655  -5.016  -1.808  1.00  0.00    -0.550 OA
ATOM      4  O   UNL     1      -2.448  -4.951  -2.417  1.00  0.00    -0.550 OA
ENDBRANCH   1   2
BRANCH   1   5
ATOM      5  C   UNL     1      -4.966  -2.498  -3.314  1.00  0.00     0.003 C 
ATOM      6  C   UNL     1      -5.022  -1.414  -4.389  1.00  0.00     0.004 C 
ENDBRANCH   1   5
TORSDOF 2
ENDMDL
MODEL 8
REMARK VINA RESULT:    -2.279      8.326      9.734
REMARK INTER + INTRA:          -2.554
REMARK INTER:                  -2.521
REMARK INTRA:                  -0.033
REMARK UNBOUND:                -0.008
REMARK SMILES CCCC(=O)[O-]
REMARK SMILES IDX 3 1 4 2 5 3 6 4 2 5 1 6
REMARK H PARENT
REMARK Flexibility Score: inf
ROOT
ATOM      1  C   UNL     1      -5.097  -1.273  -4.321  1.00  0.00     0.052 C 
ENDROOT
BRANCH   1   2
ATOM      2  C   UNL     1      -4.083  -2.224  -4.881  1.00  0.00     0.041 C 
ATOM      3  O   UNL     1      -4.202  -3.462  -4.690  1.00  0.00    -0.550 OA
ATOM      4  O   UNL     1      -3.026  -1.743  -5.644  1.00  0.00    -0.550 OA
ENDBRANCH   1   2
BRANCH   1   5
ATOM      5  C   UNL     1      -6.482  -1.921  -4.209  1.00  0.00     0.003 C 
ATOM      6  C   UNL     1      -7.071  -1.798  -2.805  1.00  0.00     0.004 C 
ENDBRANCH   1   5
TORSDOF 2
ENDMDL
MODEL 9
REMARK VINA RESULT:    -2.277      7.628      8.935
REMARK INTER + INTRA:          -2.552
REMARK INTER:                  -2.526
REMARK INTRA:                  -0.025
REMARK UNBOUND:                -0.008
REMARK SMILES CCCC(=O)[O-]
REMARK SMILES IDX 3 1 4 2 5 3 6 4 2 5 1 6
REMARK H PARENT
REMARK Flexibility Score: inf
ROOT
ATOM      1  C   UNL     1      -4.506  -1.180  -5.876  1.00  0.00     0.052 C 
ENDROOT
BRANCH   1   2
ATOM      2  C   UNL     1      -3.127  -1.764  -5.949  1.00  0.00     0.041 C 
ATOM      3  O   UNL     1      -2.149  -1.042  -6.273  1.00  0.00    -0.550 OA
ATOM      4  O   UNL     1      -2.920  -3.099  -5.624  1.00  0.00    -0.550 OA
ENDBRANCH   1   2
BRANCH   1   5
ATOM      5  C   UNL     1      -5.104  -1.311  -4.470  1.00  0.00     0.003 C 
ATOM      6  C   UNL     1      -6.510  -1.910  -4.489  1.00  0.00     0.004 C 
ENDBRANCH   1   5
TORSDOF 2
ENDMDL
