MODEL 1
REMARK VINA RESULT:    -3.965      0.000      0.000
REMARK INTER + INTRA:          -7.228
REMARK INTER:                  -6.052
REMARK INTRA:                  -1.176
REMARK UNBOUND:                -1.176
REMARK SMILES CCCCCCCCCCC(=O)[O-]
REMARK SMILES IDX 7 1 8 2 9 3 10 4 11 5 12 6 13 7 6 8 5 9 4 10 3 11 2 12 1 13
REMARK H PARENT
REMARK Flexibility Score: inf
ROOT
ATOM      1  C   UNL     1      -4.008   4.272  19.695  1.00  0.00     0.000 C 
ENDROOT
BRANCH   1   2
ATOM      2  C   UNL     1      -5.434   4.001  20.210  1.00  0.00     0.000 C 
BRANCH   2   3
ATOM      3  C   UNL     1      -5.554   4.124  21.736  1.00  0.00     0.006 C 
BRANCH   3   4
ATOM      4  C   UNL     1      -4.383   3.429  22.436  1.00  0.00     0.053 C 
BRANCH   4   5
ATOM      5  C   UNL     1      -4.871   2.627  23.600  1.00  0.00     0.041 C 
ATOM      6  O   UNL     1      -6.095   2.354  23.714  1.00  0.00    -0.550 OA
ATOM      7  O   UNL     1      -3.982   2.220  24.587  1.00  0.00    -0.550 OA
ENDBRANCH   4   5
ENDBRANCH   3   4
ENDBRANCH   2   3
ENDBRANCH   1   2
BRANCH   1   8
ATOM      8  C   UNL     1      -3.800   5.662  19.067  1.00  0.00     0.000 C 
BRANCH   8   9
ATOM      9  C   UNL     1      -2.770   6.513  19.829  1.00  0.00    -0.000 C 
BRANCH   9  10
ATOM     10  C   UNL     1      -3.270   6.952  21.215  1.00  0.00    -0.000 C 
BRANCH  10  11
ATOM     11  C   UNL     1      -2.308   6.542  22.345  1.00  0.00    -0.000 C 
BRANCH  11  12
ATOM     12  C   UNL     1      -1.115   5.722  21.832  1.00  0.00    -0.003 C 
ATOM     13  C   UNL     1      -0.879   4.448  22.643  1.00  0.00     0.004 C 
ENDBRANCH  11  12
ENDBRANCH  10  11
ENDBRANCH   9  10
ENDBRANCH   8   9
ENDBRANCH   1   8
TORSDOF 9
ENDMDL
MODEL 2
REMARK VINA RESULT:    -3.898      8.675     10.954
REMARK INTER + INTRA:          -7.126
REMARK INTER:                  -6.191
REMARK INTRA:                  -0.935
REMARK UNBOUND:                -1.176
REMARK SMILES CCCCCCCCCCC(=O)[O-]
REMARK SMILES IDX 7 1 8 2 9 3 10 4 11 5 12 6 13 7 6 8 5 9 4 10 3 11 2 12 1 13
REMARK H PARENT
REMARK Flexibility Score: inf
ROOT
ATOM      1  C   UNL     1       1.675   4.518  28.912  1.00  0.00     0.000 C 
ENDROOT
BRANCH   1   2
ATOM      2  C   UNL     1       2.190   3.448  27.932  1.00  0.00     0.000 C 
BRANCH   2   3
ATOM      3  C   UNL     1       3.683   3.601  27.607  1.00  0.00     0.006 C 
BRANCH   3   4
ATOM      4  C   UNL     1       4.007   5.037  27.185  1.00  0.00     0.053 C 
BRANCH   4   5
ATOM      5  C   UNL     1       3.654   5.254  25.749  1.00  0.00     0.041 C 
ATOM      6  O   UNL     1       2.797   6.121  25.431  1.00  0.00    -0.550 OA
ATOM      7  O   UNL     1       4.234   4.466  24.762  1.00  0.00    -0.550 OA
ENDBRANCH   4   5
ENDBRANCH   3   4
ENDBRANCH   2   3
ENDBRANCH   1   2
BRANCH   1   8
ATOM      8  C   UNL     1       1.675   4.094  30.392  1.00  0.00     0.000 C 
BRANCH   8   9
ATOM      9  C   UNL     1       2.326   5.140  31.313  1.00  0.00    -0.000 C 
BRANCH   9  10
ATOM     10  C   UNL     1       3.569   5.792  30.685  1.00  0.00    -0.000 C 
BRANCH  10  11
ATOM     11  C   UNL     1       4.836   4.938  30.866  1.00  0.00    -0.000 C 
BRANCH  11  12
ATOM     12  C   UNL     1       6.122   5.778  30.824  1.00  0.00    -0.003 C 
ATOM     13  C   UNL     1       7.387   4.935  30.986  1.00  0.00     0.004 C 
ENDBRANCH  11  12
ENDBRANCH  10  11
ENDBRANCH   9  10
ENDBRANCH   8   9
ENDBRANCH   1   8
TORSDOF 9
ENDMDL
MODEL 3
REMARK VINA RESULT:    -3.868      8.165     10.044
REMARK INTER + INTRA:          -7.080
REMARK INTER:                  -5.861
REMARK INTRA:                  -1.219
REMARK UNBOUND:                -1.176
REMARK SMILES CCCCCCCCCCC(=O)[O-]
REMARK SMILES IDX 7 1 8 2 9 3 10 4 11 5 12 6 13 7 6 8 5 9 4 10 3 11 2 12 1 13
REMARK H PARENT
REMARK Flexibility Score: inf
ROOT
ATOM      1  C   UNL     1      -0.837   5.816  29.294  1.00  0.00     0.000 C 
ENDROOT
BRANCH   1   2
ATOM      2  C   UNL     1      -0.336   4.775  28.276  1.00  0.00     0.000 C 
BRANCH   2   3
ATOM      3  C   UNL     1       1.161   4.913  27.964  1.00  0.00     0.006 C 
BRANCH   3   4
ATOM      4  C   UNL     1       1.812   3.539  27.782  1.00  0.00     0.053 C 
BRANCH   4   5
ATOM      5  C   UNL     1       3.206   3.685  27.261  1.00  0.00     0.041 C 
ATOM      6  O   UNL     1       3.404   4.125  26.097  1.00  0.00    -0.550 OA
ATOM      7  O   UNL     1       4.286   3.290  28.040  1.00  0.00    -0.550 OA
ENDBRANCH   4   5
ENDBRANCH   3   4
ENDBRANCH   2   3
ENDBRANCH   1   2
BRANCH   1   8
ATOM      8  C   UNL     1       0.207   6.868  29.710  1.00  0.00     0.000 C 
BRANCH   8   9
ATOM      9  C   UNL     1       0.243   7.106  31.230  1.00  0.00    -0.000 C 
BRANCH   9  10
ATOM     10  C   UNL     1       1.505   6.529  31.892  1.00  0.00    -0.000 C 
BRANCH  10  11
ATOM     11  C   UNL     1       1.632   5.009  31.692  1.00  0.00    -0.000 C 
BRANCH  11  12
ATOM     12  C   UNL     1       3.007   4.602  31.140  1.00  0.00    -0.003 C 
ATOM     13  C   UNL     1       3.784   5.781  30.554  1.00  0.00     0.004 C 
ENDBRANCH  11  12
ENDBRANCH  10  11
ENDBRANCH   9  10
ENDBRANCH   8   9
ENDBRANCH   1   8
TORSDOF 9
ENDMDL
MODEL 4
REMARK VINA RESULT:    -3.853      8.242     10.701
REMARK INTER + INTRA:          -7.056
REMARK INTER:                  -5.916
REMARK INTRA:                  -1.140
REMARK UNBOUND:                -1.176
REMARK SMILES CCCCCCCCCCC(=O)[O-]
REMARK SMILES IDX 7 1 8 2 9 3 10 4 11 5 12 6 13 7 6 8 5 9 4 10 3 11 2 12 1 13
REMARK H PARENT
REMARK Flexibility Score: inf
ROOT
ATOM      1  C   UNL     1       1.454   4.982  31.678  1.00  0.00     0.000 C 
ENDROOT
BRANCH   1   2
ATOM      2  C   UNL     1       2.507   4.233  30.842  1.00  0.00     0.000 C 
BRANCH   2   3
ATOM      3  C   UNL     1       3.846   4.981  30.754  1.00  0.00     0.006 C 
BRANCH   3   4
ATOM      4  C   UNL     1       4.584   4.634  29.458  1.00  0.00     0.053 C 
BRANCH   4   5
ATOM      5  C   UNL     1       3.996   5.383  28.305  1.00  0.00     0.041 C 
ATOM      6  O   UNL     1       4.045   4.897  27.144  1.00  0.00    -0.550 OA
ATOM      7  O   UNL     1       3.438   6.639  28.502  1.00  0.00    -0.550 OA
ENDBRANCH   4   5
ENDBRANCH   3   4
ENDBRANCH   2   3
ENDBRANCH   1   2
BRANCH   1   8
ATOM      8  C   UNL     1       1.473   6.514  31.522  1.00  0.00     0.000 C 
BRANCH   8   9
ATOM      9  C   UNL     1       0.147   7.076  30.981  1.00  0.00    -0.000 C 
BRANCH   9  10
ATOM     10  C   UNL     1      -0.014   6.864  29.467  1.00  0.00    -0.000 C 
BRANCH  10  11
ATOM     11  C   UNL     1      -1.282   6.066  29.116  1.00  0.00    -0.000 C 
BRANCH  11  12
ATOM     12  C   UNL     1      -0.962   4.672  28.555  1.00  0.00    -0.003 C 
ATOM     13  C   UNL     1       0.383   4.619  27.830  1.00  0.00     0.004 C 
ENDBRANCH  11  12
ENDBRANCH  10  11
ENDBRANCH   9  10
ENDBRANCH   8   9
ENDBRANCH   1   8
TORSDOF 9
ENDMDL
MODEL 5
REMARK VINA RESULT:    -3.826      7.398     10.156
REMARK INTER + INTRA:          -7.015
REMARK INTER:                  -6.037
REMARK INTRA:                  -0.978
REMARK UNBOUND:                -1.176
REMARK SMILES CCCCCCCCCCC(=O)[O-]
REMARK SMILES IDX 7 1 8 2 9 3 10 4 11 5 12 6 13 7 6 8 5 9 4 10 3 11 2 12 1 13
REMARK H PARENT
REMARK Flexibility Score: inf
ROOT
ATOM      1  C   UNL     1       4.871   4.529  29.566  1.00  0.00     0.000 C 
ENDROOT
BRANCH   1   2
ATOM      2  C   UNL     1       3.966   4.048  28.417  1.00  0.00     0.000 C 
BRANCH   2   3
ATOM      3  C   UNL     1       3.691   5.139  27.373  1.00  0.00     0.006 C 
BRANCH   3   4
ATOM      4  C   UNL     1       3.232   4.526  26.047  1.00  0.00     0.053 C 
BRANCH   4   5
ATOM      5  C   UNL     1       1.741   4.415  26.009  1.00  0.00     0.041 C 
ATOM      6  O   UNL     1       1.041   5.404  25.668  1.00  0.00    -0.550 OA
ATOM      7  O   UNL     1       1.121   3.234  26.398  1.00  0.00    -0.550 OA
ENDBRANCH   4   5
ENDBRANCH   3   4
ENDBRANCH   2   3
ENDBRANCH   1   2
BRANCH   1   8
ATOM      8  C   UNL     1       4.133   4.853  30.878  1.00  0.00     0.000 C 
BRANCH   8   9
ATOM      9  C   UNL     1       2.676   4.360  30.881  1.00  0.00    -0.000 C 
BRANCH   9  10
ATOM     10  C   UNL     1       1.722   5.333  31.594  1.00  0.00    -0.000 C 
BRANCH  10  11
ATOM     11  C   UNL     1       0.733   6.004  30.624  1.00  0.00    -0.000 C 
BRANCH  11  12
ATOM     12  C   UNL     1       0.479   5.159  29.366  1.00  0.00    -0.003 C 
ATOM     13  C   UNL     1      -0.922   5.362  28.788  1.00  0.00     0.004 C 
ENDBRANCH  11  12
ENDBRANCH  10  11
ENDBRANCH   9  10
ENDBRANCH   8   9
ENDBRANCH   1   8
TORSDOF 9
ENDMDL
MODEL 6
REMARK VINA RESULT:    -3.820      7.857     10.502
REMARK INTER + INTRA:          -7.006
REMARK INTER:                  -6.276
REMARK INTRA:                  -0.730
REMARK UNBOUND:                -1.176
REMARK SMILES CCCCCCCCCCC(=O)[O-]
REMARK SMILES IDX 7 1 8 2 9 3 10 4 11 5 12 6 13 7 6 8 5 9 4 10 3 11 2 12 1 13
REMARK H PARENT
REMARK Flexibility Score: inf
ROOT
ATOM      1  C   UNL     1       3.634   4.866  30.866  1.00  0.00     0.000 C 
ENDROOT
BRANCH   1   2
ATOM      2  C   UNL     1       4.198   4.499  29.481  1.00  0.00     0.000 C 
BRANCH   2   3
ATOM      3  C   UNL     1       3.106   4.128  28.468  1.00  0.00     0.006 C 
BRANCH   3   4
ATOM      4  C   UNL     1       3.719   3.730  27.122  1.00  0.00     0.053 C 
BRANCH   4   5
ATOM      5  C   UNL     1       3.543   4.827  26.121  1.00  0.00     0.041 C 
ATOM      6  O   UNL     1       4.270   5.854  26.173  1.00  0.00    -0.550 OA
ATOM      7  O   UNL     1       2.544   4.739  25.160  1.00  0.00    -0.550 OA
ENDBRANCH   4   5
ENDBRANCH   3   4
ENDBRANCH   2   3
ENDBRANCH   1   2
BRANCH   1   8
ATOM      8  C   UNL     1       2.114   4.676  31.017  1.00  0.00     0.000 C 
BRANCH   8   9
ATOM      9  C   UNL     1       1.466   5.741  31.918  1.00  0.00    -0.000 C 
BRANCH   9  10
ATOM     10  C   UNL     1       0.443   6.611  31.169  1.00  0.00    -0.000 C 
BRANCH  10  11
ATOM     11  C   UNL     1       0.286   6.197  29.695  1.00  0.00    -0.000 C 
BRANCH  11  12
ATOM     12  C   UNL     1      -1.170   5.871  29.329  1.00  0.00    -0.003 C 
ATOM     13  C   UNL     1      -1.289   4.698  28.356  1.00  0.00     0.004 C 
ENDBRANCH  11  12
ENDBRANCH  10  11
ENDBRANCH   9  10
ENDBRANCH   8   9
ENDBRANCH   1   8
TORSDOF 9
ENDMDL
MODEL 7
REMARK VINA RESULT:    -3.805      9.015     10.609
REMARK INTER + INTRA:          -6.983
REMARK INTER:                  -5.760
REMARK INTRA:                  -1.223
REMARK UNBOUND:                -1.176
REMARK SMILES CCCCCCCCCCC(=O)[O-]
REMARK SMILES IDX 7 1 8 2 9 3 10 4 11 5 12 6 13 7 6 8 5 9 4 10 3 11 2 12 1 13
REMARK H PARENT
REMARK Flexibility Score: inf
ROOT
ATOM      1  C   UNL     1       1.601   4.122  29.317  1.00  0.00     0.000 C 
ENDROOT
BRANCH   1   2
ATOM      2  C   UNL     1       2.381   4.060  30.643  1.00  0.00     0.000 C 
BRANCH   2   3
ATOM      3  C   UNL     1       2.525   5.431  31.319  1.00  0.00     0.006 C 
BRANCH   3   4
ATOM      4  C   UNL     1       1.249   5.806  32.076  1.00  0.00     0.053 C 
BRANCH   4   5
ATOM      5  C   UNL     1       0.904   7.243  31.842  1.00  0.00     0.041 C 
ATOM      6  O   UNL     1       1.391   8.139  32.581  1.00  0.00    -0.550 OA
ATOM      7  O   UNL     1       0.007   7.589  30.840  1.00  0.00    -0.550 OA
ENDBRANCH   4   5
ENDBRANCH   3   4
ENDBRANCH   2   3
ENDBRANCH   1   2
BRANCH   1   8
ATOM      8  C   UNL     1       2.351   3.557  28.097  1.00  0.00     0.000 C 
BRANCH   8   9
ATOM      9  C   UNL     1       3.751   4.170  27.921  1.00  0.00    -0.000 C 
BRANCH   9  10
ATOM     10  C   UNL     1       3.713   5.560  27.265  1.00  0.00    -0.000 C 
BRANCH  10  11
ATOM     11  C   UNL     1       4.117   6.681  28.238  1.00  0.00    -0.000 C 
BRANCH  11  12
ATOM     12  C   UNL     1       3.014   7.737  28.410  1.00  0.00    -0.003 C 
ATOM     13  C   UNL     1       1.758   7.420  27.597  1.00  0.00     0.004 C 
ENDBRANCH  11  12
ENDBRANCH  10  11
ENDBRANCH   9  10
ENDBRANCH   8   9
ENDBRANCH   1   8
TORSDOF 9
ENDMDL
MODEL 8
REMARK VINA RESULT:    -3.805      8.897     10.655
REMARK INTER + INTRA:          -6.983
REMARK INTER:                  -5.667
REMARK INTRA:                  -1.315
REMARK UNBOUND:                -1.176
REMARK SMILES CCCCCCCCCCC(=O)[O-]
REMARK SMILES IDX 7 1 8 2 9 3 10 4 11 5 12 6 13 7 6 8 5 9 4 10 3 11 2 12 1 13
REMARK H PARENT
REMARK Flexibility Score: inf
ROOT
ATOM      1  C   UNL     1       4.015   7.409  29.121  1.00  0.00     0.000 C 
ENDROOT
BRANCH   1   2
ATOM      2  C   UNL     1       4.231   7.251  27.605  1.00  0.00     0.000 C 
BRANCH   2   3
ATOM      3  C   UNL     1       3.247   6.266  26.958  1.00  0.00     0.006 C 
BRANCH   3   4
ATOM      4  C   UNL     1       3.991   5.106  26.291  1.00  0.00     0.053 C 
BRANCH   4   5
ATOM      5  C   UNL     1       3.536   3.798  26.857  1.00  0.00     0.041 C 
ATOM      6  O   UNL     1       2.350   3.411  26.685  1.00  0.00    -0.550 OA
ATOM      7  O   UNL     1       4.407   3.028  27.618  1.00  0.00    -0.550 OA
ENDBRANCH   4   5
ENDBRANCH   3   4
ENDBRANCH   2   3
ENDBRANCH   1   2
BRANCH   1   8
ATOM      8  C   UNL     1       4.975   6.587  30.000  1.00  0.00     0.000 C 
BRANCH   8   9
ATOM      9  C   UNL     1       4.441   5.178  30.312  1.00  0.00    -0.000 C 
BRANCH   9  10
ATOM     10  C   UNL     1       3.041   5.201  30.946  1.00  0.00    -0.000 C 
BRANCH  10  11
ATOM     11  C   UNL     1       2.091   4.169  30.314  1.00  0.00    -0.000 C 
BRANCH  11  12
ATOM     12  C   UNL     1       0.933   4.828  29.549  1.00  0.00    -0.003 C 
ATOM     13  C   UNL     1       0.507   6.166  30.155  1.00  0.00     0.004 C 
ENDBRANCH  11  12
ENDBRANCH  10  11
ENDBRANCH   9  10
ENDBRANCH   8   9
ENDBRANCH   1   8
TORSDOF 9
ENDMDL
MODEL 9
REMARK VINA RESULT:    -3.800      9.084     10.328
REMARK INTER + INTRA:          -6.976
REMARK INTER:                  -5.741
REMARK INTRA:                  -1.235
REMARK UNBOUND:                -1.176
REMARK SMILES CCCCCCCCCCC(=O)[O-]
REMARK SMILES IDX 7 1 8 2 9 3 10 4 11 5 12 6 13 7 6 8 5 9 4 10 3 11 2 12 1 13
REMARK H PARENT
REMARK Flexibility Score: inf
ROOT
ATOM      1  C   UNL     1       2.310   3.748  28.111  1.00  0.00     0.000 C 
ENDROOT
BRANCH   1   2
ATOM      2  C   UNL     1       2.226   3.857  29.644  1.00  0.00     0.000 C 
BRANCH   2   3
ATOM      3  C   UNL     1       1.215   4.913  30.116  1.00  0.00     0.006 C 
BRANCH   3   4
ATOM      4  C   UNL     1       1.545   5.394  31.532  1.00  0.00     0.053 C 
BRANCH   4   5
ATOM      5  C   UNL     1       0.979   6.758  31.767  1.00  0.00     0.041 C 
ATOM      6  O   UNL     1       0.030   7.181  31.056  1.00  0.00    -0.550 OA
ATOM      7  O   UNL     1       1.532   7.583  32.739  1.00  0.00    -0.550 OA
ENDBRANCH   4   5
ENDBRANCH   3   4
ENDBRANCH   2   3
ENDBRANCH   1   2
BRANCH   1   8
ATOM      8  C   UNL     1       3.736   3.819  27.534  1.00  0.00     0.000 C 
BRANCH   8   9
ATOM      9  C   UNL     1       3.884   4.887  26.436  1.00  0.00    -0.000 C 
BRANCH   9  10
ATOM     10  C   UNL     1       3.169   6.202  26.787  1.00  0.00    -0.000 C 
BRANCH  10  11
ATOM     11  C   UNL     1       4.092   7.198  27.512  1.00  0.00    -0.000 C 
BRANCH  11  12
ATOM     12  C   UNL     1       3.761   7.323  29.007  1.00  0.00    -0.003 C 
ATOM     13  C   UNL     1       4.792   6.635  29.903  1.00  0.00     0.004 C 
ENDBRANCH  11  12
ENDBRANCH  10  11
ENDBRANCH   9  10
ENDBRANCH   8   9
ENDBRANCH   1   8
TORSDOF 9
ENDMDL
