MODEL 1
REMARK VINA RESULT:    -4.789      0.000      0.000
REMARK INTER + INTRA:          -4.724
REMARK INTER:                  -5.209
REMARK INTRA:                   0.485
REMARK UNBOUND:                 0.485
REMARK SMILES C=C(C)[C@@H]1CC[C@@H](C)C[C@@H]1O
REMARK SMILES IDX 8 1 7 2 6 3 5 4 4 5 10 6 9 7 11 8 2 10 1 11 3 12
REMARK H PARENT 11 9
REMARK Flexibility Score: inf
ROOT
ATOM      1  C   UNL     1     -40.125  26.147   3.250  1.00  0.00     0.008 C 
ATOM      2  C   UNL     1     -39.479  25.204   4.270  1.00  0.00    -0.012 C 
ATOM      3  C   UNL     1     -40.011  23.768   4.090  1.00  0.00     0.004 C 
ATOM      4  C   UNL     1     -39.395  22.816   5.123  1.00  0.00     0.011 C 
ATOM      5  C   UNL     1     -39.659  23.321   6.557  1.00  0.00     0.043 C 
ATOM      6  C   UNL     1     -39.120  24.757   6.756  1.00  0.00     0.121 C 
ATOM      7  C   UNL     1     -39.736  25.704   5.707  1.00  0.00     0.035 C 
ENDROOT
BRANCH   6   8
ATOM      8  O   UNL     1     -37.718  24.781   6.655  1.00  0.00    -0.392 OA
ATOM      9  H   UNL     1     -37.474  24.176   5.907  1.00  0.00     0.210 HD
ENDBRANCH   6   8
BRANCH   5  10
ATOM     10  C   UNL     1     -39.132  22.355   7.616  1.00  0.00    -0.075 C 
ATOM     11  C   UNL     1     -37.887  22.462   8.113  1.00  0.00     0.008 C 
ATOM     12  C   UNL     1     -40.012  21.243   8.125  1.00  0.00     0.039 C 
ENDBRANCH   5  10
TORSDOF 2
ENDMDL
MODEL 2
REMARK VINA RESULT:    -4.473      1.355      1.904
REMARK INTER + INTRA:          -4.380
REMARK INTER:                  -4.322
REMARK INTRA:                  -0.058
REMARK UNBOUND:                 0.485
REMARK SMILES C=C(C)[C@@H]1CC[C@@H](C)C[C@@H]1O
REMARK SMILES IDX 8 1 7 2 6 3 5 4 4 5 10 6 9 7 11 8 2 10 1 11 3 12
REMARK H PARENT 11 9
REMARK Flexibility Score: inf
ROOT
ATOM      1  C   UNL     1     -40.105  26.353   3.090  1.00  0.00     0.008 C 
ATOM      2  C   UNL     1     -39.965  25.253   4.147  1.00  0.00    -0.012 C 
ATOM      3  C   UNL     1     -40.120  25.844   5.563  1.00  0.00     0.004 C 
ATOM      4  C   UNL     1     -39.954  24.760   6.636  1.00  0.00     0.011 C 
ATOM      5  C   UNL     1     -38.593  24.049   6.487  1.00  0.00     0.043 C 
ATOM      6  C   UNL     1     -38.427  23.442   5.074  1.00  0.00     0.121 C 
ATOM      7  C   UNL     1     -38.606  24.535   4.003  1.00  0.00     0.035 C 
ENDROOT
BRANCH   6   8
ATOM      8  O   UNL     1     -39.358  22.410   4.863  1.00  0.00    -0.392 OA
ATOM      9  H   UNL     1     -40.242  22.843   4.730  1.00  0.00     0.210 HD
ENDBRANCH   6   8
BRANCH   5  10
ATOM     10  C   UNL     1     -38.356  23.018   7.589  1.00  0.00    -0.075 C 
ATOM     11  C   UNL     1     -37.139  22.823   8.125  1.00  0.00     0.008 C 
ATOM     12  C   UNL     1     -39.504  22.184   8.097  1.00  0.00     0.039 C 
ENDBRANCH   5  10
TORSDOF 2
ENDMDL
MODEL 3
REMARK VINA RESULT:    -2.776      1.128      4.448
REMARK INTER + INTRA:          -2.535
REMARK INTER:                  -2.451
REMARK INTRA:                  -0.084
REMARK UNBOUND:                 0.485
REMARK SMILES C=C(C)[C@@H]1CC[C@@H](C)C[C@@H]1O
REMARK SMILES IDX 8 1 7 2 6 3 5 4 4 5 10 6 9 7 11 8 2 10 1 11 3 12
REMARK H PARENT 11 9
REMARK Flexibility Score: inf
ROOT
ATOM      1  C   UNL     1     -39.192  21.376   7.984  1.00  0.00     0.008 C 
ATOM      2  C   UNL     1     -39.028  22.650   7.149  1.00  0.00    -0.012 C 
ATOM      3  C   UNL     1     -39.956  23.762   7.677  1.00  0.00     0.004 C 
ATOM      4  C   UNL     1     -39.826  25.038   6.833  1.00  0.00     0.011 C 
ATOM      5  C   UNL     1     -40.118  24.741   5.347  1.00  0.00     0.043 C 
ATOM      6  C   UNL     1     -39.186  23.633   4.801  1.00  0.00     0.121 C 
ATOM      7  C   UNL     1     -39.316  22.361   5.661  1.00  0.00     0.035 C 
ENDROOT
BRANCH   6   8
ATOM      8  O   UNL     1     -37.849  24.067   4.790  1.00  0.00    -0.392 OA
ATOM      9  H   UNL     1     -37.808  24.854   4.185  1.00  0.00     0.210 HD
ENDBRANCH   6   8
BRANCH   5  10
ATOM     10  C   UNL     1     -40.078  26.003   4.488  1.00  0.00    -0.075 C 
ATOM     11  C   UNL     1     -39.998  25.943   3.147  1.00  0.00     0.008 C 
ATOM     12  C   UNL     1     -40.123  27.360   5.142  1.00  0.00     0.039 C 
ENDBRANCH   5  10
TORSDOF 2
ENDMDL
