MODEL 1
REMARK VINA RESULT:    -2.933      0.000      0.000
REMARK INTER + INTRA:          -2.933
REMARK INTER:                  -2.933
REMARK INTRA:                   0.000
REMARK UNBOUND:                 0.000
REMARK SMILES CC(=O)[O-]
REMARK SMILES IDX 1 1 2 2 3 3 4 4
REMARK H PARENT
REMARK Flexibility Score: inf
ROOT
ATOM      1  C   UNL     1      -3.125   2.480   8.488  1.00  0.00     0.063 C 
ATOM      2  C   UNL     1      -1.658   2.529   8.750  1.00  0.00     0.038 C 
ATOM      3  O   UNL     1      -1.206   3.245   9.682  1.00  0.00    -0.550 OA
ATOM      4  O   UNL     1      -0.791   1.744   8.001  1.00  0.00    -0.550 OA
ENDROOT
TORSDOF 0
ENDMDL
MODEL 2
REMARK VINA RESULT:    -2.930      1.300      1.716
REMARK INTER + INTRA:          -2.930
REMARK INTER:                  -2.930
REMARK INTRA:                   0.000
REMARK UNBOUND:                 0.000
REMARK SMILES CC(=O)[O-]
REMARK SMILES IDX 1 1 2 2 3 3 4 4
REMARK H PARENT
REMARK Flexibility Score: inf
ROOT
ATOM      1  C   UNL     1      -0.869   3.269   9.523  1.00  0.00     0.063 C 
ATOM      2  C   UNL     1      -1.854   2.412   8.803  1.00  0.00     0.038 C 
ATOM      3  O   UNL     1      -3.072   2.449   9.118  1.00  0.00    -0.550 OA
ATOM      4  O   UNL     1      -1.439   1.610   7.748  1.00  0.00    -0.550 OA
ENDROOT
TORSDOF 0
ENDMDL
MODEL 3
REMARK VINA RESULT:    -2.186     15.128     15.577
REMARK INTER + INTRA:          -2.186
REMARK INTER:                  -2.186
REMARK INTRA:                   0.000
REMARK UNBOUND:                 0.000
REMARK SMILES CC(=O)[O-]
REMARK SMILES IDX 1 1 2 2 3 3 4 4
REMARK H PARENT
REMARK Flexibility Score: inf
ROOT
ATOM      1  C   UNL     1      13.004  -0.160  14.597  1.00  0.00     0.063 C 
ATOM      2  C   UNL     1      12.450  -1.191  13.674  1.00  0.00     0.038 C 
ATOM      3  O   UNL     1      11.548  -0.883  12.851  1.00  0.00    -0.550 OA
ATOM      4  O   UNL     1      12.964  -2.481  13.682  1.00  0.00    -0.550 OA
ENDROOT
TORSDOF 0
ENDMDL
MODEL 4
REMARK VINA RESULT:    -2.158     15.128     15.593
REMARK INTER + INTRA:          -2.158
REMARK INTER:                  -2.158
REMARK INTRA:                   0.000
REMARK UNBOUND:                 0.000
REMARK SMILES CC(=O)[O-]
REMARK SMILES IDX 1 1 2 2 3 3 4 4
REMARK H PARENT
REMARK Flexibility Score: inf
ROOT
ATOM      1  C   UNL     1      12.603  -0.427  14.890  1.00  0.00     0.063 C 
ATOM      2  C   UNL     1      12.519  -1.255  13.652  1.00  0.00     0.038 C 
ATOM      3  O   UNL     1      12.910  -2.452  13.665  1.00  0.00    -0.550 OA
ATOM      4  O   UNL     1      11.959  -0.725  12.497  1.00  0.00    -0.550 OA
ENDROOT
TORSDOF 0
ENDMDL
MODEL 5
REMARK VINA RESULT:    -2.112     15.374     15.672
REMARK INTER + INTRA:          -2.112
REMARK INTER:                  -2.112
REMARK INTRA:                   0.000
REMARK UNBOUND:                 0.000
REMARK SMILES CC(=O)[O-]
REMARK SMILES IDX 1 1 2 2 3 3 4 4
REMARK H PARENT
REMARK Flexibility Score: inf
ROOT
ATOM      1  C   UNL     1      11.888  -0.751  12.700  1.00  0.00     0.063 C 
ATOM      2  C   UNL     1      12.619  -1.428  13.809  1.00  0.00     0.038 C 
ATOM      3  O   UNL     1      12.876  -0.802  14.871  1.00  0.00    -0.550 OA
ATOM      4  O   UNL     1      12.970  -2.767  13.696  1.00  0.00    -0.550 OA
ENDROOT
TORSDOF 0
ENDMDL
MODEL 6
REMARK VINA RESULT:    -2.107     13.908     14.074
REMARK INTER + INTRA:          -2.107
REMARK INTER:                  -2.107
REMARK INTRA:                   0.000
REMARK UNBOUND:                 0.000
REMARK SMILES CC(=O)[O-]
REMARK SMILES IDX 1 1 2 2 3 3 4 4
REMARK H PARENT
REMARK Flexibility Score: inf
ROOT
ATOM      1  C   UNL     1       4.534  -9.123  13.569  1.00  0.00     0.063 C 
ATOM      2  C   UNL     1       5.145  -8.234  14.598  1.00  0.00     0.038 C 
ATOM      3  O   UNL     1       4.768  -8.303  15.796  1.00  0.00    -0.550 OA
ATOM      4  O   UNL     1       6.171  -7.366  14.247  1.00  0.00    -0.550 OA
ENDROOT
TORSDOF 0
ENDMDL
MODEL 7
REMARK VINA RESULT:    -2.033     15.230     15.525
REMARK INTER + INTRA:          -2.033
REMARK INTER:                  -2.033
REMARK INTRA:                   0.000
REMARK UNBOUND:                 0.000
REMARK SMILES CC(=O)[O-]
REMARK SMILES IDX 1 1 2 2 3 3 4 4
REMARK H PARENT
REMARK Flexibility Score: inf
ROOT
ATOM      1  C   UNL     1      11.910  -0.892  12.925  1.00  0.00     0.063 C 
ATOM      2  C   UNL     1      12.406  -0.546  14.288  1.00  0.00     0.038 C 
ATOM      3  O   UNL     1      12.113  -1.276  15.271  1.00  0.00    -0.550 OA
ATOM      4  O   UNL     1      13.236   0.552  14.468  1.00  0.00    -0.550 OA
ENDROOT
TORSDOF 0
ENDMDL
MODEL 8
REMARK VINA RESULT:    -1.955     14.001     14.285
REMARK INTER + INTRA:          -1.955
REMARK INTER:                  -1.955
REMARK INTRA:                   0.000
REMARK UNBOUND:                 0.000
REMARK SMILES CC(=O)[O-]
REMARK SMILES IDX 1 1 2 2 3 3 4 4
REMARK H PARENT
REMARK Flexibility Score: inf
ROOT
ATOM      1  C   UNL     1       6.157  -7.318  14.441  1.00  0.00     0.063 C 
ATOM      2  C   UNL     1       5.110  -8.369  14.592  1.00  0.00     0.038 C 
ATOM      3  O   UNL     1       4.689  -8.990  13.582  1.00  0.00    -0.550 OA
ATOM      4  O   UNL     1       4.636  -8.704  15.854  1.00  0.00    -0.550 OA
ENDROOT
TORSDOF 0
ENDMDL
MODEL 9
REMARK VINA RESULT:    -1.877     13.936     14.100
REMARK INTER + INTRA:          -1.877
REMARK INTER:                  -1.877
REMARK INTRA:                   0.000
REMARK UNBOUND:                 0.000
REMARK SMILES CC(=O)[O-]
REMARK SMILES IDX 1 1 2 2 3 3 4 4
REMARK H PARENT
REMARK Flexibility Score: inf
ROOT
ATOM      1  C   UNL     1       4.940  -7.951  16.033  1.00  0.00     0.063 C 
ATOM      2  C   UNL     1       5.991  -7.089  15.419  1.00  0.00     0.038 C 
ATOM      3  O   UNL     1       6.434  -7.354  14.272  1.00  0.00    -0.550 OA
ATOM      4  O   UNL     1       6.444  -5.960  16.090  1.00  0.00    -0.550 OA
ENDROOT
TORSDOF 0
ENDMDL
