MODEL 1
REMARK VINA RESULT:    -5.534      0.000      0.000
REMARK INTER + INTRA:          -8.939
REMARK INTER:                  -7.637
REMARK INTRA:                  -1.302
REMARK UNBOUND:                -1.302
REMARK SMILES CCCCc1cccc(O)c1CCCC
REMARK SMILES IDX 5 1 11 2 9 3 8 4 7 5 6 6 4 7 3 8 2 9 1 10 12 11 13 12 14 13
REMARK SMILES IDX 15 14 10 15
REMARK H PARENT 10 16
REMARK Flexibility Score: inf
ROOT
ATOM      1  C   UNL     1      -9.024  -7.476  14.148  1.00  0.00    -0.041 A 
ATOM      2  C   UNL     1      -8.774  -6.133  13.731  1.00  0.00    -0.003 A 
ATOM      3  C   UNL     1      -9.739  -5.132  14.036  1.00  0.00     0.119 A 
ATOM      4  C   UNL     1     -10.895  -5.466  14.746  1.00  0.00     0.046 A 
ATOM      5  C   UNL     1     -11.125  -6.774  15.157  1.00  0.00     0.004 A 
ATOM      6  C   UNL     1     -10.202  -7.770  14.858  1.00  0.00     0.004 A 
ENDROOT
BRANCH   1   7
ATOM      7  C   UNL     1      -8.102  -8.634  13.817  1.00  0.00     0.036 C 
BRANCH   7   8
ATOM      8  C   UNL     1      -8.639  -9.492  12.661  1.00  0.00     0.004 C 
BRANCH   8   9
ATOM      9  C   UNL     1      -7.549  -9.843  11.638  1.00  0.00    -0.003 C 
ATOM     10  C   UNL     1      -6.213 -10.108  12.326  1.00  0.00     0.004 C 
ENDBRANCH   8   9
ENDBRANCH   7   8
ENDBRANCH   1   7
BRANCH   2  11
ATOM     11  C   UNL     1      -7.489  -5.747  13.010  1.00  0.00     0.040 C 
BRANCH  11  12
ATOM     12  C   UNL     1      -7.578  -5.983  11.491  1.00  0.00     0.005 C 
BRANCH  12  13
ATOM     13  C   UNL     1      -6.235  -6.408  10.883  1.00  0.00    -0.003 C 
ATOM     14  C   UNL     1      -5.190  -6.644  11.969  1.00  0.00     0.004 C 
ENDBRANCH  12  13
ENDBRANCH  11  12
ENDBRANCH   2  11
BRANCH   3  15
ATOM     15  O   UNL     1      -9.594  -3.797  13.648  1.00  0.00    -0.508 OA
ATOM     16  H   UNL     1      -9.789  -3.450  12.720  1.00  0.00     0.293 HD
ENDBRANCH   3  15
TORSDOF 7
ENDMDL
MODEL 2
REMARK VINA RESULT:    -5.069      1.489      2.340
REMARK INTER + INTRA:          -8.298
REMARK INTER:                  -7.085
REMARK INTRA:                  -1.213
REMARK UNBOUND:                -1.302
REMARK SMILES CCCCc1cccc(O)c1CCCC
REMARK SMILES IDX 5 1 11 2 9 3 8 4 7 5 6 6 4 7 3 8 2 9 1 10 12 11 13 12 14 13
REMARK SMILES IDX 15 14 10 15
REMARK H PARENT 10 16
REMARK Flexibility Score: inf
ROOT
ATOM      1  C   UNL     1      -8.512  -9.020  13.385  1.00  0.00    -0.041 A 
ATOM      2  C   UNL     1      -8.919  -7.742  13.874  1.00  0.00    -0.003 A 
ATOM      3  C   UNL     1     -10.251  -7.587  14.355  1.00  0.00     0.119 A 
ATOM      4  C   UNL     1     -11.125  -8.677  14.360  1.00  0.00     0.046 A 
ATOM      5  C   UNL     1     -10.716  -9.920  13.893  1.00  0.00     0.004 A 
ATOM      6  C   UNL     1      -9.425 -10.090  13.406  1.00  0.00     0.004 A 
ENDROOT
BRANCH   1   7
ATOM      7  C   UNL     1      -7.144  -9.283  12.785  1.00  0.00     0.036 C 
BRANCH   7   8
ATOM      8  C   UNL     1      -7.231 -10.035  11.447  1.00  0.00     0.004 C 
BRANCH   8   9
ATOM      9  C   UNL     1      -6.612  -9.242  10.288  1.00  0.00    -0.003 C 
ATOM     10  C   UNL     1      -7.390  -7.956  10.024  1.00  0.00     0.004 C 
ENDBRANCH   8   9
ENDBRANCH   7   8
ENDBRANCH   1   7
BRANCH   2  11
ATOM     11  C   UNL     1      -7.956  -6.564  13.928  1.00  0.00     0.040 C 
BRANCH  11  12
ATOM     12  C   UNL     1      -8.218  -5.543  12.806  1.00  0.00     0.005 C 
BRANCH  12  13
ATOM     13  C   UNL     1      -6.922  -4.934  12.253  1.00  0.00    -0.003 C 
ATOM     14  C   UNL     1      -5.733  -5.857  12.497  1.00  0.00     0.004 C 
ENDBRANCH  12  13
ENDBRANCH  11  12
ENDBRANCH   2  11
BRANCH   3  15
ATOM     15  O   UNL     1     -10.747  -6.370  14.829  1.00  0.00    -0.508 OA
ATOM     16  H   UNL     1     -11.729  -6.144  14.899  1.00  0.00     0.293 HD
ENDBRANCH   3  15
TORSDOF 7
ENDMDL
MODEL 3
REMARK VINA RESULT:    -5.048     10.066     11.494
REMARK INTER + INTRA:          -8.268
REMARK INTER:                  -7.128
REMARK INTRA:                  -1.140
REMARK UNBOUND:                -1.302
REMARK SMILES CCCCc1cccc(O)c1CCCC
REMARK SMILES IDX 5 1 11 2 9 3 8 4 7 5 6 6 4 7 3 8 2 9 1 10 12 11 13 12 14 13
REMARK SMILES IDX 15 14 10 15
REMARK H PARENT 10 16
REMARK Flexibility Score: inf
ROOT
ATOM      1  C   UNL     1      -1.262  -6.247  20.403  1.00  0.00    -0.041 A 
ATOM      2  C   UNL     1      -0.013  -6.927  20.271  1.00  0.00    -0.003 A 
ATOM      3  C   UNL     1      -0.007  -8.250  19.746  1.00  0.00     0.119 A 
ATOM      4  C   UNL     1      -1.204  -8.853  19.353  1.00  0.00     0.046 A 
ATOM      5  C   UNL     1      -2.413  -8.180  19.474  1.00  0.00     0.004 A 
ATOM      6  C   UNL     1      -2.444  -6.893  19.997  1.00  0.00     0.004 A 
ENDROOT
BRANCH   1   7
ATOM      7  C   UNL     1      -1.397  -4.865  21.014  1.00  0.00     0.036 C 
BRANCH   7   8
ATOM      8  C   UNL     1      -1.706  -3.791  19.958  1.00  0.00     0.004 C 
BRANCH   8   9
ATOM      9  C   UNL     1      -1.247  -2.393  20.394  1.00  0.00    -0.003 C 
ATOM     10  C   UNL     1      -1.348  -1.396  19.244  1.00  0.00     0.004 C 
ENDBRANCH   8   9
ENDBRANCH   7   8
ENDBRANCH   1   7
BRANCH   2  11
ATOM     11  C   UNL     1       1.304  -6.255  20.641  1.00  0.00     0.040 C 
BRANCH  11  12
ATOM     12  C   UNL     1       2.064  -5.741  19.405  1.00  0.00     0.005 C 
BRANCH  12  13
ATOM     13  C   UNL     1       1.901  -4.229  19.203  1.00  0.00    -0.003 C 
ATOM     14  C   UNL     1       2.394  -3.455  20.421  1.00  0.00     0.004 C 
ENDBRANCH  12  13
ENDBRANCH  11  12
ENDBRANCH   2  11
BRANCH   3  15
ATOM     15  O   UNL     1       1.163  -9.002  19.604  1.00  0.00    -0.508 OA
ATOM     16  H   UNL     1       1.879  -8.815  18.917  1.00  0.00     0.293 HD
ENDBRANCH   3  15
TORSDOF 7
ENDMDL
MODEL 4
REMARK VINA RESULT:    -5.013      1.695      3.884
REMARK INTER + INTRA:          -8.220
REMARK INTER:                  -7.490
REMARK INTRA:                  -0.730
REMARK UNBOUND:                -1.302
REMARK SMILES CCCCc1cccc(O)c1CCCC
REMARK SMILES IDX 5 1 11 2 9 3 8 4 7 5 6 6 4 7 3 8 2 9 1 10 12 11 13 12 14 13
REMARK SMILES IDX 15 14 10 15
REMARK H PARENT 10 16
REMARK Flexibility Score: inf
ROOT
ATOM      1  C   UNL     1      -6.688  -6.522  12.600  1.00  0.00    -0.041 A 
ATOM      2  C   UNL     1      -8.083  -6.459  12.900  1.00  0.00    -0.003 A 
ATOM      3  C   UNL     1      -8.648  -5.202  13.257  1.00  0.00     0.119 A 
ATOM      4  C   UNL     1      -7.848  -4.057  13.291  1.00  0.00     0.046 A 
ATOM      5  C   UNL     1      -6.494  -4.127  12.986  1.00  0.00     0.004 A 
ATOM      6  C   UNL     1      -5.918  -5.347  12.649  1.00  0.00     0.004 A 
ENDROOT
BRANCH   1   7
ATOM      7  C   UNL     1      -5.965  -7.816  12.277  1.00  0.00     0.036 C 
BRANCH   7   8
ATOM      8  C   UNL     1      -5.888  -8.076  10.763  1.00  0.00     0.004 C 
BRANCH   8   9
ATOM      9  C   UNL     1      -6.676  -9.325  10.344  1.00  0.00    -0.003 C 
ATOM     10  C   UNL     1      -6.299  -9.765   8.932  1.00  0.00     0.004 C 
ENDBRANCH   8   9
ENDBRANCH   7   8
ENDBRANCH   1   7
BRANCH   2  11
ATOM     11  C   UNL     1      -8.976  -7.689  12.807  1.00  0.00     0.040 C 
BRANCH  11  12
ATOM     12  C   UNL     1      -9.012  -8.485  14.124  1.00  0.00     0.005 C 
BRANCH  12  13
ATOM     13  C   UNL     1      -9.532  -9.916  13.930  1.00  0.00    -0.003 C 
ATOM     14  C   UNL     1     -11.045  -9.929  13.734  1.00  0.00     0.004 C 
ENDBRANCH  12  13
ENDBRANCH  11  12
ENDBRANCH   2  11
BRANCH   3  15
ATOM     15  O   UNL     1      -9.996  -5.046  13.591  1.00  0.00    -0.508 OA
ATOM     16  H   UNL     1     -10.391  -4.204  13.985  1.00  0.00     0.293 HD
ENDBRANCH   3  15
TORSDOF 7
ENDMDL
MODEL 5
REMARK VINA RESULT:    -4.951     15.118     17.249
REMARK INTER + INTRA:          -8.135
REMARK INTER:                  -6.799
REMARK INTRA:                  -1.335
REMARK UNBOUND:                -1.302
REMARK SMILES CCCCc1cccc(O)c1CCCC
REMARK SMILES IDX 5 1 11 2 9 3 8 4 7 5 6 6 4 7 3 8 2 9 1 10 12 11 13 12 14 13
REMARK SMILES IDX 15 14 10 15
REMARK H PARENT 10 16
REMARK Flexibility Score: inf
ROOT
ATOM      1  C   UNL     1      -2.455   4.848   2.224  1.00  0.00    -0.041 A 
ATOM      2  C   UNL     1      -1.075   5.150   2.011  1.00  0.00    -0.003 A 
ATOM      3  C   UNL     1      -0.550   6.358   2.552  1.00  0.00     0.119 A 
ATOM      4  C   UNL     1      -1.373   7.212   3.289  1.00  0.00     0.046 A 
ATOM      5  C   UNL     1      -2.711   6.905   3.500  1.00  0.00     0.004 A 
ATOM      6  C   UNL     1      -3.249   5.737   2.969  1.00  0.00     0.004 A 
ENDROOT
BRANCH   1   7
ATOM      7  C   UNL     1      -3.138   3.628   1.636  1.00  0.00     0.036 C 
BRANCH   7   8
ATOM      8  C   UNL     1      -3.654   2.671   2.724  1.00  0.00     0.004 C 
BRANCH   8   9
ATOM      9  C   UNL     1      -3.824   1.236   2.207  1.00  0.00    -0.003 C 
ATOM     10  C   UNL     1      -3.104   1.040   0.876  1.00  0.00     0.004 C 
ENDBRANCH   8   9
ENDBRANCH   7   8
ENDBRANCH   1   7
BRANCH   2  11
ATOM     11  C   UNL     1      -0.155   4.196   1.261  1.00  0.00     0.040 C 
BRANCH  11  12
ATOM     12  C   UNL     1       0.702   3.341   2.213  1.00  0.00     0.005 C 
BRANCH  12  13
ATOM     13  C   UNL     1       0.125   1.934   2.418  1.00  0.00    -0.003 C 
ATOM     14  C   UNL     1      -0.262   1.706   3.875  1.00  0.00     0.004 C 
ENDBRANCH  12  13
ENDBRANCH  11  12
ENDBRANCH   2  11
BRANCH   3  15
ATOM     15  O   UNL     1       0.780   6.750   2.375  1.00  0.00    -0.508 OA
ATOM     16  H   UNL     1       1.342   6.511   1.570  1.00  0.00     0.293 HD
ENDBRANCH   3  15
TORSDOF 7
ENDMDL
MODEL 6
REMARK VINA RESULT:    -4.944     10.886     12.450
REMARK INTER + INTRA:          -8.124
REMARK INTER:                  -6.894
REMARK INTRA:                  -1.230
REMARK UNBOUND:                -1.302
REMARK SMILES CCCCc1cccc(O)c1CCCC
REMARK SMILES IDX 5 1 11 2 9 3 8 4 7 5 6 6 4 7 3 8 2 9 1 10 12 11 13 12 14 13
REMARK SMILES IDX 15 14 10 15
REMARK H PARENT 10 16
REMARK Flexibility Score: inf
ROOT
ATOM      1  C   UNL     1      -3.937  -6.607   1.684  1.00  0.00    -0.041 A 
ATOM      2  C   UNL     1      -5.248  -7.081   1.995  1.00  0.00    -0.003 A 
ATOM      3  C   UNL     1      -5.380  -8.309   2.702  1.00  0.00     0.119 A 
ATOM      4  C   UNL     1      -4.242  -9.018   3.095  1.00  0.00     0.046 A 
ATOM      5  C   UNL     1      -2.970  -8.543   2.798  1.00  0.00     0.004 A 
ATOM      6  C   UNL     1      -2.818  -7.353   2.096  1.00  0.00     0.004 A 
ENDROOT
BRANCH   1   7
ATOM      7  C   UNL     1      -3.678  -5.350   0.875  1.00  0.00     0.036 C 
BRANCH   7   8
ATOM      8  C   UNL     1      -2.495  -4.538   1.426  1.00  0.00     0.004 C 
BRANCH   8   9
ATOM      9  C   UNL     1      -2.859  -3.766   2.701  1.00  0.00    -0.003 C 
ATOM     10  C   UNL     1      -1.821  -3.990   3.797  1.00  0.00     0.004 C 
ENDBRANCH   8   9
ENDBRANCH   7   8
ENDBRANCH   1   7
BRANCH   2  11
ATOM     11  C   UNL     1      -6.493  -6.286   1.625  1.00  0.00     0.040 C 
BRANCH  11  12
ATOM     12  C   UNL     1      -7.033  -5.461   2.807  1.00  0.00     0.005 C 
BRANCH  12  13
ATOM     13  C   UNL     1      -6.460  -4.038   2.840  1.00  0.00    -0.003 C 
ATOM     14  C   UNL     1      -6.617  -3.350   1.488  1.00  0.00     0.004 C 
ENDBRANCH  12  13
ENDBRANCH  11  12
ENDBRANCH   2  11
BRANCH   3  15
ATOM     15  O   UNL     1      -6.620  -8.865   3.029  1.00  0.00    -0.508 OA
ATOM     16  H   UNL     1      -6.759  -9.569   3.739  1.00  0.00     0.293 HD
ENDBRANCH   3  15
TORSDOF 7
ENDMDL
MODEL 7
REMARK VINA RESULT:    -4.922      1.913      4.191
REMARK INTER + INTRA:          -8.094
REMARK INTER:                  -7.039
REMARK INTRA:                  -1.055
REMARK UNBOUND:                -1.302
REMARK SMILES CCCCc1cccc(O)c1CCCC
REMARK SMILES IDX 5 1 11 2 9 3 8 4 7 5 6 6 4 7 3 8 2 9 1 10 12 11 13 12 14 13
REMARK SMILES IDX 15 14 10 15
REMARK H PARENT 10 16
REMARK Flexibility Score: inf
ROOT
ATOM      1  C   UNL     1      -7.768  -8.894  12.754  1.00  0.00    -0.041 A 
ATOM      2  C   UNL     1      -7.129  -7.626  12.605  1.00  0.00    -0.003 A 
ATOM      3  C   UNL     1      -6.328  -7.397  11.451  1.00  0.00     0.119 A 
ATOM      4  C   UNL     1      -6.195  -8.393  10.481  1.00  0.00     0.046 A 
ATOM      5  C   UNL     1      -6.830  -9.620  10.629  1.00  0.00     0.004 A 
ATOM      6  C   UNL     1      -7.605  -9.871  11.755  1.00  0.00     0.004 A 
ENDROOT
BRANCH   1   7
ATOM      7  C   UNL     1      -8.586  -9.275  13.974  1.00  0.00     0.036 C 
BRANCH   7   8
ATOM      8  C   UNL     1      -9.938  -9.900  13.596  1.00  0.00     0.004 C 
BRANCH   8   9
ATOM      9  C   UNL     1     -11.113  -8.942  13.834  1.00  0.00    -0.003 C 
ATOM     10  C   UNL     1     -10.753  -7.875  14.865  1.00  0.00     0.004 C 
ENDBRANCH   8   9
ENDBRANCH   7   8
ENDBRANCH   1   7
BRANCH   2  11
ATOM     11  C   UNL     1      -7.317  -6.512  13.626  1.00  0.00     0.040 C 
BRANCH  11  12
ATOM     12  C   UNL     1      -8.469  -5.562  13.249  1.00  0.00     0.005 C 
BRANCH  12  13
ATOM     13  C   UNL     1      -8.000  -4.112  13.075  1.00  0.00    -0.003 C 
ATOM     14  C   UNL     1      -6.610  -3.908  13.669  1.00  0.00     0.004 C 
ENDBRANCH  12  13
ENDBRANCH  11  12
ENDBRANCH   2  11
BRANCH   3  15
ATOM     15  O   UNL     1      -5.645  -6.198  11.230  1.00  0.00    -0.508 OA
ATOM     16  H   UNL     1      -6.042  -5.393  10.766  1.00  0.00     0.293 HD
ENDBRANCH   3  15
TORSDOF 7
ENDMDL
MODEL 8
REMARK VINA RESULT:    -4.882     10.971     12.301
REMARK INTER + INTRA:          -8.039
REMARK INTER:                  -7.108
REMARK INTRA:                  -0.931
REMARK UNBOUND:                -1.302
REMARK SMILES CCCCc1cccc(O)c1CCCC
REMARK SMILES IDX 5 1 11 2 9 3 8 4 7 5 6 6 4 7 3 8 2 9 1 10 12 11 13 12 14 13
REMARK SMILES IDX 15 14 10 15
REMARK H PARENT 10 16
REMARK Flexibility Score: inf
ROOT
ATOM      1  C   UNL     1      -3.928  -5.064   1.960  1.00  0.00    -0.041 A 
ATOM      2  C   UNL     1      -4.398  -6.344   1.533  1.00  0.00    -0.003 A 
ATOM      3  C   UNL     1      -5.801  -6.546   1.398  1.00  0.00     0.119 A 
ATOM      4  C   UNL     1      -6.688  -5.500   1.662  1.00  0.00     0.046 A 
ATOM      5  C   UNL     1      -6.221  -4.255   2.066  1.00  0.00     0.004 A 
ATOM      6  C   UNL     1      -4.856  -4.040   2.218  1.00  0.00     0.004 A 
ENDROOT
BRANCH   1   7
ATOM      7  C   UNL     1      -2.463  -4.757   2.205  1.00  0.00     0.036 C 
BRANCH   7   8
ATOM      8  C   UNL     1      -2.182  -4.406   3.675  1.00  0.00     0.004 C 
BRANCH   8   9
ATOM      9  C   UNL     1      -0.804  -4.897   4.141  1.00  0.00    -0.003 C 
ATOM     10  C   UNL     1      -0.880  -6.325   4.673  1.00  0.00     0.004 C 
ENDBRANCH   8   9
ENDBRANCH   7   8
ENDBRANCH   1   7
BRANCH   2  11
ATOM     11  C   UNL     1      -3.436  -7.472   1.184  1.00  0.00     0.040 C 
BRANCH  11  12
ATOM     12  C   UNL     1      -2.953  -8.234   2.431  1.00  0.00     0.005 C 
BRANCH  12  13
ATOM     13  C   UNL     1      -3.985  -8.216   3.566  1.00  0.00    -0.003 C 
ATOM     14  C   UNL     1      -4.783  -9.515   3.604  1.00  0.00     0.004 C 
ENDBRANCH  12  13
ENDBRANCH  11  12
ENDBRANCH   2  11
BRANCH   3  15
ATOM     15  O   UNL     1      -6.355  -7.769   1.010  1.00  0.00    -0.508 OA
ATOM     16  H   UNL     1      -6.907  -8.360   1.615  1.00  0.00     0.293 HD
ENDBRANCH   3  15
TORSDOF 7
ENDMDL
MODEL 9
REMARK VINA RESULT:    -4.837     13.076     15.666
REMARK INTER + INTRA:          -7.977
REMARK INTER:                  -7.111
REMARK INTRA:                  -0.866
REMARK UNBOUND:                -1.302
REMARK SMILES CCCCc1cccc(O)c1CCCC
REMARK SMILES IDX 5 1 11 2 9 3 8 4 7 5 6 6 4 7 3 8 2 9 1 10 12 11 13 12 14 13
REMARK SMILES IDX 15 14 10 15
REMARK H PARENT 10 16
REMARK Flexibility Score: inf
ROOT
ATOM      1  C   UNL     1       2.430   3.236  10.855  1.00  0.00    -0.041 A 
ATOM      2  C   UNL     1       3.678   3.405  11.530  1.00  0.00    -0.003 A 
ATOM      3  C   UNL     1       4.277   4.697  11.542  1.00  0.00     0.119 A 
ATOM      4  C   UNL     1       3.639   5.772  10.921  1.00  0.00     0.046 A 
ATOM      5  C   UNL     1       2.420   5.600  10.277  1.00  0.00     0.004 A 
ATOM      6  C   UNL     1       1.823   4.345  10.239  1.00  0.00     0.004 A 
ENDROOT
BRANCH   1   7
ATOM      7  C   UNL     1       1.736   1.895  10.717  1.00  0.00     0.036 C 
BRANCH   7   8
ATOM      8  C   UNL     1       0.206   2.036  10.660  1.00  0.00     0.004 C 
BRANCH   8   9
ATOM      9  C   UNL     1      -0.516   0.775  11.154  1.00  0.00    -0.003 C 
ATOM     10  C   UNL     1       0.292   0.065  12.237  1.00  0.00     0.004 C 
ENDBRANCH   8   9
ENDBRANCH   7   8
ENDBRANCH   1   7
BRANCH   2  11
ATOM     11  C   UNL     1       4.352   2.253  12.262  1.00  0.00     0.040 C 
BRANCH  11  12
ATOM     12  C   UNL     1       3.647   1.910  13.587  1.00  0.00     0.005 C 
BRANCH  12  13
ATOM     13  C   UNL     1       4.299   2.597  14.794  1.00  0.00    -0.003 C 
ATOM     14  C   UNL     1       3.538   3.859  15.186  1.00  0.00     0.004 C 
ENDBRANCH  12  13
ENDBRANCH  11  12
ENDBRANCH   2  11
BRANCH   3  15
ATOM     15  O   UNL     1       5.507   4.953  12.155  1.00  0.00    -0.508 OA
ATOM     16  H   UNL     1       5.622   5.155  13.138  1.00  0.00     0.293 HD
ENDBRANCH   3  15
TORSDOF 7
ENDMDL
