MODEL 1
REMARK VINA RESULT:    -4.111      0.000      0.000
REMARK INTER + INTRA:          -9.732
REMARK INTER:                  -7.476
REMARK INTRA:                  -2.255
REMARK UNBOUND:                -2.255
REMARK SMILES CCCCCCCCCCCCCC[C@@H](C)C(=O)[O-]
REMARK SMILES IDX 9 1 10 2 11 3 12 4 13 5 14 6 15 7 16 8 17 9 18 10 19 11 8 12
REMARK SMILES IDX 7 13 6 14 5 15 4 16 3 17 2 18 1 19
REMARK H PARENT
REMARK Flexibility Score: inf
ROOT
ATOM      1  C   UNL     1      47.815   0.799  75.085  1.00  0.00     0.000 C 
ENDROOT
BRANCH   1   2
ATOM      2  C   UNL     1      47.418   0.859  73.603  1.00  0.00     0.000 C 
BRANCH   2   3
ATOM      3  C   UNL     1      48.637   0.647  72.695  1.00  0.00     0.000 C 
BRANCH   3   4
ATOM      4  C   UNL     1      48.417  -0.458  71.646  1.00  0.00     0.000 C 
BRANCH   4   5
ATOM      5  C   UNL     1      49.481  -1.575  71.698  1.00  0.00     0.001 C 
BRANCH   5   6
ATOM      6  C   UNL     1      50.797  -1.092  72.341  1.00  0.00     0.009 C 
BRANCH   6   7
ATOM      7  C   UNL     1      51.762  -2.229  72.737  1.00  0.00     0.032 C 
ATOM      8  C   UNL     1      51.214  -3.620  72.386  1.00  0.00     0.014 C 
BRANCH   7   9
ATOM      9  C   UNL     1      53.141  -2.002  72.170  1.00  0.00     0.044 C 
ATOM     10  O   UNL     1      53.497  -0.863  71.763  1.00  0.00    -0.550 OA
ATOM     11  O   UNL     1      54.054  -3.048  72.148  1.00  0.00    -0.550 OA
ENDBRANCH   7   9
ENDBRANCH   6   7
ENDBRANCH   5   6
ENDBRANCH   4   5
ENDBRANCH   3   4
ENDBRANCH   2   3
ENDBRANCH   1   2
BRANCH   1  12
ATOM     12  C   UNL     1      47.678  -0.616  75.673  1.00  0.00     0.000 C 
BRANCH  12  13
ATOM     13  C   UNL     1      49.037  -1.317  75.839  1.00  0.00    -0.000 C 
BRANCH  13  14
ATOM     14  C   UNL     1      49.053  -2.729  75.229  1.00  0.00    -0.000 C 
BRANCH  14  15
ATOM     15  C   UNL     1      47.649  -3.238  74.871  1.00  0.00    -0.000 C 
BRANCH  15  16
ATOM     16  C   UNL     1      47.627  -3.842  73.461  1.00  0.00    -0.000 C 
BRANCH  16  17
ATOM     17  C   UNL     1      47.294  -5.340  73.509  1.00  0.00    -0.000 C 
BRANCH  17  18
ATOM     18  C   UNL     1      48.272  -6.189  72.681  1.00  0.00    -0.003 C 
ATOM     19  C   UNL     1      47.624  -7.454  72.117  1.00  0.00     0.004 C 
ENDBRANCH  17  18
ENDBRANCH  16  17
ENDBRANCH  15  16
ENDBRANCH  14  15
ENDBRANCH  13  14
ENDBRANCH  12  13
ENDBRANCH   1  12
TORSDOF 14
ENDMDL
MODEL 2
REMARK VINA RESULT:    -4.056      3.604      6.273
REMARK INTER + INTRA:          -9.632
REMARK INTER:                  -6.925
REMARK INTRA:                  -2.707
REMARK UNBOUND:                -2.255
REMARK SMILES CCCCCCCCCCCCCC[C@@H](C)C(=O)[O-]
REMARK SMILES IDX 9 1 10 2 11 3 12 4 13 5 14 6 15 7 16 8 17 9 18 10 19 11 8 12
REMARK SMILES IDX 7 13 6 14 5 15 4 16 3 17 2 18 1 19
REMARK H PARENT
REMARK Flexibility Score: inf
ROOT
ATOM      1  C   UNL     1      50.348  -3.869  72.085  1.00  0.00     0.000 C 
ENDROOT
BRANCH   1   2
ATOM      2  C   UNL     1      49.265  -4.820  72.614  1.00  0.00     0.000 C 
BRANCH   2   3
ATOM      3  C   UNL     1      47.923  -4.094  72.777  1.00  0.00     0.000 C 
BRANCH   3   4
ATOM      4  C   UNL     1      47.125  -4.579  74.002  1.00  0.00     0.000 C 
BRANCH   4   5
ATOM      5  C   UNL     1      48.013  -5.169  75.118  1.00  0.00     0.001 C 
BRANCH   5   6
ATOM      6  C   UNL     1      47.568  -4.700  76.520  1.00  0.00     0.009 C 
BRANCH   6   7
ATOM      7  C   UNL     1      48.572  -5.030  77.645  1.00  0.00     0.032 C 
ATOM      8  C   UNL     1      48.579  -3.974  78.760  1.00  0.00     0.014 C 
BRANCH   7   9
ATOM      9  C   UNL     1      48.357  -6.423  78.182  1.00  0.00     0.044 C 
ATOM     10  O   UNL     1      47.254  -6.760  78.690  1.00  0.00    -0.550 OA
ATOM     11  O   UNL     1      49.368  -7.367  78.063  1.00  0.00    -0.550 OA
ENDBRANCH   7   9
ENDBRANCH   6   7
ENDBRANCH   5   6
ENDBRANCH   4   5
ENDBRANCH   3   4
ENDBRANCH   2   3
ENDBRANCH   1   2
BRANCH   1  12
ATOM     12  C   UNL     1      49.798  -2.466  71.779  1.00  0.00     0.000 C 
BRANCH  12  13
ATOM     13  C   UNL     1      50.842  -1.361  72.015  1.00  0.00    -0.000 C 
BRANCH  13  14
ATOM     14  C   UNL     1      50.202   0.014  72.273  1.00  0.00    -0.000 C 
BRANCH  14  15
ATOM     15  C   UNL     1      48.708  -0.080  72.616  1.00  0.00    -0.000 C 
BRANCH  15  16
ATOM     16  C   UNL     1      48.468   0.205  74.104  1.00  0.00    -0.000 C 
BRANCH  16  17
ATOM     17  C   UNL     1      48.127  -1.085  74.864  1.00  0.00    -0.000 C 
BRANCH  17  18
ATOM     18  C   UNL     1      49.133  -1.395  75.984  1.00  0.00    -0.003 C 
ATOM     19  C   UNL     1      50.299  -2.260  75.508  1.00  0.00     0.004 C 
ENDBRANCH  17  18
ENDBRANCH  16  17
ENDBRANCH  15  16
ENDBRANCH  14  15
ENDBRANCH  13  14
ENDBRANCH  12  13
ENDBRANCH   1  12
TORSDOF 14
ENDMDL
MODEL 3
REMARK VINA RESULT:    -4.044      3.134      5.850
REMARK INTER + INTRA:          -9.609
REMARK INTER:                  -7.284
REMARK INTRA:                  -2.325
REMARK UNBOUND:                -2.255
REMARK SMILES CCCCCCCCCCCCCC[C@@H](C)C(=O)[O-]
REMARK SMILES IDX 9 1 10 2 11 3 12 4 13 5 14 6 15 7 16 8 17 9 18 10 19 11 8 12
REMARK SMILES IDX 7 13 6 14 5 15 4 16 3 17 2 18 1 19
REMARK H PARENT
REMARK Flexibility Score: inf
ROOT
ATOM      1  C   UNL     1      47.180  -4.429  74.088  1.00  0.00     0.000 C 
ENDROOT
BRANCH   1   2
ATOM      2  C   UNL     1      47.612  -3.678  75.356  1.00  0.00     0.000 C 
BRANCH   2   3
ATOM      3  C   UNL     1      47.811  -2.183  75.072  1.00  0.00     0.000 C 
BRANCH   3   4
ATOM      4  C   UNL     1      49.121  -1.631  75.663  1.00  0.00     0.000 C 
BRANCH   4   5
ATOM      5  C   UNL     1      49.960  -2.698  76.400  1.00  0.00     0.001 C 
BRANCH   5   6
ATOM      6  C   UNL     1      50.453  -2.199  77.774  1.00  0.00     0.009 C 
BRANCH   6   7
ATOM      7  C   UNL     1      50.209  -3.190  78.932  1.00  0.00     0.032 C 
ATOM      8  C   UNL     1      48.885  -3.955  78.786  1.00  0.00     0.014 C 
BRANCH   7   9
ATOM      9  C   UNL     1      51.384  -4.116  79.119  1.00  0.00     0.044 C 
ATOM     10  O   UNL     1      51.582  -5.081  78.333  1.00  0.00    -0.550 OA
ATOM     11  O   UNL     1      52.296  -3.869  80.136  1.00  0.00    -0.550 OA
ENDBRANCH   7   9
ENDBRANCH   6   7
ENDBRANCH   5   6
ENDBRANCH   4   5
ENDBRANCH   3   4
ENDBRANCH   2   3
ENDBRANCH   1   2
BRANCH   1  12
ATOM     12  C   UNL     1      47.873  -3.894  72.823  1.00  0.00     0.000 C 
BRANCH  12  13
ATOM     13  C   UNL     1      49.112  -4.720  72.438  1.00  0.00    -0.000 C 
BRANCH  13  14
ATOM     14  C   UNL     1      50.378  -3.859  72.296  1.00  0.00    -0.000 C 
BRANCH  14  15
ATOM     15  C   UNL     1      50.095  -2.483  71.675  1.00  0.00    -0.000 C 
BRANCH  15  16
ATOM     16  C   UNL     1      50.860  -1.379  72.415  1.00  0.00    -0.000 C 
BRANCH  16  17
ATOM     17  C   UNL     1      50.191  -0.012  72.207  1.00  0.00    -0.000 C 
BRANCH  17  18
ATOM     18  C   UNL     1      48.666  -0.117  72.055  1.00  0.00    -0.003 C 
ATOM     19  C   UNL     1      47.916   0.917  72.895  1.00  0.00     0.004 C 
ENDBRANCH  17  18
ENDBRANCH  16  17
ENDBRANCH  15  16
ENDBRANCH  14  15
ENDBRANCH  13  14
ENDBRANCH  12  13
ENDBRANCH   1  12
TORSDOF 14
ENDMDL
MODEL 4
REMARK VINA RESULT:    -4.008      2.460      3.663
REMARK INTER + INTRA:          -9.544
REMARK INTER:                  -7.580
REMARK INTRA:                  -1.964
REMARK UNBOUND:                -2.255
REMARK SMILES CCCCCCCCCCCCCC[C@@H](C)C(=O)[O-]
REMARK SMILES IDX 9 1 10 2 11 3 12 4 13 5 14 6 15 7 16 8 17 9 18 10 19 11 8 12
REMARK SMILES IDX 7 13 6 14 5 15 4 16 3 17 2 18 1 19
REMARK H PARENT
REMARK Flexibility Score: inf
ROOT
ATOM      1  C   UNL     1      48.019  -3.240  74.794  1.00  0.00     0.000 C 
ENDROOT
BRANCH   1   2
ATOM      2  C   UNL     1      48.108  -3.169  73.263  1.00  0.00     0.000 C 
BRANCH   2   3
ATOM      3  C   UNL     1      48.948  -4.326  72.704  1.00  0.00     0.000 C 
BRANCH   3   4
ATOM      4  C   UNL     1      50.127  -3.845  71.839  1.00  0.00     0.000 C 
BRANCH   4   5
ATOM      5  C   UNL     1      51.434  -3.649  72.637  1.00  0.00     0.001 C 
BRANCH   5   6
ATOM      6  C   UNL     1      51.616  -2.190  73.103  1.00  0.00     0.009 C 
BRANCH   6   7
ATOM      7  C   UNL     1      51.239  -1.135  72.040  1.00  0.00     0.032 C 
ATOM      8  C   UNL     1      50.067  -0.244  72.479  1.00  0.00     0.014 C 
BRANCH   7   9
ATOM      9  C   UNL     1      52.440  -0.327  71.618  1.00  0.00     0.044 C 
ATOM     10  O   UNL     1      53.576  -0.862  71.504  1.00  0.00    -0.550 OA
ATOM     11  O   UNL     1      52.284   1.013  71.291  1.00  0.00    -0.550 OA
ENDBRANCH   7   9
ENDBRANCH   6   7
ENDBRANCH   5   6
ENDBRANCH   4   5
ENDBRANCH   3   4
ENDBRANCH   2   3
ENDBRANCH   1   2
BRANCH   1  12
ATOM     12  C   UNL     1      48.675  -2.027  75.477  1.00  0.00     0.000 C 
BRANCH  12  13
ATOM     13  C   UNL     1      49.957  -2.402  76.238  1.00  0.00    -0.000 C 
BRANCH  13  14
ATOM     14  C   UNL     1      50.002  -3.889  76.627  1.00  0.00    -0.000 C 
BRANCH  14  15
ATOM     15  C   UNL     1      49.594  -4.135  78.087  1.00  0.00    -0.000 C 
BRANCH  15  16
ATOM     16  C   UNL     1      48.126  -4.570  78.180  1.00  0.00    -0.000 C 
BRANCH  16  17
ATOM     17  C   UNL     1      48.012  -6.030  78.640  1.00  0.00    -0.000 C 
BRANCH  17  18
ATOM     18  C   UNL     1      49.212  -6.884  78.199  1.00  0.00    -0.003 C 
ATOM     19  C   UNL     1      48.885  -7.796  77.016  1.00  0.00     0.004 C 
ENDBRANCH  17  18
ENDBRANCH  16  17
ENDBRANCH  15  16
ENDBRANCH  14  15
ENDBRANCH  13  14
ENDBRANCH  12  13
ENDBRANCH   1  12
TORSDOF 14
ENDMDL
MODEL 5
REMARK VINA RESULT:    -4.003      1.663      2.523
REMARK INTER + INTRA:          -9.535
REMARK INTER:                  -7.622
REMARK INTRA:                  -1.913
REMARK UNBOUND:                -2.255
REMARK SMILES CCCCCCCCCCCCCC[C@@H](C)C(=O)[O-]
REMARK SMILES IDX 9 1 10 2 11 3 12 4 13 5 14 6 15 7 16 8 17 9 18 10 19 11 8 12
REMARK SMILES IDX 7 13 6 14 5 15 4 16 3 17 2 18 1 19
REMARK H PARENT
REMARK Flexibility Score: inf
ROOT
ATOM      1  C   UNL     1      49.419  -2.205  75.391  1.00  0.00     0.000 C 
ENDROOT
BRANCH   1   2
ATOM      2  C   UNL     1      48.393  -1.072  75.238  1.00  0.00     0.000 C 
BRANCH   2   3
ATOM      3  C   UNL     1      48.794  -0.112  74.109  1.00  0.00     0.000 C 
BRANCH   3   4
ATOM      4  C   UNL     1      48.223  -0.526  72.741  1.00  0.00     0.000 C 
BRANCH   4   5
ATOM      5  C   UNL     1      49.272  -1.165  71.806  1.00  0.00     0.001 C 
BRANCH   5   6
ATOM      6  C   UNL     1      50.700  -0.668  72.112  1.00  0.00     0.009 C 
BRANCH   6   7
ATOM      7  C   UNL     1      51.669  -1.775  72.576  1.00  0.00     0.032 C 
ATOM      8  C   UNL     1      51.115  -3.187  72.333  1.00  0.00     0.014 C 
BRANCH   7   9
ATOM      9  C   UNL     1      53.041  -1.592  71.977  1.00  0.00     0.044 C 
ATOM     10  O   UNL     1      53.424  -0.465  71.564  1.00  0.00    -0.550 OA
ATOM     11  O   UNL     1      53.918  -2.668  71.932  1.00  0.00    -0.550 OA
ENDBRANCH   7   9
ENDBRANCH   6   7
ENDBRANCH   5   6
ENDBRANCH   4   5
ENDBRANCH   3   4
ENDBRANCH   2   3
ENDBRANCH   1   2
BRANCH   1  12
ATOM     12  C   UNL     1      48.762  -3.596  75.392  1.00  0.00     0.000 C 
BRANCH  12  13
ATOM     13  C   UNL     1      47.438  -3.621  74.610  1.00  0.00    -0.000 C 
BRANCH  13  14
ATOM     14  C   UNL     1      47.565  -4.333  73.253  1.00  0.00    -0.000 C 
BRANCH  14  15
ATOM     15  C   UNL     1      46.648  -5.560  73.137  1.00  0.00    -0.000 C 
BRANCH  15  16
ATOM     16  C   UNL     1      45.584  -5.556  74.241  1.00  0.00    -0.000 C 
BRANCH  16  17
ATOM     17  C   UNL     1      44.589  -6.711  74.052  1.00  0.00    -0.000 C 
BRANCH  17  18
ATOM     18  C   UNL     1      44.469  -7.598  75.301  1.00  0.00    -0.003 C 
ATOM     19  C   UNL     1      45.813  -7.840  75.986  1.00  0.00     0.004 C 
ENDBRANCH  17  18
ENDBRANCH  16  17
ENDBRANCH  15  16
ENDBRANCH  14  15
ENDBRANCH  13  14
ENDBRANCH  12  13
ENDBRANCH   1  12
TORSDOF 14
ENDMDL
MODEL 6
REMARK VINA RESULT:    -3.959      3.276      4.867
REMARK INTER + INTRA:          -9.455
REMARK INTER:                  -6.750
REMARK INTRA:                  -2.706
REMARK UNBOUND:                -2.255
REMARK SMILES CCCCCCCCCCCCCC[C@@H](C)C(=O)[O-]
REMARK SMILES IDX 9 1 10 2 11 3 12 4 13 5 14 6 15 7 16 8 17 9 18 10 19 11 8 12
REMARK SMILES IDX 7 13 6 14 5 15 4 16 3 17 2 18 1 19
REMARK H PARENT
REMARK Flexibility Score: inf
ROOT
ATOM      1  C   UNL     1      47.882   0.003  72.828  1.00  0.00     0.000 C 
ENDROOT
BRANCH   1   2
ATOM      2  C   UNL     1      48.634   0.664  73.992  1.00  0.00     0.000 C 
BRANCH   2   3
ATOM      3  C   UNL     1      48.398  -0.095  75.305  1.00  0.00     0.000 C 
BRANCH   3   4
ATOM      4  C   UNL     1      48.583  -1.617  75.158  1.00  0.00     0.000 C 
BRANCH   4   5
ATOM      5  C   UNL     1      49.977  -2.111  75.599  1.00  0.00     0.001 C 
BRANCH   5   6
ATOM      6  C   UNL     1      49.896  -3.413  76.423  1.00  0.00     0.009 C 
BRANCH   6   7
ATOM      7  C   UNL     1      48.476  -3.761  76.917  1.00  0.00     0.032 C 
ATOM      8  C   UNL     1      48.001  -5.139  76.430  1.00  0.00     0.014 C 
BRANCH   7   9
ATOM      9  C   UNL     1      48.364  -3.618  78.414  1.00  0.00     0.044 C 
ATOM     10  O   UNL     1      47.240  -3.521  78.975  1.00  0.00    -0.550 OA
ATOM     11  O   UNL     1      49.513  -3.653  79.193  1.00  0.00    -0.550 OA
ENDBRANCH   7   9
ENDBRANCH   6   7
ENDBRANCH   5   6
ENDBRANCH   4   5
ENDBRANCH   3   4
ENDBRANCH   2   3
ENDBRANCH   1   2
BRANCH   1  12
ATOM     12  C   UNL     1      48.822  -0.411  71.682  1.00  0.00     0.000 C 
BRANCH  12  13
ATOM     13  C   UNL     1      50.305  -0.218  72.039  1.00  0.00    -0.000 C 
BRANCH  13  14
ATOM     14  C   UNL     1      51.060  -1.551  72.173  1.00  0.00    -0.000 C 
BRANCH  14  15
ATOM     15  C   UNL     1      50.202  -2.764  71.782  1.00  0.00    -0.000 C 
BRANCH  15  16
ATOM     16  C   UNL     1      50.718  -4.041  72.455  1.00  0.00    -0.000 C 
BRANCH  16  17
ATOM     17  C   UNL     1      49.560  -4.859  73.045  1.00  0.00    -0.000 C 
BRANCH  17  18
ATOM     18  C   UNL     1      48.183  -4.287  72.675  1.00  0.00    -0.003 C 
ATOM     19  C   UNL     1      47.150  -5.374  72.383  1.00  0.00     0.004 C 
ENDBRANCH  17  18
ENDBRANCH  16  17
ENDBRANCH  15  16
ENDBRANCH  14  15
ENDBRANCH  13  14
ENDBRANCH  12  13
ENDBRANCH   1  12
TORSDOF 14
ENDMDL
MODEL 7
REMARK VINA RESULT:    -3.932      3.019      5.451
REMARK INTER + INTRA:          -9.405
REMARK INTER:                  -7.159
REMARK INTRA:                  -2.246
REMARK UNBOUND:                -2.255
REMARK SMILES CCCCCCCCCCCCCC[C@@H](C)C(=O)[O-]
REMARK SMILES IDX 9 1 10 2 11 3 12 4 13 5 14 6 15 7 16 8 17 9 18 10 19 11 8 12
REMARK SMILES IDX 7 13 6 14 5 15 4 16 3 17 2 18 1 19
REMARK H PARENT
REMARK Flexibility Score: inf
ROOT
ATOM      1  C   UNL     1      48.590   1.982  74.850  1.00  0.00     0.000 C 
ENDROOT
BRANCH   1   2
ATOM      2  C   UNL     1      47.770   0.875  75.528  1.00  0.00     0.000 C 
BRANCH   2   3
ATOM      3  C   UNL     1      48.656   0.004  76.429  1.00  0.00     0.000 C 
BRANCH   3   4
ATOM      4  C   UNL     1      49.057  -1.327  75.766  1.00  0.00     0.000 C 
BRANCH   4   5
ATOM      5  C   UNL     1      47.857  -2.118  75.203  1.00  0.00     0.001 C 
BRANCH   5   6
ATOM      6  C   UNL     1      48.274  -3.509  74.681  1.00  0.00     0.009 C 
BRANCH   6   7
ATOM      7  C   UNL     1      47.142  -4.286  73.977  1.00  0.00     0.032 C 
ATOM      8  C   UNL     1      47.546  -4.787  72.582  1.00  0.00     0.014 C 
BRANCH   7   9
ATOM      9  C   UNL     1      46.613  -5.397  74.849  1.00  0.00     0.044 C 
ATOM     10  O   UNL     1      45.590  -6.054  74.516  1.00  0.00    -0.550 OA
ATOM     11  O   UNL     1      47.297  -5.744  76.006  1.00  0.00    -0.550 OA
ENDBRANCH   7   9
ENDBRANCH   6   7
ENDBRANCH   5   6
ENDBRANCH   4   5
ENDBRANCH   3   4
ENDBRANCH   2   3
ENDBRANCH   1   2
BRANCH   1  12
ATOM     12  C   UNL     1      48.320   2.070  73.338  1.00  0.00     0.000 C 
BRANCH  12  13
ATOM     13  C   UNL     1      48.066   0.691  72.705  1.00  0.00    -0.000 C 
BRANCH  13  14
ATOM     14  C   UNL     1      49.365  -0.016  72.284  1.00  0.00    -0.000 C 
BRANCH  14  15
ATOM     15  C   UNL     1      49.119  -1.420  71.710  1.00  0.00    -0.000 C 
BRANCH  15  16
ATOM     16  C   UNL     1      50.333  -2.327  71.941  1.00  0.00    -0.000 C 
BRANCH  16  17
ATOM     17  C   UNL     1      51.412  -1.605  72.761  1.00  0.00    -0.000 C 
BRANCH  17  18
ATOM     18  C   UNL     1      52.816  -1.755  72.153  1.00  0.00    -0.003 C 
ATOM     19  C   UNL     1      53.319  -0.465  71.505  1.00  0.00     0.004 C 
ENDBRANCH  17  18
ENDBRANCH  16  17
ENDBRANCH  15  16
ENDBRANCH  14  15
ENDBRANCH  13  14
ENDBRANCH  12  13
ENDBRANCH   1  12
TORSDOF 14
ENDMDL
MODEL 8
REMARK VINA RESULT:    -3.903      3.680      6.466
REMARK INTER + INTRA:          -9.352
REMARK INTER:                  -6.714
REMARK INTRA:                  -2.638
REMARK UNBOUND:                -2.255
REMARK SMILES CCCCCCCCCCCCCC[C@@H](C)C(=O)[O-]
REMARK SMILES IDX 9 1 10 2 11 3 12 4 13 5 14 6 15 7 16 8 17 9 18 10 19 11 8 12
REMARK SMILES IDX 7 13 6 14 5 15 4 16 3 17 2 18 1 19
REMARK H PARENT
REMARK Flexibility Score: inf
ROOT
ATOM      1  C   UNL     1      49.737  -4.542  75.279  1.00  0.00     0.000 C 
ENDROOT
BRANCH   1   2
ATOM      2  C   UNL     1      48.270  -4.921  75.030  1.00  0.00     0.000 C 
BRANCH   2   3
ATOM      3  C   UNL     1      47.581  -3.895  74.119  1.00  0.00     0.000 C 
BRANCH   3   4
ATOM      4  C   UNL     1      47.597  -4.306  72.636  1.00  0.00     0.000 C 
BRANCH   4   5
ATOM      5  C   UNL     1      47.701  -5.831  72.422  1.00  0.00     0.001 C 
BRANCH   5   6
ATOM      6  C   UNL     1      46.326  -6.472  72.144  1.00  0.00     0.009 C 
BRANCH   6   7
ATOM      7  C   UNL     1      45.872  -7.485  73.216  1.00  0.00     0.032 C 
ATOM      8  C   UNL     1      47.051  -8.205  73.888  1.00  0.00     0.014 C 
BRANCH   7   9
ATOM      9  C   UNL     1      44.949  -6.844  74.222  1.00  0.00     0.044 C 
ATOM     10  O   UNL     1      44.640  -7.437  75.290  1.00  0.00    -0.550 OA
ATOM     11  O   UNL     1      44.479  -5.557  73.997  1.00  0.00    -0.550 OA
ENDBRANCH   7   9
ENDBRANCH   6   7
ENDBRANCH   5   6
ENDBRANCH   4   5
ENDBRANCH   3   4
ENDBRANCH   2   3
ENDBRANCH   1   2
BRANCH   1  12
ATOM     12  C   UNL     1      49.918  -3.037  75.542  1.00  0.00     0.000 C 
BRANCH  12  13
ATOM     13  C   UNL     1      50.975  -2.402  74.624  1.00  0.00    -0.000 C 
BRANCH  13  14
ATOM     14  C   UNL     1      51.309  -3.282  73.407  1.00  0.00    -0.000 C 
BRANCH  14  15
ATOM     15  C   UNL     1      50.753  -2.715  72.092  1.00  0.00    -0.000 C 
BRANCH  15  16
ATOM     16  C   UNL     1      50.384  -1.234  72.246  1.00  0.00    -0.000 C 
BRANCH  16  17
ATOM     17  C   UNL     1      48.949  -0.972  71.767  1.00  0.00    -0.000 C 
BRANCH  17  18
ATOM     18  C   UNL     1      48.270   0.172  72.536  1.00  0.00    -0.003 C 
ATOM     19  C   UNL     1      48.007  -0.174  74.002  1.00  0.00     0.004 C 
ENDBRANCH  17  18
ENDBRANCH  16  17
ENDBRANCH  15  16
ENDBRANCH  14  15
ENDBRANCH  13  14
ENDBRANCH  12  13
ENDBRANCH   1  12
TORSDOF 14
ENDMDL
MODEL 9
REMARK VINA RESULT:    -3.900      2.990      5.426
REMARK INTER + INTRA:          -9.347
REMARK INTER:                  -6.766
REMARK INTRA:                  -2.581
REMARK UNBOUND:                -2.255
REMARK SMILES CCCCCCCCCCCCCC[C@@H](C)C(=O)[O-]
REMARK SMILES IDX 9 1 10 2 11 3 12 4 13 5 14 6 15 7 16 8 17 9 18 10 19 11 8 12
REMARK SMILES IDX 7 13 6 14 5 15 4 16 3 17 2 18 1 19
REMARK H PARENT
REMARK Flexibility Score: inf
ROOT
ATOM      1  C   UNL     1      52.084  -0.997  72.017  1.00  0.00     0.000 C 
ENDROOT
BRANCH   1   2
ATOM      2  C   UNL     1      51.939  -2.019  73.154  1.00  0.00     0.000 C 
BRANCH   2   3
ATOM      3  C   UNL     1      51.842  -3.449  72.603  1.00  0.00     0.000 C 
BRANCH   3   4
ATOM      4  C   UNL     1      50.527  -4.151  72.989  1.00  0.00     0.000 C 
BRANCH   4   5
ATOM      5  C   UNL     1      49.480  -4.160  71.855  1.00  0.00     0.001 C 
BRANCH   5   6
ATOM      6  C   UNL     1      48.070  -4.514  72.372  1.00  0.00     0.009 C 
BRANCH   6   7
ATOM      7  C   UNL     1      48.046  -5.646  73.420  1.00  0.00     0.032 C 
ATOM      8  C   UNL     1      47.362  -5.226  74.730  1.00  0.00     0.014 C 
BRANCH   7   9
ATOM      9  C   UNL     1      47.455  -6.911  72.850  1.00  0.00     0.044 C 
ATOM     10  O   UNL     1      46.462  -6.872  72.076  1.00  0.00    -0.550 OA
ATOM     11  O   UNL     1      48.049  -8.134  73.134  1.00  0.00    -0.550 OA
ENDBRANCH   7   9
ENDBRANCH   6   7
ENDBRANCH   5   6
ENDBRANCH   4   5
ENDBRANCH   3   4
ENDBRANCH   2   3
ENDBRANCH   1   2
BRANCH   1  12
ATOM     12  C   UNL     1      50.971   0.064  72.036  1.00  0.00     0.000 C 
BRANCH  12  13
ATOM     13  C   UNL     1      49.571  -0.549  71.860  1.00  0.00    -0.000 C 
BRANCH  13  14
ATOM     14  C   UNL     1      48.465   0.306  72.501  1.00  0.00    -0.000 C 
BRANCH  14  15
ATOM     15  C   UNL     1      48.304   0.040  74.005  1.00  0.00    -0.000 C 
BRANCH  15  16
ATOM     16  C   UNL     1      48.285  -1.465  74.298  1.00  0.00    -0.000 C 
BRANCH  16  17
ATOM     17  C   UNL     1      48.475  -1.737  75.797  1.00  0.00    -0.000 C 
BRANCH  17  18
ATOM     18  C   UNL     1      49.946  -1.975  76.173  1.00  0.00    -0.003 C 
ATOM     19  C   UNL     1      50.223  -3.419  76.590  1.00  0.00     0.004 C 
ENDBRANCH  17  18
ENDBRANCH  16  17
ENDBRANCH  15  16
ENDBRANCH  14  15
ENDBRANCH  13  14
ENDBRANCH  12  13
ENDBRANCH   1  12
TORSDOF 14
ENDMDL
