MODEL 1
REMARK VINA RESULT:    -6.022      0.000      0.000
REMARK INTER + INTRA:          -8.571
REMARK INTER:                  -8.134
REMARK INTRA:                  -0.437
REMARK UNBOUND:                -0.437
REMARK SMILES O=c1c(-c2ccc(O)cc2)coc2c([C@H]3O[C@@H](CO)[C@@H](O)[C@@H](O)[C@H]3O)c(O)ccc12
REMARK SMILES IDX 3 1 11 2 12 3 13 4 30 5 2 6 1 7 29 8 28 9 26 10 14 11 4 12
REMARK SMILES IDX 5 13 6 14 7 15 10 16 9 17 8 18 15 20 24 21 16 22 22 23 17 24
REMARK SMILES IDX 20 25 25 26 23 28 18 30 19 31 21 33 27 35
REMARK H PARENT 8 19 25 27 23 29 19 32 21 34 27 36
REMARK Flexibility Score: inf
ROOT
ATOM      1  C   UNL     1     164.148 178.037 166.277  1.00  0.00     0.065 A 
ATOM      2  C   UNL     1     164.509 176.826 165.671  1.00  0.00     0.208 A 
ATOM      3  O   UNL     1     165.288 176.806 164.596  1.00  0.00    -0.463 OA
ATOM      4  C   UNL     1     165.772 177.907 164.026  1.00  0.00     0.147 A 
ATOM      5  C   UNL     1     165.467 179.173 164.580  1.00  0.00     0.066 A 
ATOM      6  C   UNL     1     164.648 179.230 165.722  1.00  0.00     0.200 A 
ATOM      7  O   UNL     1     164.380 180.341 166.258  1.00  0.00    -0.288 OA
ATOM      8  C   UNL     1     165.995 180.331 163.990  1.00  0.00     0.020 A 
ATOM      9  C   UNL     1     166.821 180.236 162.872  1.00  0.00     0.047 A 
ATOM     10  C   UNL     1     167.128 178.989 162.315  1.00  0.00     0.125 A 
ATOM     11  C   UNL     1     166.588 177.806 162.875  1.00  0.00     0.069 A 
ENDROOT
BRANCH   1  12
ATOM     12  C   UNL     1     163.265 178.032 167.471  1.00  0.00    -0.011 A 
ATOM     13  C   UNL     1     163.819 177.953 168.762  1.00  0.00     0.013 A 
ATOM     14  C   UNL     1     162.989 177.929 169.887  1.00  0.00     0.047 A 
ATOM     15  C   UNL     1     161.600 177.979 169.740  1.00  0.00     0.115 A 
ATOM     16  C   UNL     1     161.866 178.076 167.330  1.00  0.00     0.013 A 
ATOM     17  C   UNL     1     161.040 178.051 168.457  1.00  0.00     0.047 A 
BRANCH  15  18
ATOM     18  O   UNL     1     160.786 177.951 170.871  1.00  0.00    -0.508 OA
ATOM     19  H   UNL     1     161.072 177.472 171.717  1.00  0.00     0.293 HD
ENDBRANCH  15  18
ENDBRANCH   1  12
BRANCH  11  20
ATOM     20  C   UNL     1     166.926 176.435 162.304  1.00  0.00     0.188 C 
ATOM     21  C   UNL     1     165.854 175.991 161.283  1.00  0.00     0.179 C 
ATOM     22  O   UNL     1     167.062 175.483 163.349  1.00  0.00    -0.362 OA
ATOM     23  C   UNL     1     166.204 174.593 160.735  1.00  0.00     0.177 C 
ATOM     24  C   UNL     1     167.567 174.257 162.848  1.00  0.00     0.176 C 
ATOM     25  C   UNL     1     166.555 173.604 161.869  1.00  0.00     0.177 C 
BRANCH  21  26
ATOM     26  O   UNL     1     164.581 175.981 161.884  1.00  0.00    -0.387 OA
ATOM     27  H   UNL     1     163.955 176.425 161.255  1.00  0.00     0.211 HD
ENDBRANCH  21  26
BRANCH  23  28
ATOM     28  O   UNL     1     165.139 174.096 159.966  1.00  0.00    -0.387 OA
ATOM     29  H   UNL     1     165.409 174.180 159.013  1.00  0.00     0.211 HD
ENDBRANCH  23  28
BRANCH  24  30
ATOM     30  C   UNL     1     167.892 173.335 164.035  1.00  0.00     0.191 C 
BRANCH  30  31
ATOM     31  O   UNL     1     167.881 174.044 165.246  1.00  0.00    -0.394 OA
ATOM     32  H   UNL     1     167.473 174.930 165.053  1.00  0.00     0.210 HD
ENDBRANCH  30  31
ENDBRANCH  24  30
BRANCH  25  33
ATOM     33  O   UNL     1     165.395 173.146 162.525  1.00  0.00    -0.388 OA
ATOM     34  H   UNL     1     164.698 173.849 162.457  1.00  0.00     0.211 HD
ENDBRANCH  25  33
ENDBRANCH  11  20
BRANCH  10  35
ATOM     35  O   UNL     1     167.976 178.927 161.208  1.00  0.00    -0.507 OA
ATOM     36  H   UNL     1     167.879 178.206 160.501  1.00  0.00     0.293 HD
ENDBRANCH  10  35
TORSDOF 9
ENDMDL
MODEL 2
REMARK VINA RESULT:    -5.968      2.534      8.052
REMARK INTER + INTRA:          -8.498
REMARK INTER:                  -7.371
REMARK INTRA:                  -1.127
REMARK UNBOUND:                -0.437
REMARK SMILES O=c1c(-c2ccc(O)cc2)coc2c([C@H]3O[C@@H](CO)[C@@H](O)[C@@H](O)[C@H]3O)c(O)ccc12
REMARK SMILES IDX 3 1 11 2 12 3 13 4 30 5 2 6 1 7 29 8 28 9 26 10 14 11 4 12
REMARK SMILES IDX 5 13 6 14 7 15 10 16 9 17 8 18 15 20 24 21 16 22 22 23 17 24
REMARK SMILES IDX 20 25 25 26 23 28 18 30 19 31 21 33 27 35
REMARK H PARENT 8 19 25 27 23 29 19 32 21 34 27 36
REMARK Flexibility Score: inf
ROOT
ATOM      1  C   UNL     1     167.891 172.779 163.406  1.00  0.00     0.065 A 
ATOM      2  C   UNL     1     167.903 173.607 164.536  1.00  0.00     0.208 A 
ATOM      3  O   UNL     1     167.164 174.708 164.583  1.00  0.00    -0.463 OA
ATOM      4  C   UNL     1     166.375 175.100 163.584  1.00  0.00     0.147 A 
ATOM      5  C   UNL     1     166.292 174.315 162.410  1.00  0.00     0.066 A 
ATOM      6  C   UNL     1     167.059 173.139 162.329  1.00  0.00     0.200 A 
ATOM      7  O   UNL     1     166.988 172.402 161.306  1.00  0.00    -0.288 OA
ATOM      8  C   UNL     1     165.445 174.719 161.367  1.00  0.00     0.020 A 
ATOM      9  C   UNL     1     164.682 175.878 161.490  1.00  0.00     0.047 A 
ATOM     10  C   UNL     1     164.756 176.663 162.648  1.00  0.00     0.125 A 
ATOM     11  C   UNL     1     165.623 176.293 163.704  1.00  0.00     0.069 A 
ENDROOT
BRANCH   1  12
ATOM     12  C   UNL     1     168.738 171.559 163.373  1.00  0.00    -0.011 A 
ATOM     13  C   UNL     1     168.212 170.320 163.783  1.00  0.00     0.013 A 
ATOM     14  C   UNL     1     169.012 169.173 163.772  1.00  0.00     0.047 A 
ATOM     15  C   UNL     1     170.346 169.248 163.358  1.00  0.00     0.115 A 
ATOM     16  C   UNL     1     170.082 171.628 162.964  1.00  0.00     0.013 A 
ATOM     17  C   UNL     1     170.879 170.480 162.954  1.00  0.00     0.047 A 
BRANCH  15  18
ATOM     18  O   UNL     1     171.132 168.097 163.355  1.00  0.00    -0.508 OA
ATOM     19  H   UNL     1     170.718 167.174 163.400  1.00  0.00     0.293 HD
ENDBRANCH  15  18
ENDBRANCH   1  12
BRANCH  11  20
ATOM     20  C   UNL     1     165.705 177.114 164.985  1.00  0.00     0.188 C 
ATOM     21  C   UNL     1     164.697 176.588 166.033  1.00  0.00     0.179 C 
ATOM     22  O   UNL     1     165.483 178.488 164.707  1.00  0.00    -0.362 OA
ATOM     23  C   UNL     1     164.782 177.446 167.312  1.00  0.00     0.177 C 
ATOM     24  C   UNL     1     165.749 179.281 165.851  1.00  0.00     0.176 C 
ATOM     25  C   UNL     1     164.747 178.957 166.991  1.00  0.00     0.177 C 
BRANCH  21  26
ATOM     26  O   UNL     1     163.391 176.609 165.510  1.00  0.00    -0.387 OA
ATOM     27  H   UNL     1     163.317 175.853 164.871  1.00  0.00     0.211 HD
ENDBRANCH  21  26
BRANCH  23  28
ATOM     28  O   UNL     1     163.738 177.108 168.188  1.00  0.00    -0.387 OA
ATOM     29  H   UNL     1     163.717 177.808 168.893  1.00  0.00     0.211 HD
ENDBRANCH  23  28
BRANCH  24  30
ATOM     30  C   UNL     1     165.698 180.764 165.448  1.00  0.00     0.191 C 
BRANCH  30  31
ATOM     31  O   UNL     1     164.657 181.006 164.539  1.00  0.00    -0.394 OA
ATOM     32  H   UNL     1     163.812 180.989 165.063  1.00  0.00     0.210 HD
ENDBRANCH  30  31
ENDBRANCH  24  30
BRANCH  25  33
ATOM     33  O   UNL     1     163.439 179.386 166.692  1.00  0.00    -0.388 OA
ATOM     34  H   UNL     1     162.871 179.245 167.493  1.00  0.00     0.211 HD
ENDBRANCH  25  33
ENDBRANCH  11  20
BRANCH  10  35
ATOM     35  O   UNL     1     163.963 177.806 162.748  1.00  0.00    -0.507 OA
ATOM     36  H   UNL     1     163.009 177.765 163.093  1.00  0.00     0.293 HD
ENDBRANCH  10  35
TORSDOF 9
ENDMDL
MODEL 3
REMARK VINA RESULT:    -5.470     12.272     16.290
REMARK INTER + INTRA:          -7.825
REMARK INTER:                  -7.746
REMARK INTRA:                  -0.079
REMARK UNBOUND:                -0.437
REMARK SMILES O=c1c(-c2ccc(O)cc2)coc2c([C@H]3O[C@@H](CO)[C@@H](O)[C@@H](O)[C@H]3O)c(O)ccc12
REMARK SMILES IDX 3 1 11 2 12 3 13 4 30 5 2 6 1 7 29 8 28 9 26 10 14 11 4 12
REMARK SMILES IDX 5 13 6 14 7 15 10 16 9 17 8 18 15 20 24 21 16 22 22 23 17 24
REMARK SMILES IDX 20 25 25 26 23 28 18 30 19 31 21 33 27 35
REMARK H PARENT 8 19 25 27 23 29 19 32 21 34 27 36
REMARK Flexibility Score: inf
ROOT
ATOM      1  C   UNL     1     173.611 162.791 164.626  1.00  0.00     0.065 A 
ATOM      2  C   UNL     1     173.153 164.028 164.151  1.00  0.00     0.208 A 
ATOM      3  O   UNL     1     173.485 164.459 162.940  1.00  0.00    -0.463 OA
ATOM      4  C   UNL     1     174.258 163.767 162.106  1.00  0.00     0.147 A 
ATOM      5  C   UNL     1     174.753 162.502 162.499  1.00  0.00     0.066 A 
ATOM      6  C   UNL     1     174.419 162.013 163.775  1.00  0.00     0.200 A 
ATOM      7  O   UNL     1     174.821 160.875 164.147  1.00  0.00    -0.288 OA
ATOM      8  C   UNL     1     175.552 161.766 161.611  1.00  0.00     0.020 A 
ATOM      9  C   UNL     1     175.846 162.271 160.347  1.00  0.00     0.047 A 
ATOM     10  C   UNL     1     175.362 163.523 159.947  1.00  0.00     0.125 A 
ATOM     11  C   UNL     1     174.576 164.298 160.834  1.00  0.00     0.069 A 
ENDROOT
BRANCH   1  12
ATOM     12  C   UNL     1     173.237 162.337 165.989  1.00  0.00    -0.011 A 
ATOM     13  C   UNL     1     172.005 161.694 166.209  1.00  0.00     0.013 A 
ATOM     14  C   UNL     1     171.641 161.282 167.495  1.00  0.00     0.047 A 
ATOM     15  C   UNL     1     172.497 161.512 168.577  1.00  0.00     0.115 A 
ATOM     16  C   UNL     1     174.090 162.570 167.083  1.00  0.00     0.013 A 
ATOM     17  C   UNL     1     173.723 162.158 168.368  1.00  0.00     0.047 A 
BRANCH  15  18
ATOM     18  O   UNL     1     172.119 161.098 169.854  1.00  0.00    -0.508 OA
ATOM     19  H   UNL     1     171.257 160.591 170.011  1.00  0.00     0.293 HD
ENDBRANCH  15  18
ENDBRANCH   1  12
BRANCH  11  20
ATOM     20  C   UNL     1     174.015 165.651 160.416  1.00  0.00     0.188 C 
ATOM     21  C   UNL     1     175.157 166.667 160.186  1.00  0.00     0.179 C 
ATOM     22  O   UNL     1     173.095 166.127 161.387  1.00  0.00    -0.362 OA
ATOM     23  C   UNL     1     174.567 168.033 159.785  1.00  0.00     0.177 C 
ATOM     24  C   UNL     1     172.423 167.284 160.917  1.00  0.00     0.176 C 
ATOM     25  C   UNL     1     173.419 168.460 160.727  1.00  0.00     0.177 C 
BRANCH  21  26
ATOM     26  O   UNL     1     175.942 166.790 161.347  1.00  0.00    -0.387 OA
ATOM     27  H   UNL     1     176.855 167.054 161.060  1.00  0.00     0.211 HD
ENDBRANCH  21  26
BRANCH  23  28
ATOM     28  O   UNL     1     175.576 169.009 159.772  1.00  0.00    -0.387 OA
ATOM     29  H   UNL     1     175.142 169.874 160.001  1.00  0.00     0.211 HD
ENDBRANCH  23  28
BRANCH  24  30
ATOM     30  C   UNL     1     171.299 167.638 161.905  1.00  0.00     0.191 C 
BRANCH  30  31
ATOM     31  O   UNL     1     171.776 167.669 163.225  1.00  0.00    -0.394 OA
ATOM     32  H   UNL     1     170.983 167.798 163.811  1.00  0.00     0.210 HD
ENDBRANCH  30  31
ENDBRANCH  24  30
BRANCH  25  33
ATOM     33  O   UNL     1     173.916 168.943 161.954  1.00  0.00    -0.388 OA
ATOM     34  H   UNL     1     173.612 168.335 162.676  1.00  0.00     0.211 HD
ENDBRANCH  25  33
ENDBRANCH  11  20
BRANCH  10  35
ATOM     35  O   UNL     1     175.657 163.991 158.666  1.00  0.00    -0.507 OA
ATOM     36  H   UNL     1     175.470 164.950 158.392  1.00  0.00     0.293 HD
ENDBRANCH  10  35
TORSDOF 9
ENDMDL
MODEL 4
REMARK VINA RESULT:    -5.372      5.246     10.164
REMARK INTER + INTRA:          -7.693
REMARK INTER:                  -7.062
REMARK INTRA:                  -0.632
REMARK UNBOUND:                -0.437
REMARK SMILES O=c1c(-c2ccc(O)cc2)coc2c([C@H]3O[C@@H](CO)[C@@H](O)[C@@H](O)[C@H]3O)c(O)ccc12
REMARK SMILES IDX 3 1 11 2 12 3 13 4 30 5 2 6 1 7 29 8 28 9 26 10 14 11 4 12
REMARK SMILES IDX 5 13 6 14 7 15 10 16 9 17 8 18 15 20 24 21 16 22 22 23 17 24
REMARK SMILES IDX 20 25 25 26 23 28 18 30 19 31 21 33 27 35
REMARK H PARENT 8 19 25 27 23 29 19 32 21 34 27 36
REMARK Flexibility Score: inf
ROOT
ATOM      1  C   UNL     1     166.047 167.868 161.719  1.00  0.00     0.065 A 
ATOM      2  C   UNL     1     165.809 169.248 161.656  1.00  0.00     0.208 A 
ATOM      3  O   UNL     1     166.745 170.118 162.016  1.00  0.00    -0.463 OA
ATOM      4  C   UNL     1     167.949 169.755 162.453  1.00  0.00     0.147 A 
ATOM      5  C   UNL     1     168.278 168.382 162.535  1.00  0.00     0.066 A 
ATOM      6  C   UNL     1     167.312 167.433 162.158  1.00  0.00     0.200 A 
ATOM      7  O   UNL     1     167.582 166.200 162.193  1.00  0.00    -0.288 OA
ATOM      8  C   UNL     1     169.555 168.002 162.977  1.00  0.00     0.020 A 
ATOM      9  C   UNL     1     170.495 168.970 163.322  1.00  0.00     0.047 A 
ATOM     10  C   UNL     1     170.180 170.332 163.245  1.00  0.00     0.125 A 
ATOM     11  C   UNL     1     168.891 170.742 162.828  1.00  0.00     0.069 A 
ENDROOT
BRANCH   1  12
ATOM     12  C   UNL     1     164.979 166.915 161.322  1.00  0.00    -0.011 A 
ATOM     13  C   UNL     1     164.925 166.417 160.008  1.00  0.00     0.013 A 
ATOM     14  C   UNL     1     163.910 165.534 159.627  1.00  0.00     0.047 A 
ATOM     15  C   UNL     1     162.934 165.142 160.548  1.00  0.00     0.115 A 
ATOM     16  C   UNL     1     163.991 166.521 162.243  1.00  0.00     0.013 A 
ATOM     17  C   UNL     1     162.977 165.639 161.858  1.00  0.00     0.047 A 
BRANCH  15  18
ATOM     18  O   UNL     1     161.926 164.264 160.153  1.00  0.00    -0.508 OA
ATOM     19  H   UNL     1     161.461 163.658 160.819  1.00  0.00     0.293 HD
ENDBRANCH  15  18
ENDBRANCH   1  12
BRANCH  11  20
ATOM     20  C   UNL     1     168.530 172.218 162.711  1.00  0.00     0.188 C 
ATOM     21  C   UNL     1     167.882 172.725 164.021  1.00  0.00     0.179 C 
ATOM     22  O   UNL     1     167.671 172.431 161.601  1.00  0.00    -0.362 OA
ATOM     23  C   UNL     1     167.506 174.212 163.873  1.00  0.00     0.177 C 
ATOM     24  C   UNL     1     167.488 173.817 161.367  1.00  0.00     0.176 C 
ATOM     25  C   UNL     1     166.745 174.483 162.556  1.00  0.00     0.177 C 
BRANCH  21  26
ATOM     26  O   UNL     1     166.746 171.956 164.334  1.00  0.00    -0.387 OA
ATOM     27  H   UNL     1     165.959 172.426 163.952  1.00  0.00     0.211 HD
ENDBRANCH  21  26
BRANCH  23  28
ATOM     28  O   UNL     1     166.739 174.627 164.974  1.00  0.00    -0.387 OA
ATOM     29  H   UNL     1     166.873 175.607 165.065  1.00  0.00     0.211 HD
ENDBRANCH  23  28
BRANCH  24  30
ATOM     30  C   UNL     1     166.729 173.999 160.042  1.00  0.00     0.191 C 
BRANCH  30  31
ATOM     31  O   UNL     1     165.735 173.020 159.890  1.00  0.00    -0.394 OA
ATOM     32  H   UNL     1     166.058 172.209 160.366  1.00  0.00     0.210 HD
ENDBRANCH  30  31
ENDBRANCH  24  30
BRANCH  25  33
ATOM     33  O   UNL     1     165.402 174.067 162.647  1.00  0.00    -0.388 OA
ATOM     34  H   UNL     1     164.827 174.781 162.267  1.00  0.00     0.211 HD
ENDBRANCH  25  33
ENDBRANCH  11  20
BRANCH  10  35
ATOM     35  O   UNL     1     171.152 171.276 163.578  1.00  0.00    -0.507 OA
ATOM     36  H   UNL     1     172.047 171.005 163.972  1.00  0.00     0.293 HD
ENDBRANCH  10  35
TORSDOF 9
ENDMDL
MODEL 5
REMARK VINA RESULT:    -5.332      5.268     10.952
REMARK INTER + INTRA:          -7.639
REMARK INTER:                  -6.585
REMARK INTRA:                  -1.055
REMARK UNBOUND:                -0.437
REMARK SMILES O=c1c(-c2ccc(O)cc2)coc2c([C@H]3O[C@@H](CO)[C@@H](O)[C@@H](O)[C@H]3O)c(O)ccc12
REMARK SMILES IDX 3 1 11 2 12 3 13 4 30 5 2 6 1 7 29 8 28 9 26 10 14 11 4 12
REMARK SMILES IDX 5 13 6 14 7 15 10 16 9 17 8 18 15 20 24 21 16 22 22 23 17 24
REMARK SMILES IDX 20 25 25 26 23 28 18 30 19 31 21 33 27 35
REMARK H PARENT 8 19 25 27 23 29 19 32 21 34 27 36
REMARK Flexibility Score: inf
ROOT
ATOM      1  C   UNL     1     171.851 170.438 161.319  1.00  0.00     0.065 A 
ATOM      2  C   UNL     1     171.161 171.557 160.832  1.00  0.00     0.208 A 
ATOM      3  O   UNL     1     169.992 171.915 161.348  1.00  0.00    -0.463 OA
ATOM      4  C   UNL     1     169.400 171.254 162.340  1.00  0.00     0.147 A 
ATOM      5  C   UNL     1     170.033 170.120 162.900  1.00  0.00     0.066 A 
ATOM      6  C   UNL     1     171.275 169.715 162.380  1.00  0.00     0.200 A 
ATOM      7  O   UNL     1     171.880 168.723 162.875  1.00  0.00    -0.288 OA
ATOM      8  C   UNL     1     169.416 169.436 163.959  1.00  0.00     0.020 A 
ATOM      9  C   UNL     1     168.195 169.877 164.464  1.00  0.00     0.047 A 
ATOM     10  C   UNL     1     167.560 170.999 163.918  1.00  0.00     0.125 A 
ATOM     11  C   UNL     1     168.147 171.691 162.831  1.00  0.00     0.069 A 
ENDROOT
BRANCH   1  12
ATOM     12  C   UNL     1     173.152 170.051 160.716  1.00  0.00    -0.011 A 
ATOM     13  C   UNL     1     173.204 169.063 159.716  1.00  0.00     0.013 A 
ATOM     14  C   UNL     1     174.431 168.684 159.160  1.00  0.00     0.047 A 
ATOM     15  C   UNL     1     175.618 169.279 159.598  1.00  0.00     0.115 A 
ATOM     16  C   UNL     1     174.351 170.641 161.156  1.00  0.00     0.013 A 
ATOM     17  C   UNL     1     175.575 170.259 160.599  1.00  0.00     0.047 A 
BRANCH  15  18
ATOM     18  O   UNL     1     176.832 168.887 159.037  1.00  0.00    -0.508 OA
ATOM     19  H   UNL     1     176.870 168.257 158.244  1.00  0.00     0.293 HD
ENDBRANCH  15  18
ENDBRANCH   1  12
BRANCH  11  20
ATOM     20  C   UNL     1     167.489 172.929 162.234  1.00  0.00     0.188 C 
ATOM     21  C   UNL     1     167.765 174.169 163.114  1.00  0.00     0.179 C 
ATOM     22  O   UNL     1     166.095 172.718 162.069  1.00  0.00    -0.362 OA
ATOM     23  C   UNL     1     167.073 175.405 162.504  1.00  0.00     0.177 C 
ATOM     24  C   UNL     1     165.510 173.783 161.337  1.00  0.00     0.176 C 
ATOM     25  C   UNL     1     165.603 175.113 162.132  1.00  0.00     0.177 C 
BRANCH  21  26
ATOM     26  O   UNL     1     167.310 173.948 164.427  1.00  0.00    -0.387 OA
ATOM     27  H   UNL     1     168.025 174.256 165.043  1.00  0.00     0.211 HD
ENDBRANCH  21  26
BRANCH  23  28
ATOM     28  O   UNL     1     167.146 176.487 163.395  1.00  0.00    -0.387 OA
ATOM     29  H   UNL     1     167.046 177.314 162.853  1.00  0.00     0.211 HD
ENDBRANCH  23  28
BRANCH  24  30
ATOM     30  C   UNL     1     164.055 173.413 161.006  1.00  0.00     0.191 C 
BRANCH  30  31
ATOM     31  O   UNL     1     163.399 172.882 162.127  1.00  0.00    -0.394 OA
ATOM     32  H   UNL     1     164.106 172.649 162.787  1.00  0.00     0.210 HD
ENDBRANCH  30  31
ENDBRANCH  24  30
BRANCH  25  33
ATOM     33  O   UNL     1     164.777 175.113 163.273  1.00  0.00    -0.388 OA
ATOM     34  H   UNL     1     163.956 174.597 163.066  1.00  0.00     0.211 HD
ENDBRANCH  25  33
ENDBRANCH  11  20
BRANCH  10  35
ATOM     35  O   UNL     1     166.348 171.428 164.461  1.00  0.00    -0.507 OA
ATOM     36  H   UNL     1     165.610 171.813 163.880  1.00  0.00     0.293 HD
ENDBRANCH  10  35
TORSDOF 9
ENDMDL
MODEL 6
REMARK VINA RESULT:    -5.261      3.293      5.806
REMARK INTER + INTRA:          -7.543
REMARK INTER:                  -6.784
REMARK INTRA:                  -0.759
REMARK UNBOUND:                -0.437
REMARK SMILES O=c1c(-c2ccc(O)cc2)coc2c([C@H]3O[C@@H](CO)[C@@H](O)[C@@H](O)[C@H]3O)c(O)ccc12
REMARK SMILES IDX 3 1 11 2 12 3 13 4 30 5 2 6 1 7 29 8 28 9 26 10 14 11 4 12
REMARK SMILES IDX 5 13 6 14 7 15 10 16 9 17 8 18 15 20 24 21 16 22 22 23 17 24
REMARK SMILES IDX 20 25 25 26 23 28 18 30 19 31 21 33 27 35
REMARK H PARENT 8 19 25 27 23 29 19 32 21 34 27 36
REMARK Flexibility Score: inf
ROOT
ATOM      1  C   UNL     1     166.354 175.716 164.387  1.00  0.00     0.065 A 
ATOM      2  C   UNL     1     167.119 174.716 165.002  1.00  0.00     0.208 A 
ATOM      3  O   UNL     1     167.562 173.674 164.310  1.00  0.00    -0.463 OA
ATOM      4  C   UNL     1     167.320 173.504 163.012  1.00  0.00     0.147 A 
ATOM      5  C   UNL     1     166.565 174.473 162.310  1.00  0.00     0.066 A 
ATOM      6  C   UNL     1     166.083 175.592 163.012  1.00  0.00     0.200 A 
ATOM      7  O   UNL     1     165.430 176.489 162.409  1.00  0.00    -0.288 OA
ATOM      8  C   UNL     1     166.327 174.302 160.937  1.00  0.00     0.020 A 
ATOM      9  C   UNL     1     166.838 173.192 160.269  1.00  0.00     0.047 A 
ATOM     10  C   UNL     1     167.586 172.226 160.954  1.00  0.00     0.125 A 
ATOM     11  C   UNL     1     167.818 172.361 162.344  1.00  0.00     0.069 A 
ENDROOT
BRANCH   1  12
ATOM     12  C   UNL     1     165.858 176.866 165.187  1.00  0.00    -0.011 A 
ATOM     13  C   UNL     1     165.204 176.647 166.413  1.00  0.00     0.013 A 
ATOM     14  C   UNL     1     164.720 177.727 167.159  1.00  0.00     0.047 A 
ATOM     15  C   UNL     1     164.877 179.035 166.690  1.00  0.00     0.115 A 
ATOM     16  C   UNL     1     166.008 178.184 164.718  1.00  0.00     0.013 A 
ATOM     17  C   UNL     1     165.522 179.260 165.466  1.00  0.00     0.047 A 
BRANCH  15  18
ATOM     18  O   UNL     1     164.386 180.100 167.443  1.00  0.00    -0.508 OA
ATOM     19  H   UNL     1     164.411 180.087 168.456  1.00  0.00     0.293 HD
ENDBRANCH  15  18
ENDBRANCH   1  12
BRANCH  11  20
ATOM     20  C   UNL     1     168.649 171.339 163.110  1.00  0.00     0.188 C 
ATOM     21  C   UNL     1     170.158 171.641 162.959  1.00  0.00     0.179 C 
ATOM     22  O   UNL     1     168.345 170.024 162.669  1.00  0.00    -0.362 OA
ATOM     23  C   UNL     1     170.979 170.583 163.722  1.00  0.00     0.177 C 
ATOM     24  C   UNL     1     168.963 169.059 163.504  1.00  0.00     0.176 C 
ATOM     25  C   UNL     1     170.509 169.148 163.397  1.00  0.00     0.177 C 
BRANCH  21  26
ATOM     26  O   UNL     1     170.519 171.660 161.599  1.00  0.00    -0.387 OA
ATOM     27  H   UNL     1     170.217 170.801 161.202  1.00  0.00     0.211 HD
ENDBRANCH  21  26
BRANCH  23  28
ATOM     28  O   UNL     1     172.344 170.728 163.427  1.00  0.00    -0.387 OA
ATOM     29  H   UNL     1     172.606 169.940 162.881  1.00  0.00     0.211 HD
ENDBRANCH  23  28
BRANCH  24  30
ATOM     30  C   UNL     1     168.441 167.665 163.120  1.00  0.00     0.191 C 
BRANCH  30  31
ATOM     31  O   UNL     1     168.287 167.547 161.730  1.00  0.00    -0.394 OA
ATOM     32  H   UNL     1     167.309 167.537 161.551  1.00  0.00     0.210 HD
ENDBRANCH  30  31
ENDBRANCH  24  30
BRANCH  25  33
ATOM     33  O   UNL     1     170.983 168.727 162.139  1.00  0.00    -0.388 OA
ATOM     34  H   UNL     1     170.205 168.601 161.537  1.00  0.00     0.211 HD
ENDBRANCH  25  33
ENDBRANCH  11  20
BRANCH  10  35
ATOM     35  O   UNL     1     168.102 171.138 160.250  1.00  0.00    -0.507 OA
ATOM     36  H   UNL     1     168.411 170.294 160.723  1.00  0.00     0.293 HD
ENDBRANCH  10  35
TORSDOF 9
ENDMDL
MODEL 7
REMARK VINA RESULT:    -5.248     11.209     15.933
REMARK INTER + INTRA:          -7.526
REMARK INTER:                  -7.028
REMARK INTRA:                  -0.498
REMARK UNBOUND:                -0.437
REMARK SMILES O=c1c(-c2ccc(O)cc2)coc2c([C@H]3O[C@@H](CO)[C@@H](O)[C@@H](O)[C@H]3O)c(O)ccc12
REMARK SMILES IDX 3 1 11 2 12 3 13 4 30 5 2 6 1 7 29 8 28 9 26 10 14 11 4 12
REMARK SMILES IDX 5 13 6 14 7 15 10 16 9 17 8 18 15 20 24 21 16 22 22 23 17 24
REMARK SMILES IDX 20 25 25 26 23 28 18 30 19 31 21 33 27 35
REMARK H PARENT 8 19 25 27 23 29 19 32 21 34 27 36
REMARK Flexibility Score: inf
ROOT
ATOM      1  C   UNL     1     173.696 163.026 164.910  1.00  0.00     0.065 A 
ATOM      2  C   UNL     1     173.476 164.386 164.652  1.00  0.00     0.208 A 
ATOM      3  O   UNL     1     173.120 164.802 163.443  1.00  0.00    -0.463 OA
ATOM      4  C   UNL     1     172.950 163.980 162.410  1.00  0.00     0.147 A 
ATOM      5  C   UNL     1     173.138 162.589 162.585  1.00  0.00     0.066 A 
ATOM      6  C   UNL     1     173.512 162.113 163.854  1.00  0.00     0.200 A 
ATOM      7  O   UNL     1     173.662 160.875 164.052  1.00  0.00    -0.288 OA
ATOM      8  C   UNL     1     172.939 161.723 161.500  1.00  0.00     0.020 A 
ATOM      9  C   UNL     1     172.548 162.226 160.261  1.00  0.00     0.047 A 
ATOM     10  C   UNL     1     172.359 163.602 160.076  1.00  0.00     0.125 A 
ATOM     11  C   UNL     1     172.579 164.501 161.148  1.00  0.00     0.069 A 
ENDROOT
BRANCH   1  12
ATOM     12  C   UNL     1     174.106 162.587 166.269  1.00  0.00    -0.011 A 
ATOM     13  C   UNL     1     173.141 162.396 167.273  1.00  0.00     0.013 A 
ATOM     14  C   UNL     1     173.526 162.001 168.559  1.00  0.00     0.047 A 
ATOM     15  C   UNL     1     174.877 161.799 168.859  1.00  0.00     0.115 A 
ATOM     16  C   UNL     1     175.464 162.388 166.579  1.00  0.00     0.013 A 
ATOM     17  C   UNL     1     175.846 161.995 167.865  1.00  0.00     0.047 A 
BRANCH  15  18
ATOM     18  O   UNL     1     175.246 161.409 170.145  1.00  0.00    -0.508 OA
ATOM     19  H   UNL     1     174.642 161.577 170.942  1.00  0.00     0.293 HD
ENDBRANCH  15  18
ENDBRANCH   1  12
BRANCH  11  20
ATOM     20  C   UNL     1     172.356 165.999 160.981  1.00  0.00     0.188 C 
ATOM     21  C   UNL     1     173.704 166.733 160.802  1.00  0.00     0.179 C 
ATOM     22  O   UNL     1     171.635 166.518 162.089  1.00  0.00    -0.362 OA
ATOM     23  C   UNL     1     173.457 168.247 160.657  1.00  0.00     0.177 C 
ATOM     24  C   UNL     1     171.253 167.863 161.853  1.00  0.00     0.176 C 
ATOM     25  C   UNL     1     172.502 168.779 161.748  1.00  0.00     0.177 C 
BRANCH  21  26
ATOM     26  O   UNL     1     174.552 166.473 161.895  1.00  0.00    -0.387 OA
ATOM     27  H   UNL     1     175.200 165.779 161.607  1.00  0.00     0.211 HD
ENDBRANCH  21  26
BRANCH  23  28
ATOM     28  O   UNL     1     174.678 168.941 160.697  1.00  0.00    -0.387 OA
ATOM     29  H   UNL     1     175.013 168.879 161.630  1.00  0.00     0.211 HD
ENDBRANCH  23  28
BRANCH  24  30
ATOM     30  C   UNL     1     170.305 168.312 162.977  1.00  0.00     0.191 C 
BRANCH  30  31
ATOM     31  O   UNL     1     170.270 169.710 163.082  1.00  0.00    -0.394 OA
ATOM     32  H   UNL     1     170.011 170.057 162.187  1.00  0.00     0.210 HD
ENDBRANCH  30  31
ENDBRANCH  24  30
BRANCH  25  33
ATOM     33  O   UNL     1     173.165 168.922 162.983  1.00  0.00    -0.388 OA
ATOM     34  H   UNL     1     174.038 168.456 162.926  1.00  0.00     0.211 HD
ENDBRANCH  25  33
ENDBRANCH  11  20
BRANCH  10  35
ATOM     35  O   UNL     1     171.946 164.071 158.829  1.00  0.00    -0.507 OA
ATOM     36  H   UNL     1     171.244 164.799 158.739  1.00  0.00     0.293 HD
ENDBRANCH  10  35
TORSDOF 9
ENDMDL
MODEL 8
REMARK VINA RESULT:    -5.086      5.839     11.519
REMARK INTER + INTRA:          -7.307
REMARK INTER:                  -6.299
REMARK INTRA:                  -1.008
REMARK UNBOUND:                -0.437
REMARK SMILES O=c1c(-c2ccc(O)cc2)coc2c([C@H]3O[C@@H](CO)[C@@H](O)[C@@H](O)[C@H]3O)c(O)ccc12
REMARK SMILES IDX 3 1 11 2 12 3 13 4 30 5 2 6 1 7 29 8 28 9 26 10 14 11 4 12
REMARK SMILES IDX 5 13 6 14 7 15 10 16 9 17 8 18 15 20 24 21 16 22 22 23 17 24
REMARK SMILES IDX 20 25 25 26 23 28 18 30 19 31 21 33 27 35
REMARK H PARENT 8 19 25 27 23 29 19 32 21 34 27 36
REMARK Flexibility Score: inf
ROOT
ATOM      1  C   UNL     1     170.945 168.231 161.416  1.00  0.00     0.065 A 
ATOM      2  C   UNL     1     171.036 169.597 161.717  1.00  0.00     0.208 A 
ATOM      3  O   UNL     1     169.947 170.353 161.789  1.00  0.00    -0.463 OA
ATOM      4  C   UNL     1     168.719 169.884 161.586  1.00  0.00     0.147 A 
ATOM      5  C   UNL     1     168.534 168.513 161.289  1.00  0.00     0.066 A 
ATOM      6  C   UNL     1     169.665 167.682 161.209  1.00  0.00     0.200 A 
ATOM      7  O   UNL     1     169.534 166.448 160.974  1.00  0.00    -0.288 OA
ATOM      8  C   UNL     1     167.236 168.016 161.095  1.00  0.00     0.020 A 
ATOM      9  C   UNL     1     166.136 168.864 161.203  1.00  0.00     0.047 A 
ATOM     10  C   UNL     1     166.307 170.223 161.496  1.00  0.00     0.125 A 
ATOM     11  C   UNL     1     167.607 170.755 161.670  1.00  0.00     0.069 A 
ENDROOT
BRANCH   1  12
ATOM     12  C   UNL     1     172.179 167.409 161.328  1.00  0.00    -0.011 A 
ATOM     13  C   UNL     1     172.471 166.461 162.326  1.00  0.00     0.013 A 
ATOM     14  C   UNL     1     173.642 165.699 162.256  1.00  0.00     0.047 A 
ATOM     15  C   UNL     1     174.536 165.876 161.196  1.00  0.00     0.115 A 
ATOM     16  C   UNL     1     173.086 167.586 160.268  1.00  0.00     0.013 A 
ATOM     17  C   UNL     1     174.256 166.823 160.202  1.00  0.00     0.047 A 
BRANCH  15  18
ATOM     18  O   UNL     1     175.701 165.111 161.141  1.00  0.00    -0.508 OA
ATOM     19  H   UNL     1     176.052 164.624 161.958  1.00  0.00     0.293 HD
ENDBRANCH  15  18
ENDBRANCH   1  12
BRANCH  11  20
ATOM     20  C   UNL     1     167.820 172.224 162.014  1.00  0.00     0.188 C 
ATOM     21  C   UNL     1     167.768 172.438 163.544  1.00  0.00     0.179 C 
ATOM     22  O   UNL     1     166.859 173.032 161.352  1.00  0.00    -0.362 OA
ATOM     23  C   UNL     1     167.964 173.932 163.868  1.00  0.00     0.177 C 
ATOM     24  C   UNL     1     167.168 174.407 161.506  1.00  0.00     0.176 C 
ATOM     25  C   UNL     1     167.060 174.831 162.996  1.00  0.00     0.177 C 
BRANCH  21  26
ATOM     26  O   UNL     1     166.542 171.978 164.060  1.00  0.00    -0.387 OA
ATOM     27  H   UNL     1     166.704 171.698 164.999  1.00  0.00     0.211 HD
ENDBRANCH  21  26
BRANCH  23  28
ATOM     28  O   UNL     1     167.718 174.167 165.230  1.00  0.00    -0.387 OA
ATOM     29  H   UNL     1     166.759 174.414 165.311  1.00  0.00     0.211 HD
ENDBRANCH  23  28
BRANCH  24  30
ATOM     30  C   UNL     1     166.229 175.229 160.608  1.00  0.00     0.191 C 
BRANCH  30  31
ATOM     31  O   UNL     1     165.905 176.458 161.202  1.00  0.00    -0.394 OA
ATOM     32  H   UNL     1     165.295 176.255 161.961  1.00  0.00     0.210 HD
ENDBRANCH  30  31
ENDBRANCH  24  30
BRANCH  25  33
ATOM     33  O   UNL     1     165.730 174.822 163.460  1.00  0.00    -0.388 OA
ATOM     34  H   UNL     1     165.743 174.881 164.450  1.00  0.00     0.211 HD
ENDBRANCH  25  33
ENDBRANCH  11  20
BRANCH  10  35
ATOM     35  O   UNL     1     165.183 171.040 161.619  1.00  0.00    -0.507 OA
ATOM     36  H   UNL     1     164.643 171.079 162.477  1.00  0.00     0.293 HD
ENDBRANCH  10  35
TORSDOF 9
ENDMDL
MODEL 9
REMARK VINA RESULT:    -4.834     10.359     13.006
REMARK INTER + INTRA:          -6.966
REMARK INTER:                  -5.840
REMARK INTRA:                  -1.126
REMARK UNBOUND:                -0.437
REMARK SMILES O=c1c(-c2ccc(O)cc2)coc2c([C@H]3O[C@@H](CO)[C@@H](O)[C@@H](O)[C@H]3O)c(O)ccc12
REMARK SMILES IDX 3 1 11 2 12 3 13 4 30 5 2 6 1 7 29 8 28 9 26 10 14 11 4 12
REMARK SMILES IDX 5 13 6 14 7 15 10 16 9 17 8 18 15 20 24 21 16 22 22 23 17 24
REMARK SMILES IDX 20 25 25 26 23 28 18 30 19 31 21 33 27 35
REMARK H PARENT 8 19 25 27 23 29 19 32 21 34 27 36
REMARK Flexibility Score: inf
ROOT
ATOM      1  C   UNL     1     167.600 166.272 161.202  1.00  0.00     0.065 A 
ATOM      2  C   UNL     1     168.680 165.719 160.502  1.00  0.00     0.208 A 
ATOM      3  O   UNL     1     169.919 166.151 160.706  1.00  0.00    -0.463 OA
ATOM      4  C   UNL     1     170.221 167.118 161.569  1.00  0.00     0.147 A 
ATOM      5  C   UNL     1     169.192 167.723 162.329  1.00  0.00     0.066 A 
ATOM      6  C   UNL     1     167.869 167.287 162.141  1.00  0.00     0.200 A 
ATOM      7  O   UNL     1     166.930 167.787 162.822  1.00  0.00    -0.288 OA
ATOM      8  C   UNL     1     169.515 168.728 163.253  1.00  0.00     0.020 A 
ATOM      9  C   UNL     1     170.841 169.121 163.429  1.00  0.00     0.047 A 
ATOM     10  C   UNL     1     171.867 168.529 162.682  1.00  0.00     0.125 A 
ATOM     11  C   UNL     1     171.565 167.531 161.724  1.00  0.00     0.069 A 
ENDROOT
BRANCH   1  12
ATOM     12  C   UNL     1     166.222 165.781 160.947  1.00  0.00    -0.011 A 
ATOM     13  C   UNL     1     165.774 164.587 161.541  1.00  0.00     0.013 A 
ATOM     14  C   UNL     1     164.483 164.112 161.286  1.00  0.00     0.047 A 
ATOM     15  C   UNL     1     163.628 164.816 160.433  1.00  0.00     0.115 A 
ATOM     16  C   UNL     1     165.358 166.481 160.085  1.00  0.00     0.013 A 
ATOM     17  C   UNL     1     164.069 166.003 159.832  1.00  0.00     0.047 A 
BRANCH  15  18
ATOM     18  O   UNL     1     162.345 164.328 160.187  1.00  0.00    -0.508 OA
ATOM     19  H   UNL     1     162.031 163.447 160.576  1.00  0.00     0.293 HD
ENDBRANCH  15  18
ENDBRANCH   1  12
BRANCH  11  20
ATOM     20  C   UNL     1     172.665 166.853 160.917  1.00  0.00     0.188 C 
ATOM     21  C   UNL     1     173.300 165.698 161.725  1.00  0.00     0.179 C 
ATOM     22  O   UNL     1     173.645 167.800 160.522  1.00  0.00    -0.362 OA
ATOM     23  C   UNL     1     174.423 165.040 160.898  1.00  0.00     0.177 C 
ATOM     24  C   UNL     1     174.563 167.222 159.609  1.00  0.00     0.176 C 
ATOM     25  C   UNL     1     175.379 166.091 160.293  1.00  0.00     0.177 C 
BRANCH  21  26
ATOM     26  O   UNL     1     173.804 166.177 162.948  1.00  0.00    -0.387 OA
ATOM     27  H   UNL     1     173.115 166.778 163.335  1.00  0.00     0.211 HD
ENDBRANCH  21  26
BRANCH  23  28
ATOM     28  O   UNL     1     175.137 164.130 161.693  1.00  0.00    -0.387 OA
ATOM     29  H   UNL     1     174.593 163.973 162.510  1.00  0.00     0.211 HD
ENDBRANCH  23  28
BRANCH  24  30
ATOM     30  C   UNL     1     175.473 168.330 159.054  1.00  0.00     0.191 C 
BRANCH  30  31
ATOM     31  O   UNL     1     175.679 169.341 160.005  1.00  0.00    -0.394 OA
ATOM     32  H   UNL     1     175.811 170.186 159.498  1.00  0.00     0.210 HD
ENDBRANCH  30  31
ENDBRANCH  24  30
BRANCH  25  33
ATOM     33  O   UNL     1     176.273 166.588 161.262  1.00  0.00    -0.388 OA
ATOM     34  H   UNL     1     176.213 167.578 161.266  1.00  0.00     0.211 HD
ENDBRANCH  25  33
ENDBRANCH  11  20
BRANCH  10  35
ATOM     35  O   UNL     1     173.185 168.929 162.899  1.00  0.00    -0.507 OA
ATOM     36  H   UNL     1     173.614 168.882 163.818  1.00  0.00     0.293 HD
ENDBRANCH  10  35
TORSDOF 9
ENDMDL
