MODEL 1
REMARK VINA RESULT:    -7.154      0.000      0.000
REMARK INTER + INTRA:         -12.051
REMARK INTER:                 -10.499
REMARK INTRA:                  -1.552
REMARK UNBOUND:                -1.552
REMARK SMILES O=c1c(O[C@H]2O[C@@H](CO)[C@H](O)[C@@H](O)[C@H]2O)c(-c2ccc(O)c(O)c2)oc2cc(O)cc(O)c12
REMARK SMILES IDX 4 1 3 2 16 3 25 4 2 5 26 6 1 7 33 8 27 9 31 10 28 11 30 12
REMARK SMILES IDX 17 13 18 14 19 15 20 16 24 17 22 18 21 19 23 21 32 23 29 25
REMARK SMILES IDX 5 27 14 28 6 29 12 30 7 31 10 32 15 33 13 35 8 37 9 38 11 40
REMARK H PARENT 21 20 23 22 32 24 29 26 15 34 13 36 9 39 11 41
REMARK Flexibility Score: inf
ROOT
ATOM      1  O   UNL     1      15.724  -4.942 -13.998  1.00  0.00    -0.454 OA
ENDROOT
BRANCH   1   2
ATOM      2  C   UNL     1      15.250  -4.428 -12.705  1.00  0.00     0.214 A 
ATOM      3  C   UNL     1      15.049  -5.191 -11.540  1.00  0.00     0.180 A 
ATOM      4  O   UNL     1      15.818  -4.862 -10.520  1.00  0.00    -0.452 OA
ATOM      5  C   UNL     1      15.196  -3.065 -12.445  1.00  0.00     0.239 A 
ATOM      6  C   UNL     1      16.243  -3.617 -10.344  1.00  0.00     0.146 A 
ATOM      7  O   UNL     1      14.665  -2.295 -13.326  1.00  0.00    -0.285 OA
ATOM      8  C   UNL     1      15.896  -2.613 -11.273  1.00  0.00     0.111 A 
ATOM      9  C   UNL     1      16.954  -3.329  -9.182  1.00  0.00     0.094 A 
ATOM     10  C   UNL     1      16.236  -1.260 -10.948  1.00  0.00     0.134 A 
ATOM     11  C   UNL     1      17.289  -2.035  -8.886  1.00  0.00     0.123 A 
ATOM     12  C   UNL     1      16.960  -0.995  -9.754  1.00  0.00     0.093 A 
BRANCH   3  13
ATOM     13  C   UNL     1      13.708  -5.778 -11.217  1.00  0.00     0.025 A 
ATOM     14  C   UNL     1      13.451  -7.024 -11.844  1.00  0.00     0.016 A 
ATOM     15  C   UNL     1      12.632  -7.973 -11.266  1.00  0.00     0.051 A 
ATOM     16  C   UNL     1      11.790  -7.595 -10.217  1.00  0.00     0.157 A 
ATOM     17  C   UNL     1      13.071  -5.569  -9.925  1.00  0.00     0.062 A 
ATOM     18  C   UNL     1      11.921  -6.338  -9.618  1.00  0.00     0.158 A 
BRANCH  16  19
ATOM     19  O   UNL     1      10.960  -8.541  -9.632  1.00  0.00    -0.504 OA
ATOM     20  H   UNL     1      11.127  -8.849  -8.688  1.00  0.00     0.293 HD
ENDBRANCH  16  19
BRANCH  18  21
ATOM     21  O   UNL     1      10.996  -5.901  -8.636  1.00  0.00    -0.504 OA
ATOM     22  H   UNL     1      11.114  -6.133  -7.652  1.00  0.00     0.293 HD
ENDBRANCH  18  21
ENDBRANCH   3  13
BRANCH  10  23
ATOM     23  O   UNL     1      15.917  -0.172 -11.759  1.00  0.00    -0.507 OA
ATOM     24  H   UNL     1      16.569   0.568 -11.952  1.00  0.00     0.293 HD
ENDBRANCH  10  23
BRANCH  11  25
ATOM     25  O   UNL     1      17.830  -1.691  -7.619  1.00  0.00    -0.508 OA
ATOM     26  H   UNL     1      17.226  -1.632  -6.794  1.00  0.00     0.293 HD
ENDBRANCH  11  25
ENDBRANCH   1   2
BRANCH   1  27
ATOM     27  C   UNL     1      16.792  -5.861 -13.978  1.00  0.00     0.339 C 
ATOM     28  C   UNL     1      18.160  -5.231 -14.244  1.00  0.00     0.214 C 
ATOM     29  O   UNL     1      16.639  -6.886 -14.927  1.00  0.00    -0.332 OA
ATOM     30  C   UNL     1      18.062  -4.403 -15.547  1.00  0.00     0.180 C 
ATOM     31  C   UNL     1      16.614  -6.460 -16.301  1.00  0.00     0.179 C 
ATOM     32  C   UNL     1      17.732  -5.412 -16.683  1.00  0.00     0.177 C 
BRANCH  28  33
ATOM     33  O   UNL     1      18.571  -4.405 -13.195  1.00  0.00    -0.384 OA
ATOM     34  H   UNL     1      17.819  -4.513 -12.546  1.00  0.00     0.211 HD
ENDBRANCH  28  33
BRANCH  30  35
ATOM     35  O   UNL     1      17.137  -3.321 -15.489  1.00  0.00    -0.387 OA
ATOM     36  H   UNL     1      16.170  -3.552 -15.799  1.00  0.00     0.211 HD
ENDBRANCH  30  35
BRANCH  31  37
ATOM     37  C   UNL     1      15.211  -6.018 -16.739  1.00  0.00     0.191 C 
BRANCH  37  38
ATOM     38  O   UNL     1      15.023  -6.047 -18.139  1.00  0.00    -0.394 OA
ATOM     39  H   UNL     1      14.971  -5.134 -18.563  1.00  0.00     0.210 HD
ENDBRANCH  37  38
ENDBRANCH  31  37
BRANCH  32  40
ATOM     40  O   UNL     1      18.959  -6.046 -17.049  1.00  0.00    -0.387 OA
ATOM     41  H   UNL     1      19.042  -6.956 -16.670  1.00  0.00     0.211 HD
ENDBRANCH  32  40
ENDBRANCH   1  27
TORSDOF 12
ENDMDL
MODEL 2
REMARK VINA RESULT:    -6.507      4.119      8.388
REMARK INTER + INTRA:         -11.102
REMARK INTER:                  -9.156
REMARK INTRA:                  -1.947
REMARK UNBOUND:                -1.552
REMARK SMILES O=c1c(O[C@H]2O[C@@H](CO)[C@H](O)[C@@H](O)[C@H]2O)c(-c2ccc(O)c(O)c2)oc2cc(O)cc(O)c12
REMARK SMILES IDX 4 1 3 2 16 3 25 4 2 5 26 6 1 7 33 8 27 9 31 10 28 11 30 12
REMARK SMILES IDX 17 13 18 14 19 15 20 16 24 17 22 18 21 19 23 21 32 23 29 25
REMARK SMILES IDX 5 27 14 28 6 29 12 30 7 31 10 32 15 33 13 35 8 37 9 38 11 40
REMARK H PARENT 21 20 23 22 32 24 29 26 15 34 13 36 9 39 11 41
REMARK Flexibility Score: inf
ROOT
ATOM      1  O   UNL     1      18.387  -1.672  -9.873  1.00  0.00    -0.454 OA
ENDROOT
BRANCH   1   2
ATOM      2  C   UNL     1      19.473  -1.247  -8.978  1.00  0.00     0.214 A 
ATOM      3  C   UNL     1      19.317  -0.760  -7.669  1.00  0.00     0.180 A 
ATOM      4  O   UNL     1      19.868  -1.503  -6.728  1.00  0.00    -0.452 OA
ATOM      5  C   UNL     1      20.801  -1.534  -9.268  1.00  0.00     0.239 A 
ATOM      6  C   UNL     1      20.956  -2.225  -6.964  1.00  0.00     0.146 A 
ATOM      7  O   UNL     1      21.232  -1.298 -10.455  1.00  0.00    -0.285 OA
ATOM      8  C   UNL     1      21.537  -2.232  -8.249  1.00  0.00     0.111 A 
ATOM      9  C   UNL     1      21.541  -2.892  -5.890  1.00  0.00     0.094 A 
ATOM     10  C   UNL     1      22.800  -2.889  -8.405  1.00  0.00     0.134 A 
ATOM     11  C   UNL     1      22.740  -3.531  -6.051  1.00  0.00     0.123 A 
ATOM     12  C   UNL     1      23.376  -3.559  -7.292  1.00  0.00     0.093 A 
BRANCH   3  13
ATOM     13  C   UNL     1      19.209   0.710  -7.394  1.00  0.00     0.025 A 
ATOM     14  C   UNL     1      20.364   1.280  -6.801  1.00  0.00     0.016 A 
ATOM     15  C   UNL     1      20.714   2.598  -7.011  1.00  0.00     0.051 A 
ATOM     16  C   UNL     1      19.766   3.475  -7.545  1.00  0.00     0.157 A 
ATOM     17  C   UNL     1      18.427   1.593  -8.248  1.00  0.00     0.062 A 
ATOM     18  C   UNL     1      18.558   2.991  -8.057  1.00  0.00     0.158 A 
BRANCH  16  19
ATOM     19  O   UNL     1      20.108   4.804  -7.756  1.00  0.00    -0.504 OA
ATOM     20  H   UNL     1      20.875   5.041  -8.365  1.00  0.00     0.293 HD
ENDBRANCH  16  19
BRANCH  18  21
ATOM     21  O   UNL     1      17.544   3.882  -8.490  1.00  0.00    -0.504 OA
ATOM     22  H   UNL     1      17.015   4.448  -7.830  1.00  0.00     0.293 HD
ENDBRANCH  18  21
ENDBRANCH   3  13
BRANCH  10  23
ATOM     23  O   UNL     1      23.498  -2.934  -9.611  1.00  0.00    -0.507 OA
ATOM     24  H   UNL     1      23.687  -2.111 -10.157  1.00  0.00     0.293 HD
ENDBRANCH  10  23
BRANCH  11  25
ATOM     25  O   UNL     1      23.454  -4.039  -4.933  1.00  0.00    -0.508 OA
ATOM     26  H   UNL     1      23.685  -5.036  -4.872  1.00  0.00     0.293 HD
ENDBRANCH  11  25
ENDBRANCH   1   2
BRANCH   1  27
ATOM     27  C   UNL     1      17.111  -1.853  -9.302  1.00  0.00     0.339 C 
ATOM     28  C   UNL     1      16.616  -3.300  -9.331  1.00  0.00     0.214 C 
ATOM     29  O   UNL     1      16.121  -1.087  -9.940  1.00  0.00    -0.332 OA
ATOM     30  C   UNL     1      16.740  -3.822 -10.782  1.00  0.00     0.180 C 
ATOM     31  C   UNL     1      15.893  -1.396 -11.327  1.00  0.00     0.179 C 
ATOM     32  C   UNL     1      15.795  -2.939 -11.646  1.00  0.00     0.177 C 
BRANCH  28  33
ATOM     33  O   UNL     1      17.352  -4.123  -8.474  1.00  0.00    -0.384 OA
ATOM     34  H   UNL     1      16.814  -4.073  -7.634  1.00  0.00     0.211 HD
ENDBRANCH  28  33
BRANCH  30  35
ATOM     35  O   UNL     1      18.073  -3.853 -11.285  1.00  0.00    -0.387 OA
ATOM     36  H   UNL     1      18.819  -3.791 -10.561  1.00  0.00     0.211 HD
ENDBRANCH  30  35
BRANCH  31  37
ATOM     37  C   UNL     1      16.877  -0.661 -12.246  1.00  0.00     0.191 C 
BRANCH  37  38
ATOM     38  O   UNL     1      17.854  -1.507 -12.818  1.00  0.00    -0.394 OA
ATOM     39  H   UNL     1      17.503  -2.096 -13.556  1.00  0.00     0.210 HD
ENDBRANCH  37  38
ENDBRANCH  31  37
BRANCH  32  40
ATOM     40  O   UNL     1      14.470  -3.442 -11.463  1.00  0.00    -0.387 OA
ATOM     41  H   UNL     1      14.457  -4.309 -10.987  1.00  0.00     0.211 HD
ENDBRANCH  32  40
ENDBRANCH   1  27
TORSDOF 12
ENDMDL
MODEL 3
REMARK VINA RESULT:    -6.413      3.022      7.047
REMARK INTER + INTRA:         -10.963
REMARK INTER:                  -8.852
REMARK INTRA:                  -2.112
REMARK UNBOUND:                -1.552
REMARK SMILES O=c1c(O[C@H]2O[C@@H](CO)[C@H](O)[C@@H](O)[C@H]2O)c(-c2ccc(O)c(O)c2)oc2cc(O)cc(O)c12
REMARK SMILES IDX 4 1 3 2 16 3 25 4 2 5 26 6 1 7 33 8 27 9 31 10 28 11 30 12
REMARK SMILES IDX 17 13 18 14 19 15 20 16 24 17 22 18 21 19 23 21 32 23 29 25
REMARK SMILES IDX 5 27 14 28 6 29 12 30 7 31 10 32 15 33 13 35 8 37 9 38 11 40
REMARK H PARENT 21 20 23 22 32 24 29 26 15 34 13 36 9 39 11 41
REMARK Flexibility Score: inf
ROOT
ATOM      1  O   UNL     1      14.047  -0.452 -13.494  1.00  0.00    -0.454 OA
ENDROOT
BRANCH   1   2
ATOM      2  C   UNL     1      15.214  -1.331 -13.336  1.00  0.00     0.214 A 
ATOM      3  C   UNL     1      15.220  -2.585 -12.701  1.00  0.00     0.180 A 
ATOM      4  O   UNL     1      15.522  -3.604 -13.482  1.00  0.00    -0.452 OA
ATOM      5  C   UNL     1      16.390  -1.103 -14.039  1.00  0.00     0.239 A 
ATOM      6  C   UNL     1      16.337  -3.464 -14.520  1.00  0.00     0.146 A 
ATOM      7  O   UNL     1      16.869   0.090 -14.060  1.00  0.00    -0.285 OA
ATOM      8  C   UNL     1      16.884  -2.200 -14.826  1.00  0.00     0.111 A 
ATOM      9  C   UNL     1      16.696  -4.610 -15.226  1.00  0.00     0.094 A 
ATOM     10  C   UNL     1      17.885  -2.139 -15.848  1.00  0.00     0.134 A 
ATOM     11  C   UNL     1      17.643  -4.540 -16.212  1.00  0.00     0.123 A 
ATOM     12  C   UNL     1      18.234  -3.323 -16.550  1.00  0.00     0.093 A 
BRANCH   3  13
ATOM     13  C   UNL     1      15.566  -2.719 -11.248  1.00  0.00     0.025 A 
ATOM     14  C   UNL     1      15.666  -4.059 -10.794  1.00  0.00     0.016 A 
ATOM     15  C   UNL     1      16.507  -4.414  -9.758  1.00  0.00     0.051 A 
ATOM     16  C   UNL     1      17.026  -3.414  -8.932  1.00  0.00     0.157 A 
ATOM     17  C   UNL     1      16.412  -1.748 -10.569  1.00  0.00     0.062 A 
ATOM     18  C   UNL     1      16.875  -2.064  -9.268  1.00  0.00     0.158 A 
BRANCH  16  19
ATOM     19  O   UNL     1      17.869  -3.761  -7.886  1.00  0.00    -0.504 OA
ATOM     20  H   UNL     1      18.561  -4.483  -8.009  1.00  0.00     0.293 HD
ENDBRANCH  16  19
BRANCH  18  21
ATOM     21  O   UNL     1      17.292  -1.043  -8.377  1.00  0.00    -0.504 OA
ATOM     22  H   UNL     1      16.987  -0.078  -8.492  1.00  0.00     0.293 HD
ENDBRANCH  18  21
ENDBRANCH   3  13
BRANCH  10  23
ATOM     23  O   UNL     1      18.532  -0.960 -16.218  1.00  0.00    -0.507 OA
ATOM     24  H   UNL     1      18.565  -0.637 -17.170  1.00  0.00     0.293 HD
ENDBRANCH  10  23
BRANCH  11  25
ATOM     25  O   UNL     1      18.172  -5.717 -16.803  1.00  0.00    -0.508 OA
ATOM     26  H   UNL     1      17.550  -6.408 -17.236  1.00  0.00     0.293 HD
ENDBRANCH  11  25
ENDBRANCH   1   2
BRANCH   1  27
ATOM     27  C   UNL     1      13.043  -0.525 -12.507  1.00  0.00     0.339 C 
ATOM     28  C   UNL     1      11.647  -0.158 -13.012  1.00  0.00     0.214 C 
ATOM     29  O   UNL     1      13.300   0.320 -11.414  1.00  0.00    -0.332 OA
ATOM     30  C   UNL     1      11.737   1.212 -13.723  1.00  0.00     0.180 C 
ATOM     31  C   UNL     1      13.348   1.727 -11.714  1.00  0.00     0.179 C 
ATOM     32  C   UNL     1      12.178   2.239 -12.641  1.00  0.00     0.177 C 
BRANCH  28  33
ATOM     33  O   UNL     1      11.142  -1.113 -13.899  1.00  0.00    -0.384 OA
ATOM     34  H   UNL     1      11.305  -0.674 -14.782  1.00  0.00     0.211 HD
ENDBRANCH  28  33
BRANCH  30  35
ATOM     35  O   UNL     1      12.584   1.227 -14.869  1.00  0.00    -0.387 OA
ATOM     36  H   UNL     1      13.524   0.803 -14.726  1.00  0.00     0.211 HD
ENDBRANCH  30  35
BRANCH  31  37
ATOM     37  C   UNL     1      14.733   2.159 -12.212  1.00  0.00     0.191 C 
BRANCH  37  38
ATOM     38  O   UNL     1      14.808   2.300 -13.617  1.00  0.00    -0.394 OA
ATOM     39  H   UNL     1      15.139   1.476 -14.092  1.00  0.00     0.210 HD
ENDBRANCH  37  38
ENDBRANCH  31  37
BRANCH  32  40
ATOM     40  O   UNL     1      11.011   2.583 -11.891  1.00  0.00    -0.387 OA
ATOM     41  H   UNL     1      10.374   1.829 -11.815  1.00  0.00     0.211 HD
ENDBRANCH  32  40
ENDBRANCH   1  27
TORSDOF 12
ENDMDL
MODEL 4
REMARK VINA RESULT:    -6.336      4.477      6.342
REMARK INTER + INTRA:         -10.850
REMARK INTER:                  -8.809
REMARK INTRA:                  -2.041
REMARK UNBOUND:                -1.552
REMARK SMILES O=c1c(O[C@H]2O[C@@H](CO)[C@H](O)[C@@H](O)[C@H]2O)c(-c2ccc(O)c(O)c2)oc2cc(O)cc(O)c12
REMARK SMILES IDX 4 1 3 2 16 3 25 4 2 5 26 6 1 7 33 8 27 9 31 10 28 11 30 12
REMARK SMILES IDX 17 13 18 14 19 15 20 16 24 17 22 18 21 19 23 21 32 23 29 25
REMARK SMILES IDX 5 27 14 28 6 29 12 30 7 31 10 32 15 33 13 35 8 37 9 38 11 40
REMARK H PARENT 21 20 23 22 32 24 29 26 15 34 13 36 9 39 11 41
REMARK Flexibility Score: inf
ROOT
ATOM      1  O   UNL     1      16.794   1.110 -12.862  1.00  0.00    -0.454 OA
ENDROOT
BRANCH   1   2
ATOM      2  C   UNL     1      16.058   0.608 -11.693  1.00  0.00     0.214 A 
ATOM      3  C   UNL     1      16.570   0.486 -10.389  1.00  0.00     0.180 A 
ATOM      4  O   UNL     1      15.971   1.234  -9.482  1.00  0.00    -0.452 OA
ATOM      5  C   UNL     1      14.680   0.440 -11.724  1.00  0.00     0.239 A 
ATOM      6  C   UNL     1      14.687   1.553  -9.585  1.00  0.00     0.146 A 
ATOM      7  O   UNL     1      14.159  -0.163 -12.731  1.00  0.00    -0.285 OA
ATOM      8  C   UNL     1      13.934   1.112 -10.694  1.00  0.00     0.111 A 
ATOM      9  C   UNL     1      14.102   2.250  -8.530  1.00  0.00     0.094 A 
ATOM     10  C   UNL     1      12.520   1.339 -10.670  1.00  0.00     0.134 A 
ATOM     11  C   UNL     1      12.753   2.476  -8.523  1.00  0.00     0.123 A 
ATOM     12  C   UNL     1      11.949   2.050  -9.580  1.00  0.00     0.093 A 
BRANCH   3  13
ATOM     13  C   UNL     1      17.183  -0.797  -9.911  1.00  0.00     0.025 A 
ATOM     14  C   UNL     1      18.159  -0.634  -8.895  1.00  0.00     0.016 A 
ATOM     15  C   UNL     1      18.387  -1.608  -7.944  1.00  0.00     0.051 A 
ATOM     16  C   UNL     1      17.891  -2.896  -8.158  1.00  0.00     0.157 A 
ATOM     17  C   UNL     1      16.428  -2.041  -9.879  1.00  0.00     0.062 A 
ATOM     18  C   UNL     1      17.001  -3.150  -9.207  1.00  0.00     0.158 A 
BRANCH  16  19
ATOM     19  O   UNL     1      18.119  -3.882  -7.209  1.00  0.00    -0.504 OA
ATOM     20  H   UNL     1      17.346  -4.300  -6.716  1.00  0.00     0.293 HD
ENDBRANCH  16  19
BRANCH  18  21
ATOM     21  O   UNL     1      16.587  -4.473  -9.505  1.00  0.00    -0.504 OA
ATOM     22  H   UNL     1      16.386  -5.146  -8.769  1.00  0.00     0.293 HD
ENDBRANCH  18  21
ENDBRANCH   3  13
BRANCH  10  23
ATOM     23  O   UNL     1      11.659   0.918 -11.683  1.00  0.00    -0.507 OA
ATOM     24  H   UNL     1      11.692  -0.009 -12.071  1.00  0.00     0.293 HD
ENDBRANCH  10  23
BRANCH  11  25
ATOM     25  O   UNL     1      12.105   2.999  -7.373  1.00  0.00    -0.508 OA
ATOM     26  H   UNL     1      11.356   2.472  -6.911  1.00  0.00     0.293 HD
ENDBRANCH  11  25
ENDBRANCH   1   2
BRANCH   1  27
ATOM     27  C   UNL     1      18.195   0.963 -12.857  1.00  0.00     0.339 C 
ATOM     28  C   UNL     1      18.932   1.992 -13.716  1.00  0.00     0.214 C 
ATOM     29  O   UNL     1      18.607  -0.300 -13.317  1.00  0.00    -0.332 OA
ATOM     30  C   UNL     1      18.299   1.981 -15.128  1.00  0.00     0.180 C 
ATOM     31  C   UNL     1      18.261  -0.607 -14.680  1.00  0.00     0.179 C 
ATOM     32  C   UNL     1      18.545   0.558 -15.707  1.00  0.00     0.177 C 
BRANCH  28  33
ATOM     33  O   UNL     1      18.851   3.279 -13.178  1.00  0.00    -0.384 OA
ATOM     34  H   UNL     1      19.262   3.828 -13.905  1.00  0.00     0.211 HD
ENDBRANCH  28  33
BRANCH  30  35
ATOM     35  O   UNL     1      16.924   2.355 -15.160  1.00  0.00    -0.387 OA
ATOM     36  H   UNL     1      16.725   3.328 -14.846  1.00  0.00     0.211 HD
ENDBRANCH  30  35
BRANCH  31  37
ATOM     37  C   UNL     1      16.837  -1.167 -14.797  1.00  0.00     0.191 C 
BRANCH  37  38
ATOM     38  O   UNL     1      15.890  -0.213 -15.234  1.00  0.00    -0.394 OA
ATOM     39  H   UNL     1      14.995  -0.288 -14.779  1.00  0.00     0.210 HD
ENDBRANCH  37  38
ENDBRANCH  31  37
BRANCH  32  40
ATOM     40  O   UNL     1      19.889   0.531 -16.190  1.00  0.00    -0.387 OA
ATOM     41  H   UNL     1      20.499   1.087 -15.645  1.00  0.00     0.211 HD
ENDBRANCH  32  40
ENDBRANCH   1  27
TORSDOF 12
ENDMDL
MODEL 5
REMARK VINA RESULT:    -6.326      4.729      6.911
REMARK INTER + INTRA:         -10.837
REMARK INTER:                  -8.725
REMARK INTRA:                  -2.112
REMARK UNBOUND:                -1.552
REMARK SMILES O=c1c(O[C@H]2O[C@@H](CO)[C@H](O)[C@@H](O)[C@H]2O)c(-c2ccc(O)c(O)c2)oc2cc(O)cc(O)c12
REMARK SMILES IDX 4 1 3 2 16 3 25 4 2 5 26 6 1 7 33 8 27 9 31 10 28 11 30 12
REMARK SMILES IDX 17 13 18 14 19 15 20 16 24 17 22 18 21 19 23 21 32 23 29 25
REMARK SMILES IDX 5 27 14 28 6 29 12 30 7 31 10 32 15 33 13 35 8 37 9 38 11 40
REMARK H PARENT 21 20 23 22 32 24 29 26 15 34 13 36 9 39 11 41
REMARK Flexibility Score: inf
ROOT
ATOM      1  O   UNL     1      15.349   1.624 -11.856  1.00  0.00    -0.454 OA
ENDROOT
BRANCH   1   2
ATOM      2  C   UNL     1      15.344   1.276 -10.428  1.00  0.00     0.214 A 
ATOM      3  C   UNL     1      16.480   1.066  -9.628  1.00  0.00     0.180 A 
ATOM      4  O   UNL     1      16.627   1.919  -8.632  1.00  0.00    -0.452 OA
ATOM      5  C   UNL     1      14.187   1.372  -9.666  1.00  0.00     0.239 A 
ATOM      6  C   UNL     1      15.580   2.474  -8.036  1.00  0.00     0.146 A 
ATOM      7  O   UNL     1      13.100   0.873 -10.137  1.00  0.00    -0.285 OA
ATOM      8  C   UNL     1      14.273   2.178  -8.478  1.00  0.00     0.111 A 
ATOM      9  C   UNL     1      15.814   3.274  -6.920  1.00  0.00     0.094 A 
ATOM     10  C   UNL     1      13.179   2.669  -7.695  1.00  0.00     0.134 A 
ATOM     11  C   UNL     1      14.762   3.752  -6.186  1.00  0.00     0.123 A 
ATOM     12  C   UNL     1      13.446   3.481  -6.560  1.00  0.00     0.093 A 
BRANCH   3  13
ATOM     13  C   UNL     1      17.051  -0.307  -9.434  1.00  0.00     0.025 A 
ATOM     14  C   UNL     1      18.089  -0.376  -8.470  1.00  0.00     0.016 A 
ATOM     15  C   UNL     1      18.318  -1.519  -7.730  1.00  0.00     0.051 A 
ATOM     16  C   UNL     1      17.745  -2.723  -8.145  1.00  0.00     0.157 A 
ATOM     17  C   UNL     1      16.236  -1.504  -9.583  1.00  0.00     0.062 A 
ATOM     18  C   UNL     1      16.787  -2.741  -9.164  1.00  0.00     0.158 A 
BRANCH  16  19
ATOM     19  O   UNL     1      17.973  -3.878  -7.410  1.00  0.00    -0.504 OA
ATOM     20  H   UNL     1      17.829  -4.783  -7.828  1.00  0.00     0.293 HD
ENDBRANCH  16  19
BRANCH  18  21
ATOM     21  O   UNL     1      16.289  -3.967  -9.673  1.00  0.00    -0.504 OA
ATOM     22  H   UNL     1      16.864  -4.576 -10.251  1.00  0.00     0.293 HD
ENDBRANCH  18  21
ENDBRANCH   3  13
BRANCH  10  23
ATOM     23  O   UNL     1      11.842   2.414  -8.000  1.00  0.00    -0.507 OA
ATOM     24  H   UNL     1      11.491   1.484  -8.157  1.00  0.00     0.293 HD
ENDBRANCH  10  23
BRANCH  11  25
ATOM     25  O   UNL     1      14.973   4.394  -4.937  1.00  0.00    -0.508 OA
ATOM     26  H   UNL     1      14.548   4.022  -4.082  1.00  0.00     0.293 HD
ENDBRANCH  11  25
ENDBRANCH   1   2
BRANCH   1  27
ATOM     27  C   UNL     1      16.549   1.419 -12.568  1.00  0.00     0.339 C 
ATOM     28  C   UNL     1      16.644   2.218 -13.869  1.00  0.00     0.214 C 
ATOM     29  O   UNL     1      16.745   0.073 -12.918  1.00  0.00    -0.332 OA
ATOM     30  C   UNL     1      15.364   1.947 -14.694  1.00  0.00     0.180 C 
ATOM     31  C   UNL     1      15.755  -0.490 -13.798  1.00  0.00     0.179 C 
ATOM     32  C   UNL     1      15.370   0.427 -15.024  1.00  0.00     0.177 C 
BRANCH  28  33
ATOM     33  O   UNL     1      16.767   3.590 -13.634  1.00  0.00    -0.384 OA
ATOM     34  H   UNL     1      17.662   3.641 -13.194  1.00  0.00     0.211 HD
ENDBRANCH  28  33
BRANCH  30  35
ATOM     35  O   UNL     1      14.157   2.367 -14.064  1.00  0.00    -0.387 OA
ATOM     36  H   UNL     1      13.287   1.951 -14.459  1.00  0.00     0.211 HD
ENDBRANCH  30  35
BRANCH  31  37
ATOM     37  C   UNL     1      14.529  -1.000 -13.029  1.00  0.00     0.191 C 
BRANCH  37  38
ATOM     38  O   UNL     1      13.421  -0.125 -13.092  1.00  0.00    -0.394 OA
ATOM     39  H   UNL     1      12.677  -0.450 -13.689  1.00  0.00     0.210 HD
ENDBRANCH  37  38
ENDBRANCH  31  37
BRANCH  32  40
ATOM     40  O   UNL     1      16.254   0.242 -16.131  1.00  0.00    -0.387 OA
ATOM     41  H   UNL     1      15.792   0.321 -17.002  1.00  0.00     0.211 HD
ENDBRANCH  32  40
ENDBRANCH   1  27
TORSDOF 12
ENDMDL
MODEL 6
REMARK VINA RESULT:    -6.311      2.683      5.116
REMARK INTER + INTRA:         -10.815
REMARK INTER:                  -8.903
REMARK INTRA:                  -1.912
REMARK UNBOUND:                -1.552
REMARK SMILES O=c1c(O[C@H]2O[C@@H](CO)[C@H](O)[C@@H](O)[C@H]2O)c(-c2ccc(O)c(O)c2)oc2cc(O)cc(O)c12
REMARK SMILES IDX 4 1 3 2 16 3 25 4 2 5 26 6 1 7 33 8 27 9 31 10 28 11 30 12
REMARK SMILES IDX 17 13 18 14 19 15 20 16 24 17 22 18 21 19 23 21 32 23 29 25
REMARK SMILES IDX 5 27 14 28 6 29 12 30 7 31 10 32 15 33 13 35 8 37 9 38 11 40
REMARK H PARENT 21 20 23 22 32 24 29 26 15 34 13 36 9 39 11 41
REMARK Flexibility Score: inf
ROOT
ATOM      1  O   UNL     1      16.009  -3.193 -13.777  1.00  0.00    -0.454 OA
ENDROOT
BRANCH   1   2
ATOM      2  C   UNL     1      15.286  -2.309 -12.853  1.00  0.00     0.214 A 
ATOM      3  C   UNL     1      15.873  -1.397 -11.958  1.00  0.00     0.180 A 
ATOM      4  O   UNL     1      15.580  -0.130 -12.182  1.00  0.00    -0.452 OA
ATOM      5  C   UNL     1      13.915  -2.115 -12.962  1.00  0.00     0.239 A 
ATOM      6  C   UNL     1      14.419   0.229 -12.715  1.00  0.00     0.146 A 
ATOM      7  O   UNL     1      13.160  -3.146 -13.100  1.00  0.00    -0.285 OA
ATOM      8  C   UNL     1      13.473  -0.752 -13.080  1.00  0.00     0.111 A 
ATOM      9  C   UNL     1      14.141   1.590 -12.814  1.00  0.00     0.094 A 
ATOM     10  C   UNL     1      12.176  -0.305 -13.491  1.00  0.00     0.134 A 
ATOM     11  C   UNL     1      12.903   2.010 -13.222  1.00  0.00     0.123 A 
ATOM     12  C   UNL     1      11.918   1.090 -13.580  1.00  0.00     0.093 A 
BRANCH   3  13
ATOM     13  C   UNL     1      16.175  -1.782 -10.541  1.00  0.00     0.025 A 
ATOM     14  C   UNL     1      15.969  -3.155 -10.253  1.00  0.00     0.016 A 
ATOM     15  C   UNL     1      16.704  -3.814  -9.289  1.00  0.00     0.051 A 
ATOM     16  C   UNL     1      17.434  -3.065  -8.362  1.00  0.00     0.157 A 
ATOM     17  C   UNL     1      17.217  -1.117  -9.772  1.00  0.00     0.062 A 
ATOM     18  C   UNL     1      17.593  -1.686  -8.530  1.00  0.00     0.158 A 
BRANCH  16  19
ATOM     19  O   UNL     1      18.173  -3.719  -7.387  1.00  0.00    -0.504 OA
ATOM     20  H   UNL     1      19.158  -3.882  -7.520  1.00  0.00     0.293 HD
ENDBRANCH  16  19
BRANCH  18  21
ATOM     21  O   UNL     1      18.228  -0.901  -7.534  1.00  0.00    -0.504 OA
ATOM     22  H   UNL     1      17.767  -0.683  -6.653  1.00  0.00     0.293 HD
ENDBRANCH  18  21
ENDBRANCH   3  13
BRANCH  10  23
ATOM     23  O   UNL     1      11.141  -1.172 -13.839  1.00  0.00    -0.507 OA
ATOM     24  H   UNL     1      10.278  -1.219 -13.324  1.00  0.00     0.293 HD
ENDBRANCH  10  23
BRANCH  11  25
ATOM     25  O   UNL     1      12.529   3.376 -13.136  1.00  0.00    -0.508 OA
ATOM     26  H   UNL     1      13.177   4.114 -13.429  1.00  0.00     0.293 HD
ENDBRANCH  11  25
ENDBRANCH   1   2
BRANCH   1  27
ATOM     27  C   UNL     1      17.416  -3.218 -13.683  1.00  0.00     0.339 C 
ATOM     28  C   UNL     1      18.122  -3.540 -15.001  1.00  0.00     0.214 C 
ATOM     29  O   UNL     1      17.877  -4.161 -12.749  1.00  0.00    -0.332 OA
ATOM     30  C   UNL     1      17.503  -4.837 -15.574  1.00  0.00     0.180 C 
ATOM     31  C   UNL     1      17.556  -5.533 -13.042  1.00  0.00     0.179 C 
ATOM     32  C   UNL     1      17.807  -5.960 -14.541  1.00  0.00     0.177 C 
BRANCH  28  33
ATOM     33  O   UNL     1      17.989  -2.507 -15.933  1.00  0.00    -0.384 OA
ATOM     34  H   UNL     1      18.856  -2.567 -16.426  1.00  0.00     0.211 HD
ENDBRANCH  28  33
BRANCH  30  35
ATOM     35  O   UNL     1      16.116  -4.740 -15.886  1.00  0.00    -0.387 OA
ATOM     36  H   UNL     1      15.657  -5.642 -16.134  1.00  0.00     0.211 HD
ENDBRANCH  30  35
BRANCH  31  37
ATOM     37  C   UNL     1      16.155  -5.912 -12.544  1.00  0.00     0.191 C 
BRANCH  37  38
ATOM     38  O   UNL     1      15.147  -5.758 -13.523  1.00  0.00    -0.394 OA
ATOM     39  H   UNL     1      14.524  -6.546 -13.596  1.00  0.00     0.210 HD
ENDBRANCH  37  38
ENDBRANCH  31  37
BRANCH  32  40
ATOM     40  O   UNL     1      19.156  -6.376 -14.761  1.00  0.00    -0.387 OA
ATOM     41  H   UNL     1      19.230  -7.057 -15.475  1.00  0.00     0.211 HD
ENDBRANCH  32  40
ENDBRANCH   1  27
TORSDOF 12
ENDMDL
MODEL 7
REMARK VINA RESULT:    -6.256      3.472      6.477
REMARK INTER + INTRA:         -10.734
REMARK INTER:                  -8.695
REMARK INTRA:                  -2.039
REMARK UNBOUND:                -1.552
REMARK SMILES O=c1c(O[C@H]2O[C@@H](CO)[C@H](O)[C@@H](O)[C@H]2O)c(-c2ccc(O)c(O)c2)oc2cc(O)cc(O)c12
REMARK SMILES IDX 4 1 3 2 16 3 25 4 2 5 26 6 1 7 33 8 27 9 31 10 28 11 30 12
REMARK SMILES IDX 17 13 18 14 19 15 20 16 24 17 22 18 21 19 23 21 32 23 29 25
REMARK SMILES IDX 5 27 14 28 6 29 12 30 7 31 10 32 15 33 13 35 8 37 9 38 11 40
REMARK H PARENT 21 20 23 22 32 24 29 26 15 34 13 36 9 39 11 41
REMARK Flexibility Score: inf
ROOT
ATOM      1  O   UNL     1      18.088  -4.639 -14.282  1.00  0.00    -0.454 OA
ENDROOT
BRANCH   1   2
ATOM      2  C   UNL     1      17.904  -3.200 -14.047  1.00  0.00     0.214 A 
ATOM      3  C   UNL     1      17.092  -2.339 -14.807  1.00  0.00     0.180 A 
ATOM      4  O   UNL     1      16.088  -1.794 -14.148  1.00  0.00    -0.452 OA
ATOM      5  C   UNL     1      18.333  -2.599 -12.871  1.00  0.00     0.239 A 
ATOM      6  C   UNL     1      16.171  -1.533 -12.850  1.00  0.00     0.146 A 
ATOM      7  O   UNL     1      19.519  -2.858 -12.448  1.00  0.00    -0.285 OA
ATOM      8  C   UNL     1      17.342  -1.862 -12.135  1.00  0.00     0.111 A 
ATOM      9  C   UNL     1      15.112  -0.853 -12.253  1.00  0.00     0.094 A 
ATOM     10  C   UNL     1      17.443  -1.407 -10.781  1.00  0.00     0.134 A 
ATOM     11  C   UNL     1      15.211  -0.436 -10.954  1.00  0.00     0.123 A 
ATOM     12  C   UNL     1      16.349  -0.713 -10.197  1.00  0.00     0.093 A 
BRANCH   3  13
ATOM     13  C   UNL     1      17.652  -1.558 -15.959  1.00  0.00     0.025 A 
ATOM     14  C   UNL     1      17.995  -0.219 -15.643  1.00  0.00     0.016 A 
ATOM     15  C   UNL     1      19.012   0.445 -16.299  1.00  0.00     0.051 A 
ATOM     16  C   UNL     1      19.501  -0.078 -17.498  1.00  0.00     0.157 A 
ATOM     17  C   UNL     1      18.446  -2.192 -17.001  1.00  0.00     0.062 A 
ATOM     18  C   UNL     1      19.123  -1.356 -17.923  1.00  0.00     0.158 A 
BRANCH  16  19
ATOM     19  O   UNL     1      20.520   0.585 -18.167  1.00  0.00    -0.504 OA
ATOM     20  H   UNL     1      21.293   0.977 -17.654  1.00  0.00     0.293 HD
ENDBRANCH  16  19
BRANCH  18  21
ATOM     21  O   UNL     1      19.519  -1.846 -19.193  1.00  0.00    -0.504 OA
ATOM     22  H   UNL     1      18.882  -2.380 -19.780  1.00  0.00     0.293 HD
ENDBRANCH  18  21
ENDBRANCH   3  13
BRANCH  10  23
ATOM     23  O   UNL     1      18.562  -1.631  -9.978  1.00  0.00    -0.507 OA
ATOM     24  H   UNL     1      18.637  -1.270  -9.042  1.00  0.00     0.293 HD
ENDBRANCH  10  23
BRANCH  11  25
ATOM     25  O   UNL     1      14.239   0.431 -10.388  1.00  0.00    -0.508 OA
ATOM     26  H   UNL     1      14.327   1.447 -10.486  1.00  0.00     0.293 HD
ENDBRANCH  11  25
ENDBRANCH   1   2
BRANCH   1  27
ATOM     27  C   UNL     1      17.293  -5.525 -13.528  1.00  0.00     0.339 C 
ATOM     28  C   UNL     1      17.991  -6.838 -13.172  1.00  0.00     0.214 C 
ATOM     29  O   UNL     1      16.104  -5.878 -14.189  1.00  0.00    -0.332 OA
ATOM     30  C   UNL     1      18.558  -7.449 -14.475  1.00  0.00     0.180 C 
ATOM     31  C   UNL     1      16.271  -6.583 -15.432  1.00  0.00     0.179 C 
ATOM     32  C   UNL     1      17.334  -7.749 -15.387  1.00  0.00     0.177 C 
BRANCH  28  33
ATOM     33  O   UNL     1      19.029  -6.650 -12.255  1.00  0.00    -0.384 OA
ATOM     34  H   UNL     1      19.775  -6.357 -12.851  1.00  0.00     0.211 HD
ENDBRANCH  28  33
BRANCH  30  35
ATOM     35  O   UNL     1      19.541  -6.647 -15.124  1.00  0.00    -0.387 OA
ATOM     36  H   UNL     1      20.403  -6.471 -14.567  1.00  0.00     0.211 HD
ENDBRANCH  30  35
BRANCH  31  37
ATOM     37  C   UNL     1      16.492  -5.624 -16.609  1.00  0.00     0.191 C 
BRANCH  37  38
ATOM     38  O   UNL     1      17.805  -5.665 -17.131  1.00  0.00    -0.394 OA
ATOM     39  H   UNL     1      18.072  -6.567 -17.492  1.00  0.00     0.210 HD
ENDBRANCH  37  38
ENDBRANCH  31  37
BRANCH  32  40
ATOM     40  O   UNL     1      16.764  -8.977 -14.930  1.00  0.00    -0.387 OA
ATOM     41  H   UNL     1      16.384  -9.516 -15.668  1.00  0.00     0.211 HD
ENDBRANCH  32  40
ENDBRANCH   1  27
TORSDOF 12
ENDMDL
MODEL 8
REMARK VINA RESULT:    -6.217      2.325      5.039
REMARK INTER + INTRA:         -10.676
REMARK INTER:                  -8.829
REMARK INTRA:                  -1.847
REMARK UNBOUND:                -1.552
REMARK SMILES O=c1c(O[C@H]2O[C@@H](CO)[C@H](O)[C@@H](O)[C@H]2O)c(-c2ccc(O)c(O)c2)oc2cc(O)cc(O)c12
REMARK SMILES IDX 4 1 3 2 16 3 25 4 2 5 26 6 1 7 33 8 27 9 31 10 28 11 30 12
REMARK SMILES IDX 17 13 18 14 19 15 20 16 24 17 22 18 21 19 23 21 32 23 29 25
REMARK SMILES IDX 5 27 14 28 6 29 12 30 7 31 10 32 15 33 13 35 8 37 9 38 11 40
REMARK H PARENT 21 20 23 22 32 24 29 26 15 34 13 36 9 39 11 41
REMARK Flexibility Score: inf
ROOT
ATOM      1  O   UNL     1      15.845  -4.882 -13.472  1.00  0.00    -0.454 OA
ENDROOT
BRANCH   1   2
ATOM      2  C   UNL     1      15.408  -3.733 -12.667  1.00  0.00     0.214 A 
ATOM      3  C   UNL     1      16.164  -2.576 -12.406  1.00  0.00     0.180 A 
ATOM      4  O   UNL     1      15.653  -1.457 -12.883  1.00  0.00    -0.452 OA
ATOM      5  C   UNL     1      14.081  -3.578 -12.290  1.00  0.00     0.239 A 
ATOM      6  C   UNL     1      14.343  -1.291 -13.006  1.00  0.00     0.146 A 
ATOM      7  O   UNL     1      13.463  -4.589 -11.793  1.00  0.00    -0.285 OA
ATOM      8  C   UNL     1      13.460  -2.331 -12.647  1.00  0.00     0.111 A 
ATOM      9  C   UNL     1      13.880  -0.041 -13.410  1.00  0.00     0.094 A 
ATOM     10  C   UNL     1      12.057  -2.040 -12.639  1.00  0.00     0.134 A 
ATOM     11  C   UNL     1      12.537   0.225 -13.414  1.00  0.00     0.123 A 
ATOM     12  C   UNL     1      11.613  -0.755 -13.053  1.00  0.00     0.093 A 
BRANCH   3  13
ATOM     13  C   UNL     1      17.012  -2.463 -11.174  1.00  0.00     0.025 A 
ATOM     14  C   UNL     1      17.481  -1.152 -10.908  1.00  0.00     0.016 A 
ATOM     15  C   UNL     1      17.729  -0.716  -9.622  1.00  0.00     0.051 A 
ATOM     16  C   UNL     1      17.831  -1.657  -8.594  1.00  0.00     0.157 A 
ATOM     17  C   UNL     1      16.793  -3.313 -10.012  1.00  0.00     0.062 A 
ATOM     18  C   UNL     1      17.481  -2.993  -8.815  1.00  0.00     0.158 A 
BRANCH  16  19
ATOM     19  O   UNL     1      18.084  -1.228  -7.298  1.00  0.00    -0.504 OA
ATOM     20  H   UNL     1      17.650  -0.389  -6.947  1.00  0.00     0.293 HD
ENDBRANCH  16  19
BRANCH  18  21
ATOM     21  O   UNL     1      17.694  -3.975  -7.815  1.00  0.00    -0.504 OA
ATOM     22  H   UNL     1      17.655  -4.970  -8.029  1.00  0.00     0.293 HD
ENDBRANCH  18  21
ENDBRANCH   3  13
BRANCH  10  23
ATOM     23  O   UNL     1      11.084  -2.966 -12.267  1.00  0.00    -0.507 OA
ATOM     24  H   UNL     1      11.231  -3.642 -11.537  1.00  0.00     0.293 HD
ENDBRANCH  10  23
BRANCH  11  25
ATOM     25  O   UNL     1      12.053   1.543 -13.622  1.00  0.00    -0.508 OA
ATOM     26  H   UNL     1      12.696   2.301 -13.871  1.00  0.00     0.293 HD
ENDBRANCH  11  25
ENDBRANCH   1   2
BRANCH   1  27
ATOM     27  C   UNL     1      17.199  -4.922 -13.862  1.00  0.00     0.339 C 
ATOM     28  C   UNL     1      17.431  -4.588 -15.337  1.00  0.00     0.214 C 
ATOM     29  O   UNL     1      17.785  -6.181 -13.648  1.00  0.00    -0.332 OA
ATOM     30  C   UNL     1      16.501  -5.485 -16.186  1.00  0.00     0.180 C 
ATOM     31  C   UNL     1      17.208  -7.270 -14.393  1.00  0.00     0.179 C 
ATOM     32  C   UNL     1      16.942  -6.953 -15.916  1.00  0.00     0.177 C 
BRANCH  28  33
ATOM     33  O   UNL     1      17.168  -3.245 -15.618  1.00  0.00    -0.384 OA
ATOM     34  H   UNL     1      16.175  -3.209 -15.523  1.00  0.00     0.211 HD
ENDBRANCH  28  33
BRANCH  30  35
ATOM     35  O   UNL     1      15.110  -5.281 -15.952  1.00  0.00    -0.387 OA
ATOM     36  H   UNL     1      14.549  -6.152 -15.845  1.00  0.00     0.211 HD
ENDBRANCH  30  35
BRANCH  31  37
ATOM     37  C   UNL     1      15.981  -7.860 -13.686  1.00  0.00     0.191 C 
BRANCH  37  38
ATOM     38  O   UNL     1      14.756  -7.519 -14.304  1.00  0.00    -0.394 OA
ATOM     39  H   UNL     1      14.011  -7.326 -13.655  1.00  0.00     0.210 HD
ENDBRANCH  37  38
ENDBRANCH  31  37
BRANCH  32  40
ATOM     40  O   UNL     1      18.096  -7.197 -16.724  1.00  0.00    -0.387 OA
ATOM     41  H   UNL     1      18.640  -7.951 -16.388  1.00  0.00     0.211 HD
ENDBRANCH  32  40
ENDBRANCH   1  27
TORSDOF 12
ENDMDL
MODEL 9
REMARK VINA RESULT:    -6.211      3.003      6.208
REMARK INTER + INTRA:         -10.667
REMARK INTER:                  -8.720
REMARK INTRA:                  -1.947
REMARK UNBOUND:                -1.552
REMARK SMILES O=c1c(O[C@H]2O[C@@H](CO)[C@H](O)[C@@H](O)[C@H]2O)c(-c2ccc(O)c(O)c2)oc2cc(O)cc(O)c12
REMARK SMILES IDX 4 1 3 2 16 3 25 4 2 5 26 6 1 7 33 8 27 9 31 10 28 11 30 12
REMARK SMILES IDX 17 13 18 14 19 15 20 16 24 17 22 18 21 19 23 21 32 23 29 25
REMARK SMILES IDX 5 27 14 28 6 29 12 30 7 31 10 32 15 33 13 35 8 37 9 38 11 40
REMARK H PARENT 21 20 23 22 32 24 29 26 15 34 13 36 9 39 11 41
REMARK Flexibility Score: inf
ROOT
ATOM      1  O   UNL     1      17.167  -2.429 -11.650  1.00  0.00    -0.454 OA
ENDROOT
BRANCH   1   2
ATOM      2  C   UNL     1      17.770  -1.649 -10.560  1.00  0.00     0.214 A 
ATOM      3  C   UNL     1      17.087  -1.123  -9.450  1.00  0.00     0.180 A 
ATOM      4  O   UNL     1      17.466  -1.606  -8.282  1.00  0.00    -0.452 OA
ATOM      5  C   UNL     1      19.148  -1.575 -10.401  1.00  0.00     0.239 A 
ATOM      6  C   UNL     1      18.711  -2.012  -8.071  1.00  0.00     0.146 A 
ATOM      7  O   UNL     1      19.870  -1.323 -11.433  1.00  0.00    -0.285 OA
ATOM      8  C   UNL     1      19.660  -1.957  -9.113  1.00  0.00     0.111 A 
ATOM      9  C   UNL     1      19.059  -2.401  -6.779  1.00  0.00     0.094 A 
ATOM     10  C   UNL     1      21.024  -2.246  -8.786  1.00  0.00     0.134 A 
ATOM     11  C   UNL     1      20.362  -2.691  -6.479  1.00  0.00     0.123 A 
ATOM     12  C   UNL     1      21.352  -2.638  -7.460  1.00  0.00     0.093 A 
BRANCH   3  13
ATOM     13  C   UNL     1      16.545   0.276  -9.461  1.00  0.00     0.025 A 
ATOM     14  C   UNL     1      15.221   0.384  -9.957  1.00  0.00     0.016 A 
ATOM     15  C   UNL     1      14.361   1.373  -9.524  1.00  0.00     0.051 A 
ATOM     16  C   UNL     1      14.882   2.471  -8.835  1.00  0.00     0.157 A 
ATOM     17  C   UNL     1      16.935   1.256  -8.458  1.00  0.00     0.062 A 
ATOM     18  C   UNL     1      16.212   2.474  -8.403  1.00  0.00     0.158 A 
BRANCH  16  19
ATOM     19  O   UNL     1      14.025   3.472  -8.398  1.00  0.00    -0.504 OA
ATOM     20  H   UNL     1      13.279   3.258  -7.757  1.00  0.00     0.293 HD
ENDBRANCH  16  19
BRANCH  18  21
ATOM     21  O   UNL     1      16.781   3.630  -7.811  1.00  0.00    -0.504 OA
ATOM     22  H   UNL     1      17.789   3.770  -7.776  1.00  0.00     0.293 HD
ENDBRANCH  18  21
ENDBRANCH   3  13
BRANCH  10  23
ATOM     23  O   UNL     1      22.064  -2.189  -9.713  1.00  0.00    -0.507 OA
ATOM     24  H   UNL     1      21.951  -1.786 -10.628  1.00  0.00     0.293 HD
ENDBRANCH  10  23
BRANCH  11  25
ATOM     25  O   UNL     1      20.776  -2.890  -5.135  1.00  0.00    -0.508 OA
ATOM     26  H   UNL     1      20.321  -3.596  -4.549  1.00  0.00     0.293 HD
ENDBRANCH  11  25
ENDBRANCH   1   2
BRANCH   1  27
ATOM     27  C   UNL     1      15.914  -3.026 -11.403  1.00  0.00     0.339 C 
ATOM     28  C   UNL     1      16.000  -4.464 -10.890  1.00  0.00     0.214 C 
ATOM     29  O   UNL     1      15.101  -3.066 -12.549  1.00  0.00    -0.332 OA
ATOM     30  C   UNL     1      16.904  -5.266 -11.855  1.00  0.00     0.180 C 
ATOM     31  C   UNL     1      15.612  -3.845 -13.646  1.00  0.00     0.179 C 
ATOM     32  C   UNL     1      16.187  -5.256 -13.236  1.00  0.00     0.177 C 
BRANCH  28  33
ATOM     33  O   UNL     1      16.525  -4.529  -9.596  1.00  0.00    -0.384 OA
ATOM     34  H   UNL     1      16.718  -3.567  -9.408  1.00  0.00     0.211 HD
ENDBRANCH  28  33
BRANCH  30  35
ATOM     35  O   UNL     1      18.248  -4.796 -11.932  1.00  0.00    -0.387 OA
ATOM     36  H   UNL     1      18.401  -3.839 -11.552  1.00  0.00     0.211 HD
ENDBRANCH  30  35
BRANCH  31  37
ATOM     37  C   UNL     1      16.583  -3.038 -14.518  1.00  0.00     0.191 C 
BRANCH  37  38
ATOM     38  O   UNL     1      17.934  -3.422 -14.359  1.00  0.00    -0.394 OA
ATOM     39  H   UNL     1      18.174  -4.278 -14.833  1.00  0.00     0.210 HD
ENDBRANCH  37  38
ENDBRANCH  31  37
BRANCH  32  40
ATOM     40  O   UNL     1      15.168  -6.257 -13.184  1.00  0.00    -0.387 OA
ATOM     41  H   UNL     1      14.575  -6.234 -13.975  1.00  0.00     0.211 HD
ENDBRANCH  32  40
ENDBRANCH   1  27
TORSDOF 12
ENDMDL
