MODEL 1
REMARK VINA RESULT:    -3.958      0.000      0.000
REMARK INTER + INTRA:          -5.674
REMARK INTER:                  -5.346
REMARK INTRA:                  -0.328
REMARK UNBOUND:                -0.328
REMARK SMILES CCCCCCCC(=O)[O-]
REMARK SMILES IDX 5 1 6 2 7 3 8 4 9 5 10 6 4 7 3 8 2 9 1 10
REMARK H PARENT
REMARK Flexibility Score: inf
ROOT
ATOM      1  C   UNL     1      -9.253 -25.366  28.102  1.00  0.00     0.000 C 
ENDROOT
BRANCH   1   2
ATOM      2  C   UNL     1      -9.250 -26.891  27.878  1.00  0.00     0.006 C 
BRANCH   2   3
ATOM      3  C   UNL     1     -10.366 -27.644  28.620  1.00  0.00     0.053 C 
BRANCH   3   4
ATOM      4  C   UNL     1     -11.432 -28.129  27.686  1.00  0.00     0.041 C 
ATOM      5  O   UNL     1     -12.597 -27.657  27.757  1.00  0.00    -0.550 OA
ATOM      6  O   UNL     1     -11.148 -29.125  26.761  1.00  0.00    -0.550 OA
ENDBRANCH   3   4
ENDBRANCH   2   3
ENDBRANCH   1   2
BRANCH   1   7
ATOM      7  C   UNL     1     -10.491 -24.626  27.556  1.00  0.00     0.000 C 
BRANCH   7   8
ATOM      8  C   UNL     1     -10.744 -24.803  26.048  1.00  0.00    -0.000 C 
BRANCH   8   9
ATOM      9  C   UNL     1     -11.514 -23.628  25.431  1.00  0.00    -0.003 C 
ATOM     10  C   UNL     1     -11.374 -22.370  26.282  1.00  0.00     0.004 C 
ENDBRANCH   8   9
ENDBRANCH   7   8
ENDBRANCH   1   7
TORSDOF 6
ENDMDL
MODEL 2
REMARK VINA RESULT:    -3.858      3.641      4.891
REMARK INTER + INTRA:          -5.539
REMARK INTER:                  -5.074
REMARK INTRA:                  -0.465
REMARK UNBOUND:                -0.328
REMARK SMILES CCCCCCCC(=O)[O-]
REMARK SMILES IDX 5 1 6 2 7 3 8 4 9 5 10 6 4 7 3 8 2 9 1 10
REMARK H PARENT
REMARK Flexibility Score: inf
ROOT
ATOM      1  C   UNL     1     -10.188 -25.287  29.070  1.00  0.00     0.000 C 
ENDROOT
BRANCH   1   2
ATOM      2  C   UNL     1     -10.045 -26.059  30.397  1.00  0.00     0.006 C 
BRANCH   2   3
ATOM      3  C   UNL     1      -9.444 -25.236  31.548  1.00  0.00     0.053 C 
BRANCH   3   4
ATOM      4  C   UNL     1      -7.991 -24.946  31.331  1.00  0.00     0.041 C 
ATOM      5  O   UNL     1      -7.528 -23.803  31.586  1.00  0.00    -0.550 OA
ATOM      6  O   UNL     1      -7.154 -25.926  30.813  1.00  0.00    -0.550 OA
ENDBRANCH   3   4
ENDBRANCH   2   3
ENDBRANCH   1   2
BRANCH   1   7
ATOM      7  C   UNL     1      -9.291 -25.789  27.920  1.00  0.00     0.000 C 
BRANCH   7   8
ATOM      8  C   UNL     1      -8.987 -27.297  27.941  1.00  0.00    -0.000 C 
BRANCH   8   9
ATOM      9  C   UNL     1      -9.721 -28.068  26.835  1.00  0.00    -0.003 C 
ATOM     10  C   UNL     1     -11.035 -28.649  27.349  1.00  0.00     0.004 C 
ENDBRANCH   8   9
ENDBRANCH   7   8
ENDBRANCH   1   7
TORSDOF 6
ENDMDL
MODEL 3
REMARK VINA RESULT:    -3.856      2.371      2.799
REMARK INTER + INTRA:          -5.536
REMARK INTER:                  -5.269
REMARK INTRA:                  -0.268
REMARK UNBOUND:                -0.328
REMARK SMILES CCCCCCCC(=O)[O-]
REMARK SMILES IDX 5 1 6 2 7 3 8 4 9 5 10 6 4 7 3 8 2 9 1 10
REMARK H PARENT
REMARK Flexibility Score: inf
ROOT
ATOM      1  C   UNL     1     -11.309 -26.755  27.025  1.00  0.00     0.000 C 
ENDROOT
BRANCH   1   2
ATOM      2  C   UNL     1     -10.350 -27.613  27.874  1.00  0.00     0.006 C 
BRANCH   2   3
ATOM      3  C   UNL     1      -8.873 -27.512  27.460  1.00  0.00     0.053 C 
BRANCH   3   4
ATOM      4  C   UNL     1      -8.032 -26.891  28.533  1.00  0.00     0.041 C 
ATOM      5  O   UNL     1      -8.498 -25.962  29.244  1.00  0.00    -0.550 OA
ATOM      6  O   UNL     1      -6.722 -27.312  28.723  1.00  0.00    -0.550 OA
ENDBRANCH   3   4
ENDBRANCH   2   3
ENDBRANCH   1   2
BRANCH   1   7
ATOM      7  C   UNL     1     -10.719 -25.426  26.510  1.00  0.00     0.000 C 
BRANCH   7   8
ATOM      8  C   UNL     1     -11.384 -24.868  25.240  1.00  0.00    -0.000 C 
BRANCH   8   9
ATOM      9  C   UNL     1     -11.804 -23.398  25.384  1.00  0.00    -0.003 C 
ATOM     10  C   UNL     1     -11.065 -22.726  26.537  1.00  0.00     0.004 C 
ENDBRANCH   8   9
ENDBRANCH   7   8
ENDBRANCH   1   7
TORSDOF 6
ENDMDL
MODEL 4
REMARK VINA RESULT:    -3.854      3.113      3.529
REMARK INTER + INTRA:          -5.534
REMARK INTER:                  -5.253
REMARK INTRA:                  -0.281
REMARK UNBOUND:                -0.328
REMARK SMILES CCCCCCCC(=O)[O-]
REMARK SMILES IDX 5 1 6 2 7 3 8 4 9 5 10 6 4 7 3 8 2 9 1 10
REMARK H PARENT
REMARK Flexibility Score: inf
ROOT
ATOM      1  C   UNL     1     -10.799 -26.039  28.281  1.00  0.00     0.000 C 
ENDROOT
BRANCH   1   2
ATOM      2  C   UNL     1     -10.466 -26.074  29.786  1.00  0.00     0.006 C 
BRANCH   2   3
ATOM      3  C   UNL     1      -9.620 -24.889  30.277  1.00  0.00     0.053 C 
BRANCH   3   4
ATOM      4  C   UNL     1      -8.207 -25.292  30.571  1.00  0.00     0.041 C 
ATOM      5  O   UNL     1      -7.563 -24.716  31.487  1.00  0.00    -0.550 OA
ATOM      6  O   UNL     1      -7.591 -26.279  29.813  1.00  0.00    -0.550 OA
ENDBRANCH   3   4
ENDBRANCH   2   3
ENDBRANCH   1   2
BRANCH   1   7
ATOM      7  C   UNL     1     -10.410 -24.737  27.553  1.00  0.00     0.000 C 
BRANCH   7   8
ATOM      8  C   UNL     1     -10.695 -24.726  26.041  1.00  0.00    -0.000 C 
BRANCH   8   9
ATOM      9  C   UNL     1     -11.458 -23.474  25.588  1.00  0.00    -0.003 C 
ATOM     10  C   UNL     1     -11.096 -22.267  26.448  1.00  0.00     0.004 C 
ENDBRANCH   8   9
ENDBRANCH   7   8
ENDBRANCH   1   7
TORSDOF 6
ENDMDL
MODEL 5
REMARK VINA RESULT:    -3.809      2.382      3.008
REMARK INTER + INTRA:          -5.473
REMARK INTER:                  -5.106
REMARK INTRA:                  -0.367
REMARK UNBOUND:                -0.328
REMARK SMILES CCCCCCCC(=O)[O-]
REMARK SMILES IDX 5 1 6 2 7 3 8 4 9 5 10 6 4 7 3 8 2 9 1 10
REMARK H PARENT
REMARK Flexibility Score: inf
ROOT
ATOM      1  C   UNL     1      -9.819 -27.128  26.900  1.00  0.00     0.000 C 
ENDROOT
BRANCH   1   2
ATOM      2  C   UNL     1      -9.190 -27.065  28.306  1.00  0.00     0.006 C 
BRANCH   2   3
ATOM      3  C   UNL     1      -8.964 -25.641  28.837  1.00  0.00     0.053 C 
BRANCH   3   4
ATOM      4  C   UNL     1      -9.694 -25.400  30.123  1.00  0.00     0.041 C 
ATOM      5  O   UNL     1     -10.765 -26.016  30.367  1.00  0.00    -0.550 OA
ATOM      6  O   UNL     1      -9.211 -24.471  31.036  1.00  0.00    -0.550 OA
ENDBRANCH   3   4
ENDBRANCH   2   3
ENDBRANCH   1   2
BRANCH   1   7
ATOM      7  C   UNL     1     -11.125 -26.325  26.729  1.00  0.00     0.000 C 
BRANCH   7   8
ATOM      8  C   UNL     1     -11.108 -25.288  25.592  1.00  0.00    -0.000 C 
BRANCH   8   9
ATOM      9  C   UNL     1     -10.640 -23.902  26.057  1.00  0.00    -0.003 C 
ATOM     10  C   UNL     1     -11.649 -22.824  25.674  1.00  0.00     0.004 C 
ENDBRANCH   8   9
ENDBRANCH   7   8
ENDBRANCH   1   7
TORSDOF 6
ENDMDL
MODEL 6
REMARK VINA RESULT:    -3.808      2.610      4.141
REMARK INTER + INTRA:          -5.472
REMARK INTER:                  -4.953
REMARK INTRA:                  -0.519
REMARK UNBOUND:                -0.328
REMARK SMILES CCCCCCCC(=O)[O-]
REMARK SMILES IDX 5 1 6 2 7 3 8 4 9 5 10 6 4 7 3 8 2 9 1 10
REMARK H PARENT
REMARK Flexibility Score: inf
ROOT
ATOM      1  C   UNL     1      -8.105 -27.132  29.775  1.00  0.00     0.000 C 
ENDROOT
BRANCH   1   2
ATOM      2  C   UNL     1      -7.904 -27.158  28.247  1.00  0.00     0.006 C 
BRANCH   2   3
ATOM      3  C   UNL     1      -9.158 -27.545  27.447  1.00  0.00     0.053 C 
BRANCH   3   4
ATOM      4  C   UNL     1     -10.013 -26.356  27.134  1.00  0.00     0.041 C 
ATOM      5  O   UNL     1     -11.159 -26.513  26.638  1.00  0.00    -0.550 OA
ATOM      6  O   UNL     1      -9.530 -25.072  27.357  1.00  0.00    -0.550 OA
ENDBRANCH   3   4
ENDBRANCH   2   3
ENDBRANCH   1   2
BRANCH   1   7
ATOM      7  C   UNL     1      -7.916 -25.753  30.438  1.00  0.00     0.000 C 
BRANCH   7   8
ATOM      8  C   UNL     1      -9.210 -25.089  30.941  1.00  0.00    -0.000 C 
BRANCH   8   9
ATOM      9  C   UNL     1     -10.431 -26.014  30.841  1.00  0.00    -0.003 C 
ATOM     10  C   UNL     1     -10.994 -26.332  32.223  1.00  0.00     0.004 C 
ENDBRANCH   8   9
ENDBRANCH   7   8
ENDBRANCH   1   7
TORSDOF 6
ENDMDL
MODEL 7
REMARK VINA RESULT:    -3.804      3.868      5.233
REMARK INTER + INTRA:          -5.466
REMARK INTER:                  -4.867
REMARK INTRA:                  -0.600
REMARK UNBOUND:                -0.328
REMARK SMILES CCCCCCCC(=O)[O-]
REMARK SMILES IDX 5 1 6 2 7 3 8 4 9 5 10 6 4 7 3 8 2 9 1 10
REMARK H PARENT
REMARK Flexibility Score: inf
ROOT
ATOM      1  C   UNL     1      -9.021 -25.607  28.522  1.00  0.00     0.000 C 
ENDROOT
BRANCH   1   2
ATOM      2  C   UNL     1      -8.529 -27.067  28.565  1.00  0.00     0.006 C 
BRANCH   2   3
ATOM      3  C   UNL     1      -7.008 -27.221  28.726  1.00  0.00     0.053 C 
BRANCH   3   4
ATOM      4  C   UNL     1      -6.578 -27.076  30.153  1.00  0.00     0.041 C 
ATOM      5  O   UNL     1      -5.701 -26.228  30.466  1.00  0.00    -0.550 OA
ATOM      6  O   UNL     1      -7.119 -27.899  31.132  1.00  0.00    -0.550 OA
ENDBRANCH   3   4
ENDBRANCH   2   3
ENDBRANCH   1   2
BRANCH   1   7
ATOM      7  C   UNL     1      -9.877 -25.167  29.728  1.00  0.00     0.000 C 
BRANCH   7   8
ATOM      8  C   UNL     1      -9.081 -24.636  30.932  1.00  0.00    -0.000 C 
BRANCH   8   9
ATOM      9  C   UNL     1      -9.426 -25.361  32.241  1.00  0.00    -0.003 C 
ATOM     10  C   UNL     1     -10.390 -26.517  31.991  1.00  0.00     0.004 C 
ENDBRANCH   8   9
ENDBRANCH   7   8
ENDBRANCH   1   7
TORSDOF 6
ENDMDL
MODEL 8
REMARK VINA RESULT:    -3.787      4.372      5.451
REMARK INTER + INTRA:          -5.444
REMARK INTER:                  -4.829
REMARK INTRA:                  -0.615
REMARK UNBOUND:                -0.328
REMARK SMILES CCCCCCCC(=O)[O-]
REMARK SMILES IDX 5 1 6 2 7 3 8 4 9 5 10 6 4 7 3 8 2 9 1 10
REMARK H PARENT
REMARK Flexibility Score: inf
ROOT
ATOM      1  C   UNL     1      -8.260 -27.173  28.885  1.00  0.00     0.000 C 
ENDROOT
BRANCH   1   2
ATOM      2  C   UNL     1      -6.872 -26.943  29.514  1.00  0.00     0.006 C 
BRANCH   2   3
ATOM      3  C   UNL     1      -6.902 -26.612  31.015  1.00  0.00     0.053 C 
BRANCH   3   4
ATOM      4  C   UNL     1      -6.454 -25.209  31.288  1.00  0.00     0.041 C 
ATOM      5  O   UNL     1      -7.288 -24.265  31.276  1.00  0.00    -0.550 OA
ATOM      6  O   UNL     1      -5.112 -24.938  31.521  1.00  0.00    -0.550 OA
ENDBRANCH   3   4
ENDBRANCH   2   3
ENDBRANCH   1   2
BRANCH   1   7
ATOM      7  C   UNL     1      -8.966 -25.902  28.369  1.00  0.00     0.000 C 
BRANCH   7   8
ATOM      8  C   UNL     1      -9.977 -25.277  29.346  1.00  0.00    -0.000 C 
BRANCH   8   9
ATOM      9  C   UNL     1     -10.734 -26.326  30.172  1.00  0.00    -0.003 C 
ATOM     10  C   UNL     1     -10.555 -26.082  31.667  1.00  0.00     0.004 C 
ENDBRANCH   8   9
ENDBRANCH   7   8
ENDBRANCH   1   7
TORSDOF 6
ENDMDL
MODEL 9
REMARK VINA RESULT:    -3.758      2.851      4.548
REMARK INTER + INTRA:          -5.404
REMARK INTER:                  -4.811
REMARK INTRA:                  -0.593
REMARK UNBOUND:                -0.328
REMARK SMILES CCCCCCCC(=O)[O-]
REMARK SMILES IDX 5 1 6 2 7 3 8 4 9 5 10 6 4 7 3 8 2 9 1 10
REMARK H PARENT
REMARK Flexibility Score: inf
ROOT
ATOM      1  C   UNL     1      -9.823 -25.131  29.632  1.00  0.00     0.000 C 
ENDROOT
BRANCH   1   2
ATOM      2  C   UNL     1     -10.816 -26.285  29.393  1.00  0.00     0.006 C 
BRANCH   2   3
ATOM      3  C   UNL     1     -10.175 -27.573  28.852  1.00  0.00     0.053 C 
BRANCH   3   4
ATOM      4  C   UNL     1      -9.408 -27.329  27.588  1.00  0.00     0.041 C 
ATOM      5  O   UNL     1      -9.990 -26.858  26.576  1.00  0.00    -0.550 OA
ATOM      6  O   UNL     1      -8.060 -27.655  27.517  1.00  0.00    -0.550 OA
ENDBRANCH   3   4
ENDBRANCH   2   3
ENDBRANCH   1   2
BRANCH   1   7
ATOM      7  C   UNL     1      -9.256 -25.039  31.064  1.00  0.00     0.000 C 
BRANCH   7   8
ATOM      8  C   UNL     1      -7.721 -25.072  31.159  1.00  0.00    -0.000 C 
BRANCH   8   9
ATOM      9  C   UNL     1      -7.124 -26.411  30.704  1.00  0.00    -0.003 C 
ATOM     10  C   UNL     1      -7.628 -27.561  31.571  1.00  0.00     0.004 C 
ENDBRANCH   8   9
ENDBRANCH   7   8
ENDBRANCH   1   7
TORSDOF 6
ENDMDL
