MODEL 1
REMARK VINA RESULT:    -3.942      0.000      0.000
REMARK INTER + INTRA:          -9.774
REMARK INTER:                  -7.168
REMARK INTRA:                  -2.606
REMARK UNBOUND:                -2.606
REMARK SMILES CCCCCCCCCCCCCCCC(=O)[O-]
REMARK SMILES IDX 9 1 10 2 11 3 12 4 13 5 14 6 15 7 16 8 17 9 18 10 8 11 7 12
REMARK SMILES IDX 6 13 5 14 4 15 3 16 2 17 1 18
REMARK H PARENT
REMARK Flexibility Score: inf
ROOT
ATOM      1  C   UNL     1      30.706   7.030  30.893  1.00  0.00     0.000 C 
ENDROOT
BRANCH   1   2
ATOM      2  C   UNL     1      31.324   7.824  32.058  1.00  0.00     0.000 C 
BRANCH   2   3
ATOM      3  C   UNL     1      30.802   9.270  32.138  1.00  0.00     0.000 C 
BRANCH   3   4
ATOM      4  C   UNL     1      31.895  10.350  32.221  1.00  0.00     0.000 C 
BRANCH   4   5
ATOM      5  C   UNL     1      31.674  11.505  31.232  1.00  0.00     0.000 C 
BRANCH   5   6
ATOM      6  C   UNL     1      30.239  11.493  30.685  1.00  0.00     0.006 C 
BRANCH   6   7
ATOM      7  C   UNL     1      30.178  11.888  29.204  1.00  0.00     0.053 C 
BRANCH   7   8
ATOM      8  C   UNL     1      28.909  11.421  28.558  1.00  0.00     0.041 C 
ATOM      9  O   UNL     1      28.880  11.170  27.325  1.00  0.00    -0.550 OA
ATOM     10  O   UNL     1      27.766  11.233  29.326  1.00  0.00    -0.550 OA
ENDBRANCH   7   8
ENDBRANCH   6   7
ENDBRANCH   5   6
ENDBRANCH   4   5
ENDBRANCH   3   4
ENDBRANCH   2   3
ENDBRANCH   1   2
BRANCH   1  11
ATOM     11  C   UNL     1      30.019   7.938  29.860  1.00  0.00     0.000 C 
BRANCH  11  12
ATOM     12  C   UNL     1      30.666   7.840  28.469  1.00  0.00    -0.000 C 
BRANCH  12  13
ATOM     13  C   UNL     1      31.766   8.898  28.300  1.00  0.00    -0.000 C 
BRANCH  13  14
ATOM     14  C   UNL     1      33.176   8.342  28.570  1.00  0.00    -0.000 C 
BRANCH  14  15
ATOM     15  C   UNL     1      33.955   9.057  29.694  1.00  0.00    -0.000 C 
BRANCH  15  16
ATOM     16  C   UNL     1      35.068   8.219  30.354  1.00  0.00    -0.000 C 
BRANCH  16  17
ATOM     17  C   UNL     1      35.204   8.411  31.875  1.00  0.00    -0.003 C 
ATOM     18  C   UNL     1      34.888   7.142  32.665  1.00  0.00     0.004 C 
ENDBRANCH  16  17
ENDBRANCH  15  16
ENDBRANCH  14  15
ENDBRANCH  13  14
ENDBRANCH  12  13
ENDBRANCH  11  12
ENDBRANCH   1  11
TORSDOF 14
ENDMDL
MODEL 2
REMARK VINA RESULT:    -3.813      1.446      2.953
REMARK INTER + INTRA:          -9.539
REMARK INTER:                  -7.640
REMARK INTRA:                  -1.899
REMARK UNBOUND:                -2.606
REMARK SMILES CCCCCCCCCCCCCCCC(=O)[O-]
REMARK SMILES IDX 9 1 10 2 11 3 12 4 13 5 14 6 15 7 16 8 17 9 18 10 8 11 7 12
REMARK SMILES IDX 6 13 5 14 4 15 3 16 2 17 1 18
REMARK H PARENT
REMARK Flexibility Score: inf
ROOT
ATOM      1  C   UNL     1      31.717   7.006  32.010  1.00  0.00     0.000 C 
ENDROOT
BRANCH   1   2
ATOM      2  C   UNL     1      30.587   7.636  31.176  1.00  0.00     0.000 C 
BRANCH   2   3
ATOM      3  C   UNL     1      30.076   6.703  30.063  1.00  0.00     0.000 C 
BRANCH   3   4
ATOM      4  C   UNL     1      30.233   7.253  28.634  1.00  0.00     0.000 C 
BRANCH   4   5
ATOM      5  C   UNL     1      31.497   8.109  28.456  1.00  0.00     0.000 C 
BRANCH   5   6
ATOM      6  C   UNL     1      31.168   9.434  27.754  1.00  0.00     0.006 C 
BRANCH   6   7
ATOM      7  C   UNL     1      30.611  10.484  28.724  1.00  0.00     0.053 C 
BRANCH   7   8
ATOM      8  C   UNL     1      29.175  10.798  28.435  1.00  0.00     0.041 C 
ATOM      9  O   UNL     1      28.332  10.829  29.370  1.00  0.00    -0.550 OA
ATOM     10  O   UNL     1      28.775  11.089  27.137  1.00  0.00    -0.550 OA
ENDBRANCH   7   8
ENDBRANCH   6   7
ENDBRANCH   5   6
ENDBRANCH   4   5
ENDBRANCH   3   4
ENDBRANCH   2   3
ENDBRANCH   1   2
BRANCH   1  11
ATOM     11  C   UNL     1      33.056   7.741  31.838  1.00  0.00     0.000 C 
BRANCH  11  12
ATOM     12  C   UNL     1      32.904   9.268  31.915  1.00  0.00    -0.000 C 
BRANCH  12  13
ATOM     13  C   UNL     1      33.644   9.953  30.758  1.00  0.00    -0.000 C 
BRANCH  13  14
ATOM     14  C   UNL     1      34.717   9.052  30.118  1.00  0.00    -0.000 C 
BRANCH  14  15
ATOM     15  C   UNL     1      36.169   9.546  30.289  1.00  0.00    -0.000 C 
BRANCH  15  16
ATOM     16  C   UNL     1      37.211   8.439  30.546  1.00  0.00    -0.000 C 
BRANCH  16  17
ATOM     17  C   UNL     1      36.744   7.319  31.492  1.00  0.00    -0.003 C 
ATOM     18  C   UNL     1      37.798   6.943  32.533  1.00  0.00     0.004 C 
ENDBRANCH  16  17
ENDBRANCH  15  16
ENDBRANCH  14  15
ENDBRANCH  13  14
ENDBRANCH  12  13
ENDBRANCH  11  12
ENDBRANCH   1  11
TORSDOF 14
ENDMDL
MODEL 3
REMARK VINA RESULT:    -3.799      2.210      4.301
REMARK INTER + INTRA:          -9.515
REMARK INTER:                  -7.365
REMARK INTRA:                  -2.150
REMARK UNBOUND:                -2.606
REMARK SMILES CCCCCCCCCCCCCCCC(=O)[O-]
REMARK SMILES IDX 9 1 10 2 11 3 12 4 13 5 14 6 15 7 16 8 17 9 18 10 8 11 7 12
REMARK SMILES IDX 6 13 5 14 4 15 3 16 2 17 1 18
REMARK H PARENT
REMARK Flexibility Score: inf
ROOT
ATOM      1  C   UNL     1      31.552   9.411  27.592  1.00  0.00     0.000 C 
ENDROOT
BRANCH   1   2
ATOM      2  C   UNL     1      30.069   9.325  27.994  1.00  0.00     0.000 C 
BRANCH   2   3
ATOM      3  C   UNL     1      29.245  10.527  27.495  1.00  0.00     0.000 C 
BRANCH   3   4
ATOM      4  C   UNL     1      28.756  11.480  28.600  1.00  0.00     0.000 C 
BRANCH   4   5
ATOM      5  C   UNL     1      28.849  10.868  30.006  1.00  0.00     0.000 C 
BRANCH   5   6
ATOM      6  C   UNL     1      29.593  11.807  30.966  1.00  0.00     0.006 C 
BRANCH   6   7
ATOM      7  C   UNL     1      30.970  12.217  30.428  1.00  0.00     0.053 C 
BRANCH   7   8
ATOM      8  C   UNL     1      31.330  13.613  30.834  1.00  0.00     0.041 C 
ATOM      9  O   UNL     1      30.850  14.598  30.214  1.00  0.00    -0.550 OA
ATOM     10  O   UNL     1      32.172  13.827  31.919  1.00  0.00    -0.550 OA
ENDBRANCH   7   8
ENDBRANCH   6   7
ENDBRANCH   5   6
ENDBRANCH   4   5
ENDBRANCH   3   4
ENDBRANCH   2   3
ENDBRANCH   1   2
BRANCH   1  11
ATOM     11  C   UNL     1      32.412   8.337  28.277  1.00  0.00     0.000 C 
BRANCH  11  12
ATOM     12  C   UNL     1      33.285   8.913  29.403  1.00  0.00    -0.000 C 
BRANCH  12  13
ATOM     13  C   UNL     1      32.927   8.279  30.755  1.00  0.00    -0.000 C 
BRANCH  13  14
ATOM     14  C   UNL     1      31.611   8.823  31.340  1.00  0.00    -0.000 C 
BRANCH  14  15
ATOM     15  C   UNL     1      30.506   7.767  31.552  1.00  0.00    -0.000 C 
BRANCH  15  16
ATOM     16  C   UNL     1      30.766   6.403  30.883  1.00  0.00    -0.000 C 
BRANCH  16  17
ATOM     17  C   UNL     1      29.786   6.040  29.754  1.00  0.00    -0.003 C 
ATOM     18  C   UNL     1      29.209   4.633  29.897  1.00  0.00     0.004 C 
ENDBRANCH  16  17
ENDBRANCH  15  16
ENDBRANCH  14  15
ENDBRANCH  13  14
ENDBRANCH  12  13
ENDBRANCH  11  12
ENDBRANCH   1  11
TORSDOF 14
ENDMDL
MODEL 4
REMARK VINA RESULT:    -3.774      1.015      3.020
REMARK INTER + INTRA:          -9.468
REMARK INTER:                  -7.168
REMARK INTRA:                  -2.300
REMARK UNBOUND:                -2.606
REMARK SMILES CCCCCCCCCCCCCCCC(=O)[O-]
REMARK SMILES IDX 9 1 10 2 11 3 12 4 13 5 14 6 15 7 16 8 17 9 18 10 8 11 7 12
REMARK SMILES IDX 6 13 5 14 4 15 3 16 2 17 1 18
REMARK H PARENT
REMARK Flexibility Score: inf
ROOT
ATOM      1  C   UNL     1      32.971   8.889  32.563  1.00  0.00     0.000 C 
ENDROOT
BRANCH   1   2
ATOM      2  C   UNL     1      31.435   8.817  32.495  1.00  0.00     0.000 C 
BRANCH   2   3
ATOM      3  C   UNL     1      30.773  10.207  32.481  1.00  0.00     0.000 C 
BRANCH   3   4
ATOM      4  C   UNL     1      31.741  11.384  32.268  1.00  0.00     0.000 C 
BRANCH   4   5
ATOM      5  C   UNL     1      31.574  12.058  30.898  1.00  0.00     0.000 C 
BRANCH   5   6
ATOM      6  C   UNL     1      30.138  11.901  30.379  1.00  0.00     0.006 C 
BRANCH   6   7
ATOM      7  C   UNL     1      30.066  11.935  28.847  1.00  0.00     0.053 C 
BRANCH   7   8
ATOM      8  C   UNL     1      28.811  11.294  28.337  1.00  0.00     0.041 C 
ATOM      9  O   UNL     1      28.778  10.793  27.183  1.00  0.00    -0.550 OA
ATOM     10  O   UNL     1      27.687  11.222  29.151  1.00  0.00    -0.550 OA
ENDBRANCH   7   8
ENDBRANCH   6   7
ENDBRANCH   5   6
ENDBRANCH   4   5
ENDBRANCH   3   4
ENDBRANCH   2   3
ENDBRANCH   1   2
BRANCH   1  11
ATOM     11  C   UNL     1      33.648   8.154  31.396  1.00  0.00     0.000 C 
BRANCH  11  12
ATOM     12  C   UNL     1      33.901   9.073  30.190  1.00  0.00    -0.000 C 
BRANCH  12  13
ATOM     13  C   UNL     1      33.276   8.489  28.915  1.00  0.00    -0.000 C 
BRANCH  13  14
ATOM     14  C   UNL     1      31.845   8.999  28.663  1.00  0.00    -0.000 C 
BRANCH  14  15
ATOM     15  C   UNL     1      30.787   7.897  28.453  1.00  0.00    -0.000 C 
BRANCH  15  16
ATOM     16  C   UNL     1      29.941   7.556  29.696  1.00  0.00    -0.000 C 
BRANCH  16  17
ATOM     17  C   UNL     1      30.291   6.217  30.368  1.00  0.00    -0.003 C 
ATOM     18  C   UNL     1      29.526   5.035  29.774  1.00  0.00     0.004 C 
ENDBRANCH  16  17
ENDBRANCH  15  16
ENDBRANCH  14  15
ENDBRANCH  13  14
ENDBRANCH  12  13
ENDBRANCH  11  12
ENDBRANCH   1  11
TORSDOF 14
ENDMDL
MODEL 5
REMARK VINA RESULT:    -3.753      1.431      2.963
REMARK INTER + INTRA:          -9.431
REMARK INTER:                  -7.200
REMARK INTRA:                  -2.231
REMARK UNBOUND:                -2.606
REMARK SMILES CCCCCCCCCCCCCCCC(=O)[O-]
REMARK SMILES IDX 9 1 10 2 11 3 12 4 13 5 14 6 15 7 16 8 17 9 18 10 8 11 7 12
REMARK SMILES IDX 6 13 5 14 4 15 3 16 2 17 1 18
REMARK H PARENT
REMARK Flexibility Score: inf
ROOT
ATOM      1  C   UNL     1      32.145   9.130  33.174  1.00  0.00     0.000 C 
ENDROOT
BRANCH   1   2
ATOM      2  C   UNL     1      32.605  10.423  32.477  1.00  0.00     0.000 C 
BRANCH   2   3
ATOM      3  C   UNL     1      31.548  10.989  31.511  1.00  0.00     0.000 C 
BRANCH   3   4
ATOM      4  C   UNL     1      30.468  11.863  32.173  1.00  0.00     0.000 C 
BRANCH   4   5
ATOM      5  C   UNL     1      29.042  11.479  31.750  1.00  0.00     0.000 C 
BRANCH   5   6
ATOM      6  C   UNL     1      28.587  12.303  30.537  1.00  0.00     0.006 C 
BRANCH   6   7
ATOM      7  C   UNL     1      28.042  11.420  29.407  1.00  0.00     0.053 C 
BRANCH   7   8
ATOM      8  C   UNL     1      28.988  11.360  28.247  1.00  0.00     0.041 C 
ATOM      9  O   UNL     1      30.172  11.768  28.372  1.00  0.00    -0.550 OA
ATOM     10  O   UNL     1      28.570  10.823  27.035  1.00  0.00    -0.550 OA
ENDBRANCH   7   8
ENDBRANCH   6   7
ENDBRANCH   5   6
ENDBRANCH   4   5
ENDBRANCH   3   4
ENDBRANCH   2   3
ENDBRANCH   1   2
BRANCH   1  11
ATOM     11  C   UNL     1      30.961   8.463  32.456  1.00  0.00     0.000 C 
BRANCH  11  12
ATOM     12  C   UNL     1      31.230   6.986  32.125  1.00  0.00    -0.000 C 
BRANCH  12  13
ATOM     13  C   UNL     1      30.754   6.646  30.706  1.00  0.00    -0.000 C 
BRANCH  13  14
ATOM     14  C   UNL     1      30.049   7.827  30.012  1.00  0.00    -0.000 C 
BRANCH  14  15
ATOM     15  C   UNL     1      30.394   8.006  28.520  1.00  0.00    -0.000 C 
BRANCH  15  16
ATOM     16  C   UNL     1      31.900   7.986  28.188  1.00  0.00    -0.000 C 
BRANCH  16  17
ATOM     17  C   UNL     1      32.717   9.122  28.828  1.00  0.00    -0.003 C 
ATOM     18  C   UNL     1      33.955   8.619  29.569  1.00  0.00     0.004 C 
ENDBRANCH  16  17
ENDBRANCH  15  16
ENDBRANCH  14  15
ENDBRANCH  13  14
ENDBRANCH  12  13
ENDBRANCH  11  12
ENDBRANCH   1  11
TORSDOF 14
ENDMDL
MODEL 6
REMARK VINA RESULT:    -3.650      1.055      2.588
REMARK INTER + INTRA:          -9.243
REMARK INTER:                  -7.029
REMARK INTRA:                  -2.214
REMARK UNBOUND:                -2.606
REMARK SMILES CCCCCCCCCCCCCCCC(=O)[O-]
REMARK SMILES IDX 9 1 10 2 11 3 12 4 13 5 14 6 15 7 16 8 17 9 18 10 8 11 7 12
REMARK SMILES IDX 6 13 5 14 4 15 3 16 2 17 1 18
REMARK H PARENT
REMARK Flexibility Score: inf
ROOT
ATOM      1  C   UNL     1      31.209   7.975  31.824  1.00  0.00     0.000 C 
ENDROOT
BRANCH   1   2
ATOM      2  C   UNL     1      30.687   7.002  30.752  1.00  0.00     0.000 C 
BRANCH   2   3
ATOM      3  C   UNL     1      30.282   7.713  29.447  1.00  0.00     0.000 C 
BRANCH   3   4
ATOM      4  C   UNL     1      31.448   8.025  28.491  1.00  0.00     0.000 C 
BRANCH   4   5
ATOM      5  C   UNL     1      31.278   9.363  27.755  1.00  0.00     0.000 C 
BRANCH   5   6
ATOM      6  C   UNL     1      29.882   9.952  27.999  1.00  0.00     0.006 C 
BRANCH   6   7
ATOM      7  C   UNL     1      29.940  11.419  28.446  1.00  0.00     0.053 C 
BRANCH   7   8
ATOM      8  C   UNL     1      28.768  11.782  29.306  1.00  0.00     0.041 C 
ATOM      9  O   UNL     1      27.666  11.192  29.159  1.00  0.00    -0.550 OA
ATOM     10  O   UNL     1      28.904  12.751  30.293  1.00  0.00    -0.550 OA
ENDBRANCH   7   8
ENDBRANCH   6   7
ENDBRANCH   5   6
ENDBRANCH   4   5
ENDBRANCH   3   4
ENDBRANCH   2   3
ENDBRANCH   1   2
BRANCH   1  11
ATOM     11  C   UNL     1      30.644   9.394  31.658  1.00  0.00     0.000 C 
BRANCH  11  12
ATOM     12  C   UNL     1      31.745  10.444  31.439  1.00  0.00    -0.000 C 
BRANCH  12  13
ATOM     13  C   UNL     1      33.119   9.890  31.842  1.00  0.00    -0.000 C 
BRANCH  13  14
ATOM     14  C   UNL     1      34.129   9.892  30.680  1.00  0.00    -0.000 C 
BRANCH  14  15
ATOM     15  C   UNL     1      34.564   8.495  30.192  1.00  0.00    -0.000 C 
BRANCH  15  16
ATOM     16  C   UNL     1      35.975   8.058  30.632  1.00  0.00    -0.000 C 
BRANCH  16  17
ATOM     17  C   UNL     1      36.153   7.882  32.150  1.00  0.00    -0.003 C 
ATOM     18  C   UNL     1      35.135   6.921  32.761  1.00  0.00     0.004 C 
ENDBRANCH  16  17
ENDBRANCH  15  16
ENDBRANCH  14  15
ENDBRANCH  13  14
ENDBRANCH  12  13
ENDBRANCH  11  12
ENDBRANCH   1  11
TORSDOF 14
ENDMDL
MODEL 7
REMARK VINA RESULT:    -3.638      2.967      4.853
REMARK INTER + INTRA:          -9.222
REMARK INTER:                  -6.932
REMARK INTRA:                  -2.290
REMARK UNBOUND:                -2.606
REMARK SMILES CCCCCCCCCCCCCCCC(=O)[O-]
REMARK SMILES IDX 9 1 10 2 11 3 12 4 13 5 14 6 15 7 16 8 17 9 18 10 8 11 7 12
REMARK SMILES IDX 6 13 5 14 4 15 3 16 2 17 1 18
REMARK H PARENT
REMARK Flexibility Score: inf
ROOT
ATOM      1  C   UNL     1      28.346  11.872  31.374  1.00  0.00     0.000 C 
ENDROOT
BRANCH   1   2
ATOM      2  C   UNL     1      29.875  11.848  31.540  1.00  0.00     0.000 C 
BRANCH   2   3
ATOM      3  C   UNL     1      30.351  10.779  32.541  1.00  0.00     0.000 C 
BRANCH   3   4
ATOM      4  C   UNL     1      31.748  10.200  32.256  1.00  0.00     0.000 C 
BRANCH   4   5
ATOM      5  C   UNL     1      32.500  10.962  31.155  1.00  0.00     0.000 C 
BRANCH   5   6
ATOM      6  C   UNL     1      33.944  10.456  31.024  1.00  0.00     0.006 C 
BRANCH   6   7
ATOM      7  C   UNL     1      34.034   9.160  30.209  1.00  0.00     0.053 C 
BRANCH   7   8
ATOM      8  C   UNL     1      34.743   8.078  30.965  1.00  0.00     0.041 C 
ATOM      9  O   UNL     1      35.918   7.751  30.652  1.00  0.00    -0.550 OA
ATOM     10  O   UNL     1      34.116   7.453  32.036  1.00  0.00    -0.550 OA
ENDBRANCH   7   8
ENDBRANCH   6   7
ENDBRANCH   5   6
ENDBRANCH   4   5
ENDBRANCH   3   4
ENDBRANCH   2   3
ENDBRANCH   1   2
BRANCH   1  11
ATOM     11  C   UNL     1      27.902  11.533  29.942  1.00  0.00     0.000 C 
BRANCH  11  12
ATOM     12  C   UNL     1      29.020  11.756  28.911  1.00  0.00    -0.000 C 
BRANCH  12  13
ATOM     13  C   UNL     1      28.723  11.002  27.607  1.00  0.00    -0.000 C 
BRANCH  13  14
ATOM     14  C   UNL     1      29.801   9.959  27.260  1.00  0.00    -0.000 C 
BRANCH  14  15
ATOM     15  C   UNL     1      30.746   9.587  28.421  1.00  0.00    -0.000 C 
BRANCH  15  16
ATOM     16  C   UNL     1      30.777   8.090  28.788  1.00  0.00    -0.000 C 
BRANCH  16  17
ATOM     17  C   UNL     1      30.000   7.721  30.064  1.00  0.00    -0.003 C 
ATOM     18  C   UNL     1      30.806   6.837  31.015  1.00  0.00     0.004 C 
ENDBRANCH  16  17
ENDBRANCH  15  16
ENDBRANCH  14  15
ENDBRANCH  13  14
ENDBRANCH  12  13
ENDBRANCH  11  12
ENDBRANCH   1  11
TORSDOF 14
ENDMDL
MODEL 8
REMARK VINA RESULT:    -3.628      3.101      5.572
REMARK INTER + INTRA:          -9.204
REMARK INTER:                  -6.799
REMARK INTRA:                  -2.405
REMARK UNBOUND:                -2.606
REMARK SMILES CCCCCCCCCCCCCCCC(=O)[O-]
REMARK SMILES IDX 9 1 10 2 11 3 12 4 13 5 14 6 15 7 16 8 17 9 18 10 8 11 7 12
REMARK SMILES IDX 6 13 5 14 4 15 3 16 2 17 1 18
REMARK H PARENT
REMARK Flexibility Score: inf
ROOT
ATOM      1  C   UNL     1      31.404   9.468  27.920  1.00  0.00     0.000 C 
ENDROOT
BRANCH   1   2
ATOM      2  C   UNL     1      31.699   8.276  28.848  1.00  0.00     0.000 C 
BRANCH   2   3
ATOM      3  C   UNL     1      30.479   7.357  29.044  1.00  0.00     0.000 C 
BRANCH   3   4
ATOM      4  C   UNL     1      29.999   7.220  30.500  1.00  0.00     0.000 C 
BRANCH   4   5
ATOM      5  C   UNL     1      31.046   6.572  31.419  1.00  0.00     0.000 C 
BRANCH   5   6
ATOM      6  C   UNL     1      31.241   7.398  32.698  1.00  0.00     0.006 C 
BRANCH   6   7
ATOM      7  C   UNL     1      32.425   8.368  32.588  1.00  0.00     0.053 C 
BRANCH   7   8
ATOM      8  C   UNL     1      33.729   7.684  32.867  1.00  0.00     0.041 C 
ATOM      9  O   UNL     1      34.078   7.445  34.053  1.00  0.00    -0.550 OA
ATOM     10  O   UNL     1      34.543   7.283  31.815  1.00  0.00    -0.550 OA
ENDBRANCH   7   8
ENDBRANCH   6   7
ENDBRANCH   5   6
ENDBRANCH   4   5
ENDBRANCH   3   4
ENDBRANCH   2   3
ENDBRANCH   1   2
BRANCH   1  11
ATOM     11  C   UNL     1      29.900   9.662  27.669  1.00  0.00     0.000 C 
BRANCH  11  12
ATOM     12  C   UNL     1      29.506  11.144  27.571  1.00  0.00    -0.000 C 
BRANCH  12  13
ATOM     13  C   UNL     1      28.380  11.479  28.560  1.00  0.00    -0.000 C 
BRANCH  13  14
ATOM     14  C   UNL     1      28.437  10.628  29.841  1.00  0.00    -0.000 C 
BRANCH  14  15
ATOM     15  C   UNL     1      28.928  11.374  31.099  1.00  0.00    -0.000 C 
BRANCH  15  16
ATOM     16  C   UNL     1      30.378  11.065  31.519  1.00  0.00    -0.000 C 
BRANCH  16  17
ATOM     17  C   UNL     1      31.451  11.907  30.807  1.00  0.00    -0.003 C 
ATOM     18  C   UNL     1      30.989  13.333  30.514  1.00  0.00     0.004 C 
ENDBRANCH  16  17
ENDBRANCH  15  16
ENDBRANCH  14  15
ENDBRANCH  13  14
ENDBRANCH  12  13
ENDBRANCH  11  12
ENDBRANCH   1  11
TORSDOF 14
ENDMDL
MODEL 9
REMARK VINA RESULT:    -3.578      3.510      5.735
REMARK INTER + INTRA:          -9.112
REMARK INTER:                  -6.707
REMARK INTRA:                  -2.405
REMARK UNBOUND:                -2.606
REMARK SMILES CCCCCCCCCCCCCCCC(=O)[O-]
REMARK SMILES IDX 9 1 10 2 11 3 12 4 13 5 14 6 15 7 16 8 17 9 18 10 8 11 7 12
REMARK SMILES IDX 6 13 5 14 4 15 3 16 2 17 1 18
REMARK H PARENT
REMARK Flexibility Score: inf
ROOT
ATOM      1  C   UNL     1      30.612   9.469  32.240  1.00  0.00     0.000 C 
ENDROOT
BRANCH   1   2
ATOM      2  C   UNL     1      31.711  10.396  31.691  1.00  0.00     0.000 C 
BRANCH   2   3
ATOM      3  C   UNL     1      32.884  10.577  32.672  1.00  0.00     0.000 C 
BRANCH   3   4
ATOM      4  C   UNL     1      34.245  10.081  32.152  1.00  0.00     0.000 C 
BRANCH   4   5
ATOM      5  C   UNL     1      34.334  10.071  30.619  1.00  0.00     0.000 C 
BRANCH   5   6
ATOM      6  C   UNL     1      34.717   8.677  30.100  1.00  0.00     0.006 C 
BRANCH   6   7
ATOM      7  C   UNL     1      35.272   7.776  31.211  1.00  0.00     0.053 C 
BRANCH   7   8
ATOM      8  C   UNL     1      36.768   7.715  31.179  1.00  0.00     0.041 C 
ATOM      9  O   UNL     1      37.389   6.956  31.969  1.00  0.00    -0.550 OA
ATOM     10  O   UNL     1      37.476   8.474  30.255  1.00  0.00    -0.550 OA
ENDBRANCH   7   8
ENDBRANCH   6   7
ENDBRANCH   5   6
ENDBRANCH   4   5
ENDBRANCH   3   4
ENDBRANCH   2   3
ENDBRANCH   1   2
BRANCH   1  11
ATOM     11  C   UNL     1      31.110   8.032  32.461  1.00  0.00     0.000 C 
BRANCH  11  12
ATOM     12  C   UNL     1      31.464   7.322  31.145  1.00  0.00    -0.000 C 
BRANCH  12  13
ATOM     13  C   UNL     1      30.195   6.938  30.370  1.00  0.00    -0.000 C 
BRANCH  13  14
ATOM     14  C   UNL     1      30.263   7.323  28.881  1.00  0.00    -0.000 C 
BRANCH  14  15
ATOM     15  C   UNL     1      31.518   8.120  28.471  1.00  0.00    -0.000 C 
BRANCH  15  16
ATOM     16  C   UNL     1      31.268   9.598  28.112  1.00  0.00    -0.000 C 
BRANCH  16  17
ATOM     17  C   UNL     1      29.866  10.122  28.473  1.00  0.00    -0.003 C 
ATOM     18  C   UNL     1      29.170  10.811  27.300  1.00  0.00     0.004 C 
ENDBRANCH  16  17
ENDBRANCH  15  16
ENDBRANCH  14  15
ENDBRANCH  13  14
ENDBRANCH  12  13
ENDBRANCH  11  12
ENDBRANCH   1  11
TORSDOF 14
ENDMDL
