MODEL 1
REMARK VINA RESULT:    15.623      0.000      0.000
REMARK INTER + INTRA:          26.898
REMARK INTER:                  25.669
REMARK INTRA:                   1.229
REMARK UNBOUND:                 1.229
REMARK SMILES C[C@@H]1O[C@H](OC[C@@H]2O[C@H](Oc3c(-c4ccc(O)c(O)c4)oc4cc(O)cc(O)c4c3=O)[C@@H](O)[C@H](O)[C@H]2O)[C@H](O)[C@H](O)[C@@H]1O
REMARK SMILES IDX 7 1 36 2 34 3 32 4 9 5 8 6 6 7 5 8 4 9 1 10 2 11 42 12 3 13
REMARK SMILES IDX 40 14 38 15 43 16 41 18 39 20 37 22 35 24 10 26 11 27 12 28
REMARK SMILES IDX 30 29 21 30 29 31 31 32 22 33 27 34 23 35 26 36 24 37 13 38
REMARK SMILES IDX 20 39 14 40 18 41 15 42 16 43 19 44 17 46 28 48 25 50 33 52
REMARK H PARENT 43 17 41 19 39 21 37 23 35 25 19 45 17 47 28 49 25 51 33 53
REMARK Flexibility Score: inf
ROOT
ATOM      1  C   UNL     1      95.048 105.840  99.095  1.00  0.00     0.180 C 
ATOM      2  C   UNL     1      95.781 105.045 100.242  1.00  0.00     0.177 C 
ATOM      3  C   UNL     1      95.723 103.532 100.079  1.00  0.00     0.180 C 
ATOM      4  C   UNL     1      96.000 103.138  98.627  1.00  0.00     0.214 C 
ATOM      5  C   UNL     1      95.097 103.946  97.669  1.00  0.00     0.339 C 
ATOM      6  O   UNL     1      95.303 105.344  97.790  1.00  0.00    -0.332 OA
ENDROOT
BRANCH   1   7
ATOM      7  C   UNL     1      93.557 106.214  99.316  1.00  0.00     0.198 C 
BRANCH   7   8
ATOM      8  O   UNL     1      93.185 107.399  98.624  1.00  0.00    -0.347 OA
BRANCH   8   9
ATOM      9  C   UNL     1      93.856 108.583  99.110  1.00  0.00     0.281 C 
ATOM     10  C   UNL     1      92.998 112.144  99.010  1.00  0.00     0.041 C 
ATOM     11  C   UNL     1      93.912 110.914  98.943  1.00  0.00     0.150 C 
ATOM     12  C   UNL     1      94.943 110.880 100.098  1.00  0.00     0.174 C 
ATOM     13  O   UNL     1      93.080 109.765  98.967  1.00  0.00    -0.344 OA
ATOM     14  C   UNL     1      94.541 109.855 101.188  1.00  0.00     0.179 C 
ATOM     15  C   UNL     1      94.381 108.453 100.557  1.00  0.00     0.202 C 
BRANCH  12  16
ATOM     16  O   UNL     1      95.138 112.158 100.648  1.00  0.00    -0.388 OA
ATOM     17  H   UNL     1      94.495 112.247 101.406  1.00  0.00     0.211 HD
ENDBRANCH  12  16
BRANCH  14  18
ATOM     18  O   UNL     1      93.304 110.261 101.735  1.00  0.00    -0.387 OA
ATOM     19  H   UNL     1      93.530 110.791 102.540  1.00  0.00     0.211 HD
ENDBRANCH  14  18
BRANCH  15  20
ATOM     20  O   UNL     1      93.500 107.672 101.333  1.00  0.00    -0.385 OA
ATOM     21  H   UNL     1      93.776 107.785 102.287  1.00  0.00     0.211 HD
ENDBRANCH  15  20
ENDBRANCH   8   9
ENDBRANCH   7   8
ENDBRANCH   1   7
BRANCH   2  22
ATOM     22  O   UNL     1      97.141 105.447 100.227  1.00  0.00    -0.387 OA
ATOM     23  H   UNL     1      97.183 106.378  99.829  1.00  0.00     0.211 HD
ENDBRANCH   2  22
BRANCH   3  24
ATOM     24  O   UNL     1      94.460 103.072 100.488  1.00  0.00    -0.387 OA
ATOM     25  H   UNL     1      94.552 102.128 100.780  1.00  0.00     0.211 HD
ENDBRANCH   3  24
BRANCH   5  26
ATOM     26  O   UNL     1      93.704 103.573  97.787  1.00  0.00    -0.454 OA
BRANCH  26  27
ATOM     27  C   UNL     1      93.113 102.389  97.274  1.00  0.00     0.214 A 
ATOM     28  C   UNL     1      91.908 101.902  97.832  1.00  0.00     0.180 A 
ATOM     29  C   UNL     1      93.690 101.686  96.182  1.00  0.00     0.239 A 
ATOM     30  O   UNL     1      91.260 100.887  97.252  1.00  0.00    -0.452 OA
ATOM     31  C   UNL     1      93.026 100.559  95.666  1.00  0.00     0.111 A 
ATOM     32  O   UNL     1      94.821 102.033  95.704  1.00  0.00    -0.285 OA
ATOM     33  C   UNL     1      91.750 100.233  96.195  1.00  0.00     0.146 A 
ATOM     34  C   UNL     1      93.628  99.693  94.714  1.00  0.00     0.134 A 
ATOM     35  C   UNL     1      91.022  99.180  95.646  1.00  0.00     0.094 A 
ATOM     36  C   UNL     1      92.887  98.623  94.201  1.00  0.00     0.093 A 
ATOM     37  C   UNL     1      91.599  98.384  94.650  1.00  0.00     0.123 A 
BRANCH  28  38
ATOM     38  C   UNL     1      91.375 102.435  99.099  1.00  0.00     0.025 A 
ATOM     39  C   UNL     1      91.329 103.833  99.268  1.00  0.00     0.062 A 
ATOM     40  C   UNL     1      91.140 101.588 100.194  1.00  0.00     0.016 A 
ATOM     41  C   UNL     1      91.171 104.406 100.522  1.00  0.00     0.158 A 
ATOM     42  C   UNL     1      90.956 102.158 101.469  1.00  0.00     0.051 A 
ATOM     43  C   UNL     1      90.988 103.553 101.645  1.00  0.00     0.157 A 
BRANCH  41  44
ATOM     44  O   UNL     1      91.212 105.791 100.661  1.00  0.00    -0.504 OA
ATOM     45  H   UNL     1      91.087 106.237 101.560  1.00  0.00     0.293 HD
ENDBRANCH  41  44
BRANCH  43  46
ATOM     46  O   UNL     1      90.878 104.091 102.921  1.00  0.00    -0.504 OA
ATOM     47  H   UNL     1      91.665 104.311 103.509  1.00  0.00     0.293 HD
ENDBRANCH  43  46
ENDBRANCH  28  38
BRANCH  34  48
ATOM     48  O   UNL     1      94.946  99.903  94.277  1.00  0.00    -0.507 OA
ATOM     49  H   UNL     1      95.640  99.119  94.281  1.00  0.00     0.293 HD
ENDBRANCH  34  48
BRANCH  37  50
ATOM     50  O   UNL     1      90.878  97.330  94.113  1.00  0.00    -0.508 OA
ATOM     51  H   UNL     1      90.460  97.413  93.189  1.00  0.00     0.293 HD
ENDBRANCH  37  50
ENDBRANCH  26  27
ENDBRANCH   5  26
BRANCH   4  52
ATOM     52  O   UNL     1      97.368 103.316  98.276  1.00  0.00    -0.384 OA
ATOM     53  H   UNL     1      97.787 102.395  98.223  1.00  0.00     0.211 HD
ENDBRANCH   4  52
TORSDOF 16
ENDMDL
MODEL 2
REMARK VINA RESULT:    16.390      1.786      9.201
REMARK INTER + INTRA:          28.159
REMARK INTER:                  26.330
REMARK INTRA:                   1.829
REMARK UNBOUND:                 1.229
REMARK SMILES C[C@@H]1O[C@H](OC[C@@H]2O[C@H](Oc3c(-c4ccc(O)c(O)c4)oc4cc(O)cc(O)c4c3=O)[C@@H](O)[C@H](O)[C@H]2O)[C@H](O)[C@H](O)[C@@H]1O
REMARK SMILES IDX 7 1 36 2 34 3 32 4 9 5 8 6 6 7 5 8 4 9 1 10 2 11 42 12 3 13
REMARK SMILES IDX 40 14 38 15 43 16 41 18 39 20 37 22 35 24 10 26 11 27 12 28
REMARK SMILES IDX 30 29 21 30 29 31 31 32 22 33 27 34 23 35 26 36 24 37 13 38
REMARK SMILES IDX 20 39 14 40 18 41 15 42 16 43 19 44 17 46 28 48 25 50 33 52
REMARK H PARENT 43 17 41 19 39 21 37 23 35 25 19 45 17 47 28 49 25 51 33 53
REMARK Flexibility Score: inf
ROOT
ATOM      1  C   UNL     1      91.970 102.384  99.171  1.00  0.00     0.180 C 
ATOM      2  C   UNL     1      92.361 101.687 100.530  1.00  0.00     0.177 C 
ATOM      3  C   UNL     1      92.951 102.637 101.563  1.00  0.00     0.180 C 
ATOM      4  C   UNL     1      92.148 103.938 101.617  1.00  0.00     0.214 C 
ATOM      5  C   UNL     1      91.977 104.522 100.197  1.00  0.00     0.339 C 
ATOM      6  O   UNL     1      91.303 103.628  99.327  1.00  0.00    -0.332 OA
ENDROOT
BRANCH   1   7
ATOM      7  C   UNL     1      93.035 102.410  98.041  1.00  0.00     0.198 C 
BRANCH   7   8
ATOM      8  O   UNL     1      93.578 101.123  97.775  1.00  0.00    -0.347 OA
BRANCH   8   9
ATOM      9  C   UNL     1      92.858 100.394  96.757  1.00  0.00     0.281 C 
ATOM     10  C   UNL     1      93.934  98.091  94.119  1.00  0.00     0.041 C 
ATOM     11  C   UNL     1      93.111  99.219  94.752  1.00  0.00     0.150 C 
ATOM     12  C   UNL     1      91.611  98.857  94.882  1.00  0.00     0.174 C 
ATOM     13  O   UNL     1      93.681  99.499  96.021  1.00  0.00    -0.344 OA
ATOM     14  C   UNL     1      91.239  98.493  96.341  1.00  0.00     0.179 C 
ATOM     15  C   UNL     1      91.601  99.665  97.283  1.00  0.00     0.202 C 
BRANCH  12  16
ATOM     16  O   UNL     1      91.255  97.828  93.994  1.00  0.00    -0.388 OA
ATOM     17  H   UNL     1      90.395  97.445  94.326  1.00  0.00     0.211 HD
ENDBRANCH  12  16
BRANCH  14  18
ATOM     18  O   UNL     1      91.985  97.353  96.712  1.00  0.00    -0.387 OA
ATOM     19  H   UNL     1      91.510  96.583  96.312  1.00  0.00     0.211 HD
ENDBRANCH  14  18
BRANCH  15  20
ATOM     20  O   UNL     1      91.821  99.184  98.589  1.00  0.00    -0.385 OA
ATOM     21  H   UNL     1      91.587  99.927  99.216  1.00  0.00     0.211 HD
ENDBRANCH  15  20
ENDBRANCH   8   9
ENDBRANCH   7   8
ENDBRANCH   1   7
BRANCH   2  22
ATOM     22  O   UNL     1      91.176 101.119 101.065  1.00  0.00    -0.387 OA
ATOM     23  H   UNL     1      91.380 100.159 101.318  1.00  0.00     0.211 HD
ENDBRANCH   2  22
BRANCH   3  24
ATOM     24  O   UNL     1      94.294 102.893 101.242  1.00  0.00    -0.387 OA
ATOM     25  H   UNL     1      94.783 102.029 101.234  1.00  0.00     0.211 HD
ENDBRANCH   3  24
BRANCH   5  26
ATOM     26  O   UNL     1      93.228 105.001  99.649  1.00  0.00    -0.454 OA
BRANCH  26  27
ATOM     27  C   UNL     1      93.524 106.344  99.301  1.00  0.00     0.214 A 
ATOM     28  C   UNL     1      93.821 106.677  97.959  1.00  0.00     0.180 A 
ATOM     29  C   UNL     1      93.504 107.383 100.271  1.00  0.00     0.239 A 
ATOM     30  O   UNL     1      93.939 107.957  97.594  1.00  0.00    -0.452 OA
ATOM     31  C   UNL     1      93.736 108.708  99.860  1.00  0.00     0.111 A 
ATOM     32  O   UNL     1      93.332 107.121 101.507  1.00  0.00    -0.285 OA
ATOM     33  C   UNL     1      93.879 108.963  98.471  1.00  0.00     0.146 A 
ATOM     34  C   UNL     1      93.926 109.767 100.787  1.00  0.00     0.134 A 
ATOM     35  C   UNL     1      94.017 110.273  98.020  1.00  0.00     0.094 A 
ATOM     36  C   UNL     1      94.094 111.071 100.307  1.00  0.00     0.093 A 
ATOM     37  C   UNL     1      94.122 111.317  98.945  1.00  0.00     0.123 A 
BRANCH  28  38
ATOM     38  C   UNL     1      94.087 105.637  96.948  1.00  0.00     0.025 A 
ATOM     39  C   UNL     1      93.011 104.837  96.516  1.00  0.00     0.062 A 
ATOM     40  C   UNL     1      95.402 105.294  96.597  1.00  0.00     0.016 A 
ATOM     41  C   UNL     1      93.223 103.641  95.844  1.00  0.00     0.158 A 
ATOM     42  C   UNL     1      95.628 104.094  95.896  1.00  0.00     0.051 A 
ATOM     43  C   UNL     1      94.556 103.258  95.534  1.00  0.00     0.157 A 
BRANCH  41  44
ATOM     44  O   UNL     1      92.137 102.836  95.504  1.00  0.00    -0.504 OA
ATOM     45  H   UNL     1      91.573 102.383  96.209  1.00  0.00     0.293 HD
ENDBRANCH  41  44
BRANCH  43  46
ATOM     46  O   UNL     1      94.807 102.044  94.907  1.00  0.00    -0.504 OA
ATOM     47  H   UNL     1      94.988 101.947  93.921  1.00  0.00     0.293 HD
ENDBRANCH  43  46
ENDBRANCH  28  38
BRANCH  34  48
ATOM     48  O   UNL     1      93.937 109.526 102.170  1.00  0.00    -0.507 OA
ATOM     49  H   UNL     1      94.712 109.893 102.769  1.00  0.00     0.293 HD
ENDBRANCH  34  48
BRANCH  37  50
ATOM     50  O   UNL     1      94.271 112.619  98.494  1.00  0.00    -0.508 OA
ATOM     51  H   UNL     1      93.901 113.395  99.038  1.00  0.00     0.293 HD
ENDBRANCH  37  50
ENDBRANCH  26  27
ENDBRANCH   5  26
BRANCH   4  52
ATOM     52  O   UNL     1      90.875 103.757 102.228  1.00  0.00    -0.384 OA
ATOM     53  H   UNL     1      90.536 102.844 101.948  1.00  0.00     0.211 HD
ENDBRANCH   4  52
TORSDOF 16
ENDMDL
MODEL 3
REMARK VINA RESULT:    17.606      1.814      8.971
REMARK INTER + INTRA:          30.157
REMARK INTER:                  29.227
REMARK INTRA:                   0.929
REMARK UNBOUND:                 1.229
REMARK SMILES C[C@@H]1O[C@H](OC[C@@H]2O[C@H](Oc3c(-c4ccc(O)c(O)c4)oc4cc(O)cc(O)c4c3=O)[C@@H](O)[C@H](O)[C@H]2O)[C@H](O)[C@H](O)[C@@H]1O
REMARK SMILES IDX 7 1 36 2 34 3 32 4 9 5 8 6 6 7 5 8 4 9 1 10 2 11 42 12 3 13
REMARK SMILES IDX 40 14 38 15 43 16 41 18 39 20 37 22 35 24 10 26 11 27 12 28
REMARK SMILES IDX 30 29 21 30 29 31 31 32 22 33 27 34 23 35 26 36 24 37 13 38
REMARK SMILES IDX 20 39 14 40 18 41 15 42 16 43 19 44 17 46 28 48 25 50 33 52
REMARK H PARENT 43 17 41 19 39 21 37 23 35 25 19 45 17 47 28 49 25 51 33 53
REMARK Flexibility Score: inf
ROOT
ATOM      1  C   UNL     1      93.759 101.580  99.779  1.00  0.00     0.180 C 
ATOM      2  C   UNL     1      95.329 101.573  99.627  1.00  0.00     0.177 C 
ATOM      3  C   UNL     1      95.956 102.960  99.640  1.00  0.00     0.180 C 
ATOM      4  C   UNL     1      95.335 103.821 100.742  1.00  0.00     0.214 C 
ATOM      5  C   UNL     1      93.793 103.789 100.644  1.00  0.00     0.339 C 
ATOM      6  O   UNL     1      93.276 102.474 100.771  1.00  0.00    -0.332 OA
ENDROOT
BRANCH   1   7
ATOM      7  C   UNL     1      92.910 101.606  98.480  1.00  0.00     0.198 C 
BRANCH   7   8
ATOM      8  O   UNL     1      91.616 101.045  98.665  1.00  0.00    -0.347 OA
BRANCH   8   9
ATOM      9  C   UNL     1      91.292 100.017  97.703  1.00  0.00     0.281 C 
ATOM     10  C   UNL     1      92.967  98.839  94.665  1.00  0.00     0.041 C 
ATOM     11  C   UNL     1      91.783  99.227  95.558  1.00  0.00     0.150 C 
ATOM     12  C   UNL     1      90.875  98.018  95.896  1.00  0.00     0.174 C 
ATOM     13  O   UNL     1      92.314  99.812  96.737  1.00  0.00    -0.344 OA
ATOM     14  C   UNL     1      91.111  97.518  97.343  1.00  0.00     0.179 C 
ATOM     15  C   UNL     1      90.875  98.674  98.343  1.00  0.00     0.202 C 
BRANCH  12  16
ATOM     16  O   UNL     1      91.040  96.980  94.965  1.00  0.00    -0.388 OA
ATOM     17  H   UNL     1      90.404  96.256  95.224  1.00  0.00     0.211 HD
ENDBRANCH  12  16
BRANCH  14  18
ATOM     18  O   UNL     1      92.451  97.084  97.444  1.00  0.00    -0.387 OA
ATOM     19  H   UNL     1      92.827  97.170  96.532  1.00  0.00     0.211 HD
ENDBRANCH  14  18
BRANCH  15  20
ATOM     20  O   UNL     1      91.606  98.444  99.527  1.00  0.00    -0.385 OA
ATOM     21  H   UNL     1      91.501  97.474  99.749  1.00  0.00     0.211 HD
ENDBRANCH  15  20
ENDBRANCH   8   9
ENDBRANCH   7   8
ENDBRANCH   1   7
BRANCH   2  22
ATOM     22  O   UNL     1      95.851 100.833 100.719  1.00  0.00    -0.387 OA
ATOM     23  H   UNL     1      96.486 101.438 101.227  1.00  0.00     0.211 HD
ENDBRANCH   2  22
BRANCH   3  24
ATOM     24  O   UNL     1      95.780 103.558  98.381  1.00  0.00    -0.387 OA
ATOM     25  H   UNL     1      95.269 102.932  97.807  1.00  0.00     0.211 HD
ENDBRANCH   3  24
BRANCH   5  26
ATOM     26  O   UNL     1      93.307 104.471  99.464  1.00  0.00    -0.454 OA
BRANCH  26  27
ATOM     27  C   UNL     1      93.542 105.831  99.133  1.00  0.00     0.214 A 
ATOM     28  C   UNL     1      93.705 106.210  97.780  1.00  0.00     0.180 A 
ATOM     29  C   UNL     1      93.589 106.839 100.133  1.00  0.00     0.239 A 
ATOM     30  O   UNL     1      93.761 107.503  97.447  1.00  0.00    -0.452 OA
ATOM     31  C   UNL     1      93.754 108.181  99.745  1.00  0.00     0.111 A 
ATOM     32  O   UNL     1      93.539 106.537 101.371  1.00  0.00    -0.285 OA
ATOM     33  C   UNL     1      93.761 108.481  98.358  1.00  0.00     0.146 A 
ATOM     34  C   UNL     1      94.007 109.217 100.683  1.00  0.00     0.134 A 
ATOM     35  C   UNL     1      93.829 109.807  97.937  1.00  0.00     0.094 A 
ATOM     36  C   UNL     1      94.102 110.538 100.232  1.00  0.00     0.093 A 
ATOM     37  C   UNL     1      93.997 110.825  98.882  1.00  0.00     0.123 A 
BRANCH  28  38
ATOM     38  C   UNL     1      93.897 105.208  96.717  1.00  0.00     0.025 A 
ATOM     39  C   UNL     1      92.883 104.252  96.509  1.00  0.00     0.062 A 
ATOM     40  C   UNL     1      95.143 105.057  96.086  1.00  0.00     0.016 A 
ATOM     41  C   UNL     1      93.118 103.092  95.785  1.00  0.00     0.158 A 
ATOM     42  C   UNL     1      95.387 103.894  95.331  1.00  0.00     0.051 A 
ATOM     43  C   UNL     1      94.396 102.905  95.190  1.00  0.00     0.157 A 
BRANCH  41  44
ATOM     44  O   UNL     1      92.116 102.131  95.670  1.00  0.00    -0.504 OA
ATOM     45  H   UNL     1      92.222 101.324  95.071  1.00  0.00     0.293 HD
ENDBRANCH  41  44
BRANCH  43  46
ATOM     46  O   UNL     1      94.682 101.733  94.502  1.00  0.00    -0.504 OA
ATOM     47  H   UNL     1      94.491 100.810  94.859  1.00  0.00     0.293 HD
ENDBRANCH  43  46
ENDBRANCH  28  38
BRANCH  34  48
ATOM     48  O   UNL     1      94.151 108.935 102.052  1.00  0.00    -0.507 OA
ATOM     49  H   UNL     1      93.557 108.205 102.511  1.00  0.00     0.293 HD
ENDBRANCH  34  48
BRANCH  37  50
ATOM     50  O   UNL     1      94.075 112.143  98.460  1.00  0.00    -0.508 OA
ATOM     51  H   UNL     1      94.525 112.843  99.047  1.00  0.00     0.293 HD
ENDBRANCH  37  50
ENDBRANCH  26  27
ENDBRANCH   5  26
BRANCH   4  52
ATOM     52  O   UNL     1      95.751 103.410 102.040  1.00  0.00    -0.384 OA
ATOM     53  H   UNL     1      95.412 104.104 102.697  1.00  0.00     0.211 HD
ENDBRANCH   4  52
TORSDOF 16
ENDMDL
