MODEL 1
REMARK VINA RESULT:    61.649      0.000      0.000
REMARK INTER + INTRA:          87.837
REMARK INTER:                  88.678
REMARK INTRA:                  -0.841
REMARK UNBOUND:                -0.841
REMARK SMILES O=c1cc(-c2ccc(O)c(O)c2)oc2cc(O[C@@H]3O[C@H](CO)[C@H](O)[C@@H](O)[C@@H]3O)cc(O)c12
REMARK SMILES IDX 17 1 16 2 4 3 3 4 13 5 2 6 14 7 1 8 32 9 15 10 30 11 29 12
REMARK SMILES IDX 5 13 6 14 7 15 8 16 12 17 10 18 9 19 11 21 31 23 18 25 27 26
REMARK SMILES IDX 19 27 25 28 20 29 23 30 28 31 26 33 21 35 22 36 24 38
REMARK H PARENT 9 20 11 22 31 24 28 32 26 34 22 37 24 39
REMARK Flexibility Score: inf
ROOT
ATOM      1  O   UNL     1      10.935  96.604  -0.898  1.00  0.00    -0.462 OA
ENDROOT
BRANCH   1   2
ATOM      2  C   UNL     1       9.880  96.153  -0.085  1.00  0.00     0.130 A 
ATOM      3  C   UNL     1       8.166  92.525   2.494  1.00  0.00     0.138 A 
ATOM      4  C   UNL     1       7.018  93.245   2.860  1.00  0.00     0.100 A 
ATOM      5  O   UNL     1       9.078  93.102   1.715  1.00  0.00    -0.456 OA
ATOM      6  C   UNL     1       6.845  94.548   2.392  1.00  0.00     0.197 A 
ATOM      7  C   UNL     1       8.960  94.339   1.244  1.00  0.00     0.146 A 
ATOM      8  O   UNL     1       5.812  95.187   2.728  1.00  0.00    -0.289 OA
ATOM      9  C   UNL     1       7.826  95.123   1.561  1.00  0.00     0.107 A 
ATOM     10  C   UNL     1       9.969  94.858   0.430  1.00  0.00     0.094 A 
ATOM     11  C   UNL     1       7.730  96.435   1.042  1.00  0.00     0.134 A 
ATOM     12  C   UNL     1       8.753  96.938   0.224  1.00  0.00     0.093 A 
BRANCH   3  13
ATOM     13  C   UNL     1       8.403  91.137   2.963  1.00  0.00     0.021 A 
ATOM     14  C   UNL     1       9.715  90.637   3.004  1.00  0.00     0.016 A 
ATOM     15  C   UNL     1       9.964  89.333   3.435  1.00  0.00     0.051 A 
ATOM     16  C   UNL     1       8.912  88.496   3.825  1.00  0.00     0.157 A 
ATOM     17  C   UNL     1       7.344  90.291   3.341  1.00  0.00     0.062 A 
ATOM     18  C   UNL     1       7.585  88.980   3.773  1.00  0.00     0.158 A 
BRANCH  16  19
ATOM     19  O   UNL     1       9.230  87.205   4.252  1.00  0.00    -0.504 OA
ATOM     20  H   UNL     1       8.634  86.402   4.113  1.00  0.00     0.293 HD
ENDBRANCH  16  19
BRANCH  18  21
ATOM     21  O   UNL     1       6.484  88.199   4.131  1.00  0.00    -0.504 OA
ATOM     22  H   UNL     1       5.548  88.560   4.243  1.00  0.00     0.293 HD
ENDBRANCH  18  21
ENDBRANCH   3  13
BRANCH  11  23
ATOM     23  O   UNL     1       6.629  97.241   1.333  1.00  0.00    -0.507 OA
ATOM     24  H   UNL     1       5.684  96.958   1.101  1.00  0.00     0.293 HD
ENDBRANCH  11  23
ENDBRANCH   1   2
BRANCH   1  25
ATOM     25  C   UNL     1      12.333  96.590  -0.585  1.00  0.00     0.339 C 
ATOM     26  C   UNL     1      13.218  96.589  -1.851  1.00  0.00     0.214 C 
ATOM     27  O   UNL     1      12.653  97.676   0.276  1.00  0.00    -0.332 OA
ATOM     28  C   UNL     1      13.104  97.926  -2.600  1.00  0.00     0.180 C 
ATOM     29  C   UNL     1      12.556  98.958  -0.337  1.00  0.00     0.179 C 
ATOM     30  C   UNL     1      13.413  99.070  -1.627  1.00  0.00     0.177 C 
BRANCH  26  31
ATOM     31  O   UNL     1      12.924  95.500  -2.690  1.00  0.00    -0.384 OA
ATOM     32  H   UNL     1      11.942  95.474  -2.830  1.00  0.00     0.211 HD
ENDBRANCH  26  31
BRANCH  28  33
ATOM     33  O   UNL     1      14.023  97.937  -3.662  1.00  0.00    -0.387 OA
ATOM     34  H   UNL     1      14.835  97.462  -3.345  1.00  0.00     0.211 HD
ENDBRANCH  28  33
BRANCH  29  35
ATOM     35  C   UNL     1      11.090  99.420  -0.500  1.00  0.00     0.191 C 
BRANCH  35  36
ATOM     36  O   UNL     1      11.045 100.793  -0.782  1.00  0.00    -0.394 OA
ATOM     37  H   UNL     1      11.985 101.111  -0.753  1.00  0.00     0.210 HD
ENDBRANCH  35  36
ENDBRANCH  29  35
BRANCH  30  38
ATOM     38  O   UNL     1      13.203 100.302  -2.267  1.00  0.00    -0.387 OA
ATOM     39  H   UNL     1      12.670 100.862  -1.642  1.00  0.00     0.211 HD
ENDBRANCH  30  38
ENDBRANCH   1  25
TORSDOF 11
ENDMDL
MODEL 2
REMARK VINA RESULT:    62.644      1.228      2.687
REMARK INTER + INTRA:          89.270
REMARK INTER:                  88.964
REMARK INTRA:                   0.305
REMARK UNBOUND:                -0.841
REMARK SMILES O=c1cc(-c2ccc(O)c(O)c2)oc2cc(O[C@@H]3O[C@H](CO)[C@H](O)[C@@H](O)[C@@H]3O)cc(O)c12
REMARK SMILES IDX 17 1 16 2 4 3 3 4 13 5 2 6 14 7 1 8 32 9 15 10 30 11 29 12
REMARK SMILES IDX 5 13 6 14 7 15 8 16 12 17 10 18 9 19 11 21 31 23 18 25 27 26
REMARK SMILES IDX 19 27 25 28 20 29 23 30 28 31 26 33 21 35 22 36 24 38
REMARK H PARENT 9 20 11 22 31 24 28 32 26 34 22 37 24 39
REMARK Flexibility Score: inf
ROOT
ATOM      1  O   UNL     1      10.998  96.272  -1.855  1.00  0.00    -0.462 OA
ENDROOT
BRANCH   1   2
ATOM      2  C   UNL     1      10.057  95.984  -0.851  1.00  0.00     0.130 A 
ATOM      3  C   UNL     1       8.444  92.704   2.214  1.00  0.00     0.138 A 
ATOM      4  C   UNL     1       7.457  93.568   2.717  1.00  0.00     0.100 A 
ATOM      5  O   UNL     1       9.263  93.135   1.257  1.00  0.00    -0.456 OA
ATOM      6  C   UNL     1       7.343  94.858   2.198  1.00  0.00     0.197 A 
ATOM      7  C   UNL     1       9.195  94.354   0.731  1.00  0.00     0.146 A 
ATOM      8  O   UNL     1       6.456  95.626   2.657  1.00  0.00    -0.289 OA
ATOM      9  C   UNL     1       8.222  95.277   1.179  1.00  0.00     0.107 A 
ATOM     10  C   UNL     1      10.098  94.714  -0.272  1.00  0.00     0.094 A 
ATOM     11  C   UNL     1       8.175  96.564   0.596  1.00  0.00     0.134 A 
ATOM     12  C   UNL     1       9.089  96.907  -0.411  1.00  0.00     0.093 A 
BRANCH   3  13
ATOM     13  C   UNL     1       8.612  91.322   2.730  1.00  0.00     0.021 A 
ATOM     14  C   UNL     1       9.891  90.743   2.747  1.00  0.00     0.016 A 
ATOM     15  C   UNL     1      10.075  89.443   3.220  1.00  0.00     0.051 A 
ATOM     16  C   UNL     1       8.989  88.689   3.677  1.00  0.00     0.157 A 
ATOM     17  C   UNL     1       7.516  90.559   3.174  1.00  0.00     0.062 A 
ATOM     18  C   UNL     1       7.692  89.252   3.649  1.00  0.00     0.158 A 
BRANCH  16  19
ATOM     19  O   UNL     1       9.242  87.397   4.143  1.00  0.00    -0.504 OA
ATOM     20  H   UNL     1      10.166  86.996   4.220  1.00  0.00     0.293 HD
ENDBRANCH  16  19
BRANCH  18  21
ATOM     21  O   UNL     1       6.559  88.555   4.073  1.00  0.00    -0.504 OA
ATOM     22  H   UNL     1       6.366  88.321   5.036  1.00  0.00     0.293 HD
ENDBRANCH  18  21
ENDBRANCH   3  13
BRANCH  11  23
ATOM     23  O   UNL     1       7.231  97.503   1.012  1.00  0.00    -0.507 OA
ATOM     24  H   UNL     1       6.359  97.640   0.514  1.00  0.00     0.293 HD
ENDBRANCH  11  23
ENDBRANCH   1   2
BRANCH   1  25
ATOM     25  C   UNL     1      11.943  97.348  -1.870  1.00  0.00     0.339 C 
ATOM     26  C   UNL     1      12.406  97.743  -0.450  1.00  0.00     0.214 C 
ATOM     27  O   UNL     1      13.045  97.021  -2.707  1.00  0.00    -0.332 OA
ATOM     28  C   UNL     1      13.252  96.625   0.180  1.00  0.00     0.180 C 
ATOM     29  C   UNL     1      13.875  95.978  -2.203  1.00  0.00     0.179 C 
ATOM     30  C   UNL     1      14.401  96.273  -0.773  1.00  0.00     0.177 C 
BRANCH  26  31
ATOM     31  O   UNL     1      11.321  98.095   0.372  1.00  0.00    -0.384 OA
ATOM     32  H   UNL     1      11.675  98.582   1.160  1.00  0.00     0.211 HD
ENDBRANCH  26  31
BRANCH  28  33
ATOM     33  O   UNL     1      13.766  97.075   1.407  1.00  0.00    -0.387 OA
ATOM     34  H   UNL     1      13.847  96.280   1.995  1.00  0.00     0.211 HD
ENDBRANCH  28  33
BRANCH  29  35
ATOM     35  C   UNL     1      13.232  94.583  -2.375  1.00  0.00     0.191 C 
BRANCH  35  36
ATOM     36  O   UNL     1      14.227  93.597  -2.427  1.00  0.00    -0.394 OA
ATOM     37  H   UNL     1      14.282  93.310  -3.375  1.00  0.00     0.210 HD
ENDBRANCH  35  36
ENDBRANCH  29  35
BRANCH  30  38
ATOM     38  O   UNL     1      15.116  95.177  -0.263  1.00  0.00    -0.387 OA
ATOM     39  H   UNL     1      14.683  94.926   0.595  1.00  0.00     0.211 HD
ENDBRANCH  30  38
ENDBRANCH   1  25
TORSDOF 11
ENDMDL
