MODEL 1
REMARK VINA RESULT:    -5.795      0.000      0.000
REMARK INTER + INTRA:          -7.159
REMARK INTER:                  -6.981
REMARK INTRA:                  -0.178
REMARK UNBOUND:                -0.178
REMARK SMILES C=CCc1ccc(O)c(OC)c1
REMARK SMILES IDX 9 1 7 2 6 3 5 4 4 5 12 6 10 7 11 8 8 9 3 11 2 12 1 13
REMARK H PARENT 8 10
REMARK Flexibility Score: inf
ROOT
ATOM      1  C   UNL     1      43.128  45.111  39.902  1.00  0.00     0.160 A 
ATOM      2  C   UNL     1      41.738  44.942  39.972  1.00  0.00     0.157 A 
ATOM      3  C   UNL     1      41.086  44.976  41.213  1.00  0.00     0.050 A 
ATOM      4  C   UNL     1      41.816  45.176  42.385  1.00  0.00     0.008 A 
ATOM      5  C   UNL     1      43.209  45.335  42.333  1.00  0.00    -0.040 A 
ATOM      6  C   UNL     1      43.860  45.310  41.089  1.00  0.00     0.054 A 
ENDROOT
BRANCH   1   7
ATOM      7  O   UNL     1      43.744  45.076  38.640  1.00  0.00    -0.493 OA
ATOM      8  C   UNL     1      44.169  43.887  37.985  1.00  0.00     0.278 C 
ENDBRANCH   1   7
BRANCH   2   9
ATOM      9  O   UNL     1      41.008  44.744  38.801  1.00  0.00    -0.504 OA
ATOM     10  H   UNL     1      39.996  44.686  38.810  1.00  0.00     0.293 HD
ENDBRANCH   2   9
BRANCH   5  11
ATOM     11  C   UNL     1      43.988  45.580  43.598  1.00  0.00     0.062 C 
BRANCH  11  12
ATOM     12  C   UNL     1      43.113  46.197  44.652  1.00  0.00    -0.030 C 
ATOM     13  C   UNL     1      43.609  47.012  45.589  1.00  0.00     0.004 C 
ENDBRANCH  11  12
ENDBRANCH   5  11
TORSDOF 4
ENDMDL
MODEL 2
REMARK VINA RESULT:    -5.425      4.389      6.579
REMARK INTER + INTRA:          -6.714
REMARK INTER:                  -6.494
REMARK INTRA:                  -0.220
REMARK UNBOUND:                -0.178
REMARK SMILES C=CCc1ccc(O)c(OC)c1
REMARK SMILES IDX 9 1 7 2 6 3 5 4 4 5 12 6 10 7 11 8 8 9 3 11 2 12 1 13
REMARK H PARENT 8 10
REMARK Flexibility Score: inf
ROOT
ATOM      1  C   UNL     1      45.519  45.521  46.646  1.00  0.00     0.160 A 
ATOM      2  C   UNL     1      44.417  46.256  47.107  1.00  0.00     0.157 A 
ATOM      3  C   UNL     1      43.388  46.609  46.223  1.00  0.00     0.050 A 
ATOM      4  C   UNL     1      43.454  46.235  44.880  1.00  0.00     0.008 A 
ATOM      5  C   UNL     1      44.556  45.510  44.401  1.00  0.00    -0.040 A 
ATOM      6  C   UNL     1      45.582  45.148  45.289  1.00  0.00     0.054 A 
ENDROOT
BRANCH   1   7
ATOM      7  O   UNL     1      46.527  45.181  47.563  1.00  0.00    -0.493 OA
ATOM      8  C   UNL     1      46.599  43.940  48.257  1.00  0.00     0.278 C 
ENDBRANCH   1   7
BRANCH   2   9
ATOM      9  O   UNL     1      44.349  46.629  48.448  1.00  0.00    -0.504 OA
ATOM     10  H   UNL     1      44.159  45.952  49.178  1.00  0.00     0.293 HD
ENDBRANCH   2   9
BRANCH   5  11
ATOM     11  C   UNL     1      44.609  45.083  42.958  1.00  0.00     0.062 C 
BRANCH  11  12
ATOM     12  C   UNL     1      43.299  45.353  42.274  1.00  0.00    -0.030 C 
ATOM     13  C   UNL     1      43.194  45.385  40.942  1.00  0.00     0.004 C 
ENDBRANCH  11  12
ENDBRANCH   5  11
TORSDOF 4
ENDMDL
MODEL 3
REMARK VINA RESULT:    -5.423      5.976      8.011
REMARK INTER + INTRA:          -6.711
REMARK INTER:                  -6.451
REMARK INTRA:                  -0.260
REMARK UNBOUND:                -0.178
REMARK SMILES C=CCc1ccc(O)c(OC)c1
REMARK SMILES IDX 9 1 7 2 6 3 5 4 4 5 12 6 10 7 11 8 8 9 3 11 2 12 1 13
REMARK H PARENT 8 10
REMARK Flexibility Score: inf
ROOT
ATOM      1  C   UNL     1      44.776  45.321  47.439  1.00  0.00     0.160 A 
ATOM      2  C   UNL     1      44.259  45.248  48.740  1.00  0.00     0.157 A 
ATOM      3  C   UNL     1      44.972  44.575  49.743  1.00  0.00     0.050 A 
ATOM      4  C   UNL     1      46.197  43.972  49.452  1.00  0.00     0.008 A 
ATOM      5  C   UNL     1      46.721  44.027  48.152  1.00  0.00    -0.040 A 
ATOM      6  C   UNL     1      46.011  44.709  47.150  1.00  0.00     0.054 A 
ENDROOT
BRANCH   1   7
ATOM      7  O   UNL     1      44.036  46.009  46.463  1.00  0.00    -0.493 OA
ATOM      8  C   UNL     1      44.292  47.347  46.053  1.00  0.00     0.278 C 
ENDBRANCH   1   7
BRANCH   2   9
ATOM      9  O   UNL     1      43.037  45.850  49.032  1.00  0.00    -0.504 OA
ATOM     10  H   UNL     1      42.973  46.646  49.655  1.00  0.00     0.293 HD
ENDBRANCH   2   9
BRANCH   5  11
ATOM     11  C   UNL     1      48.056  43.401  47.850  1.00  0.00     0.062 C 
BRANCH  11  12
ATOM     12  C   UNL     1      47.969  42.518  46.638  1.00  0.00    -0.030 C 
ATOM     13  C   UNL     1      47.493  41.270  46.709  1.00  0.00     0.004 C 
ENDBRANCH  11  12
ENDBRANCH   5  11
TORSDOF 4
ENDMDL
MODEL 4
REMARK VINA RESULT:    -5.305      3.484      5.814
REMARK INTER + INTRA:          -6.569
REMARK INTER:                  -6.345
REMARK INTRA:                  -0.224
REMARK UNBOUND:                -0.178
REMARK SMILES C=CCc1ccc(O)c(OC)c1
REMARK SMILES IDX 9 1 7 2 6 3 5 4 4 5 12 6 10 7 11 8 8 9 3 11 2 12 1 13
REMARK H PARENT 8 10
REMARK Flexibility Score: inf
ROOT
ATOM      1  C   UNL     1      43.995  46.219  45.070  1.00  0.00     0.160 A 
ATOM      2  C   UNL     1      45.307  46.011  44.621  1.00  0.00     0.157 A 
ATOM      3  C   UNL     1      45.539  45.543  43.320  1.00  0.00     0.050 A 
ATOM      4  C   UNL     1      44.468  45.279  42.466  1.00  0.00     0.008 A 
ATOM      5  C   UNL     1      43.149  45.471  42.905  1.00  0.00    -0.040 A 
ATOM      6  C   UNL     1      42.917  45.949  44.205  1.00  0.00     0.054 A 
ENDROOT
BRANCH   1   7
ATOM      7  O   UNL     1      43.804  46.694  46.378  1.00  0.00    -0.493 OA
ATOM      8  C   UNL     1      43.445  45.876  47.487  1.00  0.00     0.278 C 
ENDBRANCH   1   7
BRANCH   2   9
ATOM      9  O   UNL     1      46.378  46.275  45.474  1.00  0.00    -0.504 OA
ATOM     10  H   UNL     1      46.475  47.168  45.943  1.00  0.00     0.293 HD
ENDBRANCH   2   9
BRANCH   5  11
ATOM     11  C   UNL     1      41.998  45.213  41.969  1.00  0.00     0.062 C 
BRANCH  11  12
ATOM     12  C   UNL     1      42.381  45.532  40.552  1.00  0.00    -0.030 C 
ATOM     13  C   UNL     1      41.478  45.942  39.654  1.00  0.00     0.004 C 
ENDBRANCH  11  12
ENDBRANCH   5  11
TORSDOF 4
ENDMDL
MODEL 5
REMARK VINA RESULT:    -5.208      8.689      9.690
REMARK INTER + INTRA:          -6.452
REMARK INTER:                  -6.188
REMARK INTRA:                  -0.264
REMARK UNBOUND:                -0.178
REMARK SMILES C=CCc1ccc(O)c(OC)c1
REMARK SMILES IDX 9 1 7 2 6 3 5 4 4 5 12 6 10 7 11 8 8 9 3 11 2 12 1 13
REMARK H PARENT 8 10
REMARK Flexibility Score: inf
ROOT
ATOM      1  C   UNL     1      48.215  43.620  32.709  1.00  0.00     0.160 A 
ATOM      2  C   UNL     1      47.555  42.746  33.585  1.00  0.00     0.157 A 
ATOM      3  C   UNL     1      47.705  42.894  34.971  1.00  0.00     0.050 A 
ATOM      4  C   UNL     1      48.512  43.909  35.487  1.00  0.00     0.008 A 
ATOM      5  C   UNL     1      49.187  44.784  34.623  1.00  0.00    -0.040 A 
ATOM      6  C   UNL     1      49.031  44.641  33.235  1.00  0.00     0.054 A 
ENDROOT
BRANCH   1   7
ATOM      7  O   UNL     1      48.037  43.443  31.327  1.00  0.00    -0.493 OA
ATOM      8  C   UNL     1      49.023  43.736  30.344  1.00  0.00     0.278 C 
ENDBRANCH   1   7
BRANCH   2   9
ATOM      9  O   UNL     1      46.749  41.733  33.070  1.00  0.00    -0.504 OA
ATOM     10  H   UNL     1      46.150  41.887  32.267  1.00  0.00     0.293 HD
ENDBRANCH   2   9
BRANCH   5  11
ATOM     11  C   UNL     1      50.033  45.895  35.186  1.00  0.00     0.062 C 
BRANCH  11  12
ATOM     12  C   UNL     1      49.444  47.236  34.850  1.00  0.00    -0.030 C 
ATOM     13  C   UNL     1      48.321  47.675  35.426  1.00  0.00     0.004 C 
ENDBRANCH  11  12
ENDBRANCH   5  11
TORSDOF 4
ENDMDL
MODEL 6
REMARK VINA RESULT:    -5.192      4.554      6.659
REMARK INTER + INTRA:          -6.433
REMARK INTER:                  -6.249
REMARK INTRA:                  -0.184
REMARK UNBOUND:                -0.178
REMARK SMILES C=CCc1ccc(O)c(OC)c1
REMARK SMILES IDX 9 1 7 2 6 3 5 4 4 5 12 6 10 7 11 8 8 9 3 11 2 12 1 13
REMARK H PARENT 8 10
REMARK Flexibility Score: inf
ROOT
ATOM      1  C   UNL     1      45.286  46.142  45.763  1.00  0.00     0.160 A 
ATOM      2  C   UNL     1      44.480  47.084  46.419  1.00  0.00     0.157 A 
ATOM      3  C   UNL     1      44.453  47.132  47.820  1.00  0.00     0.050 A 
ATOM      4  C   UNL     1      45.225  46.243  48.570  1.00  0.00     0.008 A 
ATOM      5  C   UNL     1      46.027  45.288  47.928  1.00  0.00    -0.040 A 
ATOM      6  C   UNL     1      46.061  45.245  46.525  1.00  0.00     0.054 A 
ENDROOT
BRANCH   1   7
ATOM      7  O   UNL     1      45.290  46.128  44.359  1.00  0.00    -0.493 OA
ATOM      8  C   UNL     1      44.647  45.140  43.562  1.00  0.00     0.278 C 
ENDBRANCH   1   7
BRANCH   2   9
ATOM      9  O   UNL     1      43.710  47.972  45.671  1.00  0.00    -0.504 OA
ATOM     10  H   UNL     1      42.718  48.088  45.841  1.00  0.00     0.293 HD
ENDBRANCH   2   9
BRANCH   5  11
ATOM     11  C   UNL     1      46.880  44.350  48.741  1.00  0.00     0.062 C 
BRANCH  11  12
ATOM     12  C   UNL     1      47.440  43.255  47.878  1.00  0.00    -0.030 C 
ATOM     13  C   UNL     1      48.754  43.125  47.672  1.00  0.00     0.004 C 
ENDBRANCH  11  12
ENDBRANCH   5  11
TORSDOF 4
ENDMDL
MODEL 7
REMARK VINA RESULT:    -4.978      3.584      5.633
REMARK INTER + INTRA:          -6.175
REMARK INTER:                  -6.013
REMARK INTRA:                  -0.162
REMARK UNBOUND:                -0.178
REMARK SMILES C=CCc1ccc(O)c(OC)c1
REMARK SMILES IDX 9 1 7 2 6 3 5 4 4 5 12 6 10 7 11 8 8 9 3 11 2 12 1 13
REMARK H PARENT 8 10
REMARK Flexibility Score: inf
ROOT
ATOM      1  C   UNL     1      45.040  45.859  45.068  1.00  0.00     0.160 A 
ATOM      2  C   UNL     1      43.841  46.157  45.732  1.00  0.00     0.157 A 
ATOM      3  C   UNL     1      42.627  46.139  45.031  1.00  0.00     0.050 A 
ATOM      4  C   UNL     1      42.603  45.828  43.671  1.00  0.00     0.008 A 
ATOM      5  C   UNL     1      43.796  45.539  42.991  1.00  0.00    -0.040 A 
ATOM      6  C   UNL     1      45.011  45.548  43.695  1.00  0.00     0.054 A 
ENDROOT
BRANCH   1   7
ATOM      7  O   UNL     1      46.236  45.882  45.805  1.00  0.00    -0.493 OA
ATOM      8  C   UNL     1      46.996  47.056  46.070  1.00  0.00     0.278 C 
ENDBRANCH   1   7
BRANCH   2   9
ATOM      9  O   UNL     1      43.864  46.468  47.090  1.00  0.00    -0.504 OA
ATOM     10  H   UNL     1      44.402  47.249  47.447  1.00  0.00     0.293 HD
ENDBRANCH   2   9
BRANCH   5  11
ATOM     11  C   UNL     1      43.762  45.174  41.531  1.00  0.00     0.062 C 
BRANCH  11  12
ATOM     12  C   UNL     1      42.444  45.554  40.917  1.00  0.00    -0.030 C 
ATOM     13  C   UNL     1      42.241  45.499  39.597  1.00  0.00     0.004 C 
ENDBRANCH  11  12
ENDBRANCH   5  11
TORSDOF 4
ENDMDL
MODEL 8
REMARK VINA RESULT:    -4.949      5.808      7.877
REMARK INTER + INTRA:          -6.141
REMARK INTER:                  -5.866
REMARK INTRA:                  -0.275
REMARK UNBOUND:                -0.178
REMARK SMILES C=CCc1ccc(O)c(OC)c1
REMARK SMILES IDX 9 1 7 2 6 3 5 4 4 5 12 6 10 7 11 8 8 9 3 11 2 12 1 13
REMARK H PARENT 8 10
REMARK Flexibility Score: inf
ROOT
ATOM      1  C   UNL     1      46.774  44.308  47.728  1.00  0.00     0.160 A 
ATOM      2  C   UNL     1      46.615  44.845  49.013  1.00  0.00     0.157 A 
ATOM      3  C   UNL     1      46.035  46.111  49.179  1.00  0.00     0.050 A 
ATOM      4  C   UNL     1      45.615  46.844  48.068  1.00  0.00     0.008 A 
ATOM      5  C   UNL     1      45.778  46.324  46.775  1.00  0.00    -0.040 A 
ATOM      6  C   UNL     1      46.351  45.053  46.610  1.00  0.00     0.054 A 
ENDROOT
BRANCH   1   7
ATOM      7  O   UNL     1      47.355  43.035  47.602  1.00  0.00    -0.493 OA
ATOM      8  C   UNL     1      46.890  42.022  46.717  1.00  0.00     0.278 C 
ENDBRANCH   1   7
BRANCH   2   9
ATOM      9  O   UNL     1      47.034  44.113  50.123  1.00  0.00    -0.504 OA
ATOM     10  H   UNL     1      47.709  44.486  50.780  1.00  0.00     0.293 HD
ENDBRANCH   2   9
BRANCH   5  11
ATOM     11  C   UNL     1      45.296  47.106  45.582  1.00  0.00     0.062 C 
BRANCH  11  12
ATOM     12  C   UNL     1      43.801  47.250  45.607  1.00  0.00    -0.030 C 
ATOM     13  C   UNL     1      42.992  46.244  45.259  1.00  0.00     0.004 C 
ENDBRANCH  11  12
ENDBRANCH   5  11
TORSDOF 4
ENDMDL
MODEL 9
REMARK VINA RESULT:    -4.865      8.399      9.604
REMARK INTER + INTRA:          -6.039
REMARK INTER:                  -5.792
REMARK INTRA:                  -0.247
REMARK UNBOUND:                -0.178
REMARK SMILES C=CCc1ccc(O)c(OC)c1
REMARK SMILES IDX 9 1 7 2 6 3 5 4 4 5 12 6 10 7 11 8 8 9 3 11 2 12 1 13
REMARK H PARENT 8 10
REMARK Flexibility Score: inf
ROOT
ATOM      1  C   UNL     1      47.130  42.999  33.726  1.00  0.00     0.160 A 
ATOM      2  C   UNL     1      47.262  43.739  32.543  1.00  0.00     0.157 A 
ATOM      3  C   UNL     1      48.208  44.771  32.460  1.00  0.00     0.050 A 
ATOM      4  C   UNL     1      49.022  45.068  33.554  1.00  0.00     0.008 A 
ATOM      5  C   UNL     1      48.894  44.344  34.749  1.00  0.00    -0.040 A 
ATOM      6  C   UNL     1      47.953  43.305  34.828  1.00  0.00     0.054 A 
ENDROOT
BRANCH   1   7
ATOM      7  O   UNL     1      46.175  41.970  33.768  1.00  0.00    -0.493 OA
ATOM      8  C   UNL     1      44.909  42.073  34.409  1.00  0.00     0.278 C 
ENDBRANCH   1   7
BRANCH   2   9
ATOM      9  O   UNL     1      46.450  43.442  31.449  1.00  0.00    -0.504 OA
ATOM     10  H   UNL     1      45.744  44.091  31.121  1.00  0.00     0.293 HD
ENDBRANCH   2   9
BRANCH   5  11
ATOM     11  C   UNL     1      49.795  44.649  35.916  1.00  0.00     0.062 C 
BRANCH  11  12
ATOM     12  C   UNL     1      50.832  45.667  35.537  1.00  0.00    -0.030 C 
ATOM     13  C   UNL     1      52.140  45.394  35.595  1.00  0.00     0.004 C 
ENDBRANCH  11  12
ENDBRANCH   5  11
TORSDOF 4
ENDMDL
