MODEL 1
REMARK VINA RESULT:    -6.790      0.000      0.000
REMARK INTER + INTRA:          -8.276
REMARK INTER:                  -7.980
REMARK INTRA:                  -0.295
REMARK UNBOUND:                -0.295
REMARK SMILES O=c1c(O)c(-c2ccc(O)cc2)oc2cc(O)cc(O)c12
REMARK SMILES IDX 5 1 3 2 2 3 1 4 21 5 19 6 18 7 16 8 15 9 14 10 13 11 6 12
REMARK SMILES IDX 7 13 8 14 9 15 12 16 11 17 10 18 4 20 20 22 17 24
REMARK H PARENT 10 19 4 21 20 23 17 25
REMARK Flexibility Score: inf
ROOT
ATOM      1  C   UNL     1      54.220  11.448  90.115  1.00  0.00     0.180 A 
ATOM      2  C   UNL     1      54.921  12.568  90.595  1.00  0.00     0.208 A 
ATOM      3  C   UNL     1      54.900  13.756  89.846  1.00  0.00     0.238 A 
ATOM      4  O   UNL     1      55.590  14.730  90.242  1.00  0.00    -0.285 OA
ATOM      5  C   UNL     1      54.133  13.827  88.658  1.00  0.00     0.111 A 
ATOM      6  C   UNL     1      54.003  14.993  87.843  1.00  0.00     0.134 A 
ATOM      7  C   UNL     1      53.304  14.915  86.632  1.00  0.00     0.093 A 
ATOM      8  C   UNL     1      52.676  13.731  86.238  1.00  0.00     0.123 A 
ATOM      9  C   UNL     1      52.751  12.604  87.052  1.00  0.00     0.094 A 
ATOM     10  C   UNL     1      53.473  12.639  88.246  1.00  0.00     0.146 A 
ATOM     11  O   UNL     1      53.537  11.534  88.981  1.00  0.00    -0.452 OA
ENDROOT
BRANCH   1  12
ATOM     12  C   UNL     1      54.207  10.157  90.841  1.00  0.00     0.021 A 
ATOM     13  C   UNL     1      53.194   9.903  91.780  1.00  0.00     0.016 A 
ATOM     14  C   UNL     1      53.148   8.682  92.460  1.00  0.00     0.047 A 
ATOM     15  C   UNL     1      54.103   7.695  92.199  1.00  0.00     0.115 A 
ATOM     16  C   UNL     1      55.153   9.152  90.568  1.00  0.00     0.016 A 
ATOM     17  C   UNL     1      55.104   7.932  91.248  1.00  0.00     0.047 A 
BRANCH  15  18
ATOM     18  O   UNL     1      54.046   6.483  92.884  1.00  0.00    -0.508 OA
ATOM     19  H   UNL     1      54.880   6.049  93.262  1.00  0.00     0.293 HD
ENDBRANCH  15  18
ENDBRANCH   1  12
BRANCH   2  20
ATOM     20  O   UNL     1      55.609  12.502  91.809  1.00  0.00    -0.502 OA
ATOM     21  H   UNL     1      55.577  11.687  92.409  1.00  0.00     0.293 HD
ENDBRANCH   2  20
BRANCH   6  22
ATOM     22  O   UNL     1      54.514  16.249  88.186  1.00  0.00    -0.507 OA
ATOM     23  H   UNL     1      54.023  16.945  88.725  1.00  0.00     0.293 HD
ENDBRANCH   6  22
BRANCH   8  24
ATOM     24  O   UNL     1      51.967  13.667  85.040  1.00  0.00    -0.508 OA
ATOM     25  H   UNL     1      52.432  13.485  84.158  1.00  0.00     0.293 HD
ENDBRANCH   8  24
TORSDOF 5
ENDMDL
MODEL 2
REMARK VINA RESULT:    -6.509      1.196      3.025
REMARK INTER + INTRA:          -7.946
REMARK INTER:                  -7.659
REMARK INTRA:                  -0.287
REMARK UNBOUND:                -0.295
REMARK SMILES O=c1c(O)c(-c2ccc(O)cc2)oc2cc(O)cc(O)c12
REMARK SMILES IDX 5 1 3 2 2 3 1 4 21 5 19 6 18 7 16 8 15 9 14 10 13 11 6 12
REMARK SMILES IDX 7 13 8 14 9 15 12 16 11 17 10 18 4 20 20 22 17 24
REMARK H PARENT 10 19 4 21 20 23 17 25
REMARK Flexibility Score: inf
ROOT
ATOM      1  C   UNL     1      53.384  10.742  89.326  1.00  0.00     0.180 A 
ATOM      2  C   UNL     1      52.563  10.431  88.229  1.00  0.00     0.208 A 
ATOM      3  C   UNL     1      52.262  11.438  87.297  1.00  0.00     0.238 A 
ATOM      4  O   UNL     1      51.466  11.172  86.359  1.00  0.00    -0.285 OA
ATOM      5  C   UNL     1      52.832  12.726  87.442  1.00  0.00     0.111 A 
ATOM      6  C   UNL     1      52.632  13.810  86.533  1.00  0.00     0.134 A 
ATOM      7  C   UNL     1      53.160  15.071  86.836  1.00  0.00     0.093 A 
ATOM      8  C   UNL     1      53.934  15.272  87.982  1.00  0.00     0.123 A 
ATOM      9  C   UNL     1      54.180  14.208  88.846  1.00  0.00     0.094 A 
ATOM     10  C   UNL     1      53.635  12.948  88.592  1.00  0.00     0.146 A 
ATOM     11  O   UNL     1      53.877  11.967  89.454  1.00  0.00    -0.452 OA
ENDROOT
BRANCH   1  12
ATOM     12  C   UNL     1      53.734   9.738  90.357  1.00  0.00     0.021 A 
ATOM     13  C   UNL     1      52.870   9.536  91.446  1.00  0.00     0.016 A 
ATOM     14  C   UNL     1      53.169   8.579  92.420  1.00  0.00     0.047 A 
ATOM     15  C   UNL     1      54.324   7.800  92.310  1.00  0.00     0.115 A 
ATOM     16  C   UNL     1      54.885   8.938  90.242  1.00  0.00     0.016 A 
ATOM     17  C   UNL     1      55.181   7.980  91.216  1.00  0.00     0.047 A 
BRANCH  15  18
ATOM     18  O   UNL     1      54.610   6.850  93.288  1.00  0.00    -0.508 OA
ATOM     19  H   UNL     1      54.970   7.117  94.196  1.00  0.00     0.293 HD
ENDBRANCH  15  18
ENDBRANCH   1  12
BRANCH   2  20
ATOM     20  O   UNL     1      52.073   9.133  88.061  1.00  0.00    -0.502 OA
ATOM     21  H   UNL     1      51.897   8.731  87.148  1.00  0.00     0.293 HD
ENDBRANCH   2  20
BRANCH   6  22
ATOM     22  O   UNL     1      51.951  13.696  85.317  1.00  0.00    -0.507 OA
ATOM     23  H   UNL     1      51.469  14.450  84.852  1.00  0.00     0.293 HD
ENDBRANCH   6  22
BRANCH   8  24
ATOM     24  O   UNL     1      54.470  16.526  88.266  1.00  0.00    -0.508 OA
ATOM     25  H   UNL     1      55.317  16.855  87.817  1.00  0.00     0.293 HD
ENDBRANCH   8  24
TORSDOF 5
ENDMDL
MODEL 3
REMARK VINA RESULT:    -6.161      2.060      6.964
REMARK INTER + INTRA:          -7.537
REMARK INTER:                  -7.630
REMARK INTRA:                   0.093
REMARK UNBOUND:                -0.295
REMARK SMILES O=c1c(O)c(-c2ccc(O)cc2)oc2cc(O)cc(O)c12
REMARK SMILES IDX 5 1 3 2 2 3 1 4 21 5 19 6 18 7 16 8 15 9 14 10 13 11 6 12
REMARK SMILES IDX 7 13 8 14 9 15 12 16 11 17 10 18 4 20 20 22 17 24
REMARK H PARENT 10 19 4 21 20 23 17 25
REMARK Flexibility Score: inf
ROOT
ATOM      1  C   UNL     1      53.132  11.957  88.620  1.00  0.00     0.180 A 
ATOM      2  C   UNL     1      53.546  10.640  88.362  1.00  0.00     0.208 A 
ATOM      3  C   UNL     1      53.581   9.718  89.422  1.00  0.00     0.238 A 
ATOM      4  O   UNL     1      54.024   8.561  89.199  1.00  0.00    -0.285 OA
ATOM      5  C   UNL     1      53.148  10.109  90.711  1.00  0.00     0.111 A 
ATOM      6  C   UNL     1      53.098   9.246  91.848  1.00  0.00     0.134 A 
ATOM      7  C   UNL     1      52.753   9.772  93.100  1.00  0.00     0.093 A 
ATOM      8  C   UNL     1      52.394  11.114  93.243  1.00  0.00     0.123 A 
ATOM      9  C   UNL     1      52.386  11.951  92.131  1.00  0.00     0.094 A 
ATOM     10  C   UNL     1      52.763  11.466  90.877  1.00  0.00     0.146 A 
ATOM     11  O   UNL     1      52.763  12.305  89.847  1.00  0.00    -0.452 OA
ENDROOT
BRANCH   1  12
ATOM     12  C   UNL     1      53.083  12.990  87.559  1.00  0.00     0.021 A 
ATOM     13  C   UNL     1      52.450  12.698  86.340  1.00  0.00     0.016 A 
ATOM     14  C   UNL     1      52.371  13.664  85.332  1.00  0.00     0.047 A 
ATOM     15  C   UNL     1      52.909  14.938  85.537  1.00  0.00     0.115 A 
ATOM     16  C   UNL     1      53.604  14.280  87.766  1.00  0.00     0.016 A 
ATOM     17  C   UNL     1      53.523  15.245  86.758  1.00  0.00     0.047 A 
BRANCH  15  18
ATOM     18  O   UNL     1      52.824  15.892  84.524  1.00  0.00    -0.508 OA
ATOM     19  H   UNL     1      53.156  15.699  83.587  1.00  0.00     0.293 HD
ENDBRANCH  15  18
ENDBRANCH   1  12
BRANCH   2  20
ATOM     20  O   UNL     1      53.897  10.252  87.066  1.00  0.00    -0.502 OA
ATOM     21  H   UNL     1      54.285   9.340  86.857  1.00  0.00     0.293 HD
ENDBRANCH   2  20
BRANCH   6  22
ATOM     22  O   UNL     1      53.350   7.871  91.800  1.00  0.00    -0.507 OA
ATOM     23  H   UNL     1      54.267   7.452  91.783  1.00  0.00     0.293 HD
ENDBRANCH   6  22
BRANCH   8  24
ATOM     24  O   UNL     1      52.035  11.624  94.489  1.00  0.00    -0.508 OA
ATOM     25  H   UNL     1      52.283  11.148  95.348  1.00  0.00     0.293 HD
ENDBRANCH   8  24
TORSDOF 5
ENDMDL
MODEL 4
REMARK VINA RESULT:    -6.067      2.828      7.240
REMARK INTER + INTRA:          -7.426
REMARK INTER:                  -7.168
REMARK INTRA:                  -0.258
REMARK UNBOUND:                -0.295
REMARK SMILES O=c1c(O)c(-c2ccc(O)cc2)oc2cc(O)cc(O)c12
REMARK SMILES IDX 5 1 3 2 2 3 1 4 21 5 19 6 18 7 16 8 15 9 14 10 13 11 6 12
REMARK SMILES IDX 7 13 8 14 9 15 12 16 11 17 10 18 4 20 20 22 17 24
REMARK H PARENT 10 19 4 21 20 23 17 25
REMARK Flexibility Score: inf
ROOT
ATOM      1  C   UNL     1      52.636  15.252  88.232  1.00  0.00     0.180 A 
ATOM      2  C   UNL     1      52.538  14.877  86.882  1.00  0.00     0.208 A 
ATOM      3  C   UNL     1      52.837  13.554  86.521  1.00  0.00     0.238 A 
ATOM      4  O   UNL     1      52.821  13.244  85.301  1.00  0.00    -0.285 OA
ATOM      5  C   UNL     1      53.174  12.608  87.519  1.00  0.00     0.111 A 
ATOM      6  C   UNL     1      53.453  11.229  87.272  1.00  0.00     0.134 A 
ATOM      7  C   UNL     1      53.879  10.412  88.326  1.00  0.00     0.093 A 
ATOM      8  C   UNL     1      53.975  10.907  89.629  1.00  0.00     0.123 A 
ATOM      9  C   UNL     1      53.654  12.236  89.889  1.00  0.00     0.094 A 
ATOM     10  C   UNL     1      53.263  13.086  88.853  1.00  0.00     0.146 A 
ATOM     11  O   UNL     1      52.986  14.353  89.143  1.00  0.00    -0.452 OA
ENDROOT
BRANCH   1  12
ATOM     12  C   UNL     1      52.351  16.632  88.689  1.00  0.00     0.021 A 
ATOM     13  C   UNL     1      51.156  16.900  89.376  1.00  0.00     0.016 A 
ATOM     14  C   UNL     1      50.876  18.190  89.836  1.00  0.00     0.047 A 
ATOM     15  C   UNL     1      51.794  19.224  89.632  1.00  0.00     0.115 A 
ATOM     16  C   UNL     1      53.280  17.673  88.504  1.00  0.00     0.016 A 
ATOM     17  C   UNL     1      52.999  18.962  88.967  1.00  0.00     0.047 A 
BRANCH  15  18
ATOM     18  O   UNL     1      51.503  20.506  90.095  1.00  0.00    -0.508 OA
ATOM     19  H   UNL     1      52.228  21.200  90.223  1.00  0.00     0.293 HD
ENDBRANCH  15  18
ENDBRANCH   1  12
BRANCH   2  20
ATOM     20  O   UNL     1      52.129  15.805  85.920  1.00  0.00    -0.502 OA
ATOM     21  H   UNL     1      51.302  15.671  85.352  1.00  0.00     0.293 HD
ENDBRANCH   2  20
BRANCH   6  22
ATOM     22  O   UNL     1      53.302  10.611  86.027  1.00  0.00    -0.507 OA
ATOM     23  H   UNL     1      52.593   9.930  85.802  1.00  0.00     0.293 HD
ENDBRANCH   6  22
BRANCH   8  24
ATOM     24  O   UNL     1      54.384  10.081  90.674  1.00  0.00    -0.508 OA
ATOM     25  H   UNL     1      54.618  10.456  91.586  1.00  0.00     0.293 HD
ENDBRANCH   8  24
TORSDOF 5
ENDMDL
MODEL 5
REMARK VINA RESULT:    -6.018      2.306      6.873
REMARK INTER + INTRA:          -7.369
REMARK INTER:                  -7.348
REMARK INTRA:                  -0.021
REMARK UNBOUND:                -0.295
REMARK SMILES O=c1c(O)c(-c2ccc(O)cc2)oc2cc(O)cc(O)c12
REMARK SMILES IDX 5 1 3 2 2 3 1 4 21 5 19 6 18 7 16 8 15 9 14 10 13 11 6 12
REMARK SMILES IDX 7 13 8 14 9 15 12 16 11 17 10 18 4 20 20 22 17 24
REMARK H PARENT 10 19 4 21 20 23 17 25
REMARK Flexibility Score: inf
ROOT
ATOM      1  C   UNL     1      53.244  10.972  91.508  1.00  0.00     0.180 A 
ATOM      2  C   UNL     1      52.930  11.187  92.861  1.00  0.00     0.208 A 
ATOM      3  C   UNL     1      52.304  10.160  93.585  1.00  0.00     0.238 A 
ATOM      4  O   UNL     1      51.958  10.386  94.774  1.00  0.00    -0.285 OA
ATOM      5  C   UNL     1      52.052   8.912  92.966  1.00  0.00     0.111 A 
ATOM      6  C   UNL     1      51.463   7.786  93.618  1.00  0.00     0.134 A 
ATOM      7  C   UNL     1      51.164   6.637  92.874  1.00  0.00     0.093 A 
ATOM      8  C   UNL     1      51.490   6.550  91.518  1.00  0.00     0.123 A 
ATOM      9  C   UNL     1      52.114   7.623  90.887  1.00  0.00     0.094 A 
ATOM     10  C   UNL     1      52.390   8.797  91.592  1.00  0.00     0.146 A 
ATOM     11  O   UNL     1      52.966   9.803  90.944  1.00  0.00    -0.452 OA
ENDROOT
BRANCH   1  12
ATOM     12  C   UNL     1      53.891  12.012  90.674  1.00  0.00     0.021 A 
ATOM     13  C   UNL     1      53.257  12.449  89.500  1.00  0.00     0.016 A 
ATOM     14  C   UNL     1      53.838  13.445  88.709  1.00  0.00     0.047 A 
ATOM     15  C   UNL     1      55.050  14.028  89.091  1.00  0.00     0.115 A 
ATOM     16  C   UNL     1      55.101  12.616  91.063  1.00  0.00     0.016 A 
ATOM     17  C   UNL     1      55.679  13.614  90.272  1.00  0.00     0.047 A 
BRANCH  15  18
ATOM     18  O   UNL     1      55.619  15.019  88.293  1.00  0.00    -0.508 OA
ATOM     19  H   UNL     1      56.545  15.382  88.480  1.00  0.00     0.293 HD
ENDBRANCH  15  18
ENDBRANCH   1  12
BRANCH   2  20
ATOM     20  O   UNL     1      53.257  12.399  93.476  1.00  0.00    -0.502 OA
ATOM     21  H   UNL     1      54.211  12.657  93.696  1.00  0.00     0.293 HD
ENDBRANCH   2  20
BRANCH   6  22
ATOM     22  O   UNL     1      51.180   7.732  94.985  1.00  0.00    -0.507 OA
ATOM     23  H   UNL     1      51.036   6.886  95.513  1.00  0.00     0.293 HD
ENDBRANCH   6  22
BRANCH   8  24
ATOM     24  O   UNL     1      51.204   5.397  90.791  1.00  0.00    -0.508 OA
ATOM     25  H   UNL     1      50.318   5.277  90.314  1.00  0.00     0.293 HD
ENDBRANCH   8  24
TORSDOF 5
ENDMDL
MODEL 6
REMARK VINA RESULT:    -5.892      1.981      6.805
REMARK INTER + INTRA:          -7.221
REMARK INTER:                  -6.996
REMARK INTRA:                  -0.225
REMARK UNBOUND:                -0.295
REMARK SMILES O=c1c(O)c(-c2ccc(O)cc2)oc2cc(O)cc(O)c12
REMARK SMILES IDX 5 1 3 2 2 3 1 4 21 5 19 6 18 7 16 8 15 9 14 10 13 11 6 12
REMARK SMILES IDX 7 13 8 14 9 15 12 16 11 17 10 18 4 20 20 22 17 24
REMARK H PARENT 10 19 4 21 20 23 17 25
REMARK Flexibility Score: inf
ROOT
ATOM      1  C   UNL     1      52.934  12.278  88.926  1.00  0.00     0.180 A 
ATOM      2  C   UNL     1      52.019  12.455  89.977  1.00  0.00     0.208 A 
ATOM      3  C   UNL     1      52.031  11.547  91.049  1.00  0.00     0.238 A 
ATOM      4  O   UNL     1      51.160  11.667  91.950  1.00  0.00    -0.285 OA
ATOM      5  C   UNL     1      52.993  10.510  91.085  1.00  0.00     0.111 A 
ATOM      6  C   UNL     1      53.126   9.560  92.144  1.00  0.00     0.134 A 
ATOM      7  C   UNL     1      54.047   8.512  92.019  1.00  0.00     0.093 A 
ATOM      8  C   UNL     1      54.883   8.416  90.904  1.00  0.00     0.123 A 
ATOM      9  C   UNL     1      54.799   9.367  89.892  1.00  0.00     0.094 A 
ATOM     10  C   UNL     1      53.864  10.402  89.969  1.00  0.00     0.146 A 
ATOM     11  O   UNL     1      53.803  11.276  88.970  1.00  0.00    -0.452 OA
ENDROOT
BRANCH   1  12
ATOM     12  C   UNL     1      52.973  13.184  87.755  1.00  0.00     0.021 A 
ATOM     13  C   UNL     1      52.407  12.767  86.539  1.00  0.00     0.016 A 
ATOM     14  C   UNL     1      52.413  13.614  85.427  1.00  0.00     0.047 A 
ATOM     15  C   UNL     1      52.968  14.893  85.520  1.00  0.00     0.115 A 
ATOM     16  C   UNL     1      53.513  14.480  87.848  1.00  0.00     0.016 A 
ATOM     17  C   UNL     1      53.515  15.326  86.735  1.00  0.00     0.047 A 
BRANCH  15  18
ATOM     18  O   UNL     1      52.967  15.727  84.404  1.00  0.00    -0.508 OA
ATOM     19  H   UNL     1      53.562  15.543  83.605  1.00  0.00     0.293 HD
ENDBRANCH  15  18
ENDBRANCH   1  12
BRANCH   2  20
ATOM     20  O   UNL     1      51.127  13.531  89.962  1.00  0.00    -0.502 OA
ATOM     21  H   UNL     1      50.864  14.031  90.802  1.00  0.00     0.293 HD
ENDBRANCH   2  20
BRANCH   6  22
ATOM     22  O   UNL     1      52.405   9.615  93.340  1.00  0.00    -0.507 OA
ATOM     23  H   UNL     1      52.793   9.859  94.238  1.00  0.00     0.293 HD
ENDBRANCH   6  22
BRANCH   8  24
ATOM     24  O   UNL     1      55.808   7.379  90.797  1.00  0.00    -0.508 OA
ATOM     25  H   UNL     1      55.940   6.707  91.544  1.00  0.00     0.293 HD
ENDBRANCH   8  24
TORSDOF 5
ENDMDL
MODEL 7
REMARK VINA RESULT:    -5.852      2.261      3.154
REMARK INTER + INTRA:          -7.173
REMARK INTER:                  -7.208
REMARK INTRA:                   0.035
REMARK UNBOUND:                -0.295
REMARK SMILES O=c1c(O)c(-c2ccc(O)cc2)oc2cc(O)cc(O)c12
REMARK SMILES IDX 5 1 3 2 2 3 1 4 21 5 19 6 18 7 16 8 15 9 14 10 13 11 6 12
REMARK SMILES IDX 7 13 8 14 9 15 12 16 11 17 10 18 4 20 20 22 17 24
REMARK H PARENT 10 19 4 21 20 23 17 25
REMARK Flexibility Score: inf
ROOT
ATOM      1  C   UNL     1      52.601  10.371  92.033  1.00  0.00     0.180 A 
ATOM      2  C   UNL     1      53.077  11.637  92.415  1.00  0.00     0.208 A 
ATOM      3  C   UNL     1      53.486  12.538  91.419  1.00  0.00     0.238 A 
ATOM      4  O   UNL     1      53.981  13.641  91.771  1.00  0.00    -0.285 OA
ATOM      5  C   UNL     1      53.361  12.186  90.054  1.00  0.00     0.111 A 
ATOM      6  C   UNL     1      53.703  13.038  88.959  1.00  0.00     0.134 A 
ATOM      7  C   UNL     1      53.638  12.542  87.651  1.00  0.00     0.093 A 
ATOM      8  C   UNL     1      53.183  11.246  87.393  1.00  0.00     0.123 A 
ATOM      9  C   UNL     1      52.795  10.427  88.450  1.00  0.00     0.094 A 
ATOM     10  C   UNL     1      52.886  10.879  89.768  1.00  0.00     0.146 A 
ATOM     11  O   UNL     1      52.527  10.055  90.746  1.00  0.00    -0.452 OA
ENDROOT
BRANCH   1  12
ATOM     12  C   UNL     1      52.165   9.361  93.025  1.00  0.00     0.021 A 
ATOM     13  C   UNL     1      52.718   8.071  92.986  1.00  0.00     0.016 A 
ATOM     14  C   UNL     1      52.338   7.108  93.926  1.00  0.00     0.047 A 
ATOM     15  C   UNL     1      51.416   7.427  94.926  1.00  0.00     0.115 A 
ATOM     16  C   UNL     1      51.252   9.682  94.046  1.00  0.00     0.016 A 
ATOM     17  C   UNL     1      50.875   8.718  94.986  1.00  0.00     0.047 A 
BRANCH  15  18
ATOM     18  O   UNL     1      51.045   6.458  95.856  1.00  0.00    -0.508 OA
ATOM     19  H   UNL     1      51.661   6.187  96.613  1.00  0.00     0.293 HD
ENDBRANCH  15  18
ENDBRANCH   1  12
BRANCH   2  20
ATOM     20  O   UNL     1      53.120  11.996  93.764  1.00  0.00    -0.502 OA
ATOM     21  H   UNL     1      53.721  12.733  94.113  1.00  0.00     0.293 HD
ENDBRANCH   2  20
BRANCH   6  22
ATOM     22  O   UNL     1      54.084  14.376  89.098  1.00  0.00    -0.507 OA
ATOM     23  H   UNL     1      54.237  14.845  89.978  1.00  0.00     0.293 HD
ENDBRANCH   6  22
BRANCH   8  24
ATOM     24  O   UNL     1      53.105  10.768  86.087  1.00  0.00    -0.508 OA
ATOM     25  H   UNL     1      52.619  11.282  85.362  1.00  0.00     0.293 HD
ENDBRANCH   8  24
TORSDOF 5
ENDMDL
MODEL 8
REMARK VINA RESULT:    -5.733      1.713      2.087
REMARK INTER + INTRA:          -7.034
REMARK INTER:                  -6.778
REMARK INTRA:                  -0.255
REMARK UNBOUND:                -0.295
REMARK SMILES O=c1c(O)c(-c2ccc(O)cc2)oc2cc(O)cc(O)c12
REMARK SMILES IDX 5 1 3 2 2 3 1 4 21 5 19 6 18 7 16 8 15 9 14 10 13 11 6 12
REMARK SMILES IDX 7 13 8 14 9 15 12 16 11 17 10 18 4 20 20 22 17 24
REMARK H PARENT 10 19 4 21 20 23 17 25
REMARK Flexibility Score: inf
ROOT
ATOM      1  C   UNL     1      52.882  11.836  91.031  1.00  0.00     0.180 A 
ATOM      2  C   UNL     1      53.962  12.730  91.130  1.00  0.00     0.208 A 
ATOM      3  C   UNL     1      54.291  13.525  90.020  1.00  0.00     0.238 A 
ATOM      4  O   UNL     1      55.304  14.268  90.091  1.00  0.00    -0.285 OA
ATOM      5  C   UNL     1      53.503  13.459  88.847  1.00  0.00     0.111 A 
ATOM      6  C   UNL     1      53.718  14.251  87.677  1.00  0.00     0.134 A 
ATOM      7  C   UNL     1      52.939  14.022  86.536  1.00  0.00     0.093 A 
ATOM      8  C   UNL     1      51.912  13.075  86.541  1.00  0.00     0.123 A 
ATOM      9  C   UNL     1      51.659  12.336  87.694  1.00  0.00     0.094 A 
ATOM     10  C   UNL     1      52.443  12.513  88.836  1.00  0.00     0.146 A 
ATOM     11  O   UNL     1      52.181  11.771  89.905  1.00  0.00    -0.452 OA
ENDROOT
BRANCH   1  12
ATOM     12  C   UNL     1      52.483  10.954  92.152  1.00  0.00     0.021 A 
ATOM     13  C   UNL     1      51.706  11.477  93.199  1.00  0.00     0.016 A 
ATOM     14  C   UNL     1      51.299  10.658  94.257  1.00  0.00     0.047 A 
ATOM     15  C   UNL     1      51.648   9.304  94.272  1.00  0.00     0.115 A 
ATOM     16  C   UNL     1      52.814   9.587  92.164  1.00  0.00     0.016 A 
ATOM     17  C   UNL     1      52.404   8.769  93.222  1.00  0.00     0.047 A 
BRANCH  15  18
ATOM     18  O   UNL     1      51.236   8.499  95.333  1.00  0.00    -0.508 OA
ATOM     19  H   UNL     1      51.834   7.774  95.710  1.00  0.00     0.293 HD
ENDBRANCH  15  18
ENDBRANCH   1  12
BRANCH   2  20
ATOM     20  O   UNL     1      54.680  12.837  92.324  1.00  0.00    -0.502 OA
ATOM     21  H   UNL     1      54.441  12.306  93.153  1.00  0.00     0.293 HD
ENDBRANCH   2  20
BRANCH   6  22
ATOM     22  O   UNL     1      54.655  15.284  87.594  1.00  0.00    -0.507 OA
ATOM     23  H   UNL     1      55.469  15.375  88.181  1.00  0.00     0.293 HD
ENDBRANCH   6  22
BRANCH   8  24
ATOM     24  O   UNL     1      51.131  12.867  85.406  1.00  0.00    -0.508 OA
ATOM     25  H   UNL     1      50.702  11.969  85.215  1.00  0.00     0.293 HD
ENDBRANCH   8  24
TORSDOF 5
ENDMDL
