MODEL 1
REMARK VINA RESULT:    -2.912      0.000      0.000
REMARK INTER + INTRA:          -3.499
REMARK INTER:                  -3.423
REMARK INTRA:                  -0.076
REMARK UNBOUND:                -0.076
REMARK SMILES O=C([O-])CCC(=O)[O-]
REMARK SMILES IDX 4 1 2 2 1 3 3 4 5 5 6 6 7 7 8 8
REMARK H PARENT
REMARK Flexibility Score: inf
ROOT
ATOM      1  C   UNL     1      -3.628   5.502   0.139  1.00  0.00     0.059 C 
ENDROOT
BRANCH   1   2
ATOM      2  C   UNL     1      -3.380   4.025   0.109  1.00  0.00     0.042 C 
ATOM      3  O   UNL     1      -4.348   3.221   0.057  1.00  0.00    -0.550 OA
ATOM      4  O   UNL     1      -2.079   3.537   0.095  1.00  0.00    -0.550 OA
ENDBRANCH   1   2
BRANCH   1   5
ATOM      5  C   UNL     1      -5.049   5.846  -0.322  1.00  0.00     0.059 C 
BRANCH   5   6
ATOM      6  C   UNL     1      -5.934   6.196   0.834  1.00  0.00     0.042 C 
ATOM      7  O   UNL     1      -7.187   6.154   0.709  1.00  0.00    -0.550 OA
ATOM      8  O   UNL     1      -5.376   6.605   2.039  1.00  0.00    -0.550 OA
ENDBRANCH   5   6
ENDBRANCH   1   5
TORSDOF 3
ENDMDL
MODEL 2
REMARK VINA RESULT:    -2.898      0.052      3.695
REMARK INTER + INTRA:          -3.483
REMARK INTER:                  -3.414
REMARK INTRA:                  -0.069
REMARK UNBOUND:                -0.076
REMARK SMILES O=C([O-])CCC(=O)[O-]
REMARK SMILES IDX 4 1 2 2 1 3 3 4 5 5 6 6 7 7 8 8
REMARK H PARENT
REMARK Flexibility Score: inf
ROOT
ATOM      1  C   UNL     1      -5.041   5.874  -0.326  1.00  0.00     0.059 C 
ENDROOT
BRANCH   1   2
ATOM      2  C   UNL     1      -5.911   6.219   0.844  1.00  0.00     0.042 C 
ATOM      3  O   UNL     1      -7.164   6.149   0.745  1.00  0.00    -0.550 OA
ATOM      4  O   UNL     1      -5.336   6.577   2.058  1.00  0.00    -0.550 OA
ENDBRANCH   1   2
BRANCH   1   5
ATOM      5  C   UNL     1      -3.617   5.519   0.114  1.00  0.00     0.059 C 
BRANCH   5   6
ATOM      6  C   UNL     1      -3.396   4.037   0.119  1.00  0.00     0.042 C 
ATOM      7  O   UNL     1      -4.378   3.250   0.158  1.00  0.00    -0.550 OA
ATOM      8  O   UNL     1      -2.104   3.526   0.122  1.00  0.00    -0.550 OA
ENDBRANCH   5   6
ENDBRANCH   1   5
TORSDOF 3
ENDMDL
MODEL 3
REMARK VINA RESULT:    -2.860      0.106      1.622
REMARK INTER + INTRA:          -3.438
REMARK INTER:                  -3.351
REMARK INTRA:                  -0.086
REMARK UNBOUND:                -0.076
REMARK SMILES O=C([O-])CCC(=O)[O-]
REMARK SMILES IDX 4 1 2 2 1 3 3 4 5 5 6 6 7 7 8 8
REMARK H PARENT
REMARK Flexibility Score: inf
ROOT
ATOM      1  C   UNL     1      -3.556   5.449   0.155  1.00  0.00     0.059 C 
ENDROOT
BRANCH   1   2
ATOM      2  C   UNL     1      -3.303   3.973   0.103  1.00  0.00     0.042 C 
ATOM      3  O   UNL     1      -2.123   3.533   0.089  1.00  0.00    -0.550 OA
ATOM      4  O   UNL     1      -4.369   3.083   0.114  1.00  0.00    -0.550 OA
ENDBRANCH   1   2
BRANCH   1   5
ATOM      5  C   UNL     1      -4.966   5.798  -0.332  1.00  0.00     0.059 C 
BRANCH   5   6
ATOM      6  C   UNL     1      -5.858   6.196   0.804  1.00  0.00     0.042 C 
ATOM      7  O   UNL     1      -5.361   6.602   1.887  1.00  0.00    -0.550 OA
ATOM      8  O   UNL     1      -7.237   6.083   0.679  1.00  0.00    -0.550 OA
ENDBRANCH   5   6
ENDBRANCH   1   5
TORSDOF 3
ENDMDL
MODEL 4
REMARK VINA RESULT:    -2.834      0.165      3.900
REMARK INTER + INTRA:          -3.408
REMARK INTER:                  -3.321
REMARK INTRA:                  -0.087
REMARK UNBOUND:                -0.076
REMARK SMILES O=C([O-])CCC(=O)[O-]
REMARK SMILES IDX 4 1 2 2 1 3 3 4 5 5 6 6 7 7 8 8
REMARK H PARENT
REMARK Flexibility Score: inf
ROOT
ATOM      1  C   UNL     1      -5.192   5.702  -0.261  1.00  0.00     0.059 C 
ENDROOT
BRANCH   1   2
ATOM      2  C   UNL     1      -6.028   6.148   0.900  1.00  0.00     0.042 C 
ATOM      3  O   UNL     1      -5.478   6.585   1.945  1.00  0.00    -0.550 OA
ATOM      4  O   UNL     1      -7.414   6.121   0.812  1.00  0.00    -0.550 OA
ENDBRANCH   1   2
BRANCH   1   5
ATOM      5  C   UNL     1      -3.738   5.454   0.152  1.00  0.00     0.059 C 
BRANCH   5   6
ATOM      6  C   UNL     1      -3.409   3.992   0.162  1.00  0.00     0.042 C 
ATOM      7  O   UNL     1      -4.327   3.137   0.274  1.00  0.00    -0.550 OA
ATOM      8  O   UNL     1      -2.086   3.576   0.086  1.00  0.00    -0.550 OA
ENDBRANCH   5   6
ENDBRANCH   1   5
TORSDOF 3
ENDMDL
MODEL 5
REMARK VINA RESULT:    -2.733      1.261      1.865
REMARK INTER + INTRA:          -3.288
REMARK INTER:                  -3.251
REMARK INTRA:                  -0.037
REMARK UNBOUND:                -0.076
REMARK SMILES O=C([O-])CCC(=O)[O-]
REMARK SMILES IDX 4 1 2 2 1 3 3 4 5 5 6 6 7 7 8 8
REMARK H PARENT
REMARK Flexibility Score: inf
ROOT
ATOM      1  C   UNL     1      -4.027   4.155   0.709  1.00  0.00     0.059 C 
ENDROOT
BRANCH   1   2
ATOM      2  C   UNL     1      -3.149   3.169   0.000  1.00  0.00     0.042 C 
ATOM      3  O   UNL     1      -1.896   3.290   0.044  1.00  0.00    -0.550 OA
ATOM      4  O   UNL     1      -3.713   2.092  -0.673  1.00  0.00    -0.550 OA
ENDBRANCH   1   2
BRANCH   1   5
ATOM      5  C   UNL     1      -3.934   5.549   0.079  1.00  0.00     0.059 C 
BRANCH   5   6
ATOM      6  C   UNL     1      -5.285   6.068  -0.310  1.00  0.00     0.042 C 
ATOM      7  O   UNL     1      -5.585   6.207  -1.525  1.00  0.00    -0.550 OA
ATOM      8  O   UNL     1      -6.197   6.436   0.671  1.00  0.00    -0.550 OA
ENDBRANCH   5   6
ENDBRANCH   1   5
TORSDOF 3
ENDMDL
MODEL 6
REMARK VINA RESULT:    -2.543      1.643      3.478
REMARK INTER + INTRA:          -3.065
REMARK INTER:                  -2.877
REMARK INTRA:                  -0.188
REMARK UNBOUND:                -0.076
REMARK SMILES O=C([O-])CCC(=O)[O-]
REMARK SMILES IDX 4 1 2 2 1 3 3 4 5 5 6 6 7 7 8 8
REMARK H PARENT
REMARK Flexibility Score: inf
ROOT
ATOM      1  C   UNL     1      -6.339   6.239   1.097  1.00  0.00     0.059 C 
ENDROOT
BRANCH   1   2
ATOM      2  C   UNL     1      -5.700   6.009   2.432  1.00  0.00     0.042 C 
ATOM      3  O   UNL     1      -5.761   4.875   2.977  1.00  0.00    -0.550 OA
ATOM      4  O   UNL     1      -5.001   7.034   3.056  1.00  0.00    -0.550 OA
ENDBRANCH   1   2
BRANCH   1   5
ATOM      5  C   UNL     1      -5.688   5.386   0.004  1.00  0.00     0.059 C 
BRANCH   5   6
ATOM      6  C   UNL     1      -4.222   5.672  -0.118  1.00  0.00     0.042 C 
ATOM      7  O   UNL     1      -3.378   4.769   0.120  1.00  0.00    -0.550 OA
ATOM      8  O   UNL     1      -3.789   6.948  -0.458  1.00  0.00    -0.550 OA
ENDBRANCH   5   6
ENDBRANCH   1   5
TORSDOF 3
ENDMDL
MODEL 7
REMARK VINA RESULT:    -2.528      1.549      4.243
REMARK INTER + INTRA:          -3.048
REMARK INTER:                  -3.022
REMARK INTRA:                  -0.026
REMARK UNBOUND:                -0.076
REMARK SMILES O=C([O-])CCC(=O)[O-]
REMARK SMILES IDX 4 1 2 2 1 3 3 4 5 5 6 6 7 7 8 8
REMARK H PARENT
REMARK Flexibility Score: inf
ROOT
ATOM      1  C   UNL     1      -3.406   5.025   0.150  1.00  0.00     0.059 C 
ENDROOT
BRANCH   1   2
ATOM      2  C   UNL     1      -4.558   5.982   0.106  1.00  0.00     0.042 C 
ATOM      3  O   UNL     1      -5.146   6.216  -0.983  1.00  0.00    -0.550 OA
ATOM      4  O   UNL     1      -5.010   6.582   1.274  1.00  0.00    -0.550 OA
ENDBRANCH   1   2
BRANCH   1   5
ATOM      5  C   UNL     1      -3.883   3.572   0.251  1.00  0.00     0.059 C 
BRANCH   5   6
ATOM      6  C   UNL     1      -2.730   2.617   0.308  1.00  0.00     0.042 C 
ATOM      7  O   UNL     1      -2.305   2.202   1.419  1.00  0.00    -0.550 OA
ATOM      8  O   UNL     1      -2.100   2.214  -0.863  1.00  0.00    -0.550 OA
ENDBRANCH   5   6
ENDBRANCH   1   5
TORSDOF 3
ENDMDL
MODEL 8
REMARK VINA RESULT:    -2.489      2.037      2.869
REMARK INTER + INTRA:          -3.001
REMARK INTER:                  -2.835
REMARK INTRA:                  -0.166
REMARK UNBOUND:                -0.076
REMARK SMILES O=C([O-])CCC(=O)[O-]
REMARK SMILES IDX 4 1 2 2 1 3 3 4 5 5 6 6 7 7 8 8
REMARK H PARENT
REMARK Flexibility Score: inf
ROOT
ATOM      1  C   UNL     1      -5.219   6.394   1.246  1.00  0.00     0.059 C 
ENDROOT
BRANCH   1   2
ATOM      2  C   UNL     1      -4.453   6.023   0.012  1.00  0.00     0.042 C 
ATOM      3  O   UNL     1      -3.338   5.447   0.109  1.00  0.00    -0.550 OA
ATOM      4  O   UNL     1      -4.991   6.274  -1.244  1.00  0.00    -0.550 OA
ENDBRANCH   1   2
BRANCH   1   5
ATOM      5  C   UNL     1      -6.697   6.006   1.131  1.00  0.00     0.059 C 
BRANCH   5   6
ATOM      6  C   UNL     1      -6.882   4.520   1.165  1.00  0.00     0.042 C 
ATOM      7  O   UNL     1      -6.398   3.843   2.110  1.00  0.00    -0.550 OA
ATOM      8  O   UNL     1      -7.553   3.878   0.132  1.00  0.00    -0.550 OA
ENDBRANCH   5   6
ENDBRANCH   1   5
TORSDOF 3
ENDMDL
MODEL 9
REMARK VINA RESULT:    -2.416      1.997      3.496
REMARK INTER + INTRA:          -2.917
REMARK INTER:                  -2.789
REMARK INTRA:                  -0.128
REMARK UNBOUND:                -0.076
REMARK SMILES O=C([O-])CCC(=O)[O-]
REMARK SMILES IDX 4 1 2 2 1 3 3 4 5 5 6 6 7 7 8 8
REMARK H PARENT
REMARK Flexibility Score: inf
ROOT
ATOM      1  C   UNL     1      -6.727   5.935   0.770  1.00  0.00     0.059 C 
ENDROOT
BRANCH   1   2
ATOM      2  C   UNL     1      -7.076   4.514   1.092  1.00  0.00     0.042 C 
ATOM      3  O   UNL     1      -6.531   3.934   2.067  1.00  0.00    -0.550 OA
ATOM      4  O   UNL     1      -8.035   3.845   0.342  1.00  0.00    -0.550 OA
ENDBRANCH   1   2
BRANCH   1   5
ATOM      5  C   UNL     1      -5.319   6.295   1.254  1.00  0.00     0.059 C 
BRANCH   5   6
ATOM      6  C   UNL     1      -4.281   5.965   0.225  1.00  0.00     0.042 C 
ATOM      7  O   UNL     1      -4.056   6.759  -0.725  1.00  0.00    -0.550 OA
ATOM      8  O   UNL     1      -3.591   4.761   0.294  1.00  0.00    -0.550 OA
ENDBRANCH   5   6
ENDBRANCH   1   5
TORSDOF 3
ENDMDL
