MODEL 1
REMARK VINA RESULT:    -5.238      0.000      0.000
REMARK INTER + INTRA:          -5.238
REMARK INTER:                  -5.238
REMARK INTRA:                   0.000
REMARK UNBOUND:                 0.000
REMARK SMILES CC1=CC(=O)[C@@H]2C[C@H]1C2(C)C
REMARK SMILES IDX 1 1 2 2 3 3 4 4 5 5 6 6 7 7 8 8 9 9 10 10 11 11
REMARK H PARENT
REMARK Flexibility Score: inf
ROOT
ATOM      1  C   UNL     1      12.202 -28.998  24.236  1.00  0.00     0.040 C 
ATOM      2  C   UNL     1      12.927 -30.119  23.562  1.00  0.00    -0.066 C 
ATOM      3  C   UNL     1      12.537 -30.584  22.342  1.00  0.00     0.047 C 
ATOM      4  C   UNL     1      13.364 -31.689  21.758  1.00  0.00     0.159 C 
ATOM      5  O   UNL     1      13.128 -32.176  20.621  1.00  0.00    -0.295 OA
ATOM      6  C   UNL     1      14.512 -32.182  22.639  1.00  0.00     0.067 C 
ATOM      7  C   UNL     1      13.879 -32.329  24.039  1.00  0.00     0.021 C 
ATOM      8  C   UNL     1      14.138 -30.816  24.219  1.00  0.00     0.022 C 
ATOM      9  C   UNL     1      15.288 -30.947  23.179  1.00  0.00    -0.019 C 
ATOM     10  C   UNL     1      15.544 -29.755  22.212  1.00  0.00     0.012 C 
ATOM     11  C   UNL     1      16.636 -31.338  23.835  1.00  0.00     0.012 C 
ENDROOT
TORSDOF 0
ENDMDL
MODEL 2
REMARK VINA RESULT:    -4.990      1.611      2.996
REMARK INTER + INTRA:          -4.990
REMARK INTER:                  -4.990
REMARK INTRA:                   0.000
REMARK UNBOUND:                 0.000
REMARK SMILES CC1=CC(=O)[C@@H]2C[C@H]1C2(C)C
REMARK SMILES IDX 1 1 2 2 3 3 4 4 5 5 6 6 7 7 8 8 9 9 10 10 11 11
REMARK H PARENT
REMARK Flexibility Score: inf
ROOT
ATOM      1  C   UNL     1      13.477 -32.386  20.452  1.00  0.00     0.040 C 
ATOM      2  C   UNL     1      13.806 -31.529  21.632  1.00  0.00    -0.066 C 
ATOM      3  C   UNL     1      12.834 -30.873  22.325  1.00  0.00     0.047 C 
ATOM      4  C   UNL     1      13.288 -30.071  23.506  1.00  0.00     0.159 C 
ATOM      5  O   UNL     1      12.481 -29.453  24.249  1.00  0.00    -0.295 OA
ATOM      6  C   UNL     1      14.798 -30.056  23.745  1.00  0.00     0.067 C 
ATOM      7  C   UNL     1      15.400 -29.807  22.346  1.00  0.00     0.021 C 
ATOM      8  C   UNL     1      15.260 -31.328  22.110  1.00  0.00     0.022 C 
ATOM      9  C   UNL     1      15.328 -31.515  23.653  1.00  0.00    -0.019 C 
ATOM     10  C   UNL     1      14.480 -32.652  24.294  1.00  0.00     0.012 C 
ATOM     11  C   UNL     1      16.783 -31.648  24.168  1.00  0.00     0.012 C 
ENDROOT
TORSDOF 0
ENDMDL
MODEL 3
REMARK VINA RESULT:    -4.904      1.677      3.528
REMARK INTER + INTRA:          -4.904
REMARK INTER:                  -4.904
REMARK INTRA:                   0.000
REMARK UNBOUND:                 0.000
REMARK SMILES CC1=CC(=O)[C@@H]2C[C@H]1C2(C)C
REMARK SMILES IDX 1 1 2 2 3 3 4 4 5 5 6 6 7 7 8 8 9 9 10 10 11 11
REMARK H PARENT
REMARK Flexibility Score: inf
ROOT
ATOM      1  C   UNL     1      15.118 -34.079  23.967  1.00  0.00     0.040 C 
ATOM      2  C   UNL     1      14.886 -32.678  23.499  1.00  0.00    -0.066 C 
ATOM      3  C   UNL     1      15.902 -31.919  23.003  1.00  0.00     0.047 C 
ATOM      4  C   UNL     1      15.535 -30.542  22.539  1.00  0.00     0.159 C 
ATOM      5  O   UNL     1      16.377 -29.759  22.025  1.00  0.00    -0.295 OA
ATOM      6  C   UNL     1      14.069 -30.155  22.733  1.00  0.00     0.067 C 
ATOM      7  C   UNL     1      13.743 -30.614  24.170  1.00  0.00     0.021 C 
ATOM      8  C   UNL     1      13.493 -32.017  23.573  1.00  0.00     0.022 C 
ATOM      9  C   UNL     1      13.177 -31.321  22.218  1.00  0.00    -0.019 C 
ATOM     10  C   UNL     1      13.593 -32.045  20.905  1.00  0.00     0.012 C 
ATOM     11  C   UNL     1      11.687 -30.914  22.096  1.00  0.00     0.012 C 
ENDROOT
TORSDOF 0
ENDMDL
MODEL 4
REMARK VINA RESULT:    -4.795      8.348     10.284
REMARK INTER + INTRA:          -4.795
REMARK INTER:                  -4.795
REMARK INTRA:                   0.000
REMARK UNBOUND:                 0.000
REMARK SMILES CC1=CC(=O)[C@@H]2C[C@H]1C2(C)C
REMARK SMILES IDX 1 1 2 2 3 3 4 4 5 5 6 6 7 7 8 8 9 9 10 10 11 11
REMARK H PARENT
REMARK Flexibility Score: inf
ROOT
ATOM      1  C   UNL     1      23.624 -24.873  19.000  1.00  0.00     0.040 C 
ATOM      2  C   UNL     1      23.165 -25.534  20.261  1.00  0.00    -0.066 C 
ATOM      3  C   UNL     1      22.951 -24.817  21.399  1.00  0.00     0.047 C 
ATOM      4  C   UNL     1      22.462 -25.590  22.587  1.00  0.00     0.159 C 
ATOM      5  O   UNL     1      22.191 -25.036  23.684  1.00  0.00    -0.295 OA
ATOM      6  C   UNL     1      22.316 -27.097  22.372  1.00  0.00     0.067 C 
ATOM      7  C   UNL     1      23.619 -27.504  21.650  1.00  0.00     0.021 C 
ATOM      8  C   UNL     1      22.929 -27.058  20.340  1.00  0.00     0.022 C 
ATOM      9  C   UNL     1      21.564 -27.335  21.031  1.00  0.00    -0.019 C 
ATOM     10  C   UNL     1      20.362 -26.410  20.684  1.00  0.00     0.012 C 
ATOM     11  C   UNL     1      21.106 -28.806  20.865  1.00  0.00     0.012 C 
ENDROOT
TORSDOF 0
ENDMDL
MODEL 5
REMARK VINA RESULT:    -4.739      4.250      5.395
REMARK INTER + INTRA:          -4.739
REMARK INTER:                  -4.739
REMARK INTRA:                   0.000
REMARK UNBOUND:                 0.000
REMARK SMILES CC1=CC(=O)[C@@H]2C[C@H]1C2(C)C
REMARK SMILES IDX 1 1 2 2 3 3 4 4 5 5 6 6 7 7 8 8 9 9 10 10 11 11
REMARK H PARENT
REMARK Flexibility Score: inf
ROOT
ATOM      1  C   UNL     1      16.759 -35.173  23.768  1.00  0.00     0.040 C 
ATOM      2  C   UNL     1      16.526 -35.018  22.299  1.00  0.00    -0.066 C 
ATOM      3  C   UNL     1      15.365 -34.495  21.817  1.00  0.00     0.047 C 
ATOM      4  C   UNL     1      15.265 -34.362  20.327  1.00  0.00     0.159 C 
ATOM      5  O   UNL     1      14.259 -33.858  19.763  1.00  0.00    -0.295 OA
ATOM      6  C   UNL     1      16.470 -34.883  19.542  1.00  0.00     0.067 C 
ATOM      7  C   UNL     1      16.784 -36.247  20.192  1.00  0.00     0.021 C 
ATOM      8  C   UNL     1      17.578 -35.459  21.258  1.00  0.00     0.022 C 
ATOM      9  C   UNL     1      17.766 -34.332  20.202  1.00  0.00    -0.019 C 
ATOM     10  C   UNL     1      17.774 -32.856  20.695  1.00  0.00     0.012 C 
ATOM     11  C   UNL     1      19.018 -34.554  19.318  1.00  0.00     0.012 C 
ENDROOT
TORSDOF 0
ENDMDL
MODEL 6
REMARK VINA RESULT:    -4.703      1.005      3.334
REMARK INTER + INTRA:          -4.703
REMARK INTER:                  -4.703
REMARK INTRA:                   0.000
REMARK UNBOUND:                 0.000
REMARK SMILES CC1=CC(=O)[C@@H]2C[C@H]1C2(C)C
REMARK SMILES IDX 1 1 2 2 3 3 4 4 5 5 6 6 7 7 8 8 9 9 10 10 11 11
REMARK H PARENT
REMARK Flexibility Score: inf
ROOT
ATOM      1  C   UNL     1      17.759 -31.867  23.954  1.00  0.00     0.040 C 
ATOM      2  C   UNL     1      16.471 -31.743  23.204  1.00  0.00    -0.066 C 
ATOM      3  C   UNL     1      16.071 -32.699  22.320  1.00  0.00     0.047 C 
ATOM      4  C   UNL     1      14.747 -32.474  21.654  1.00  0.00     0.159 C 
ATOM      5  O   UNL     1      14.251 -33.303  20.848  1.00  0.00    -0.295 OA
ATOM      6  C   UNL     1      14.044 -31.167  22.023  1.00  0.00     0.067 C 
ATOM      7  C   UNL     1      15.157 -30.101  21.941  1.00  0.00     0.021 C 
ATOM      8  C   UNL     1      15.544 -30.520  23.377  1.00  0.00     0.022 C 
ATOM      9  C   UNL     1      14.079 -31.005  23.569  1.00  0.00    -0.019 C 
ATOM     10  C   UNL     1      13.830 -32.264  24.450  1.00  0.00     0.012 C 
ATOM     11  C   UNL     1      13.143 -29.874  24.065  1.00  0.00     0.012 C 
ENDROOT
TORSDOF 0
ENDMDL
MODEL 7
REMARK VINA RESULT:    -4.673      8.648      9.758
REMARK INTER + INTRA:          -4.673
REMARK INTER:                  -4.673
REMARK INTRA:                   0.000
REMARK UNBOUND:                 0.000
REMARK SMILES CC1=CC(=O)[C@@H]2C[C@H]1C2(C)C
REMARK SMILES IDX 1 1 2 2 3 3 4 4 5 5 6 6 7 7 8 8 9 9 10 10 11 11
REMARK H PARENT
REMARK Flexibility Score: inf
ROOT
ATOM      1  C   UNL     1      20.392 -24.516  23.547  1.00  0.00     0.040 C 
ATOM      2  C   UNL     1      21.108 -25.058  22.351  1.00  0.00    -0.066 C 
ATOM      3  C   UNL     1      22.221 -24.449  21.856  1.00  0.00     0.047 C 
ATOM      4  C   UNL     1      22.865 -25.106  20.673  1.00  0.00     0.159 C 
ATOM      5  O   UNL     1      23.921 -24.663  20.149  1.00  0.00    -0.295 OA
ATOM      6  C   UNL     1      22.150 -26.352  20.147  1.00  0.00     0.067 C 
ATOM      7  C   UNL     1      20.661 -25.945  20.109  1.00  0.00     0.021 C 
ATOM      8  C   UNL     1      20.611 -26.317  21.608  1.00  0.00     0.022 C 
ATOM      9  C   UNL     1      21.811 -27.274  21.353  1.00  0.00    -0.019 C 
ATOM     10  C   UNL     1      22.872 -27.439  22.478  1.00  0.00     0.012 C 
ATOM     11  C   UNL     1      21.355 -28.685  20.905  1.00  0.00     0.012 C 
ENDROOT
TORSDOF 0
ENDMDL
MODEL 8
REMARK VINA RESULT:    -4.663      8.011      9.852
REMARK INTER + INTRA:          -4.663
REMARK INTER:                  -4.663
REMARK INTRA:                   0.000
REMARK UNBOUND:                 0.000
REMARK SMILES CC1=CC(=O)[C@@H]2C[C@H]1C2(C)C
REMARK SMILES IDX 1 1 2 2 3 3 4 4 5 5 6 6 7 7 8 8 9 9 10 10 11 11
REMARK H PARENT
REMARK Flexibility Score: inf
ROOT
ATOM      1  C   UNL     1      19.583 -28.051  20.442  1.00  0.00     0.040 C 
ATOM      2  C   UNL     1      20.792 -27.358  20.983  1.00  0.00    -0.066 C 
ATOM      3  C   UNL     1      21.501 -27.880  22.023  1.00  0.00     0.047 C 
ATOM      4  C   UNL     1      22.710 -27.107  22.454  1.00  0.00     0.159 C 
ATOM      5  O   UNL     1      23.469 -27.505  23.377  1.00  0.00    -0.295 OA
ATOM      6  C   UNL     1      22.958 -25.802  21.696  1.00  0.00     0.067 C 
ATOM      7  C   UNL     1      21.570 -25.127  21.642  1.00  0.00     0.021 C 
ATOM      8  C   UNL     1      21.284 -26.013  20.408  1.00  0.00     0.022 C 
ATOM      9  C   UNL     1      22.820 -26.081  20.172  1.00  0.00    -0.019 C 
ATOM     10  C   UNL     1      23.419 -27.401  19.606  1.00  0.00     0.012 C 
ATOM     11  C   UNL     1      23.338 -24.904  19.308  1.00  0.00     0.012 C 
ENDROOT
TORSDOF 0
ENDMDL
MODEL 9
REMARK VINA RESULT:    -4.659      8.818     10.525
REMARK INTER + INTRA:          -4.659
REMARK INTER:                  -4.659
REMARK INTRA:                   0.000
REMARK UNBOUND:                 0.000
REMARK SMILES CC1=CC(=O)[C@@H]2C[C@H]1C2(C)C
REMARK SMILES IDX 1 1 2 2 3 3 4 4 5 5 6 6 7 7 8 8 9 9 10 10 11 11
REMARK H PARENT
REMARK Flexibility Score: inf
ROOT
ATOM      1  C   UNL     1      23.638 -28.184  22.708  1.00  0.00     0.040 C 
ATOM      2  C   UNL     1      23.013 -27.247  21.726  1.00  0.00    -0.066 C 
ATOM      3  C   UNL     1      21.660 -27.167  21.584  1.00  0.00     0.047 C 
ATOM      4  C   UNL     1      21.156 -26.167  20.589  1.00  0.00     0.159 C 
ATOM      5  O   UNL     1      19.927 -25.972  20.395  1.00  0.00    -0.295 OA
ATOM      6  C   UNL     1      22.237 -25.401  19.825  1.00  0.00     0.067 C 
ATOM      7  C   UNL     1      23.246 -26.491  19.404  1.00  0.00     0.021 C 
ATOM      8  C   UNL     1      23.865 -26.339  20.812  1.00  0.00     0.022 C 
ATOM      9  C   UNL     1      23.295 -24.892  20.844  1.00  0.00    -0.019 C 
ATOM     10  C   UNL     1      22.798 -24.327  22.206  1.00  0.00     0.012 C 
ATOM     11  C   UNL     1      24.268 -23.861  20.218  1.00  0.00     0.012 C 
ENDROOT
TORSDOF 0
ENDMDL
