MODEL 1
REMARK VINA RESULT:    -4.984      0.000      0.000
REMARK INTER + INTRA:         -11.666
REMARK INTER:                  -9.354
REMARK INTRA:                  -2.312
REMARK UNBOUND:                -2.312
REMARK SMILES CCCCCC=CCC=CCCCCCCCC(=O)OC
REMARK SMILES IDX 11 1 10 2 9 3 8 4 7 5 6 6 5 7 4 8 3 9 2 10 1 11 12 12 13 13
REMARK SMILES IDX 14 14 15 15 16 16 17 17 18 18 19 19 20 20 21 21
REMARK H PARENT
REMARK Flexibility Score: inf
ROOT
ATOM      1  C   UNL     1      95.576 -60.123 104.825  1.00  0.00     0.027 C 
ENDROOT
BRANCH   1   2
ATOM      2  C   UNL     1      96.798 -59.342 105.238  1.00  0.00    -0.031 C 
ATOM      3  C   UNL     1      97.998 -59.890 105.507  1.00  0.00    -0.027 C 
BRANCH   3   4
ATOM      4  C   UNL     1      98.310 -61.359 105.384  1.00  0.00     0.054 C 
BRANCH   4   5
ATOM      5  C   UNL     1      98.978 -61.880 106.632  1.00  0.00    -0.027 C 
ATOM      6  C   UNL     1      98.864 -63.150 107.063  1.00  0.00    -0.031 C 
BRANCH   6   7
ATOM      7  C   UNL     1      98.014 -64.204 106.396  1.00  0.00     0.027 C 
BRANCH   7   8
ATOM      8  C   UNL     1      96.566 -64.187 106.916  1.00  0.00     0.004 C 
BRANCH   8   9
ATOM      9  C   UNL     1      95.554 -63.652 105.878  1.00  0.00     0.000 C 
BRANCH   9  10
ATOM     10  C   UNL     1      95.834 -64.130 104.444  1.00  0.00    -0.003 C 
ATOM     11  C   UNL     1      95.234 -65.501 104.143  1.00  0.00     0.004 C 
ENDBRANCH   9  10
ENDBRANCH   8   9
ENDBRANCH   7   8
ENDBRANCH   6   7
ENDBRANCH   4   5
ENDBRANCH   3   4
ENDBRANCH   1   2
BRANCH   1  12
ATOM     12  C   UNL     1      94.557 -59.215 104.129  1.00  0.00     0.004 C 
BRANCH  12  13
ATOM     13  C   UNL     1      93.858 -59.952 102.980  1.00  0.00     0.000 C 
BRANCH  13  14
ATOM     14  C   UNL     1      94.632 -61.221 102.588  1.00  0.00     0.000 C 
BRANCH  14  15
ATOM     15  C   UNL     1      93.712 -62.324 102.041  1.00  0.00     0.001 C 
BRANCH  15  16
ATOM     16  C   UNL     1      92.325 -62.315 102.701  1.00  0.00     0.012 C 
BRANCH  16  17
ATOM     17  C   UNL     1      92.129 -63.550 103.585  1.00  0.00     0.123 C 
BRANCH  17  18
ATOM     18  C   UNL     1      91.250 -64.549 102.902  1.00  0.00     0.305 C 
ATOM     19  O   UNL     1      90.761 -65.509 103.558  1.00  0.00    -0.252 OA
BRANCH  18  20
ATOM     20  O   UNL     1      90.954 -64.387 101.545  1.00  0.00    -0.469 OA
ATOM     21  C   UNL     1      91.137 -65.426 100.591  1.00  0.00     0.282 C 
ENDBRANCH  18  20
ENDBRANCH  17  18
ENDBRANCH  16  17
ENDBRANCH  15  16
ENDBRANCH  14  15
ENDBRANCH  13  14
ENDBRANCH  12  13
ENDBRANCH   1  12
TORSDOF 15
ENDMDL
MODEL 2
REMARK VINA RESULT:    -4.932      2.275      4.014
REMARK INTER + INTRA:         -11.569
REMARK INTER:                  -8.573
REMARK INTRA:                  -2.996
REMARK UNBOUND:                -2.312
REMARK SMILES CCCCCC=CCC=CCCCCCCCC(=O)OC
REMARK SMILES IDX 11 1 10 2 9 3 8 4 7 5 6 6 5 7 4 8 3 9 2 10 1 11 12 12 13 13
REMARK SMILES IDX 14 14 15 15 16 16 17 17 18 18 19 19 20 20 21 21
REMARK H PARENT
REMARK Flexibility Score: inf
ROOT
ATOM      1  C   UNL     1      98.479 -61.626 105.849  1.00  0.00     0.027 C 
ENDROOT
BRANCH   1   2
ATOM      2  C   UNL     1      99.393 -62.356 104.896  1.00  0.00    -0.031 C 
ATOM      3  C   UNL     1      98.975 -63.055 103.824  1.00  0.00    -0.027 C 
BRANCH   3   4
ATOM      4  C   UNL     1      97.536 -63.167 103.389  1.00  0.00     0.054 C 
BRANCH   4   5
ATOM      5  C   UNL     1      97.027 -64.578 103.550  1.00  0.00    -0.027 C 
ATOM      6  C   UNL     1      96.144 -64.947 104.497  1.00  0.00    -0.031 C 
BRANCH   6   7
ATOM      7  C   UNL     1      95.589 -64.021 105.553  1.00  0.00     0.027 C 
BRANCH   7   8
ATOM      8  C   UNL     1      96.269 -64.233 106.916  1.00  0.00     0.004 C 
BRANCH   8   9
ATOM      9  C   UNL     1      97.014 -65.584 107.020  1.00  0.00     0.000 C 
BRANCH   9  10
ATOM     10  C   UNL     1      98.507 -65.437 107.358  1.00  0.00    -0.003 C 
ATOM     11  C   UNL     1      99.422 -65.837 106.204  1.00  0.00     0.004 C 
ENDBRANCH   9  10
ENDBRANCH   8   9
ENDBRANCH   7   8
ENDBRANCH   6   7
ENDBRANCH   4   5
ENDBRANCH   3   4
ENDBRANCH   1   2
BRANCH   1  12
ATOM     12  C   UNL     1      98.643 -60.109 105.708  1.00  0.00     0.004 C 
BRANCH  12  13
ATOM     13  C   UNL     1      97.288 -59.430 105.468  1.00  0.00     0.000 C 
BRANCH  13  14
ATOM     14  C   UNL     1      96.177 -60.473 105.272  1.00  0.00     0.000 C 
BRANCH  14  15
ATOM     15  C   UNL     1      95.124 -60.023 104.247  1.00  0.00     0.001 C 
BRANCH  15  16
ATOM     16  C   UNL     1      94.369 -61.205 103.621  1.00  0.00     0.012 C 
BRANCH  16  17
ATOM     17  C   UNL     1      94.212 -61.018 102.109  1.00  0.00     0.123 C 
BRANCH  17  18
ATOM     18  C   UNL     1      92.787 -60.718 101.765  1.00  0.00     0.305 C 
ATOM     19  O   UNL     1      92.109 -61.557 101.110  1.00  0.00    -0.252 OA
BRANCH  18  20
ATOM     20  O   UNL     1      92.212 -59.521 102.204  1.00  0.00    -0.469 OA
ATOM     21  C   UNL     1      92.061 -58.388 101.357  1.00  0.00     0.282 C 
ENDBRANCH  18  20
ENDBRANCH  17  18
ENDBRANCH  16  17
ENDBRANCH  15  16
ENDBRANCH  14  15
ENDBRANCH  13  14
ENDBRANCH  12  13
ENDBRANCH   1  12
TORSDOF 15
ENDMDL
MODEL 3
REMARK VINA RESULT:    -4.916      2.071      4.111
REMARK INTER + INTRA:         -11.539
REMARK INTER:                  -9.295
REMARK INTRA:                  -2.244
REMARK UNBOUND:                -2.312
REMARK SMILES CCCCCC=CCC=CCCCCCCCC(=O)OC
REMARK SMILES IDX 11 1 10 2 9 3 8 4 7 5 6 6 5 7 4 8 3 9 2 10 1 11 12 12 13 13
REMARK SMILES IDX 14 14 15 15 16 16 17 17 18 18 19 19 20 20 21 21
REMARK H PARENT
REMARK Flexibility Score: inf
ROOT
ATOM      1  C   UNL     1      99.233 -61.492 105.413  1.00  0.00     0.027 C 
ENDROOT
BRANCH   1   2
ATOM      2  C   UNL     1      99.306 -62.407 106.610  1.00  0.00    -0.031 C 
ATOM      3  C   UNL     1      98.390 -63.347 106.907  1.00  0.00    -0.027 C 
BRANCH   3   4
ATOM      4  C   UNL     1      97.184 -63.660 106.059  1.00  0.00     0.054 C 
BRANCH   4   5
ATOM      5  C   UNL     1      97.502 -64.712 105.026  1.00  0.00    -0.027 C 
ATOM      6  C   UNL     1      97.448 -64.493 103.699  1.00  0.00    -0.031 C 
BRANCH   6   7
ATOM      7  C   UNL     1      97.009 -63.195 103.066  1.00  0.00     0.027 C 
BRANCH   7   8
ATOM      8  C   UNL     1      95.648 -63.330 102.362  1.00  0.00     0.004 C 
BRANCH   8   9
ATOM      9  C   UNL     1      94.964 -64.692 102.618  1.00  0.00     0.000 C 
BRANCH   9  10
ATOM     10  C   UNL     1      93.886 -64.642 103.713  1.00  0.00    -0.003 C 
ATOM     11  C   UNL     1      92.908 -63.484 103.535  1.00  0.00     0.004 C 
ENDBRANCH   9  10
ENDBRANCH   8   9
ENDBRANCH   7   8
ENDBRANCH   6   7
ENDBRANCH   4   5
ENDBRANCH   3   4
ENDBRANCH   1   2
BRANCH   1  12
ATOM     12  C   UNL     1      98.502 -60.191 105.765  1.00  0.00     0.004 C 
BRANCH  12  13
ATOM     13  C   UNL     1      97.089 -60.176 105.167  1.00  0.00     0.000 C 
BRANCH  13  14
ATOM     14  C   UNL     1      96.520 -58.749 105.135  1.00  0.00     0.000 C 
BRANCH  14  15
ATOM     15  C   UNL     1      95.098 -58.697 104.553  1.00  0.00     0.001 C 
BRANCH  15  16
ATOM     16  C   UNL     1      94.622 -60.064 104.041  1.00  0.00     0.012 C 
BRANCH  16  17
ATOM     17  C   UNL     1      94.356 -60.025 102.534  1.00  0.00     0.123 C 
BRANCH  17  18
ATOM     18  C   UNL     1      92.885 -59.994 102.262  1.00  0.00     0.305 C 
ATOM     19  O   UNL     1      92.138 -59.229 102.933  1.00  0.00    -0.252 OA
BRANCH  18  20
ATOM     20  O   UNL     1      92.359 -60.791 101.241  1.00  0.00    -0.469 OA
ATOM     21  C   UNL     1      91.792 -60.244 100.057  1.00  0.00     0.282 C 
ENDBRANCH  18  20
ENDBRANCH  17  18
ENDBRANCH  16  17
ENDBRANCH  15  16
ENDBRANCH  14  15
ENDBRANCH  13  14
ENDBRANCH  12  13
ENDBRANCH   1  12
TORSDOF 15
ENDMDL
MODEL 4
REMARK VINA RESULT:    -4.909      2.333      3.952
REMARK INTER + INTRA:         -11.526
REMARK INTER:                  -9.645
REMARK INTRA:                  -1.882
REMARK UNBOUND:                -2.312
REMARK SMILES CCCCCC=CCC=CCCCCCCCC(=O)OC
REMARK SMILES IDX 11 1 10 2 9 3 8 4 7 5 6 6 5 7 4 8 3 9 2 10 1 11 12 12 13 13
REMARK SMILES IDX 14 14 15 15 16 16 17 17 18 18 19 19 20 20 21 21
REMARK H PARENT
REMARK Flexibility Score: inf
ROOT
ATOM      1  C   UNL     1      97.818 -61.386 105.391  1.00  0.00     0.027 C 
ENDROOT
BRANCH   1   2
ATOM      2  C   UNL     1      99.083 -62.206 105.395  1.00  0.00    -0.031 C 
ATOM      3  C   UNL     1      99.353 -63.186 106.277  1.00  0.00    -0.027 C 
BRANCH   3   4
ATOM      4  C   UNL     1      98.407 -63.644 107.357  1.00  0.00     0.054 C 
BRANCH   4   5
ATOM      5  C   UNL     1      97.817 -64.994 107.028  1.00  0.00    -0.027 C 
ATOM      6  C   UNL     1      96.596 -65.161 106.488  1.00  0.00    -0.031 C 
BRANCH   6   7
ATOM      7  C   UNL     1      95.633 -64.036 106.192  1.00  0.00     0.027 C 
BRANCH   7   8
ATOM      8  C   UNL     1      95.490 -63.786 104.681  1.00  0.00     0.004 C 
BRANCH   8   9
ATOM      9  C   UNL     1      94.073 -63.322 104.273  1.00  0.00     0.000 C 
BRANCH   9  10
ATOM     10  C   UNL     1      93.641 -63.821 102.884  1.00  0.00    -0.003 C 
ATOM     11  C   UNL     1      94.631 -63.453 101.782  1.00  0.00     0.004 C 
ENDBRANCH   9  10
ENDBRANCH   8   9
ENDBRANCH   7   8
ENDBRANCH   6   7
ENDBRANCH   4   5
ENDBRANCH   3   4
ENDBRANCH   1   2
BRANCH   1  12
ATOM     12  C   UNL     1      98.132 -59.896 105.567  1.00  0.00     0.004 C 
BRANCH  12  13
ATOM     13  C   UNL     1      96.867 -59.044 105.404  1.00  0.00     0.000 C 
BRANCH  13  14
ATOM     14  C   UNL     1      95.692 -59.894 104.896  1.00  0.00     0.000 C 
BRANCH  14  15
ATOM     15  C   UNL     1      94.632 -59.054 104.165  1.00  0.00     0.001 C 
BRANCH  15  16
ATOM     16  C   UNL     1      93.956 -59.826 103.023  1.00  0.00     0.012 C 
BRANCH  16  17
ATOM     17  C   UNL     1      92.473 -59.458 102.914  1.00  0.00     0.123 C 
BRANCH  17  18
ATOM     18  C   UNL     1      92.158 -58.955 101.540  1.00  0.00     0.305 C 
ATOM     19  O   UNL     1      91.515 -57.880 101.397  1.00  0.00    -0.252 OA
BRANCH  18  20
ATOM     20  O   UNL     1      92.613 -59.670 100.428  1.00  0.00    -0.469 OA
ATOM     21  C   UNL     1      91.780 -60.565  99.701  1.00  0.00     0.282 C 
ENDBRANCH  18  20
ENDBRANCH  17  18
ENDBRANCH  16  17
ENDBRANCH  15  16
ENDBRANCH  14  15
ENDBRANCH  13  14
ENDBRANCH  12  13
ENDBRANCH   1  12
TORSDOF 15
ENDMDL
MODEL 5
REMARK VINA RESULT:    -4.886      1.302      2.037
REMARK INTER + INTRA:         -11.483
REMARK INTER:                  -8.973
REMARK INTRA:                  -2.510
REMARK UNBOUND:                -2.312
REMARK SMILES CCCCCC=CCC=CCCCCCCCC(=O)OC
REMARK SMILES IDX 11 1 10 2 9 3 8 4 7 5 6 6 5 7 4 8 3 9 2 10 1 11 12 12 13 13
REMARK SMILES IDX 14 14 15 15 16 16 17 17 18 18 19 19 20 20 21 21
REMARK H PARENT
REMARK Flexibility Score: inf
ROOT
ATOM      1  C   UNL     1      96.828 -60.018 105.224  1.00  0.00     0.027 C 
ENDROOT
BRANCH   1   2
ATOM      2  C   UNL     1      98.272 -59.767 105.580  1.00  0.00    -0.031 C 
ATOM      3  C   UNL     1      99.143 -60.724 105.951  1.00  0.00    -0.027 C 
BRANCH   3   4
ATOM      4  C   UNL     1      98.817 -62.194 106.014  1.00  0.00     0.054 C 
BRANCH   4   5
ATOM      5  C   UNL     1      99.435 -62.939 104.856  1.00  0.00    -0.027 C 
ATOM      6  C   UNL     1      98.770 -63.239 103.725  1.00  0.00    -0.031 C 
BRANCH   6   7
ATOM      7  C   UNL     1      97.313 -62.927 103.483  1.00  0.00     0.027 C 
BRANCH   7   8
ATOM      8  C   UNL     1      96.393 -64.052 103.989  1.00  0.00     0.004 C 
BRANCH   8   9
ATOM      9  C   UNL     1      95.487 -63.614 105.162  1.00  0.00     0.000 C 
BRANCH   9  10
ATOM     10  C   UNL     1      95.968 -64.121 106.532  1.00  0.00    -0.003 C 
ATOM     11  C   UNL     1      96.878 -65.343 106.430  1.00  0.00     0.004 C 
ENDBRANCH   9  10
ENDBRANCH   8   9
ENDBRANCH   7   8
ENDBRANCH   6   7
ENDBRANCH   4   5
ENDBRANCH   3   4
ENDBRANCH   1   2
BRANCH   1  12
ATOM     12  C   UNL     1      96.061 -58.698 105.089  1.00  0.00     0.004 C 
BRANCH  12  13
ATOM     13  C   UNL     1      94.745 -58.902 104.330  1.00  0.00     0.000 C 
BRANCH  13  14
ATOM     14  C   UNL     1      94.687 -60.298 103.692  1.00  0.00     0.000 C 
BRANCH  14  15
ATOM     15  C   UNL     1      94.029 -60.284 102.303  1.00  0.00     0.001 C 
BRANCH  15  16
ATOM     16  C   UNL     1      92.901 -61.318 102.176  1.00  0.00     0.012 C 
BRANCH  16  17
ATOM     17  C   UNL     1      93.465 -62.739 102.095  1.00  0.00     0.123 C 
BRANCH  17  18
ATOM     18  C   UNL     1      92.521 -63.714 102.725  1.00  0.00     0.305 C 
ATOM     19  O   UNL     1      92.174 -63.565 103.928  1.00  0.00    -0.252 OA
BRANCH  18  20
ATOM     20  O   UNL     1      92.006 -64.763 101.957  1.00  0.00    -0.469 OA
ATOM     21  C   UNL     1      90.618 -65.073 101.916  1.00  0.00     0.282 C 
ENDBRANCH  18  20
ENDBRANCH  17  18
ENDBRANCH  16  17
ENDBRANCH  15  16
ENDBRANCH  14  15
ENDBRANCH  13  14
ENDBRANCH  12  13
ENDBRANCH   1  12
TORSDOF 15
ENDMDL
MODEL 6
REMARK VINA RESULT:    -4.875      1.099      2.095
REMARK INTER + INTRA:         -11.462
REMARK INTER:                  -8.972
REMARK INTRA:                  -2.489
REMARK UNBOUND:                -2.312
REMARK SMILES CCCCCC=CCC=CCCCCCCCC(=O)OC
REMARK SMILES IDX 11 1 10 2 9 3 8 4 7 5 6 6 5 7 4 8 3 9 2 10 1 11 12 12 13 13
REMARK SMILES IDX 14 14 15 15 16 16 17 17 18 18 19 19 20 20 21 21
REMARK H PARENT
REMARK Flexibility Score: inf
ROOT
ATOM      1  C   UNL     1      97.025 -60.142 105.465  1.00  0.00     0.027 C 
ENDROOT
BRANCH   1   2
ATOM      2  C   UNL     1      98.532 -60.206 105.434  1.00  0.00    -0.031 C 
ATOM      3  C   UNL     1      99.269 -61.117 106.095  1.00  0.00    -0.027 C 
BRANCH   3   4
ATOM      4  C   UNL     1      98.696 -62.240 106.921  1.00  0.00     0.054 C 
BRANCH   4   5
ATOM      5  C   UNL     1      98.864 -63.569 106.226  1.00  0.00    -0.027 C 
ATOM      6  C   UNL     1      97.847 -64.414 105.978  1.00  0.00    -0.031 C 
BRANCH   6   7
ATOM      7  C   UNL     1      96.419 -64.178 106.408  1.00  0.00     0.027 C 
BRANCH   7   8
ATOM      8  C   UNL     1      95.569 -63.578 105.274  1.00  0.00     0.004 C 
BRANCH   8   9
ATOM      9  C   UNL     1      95.334 -64.561 104.105  1.00  0.00     0.000 C 
BRANCH   9  10
ATOM     10  C   UNL     1      95.861 -64.047 102.755  1.00  0.00    -0.003 C 
ATOM     11  C   UNL     1      96.883 -62.922 102.902  1.00  0.00     0.004 C 
ENDBRANCH   9  10
ENDBRANCH   8   9
ENDBRANCH   7   8
ENDBRANCH   6   7
ENDBRANCH   4   5
ENDBRANCH   3   4
ENDBRANCH   1   2
BRANCH   1  12
ATOM     12  C   UNL     1      96.532 -58.732 105.119  1.00  0.00     0.004 C 
BRANCH  12  13
ATOM     13  C   UNL     1      95.147 -58.780 104.462  1.00  0.00     0.000 C 
BRANCH  13  14
ATOM     14  C   UNL     1      94.774 -60.218 104.068  1.00  0.00     0.000 C 
BRANCH  14  15
ATOM     15  C   UNL     1      94.175 -60.304 102.655  1.00  0.00     0.001 C 
BRANCH  15  16
ATOM     16  C   UNL     1      92.720 -60.796 102.662  1.00  0.00     0.012 C 
BRANCH  16  17
ATOM     17  C   UNL     1      92.651 -62.300 102.938  1.00  0.00     0.123 C 
BRANCH  17  18
ATOM     18  C   UNL     1      91.872 -62.994 101.864  1.00  0.00     0.305 C 
ATOM     19  O   UNL     1      92.087 -62.716 100.653  1.00  0.00    -0.252 OA
BRANCH  18  20
ATOM     20  O   UNL     1      90.936 -63.970 102.218  1.00  0.00    -0.469 OA
ATOM     21  C   UNL     1      91.216 -65.363 102.145  1.00  0.00     0.282 C 
ENDBRANCH  18  20
ENDBRANCH  17  18
ENDBRANCH  16  17
ENDBRANCH  15  16
ENDBRANCH  14  15
ENDBRANCH  13  14
ENDBRANCH  12  13
ENDBRANCH   1  12
TORSDOF 15
ENDMDL
MODEL 7
REMARK VINA RESULT:    -4.863      1.266      3.070
REMARK INTER + INTRA:         -11.440
REMARK INTER:                  -8.950
REMARK INTRA:                  -2.490
REMARK UNBOUND:                -2.312
REMARK SMILES CCCCCC=CCC=CCCCCCCCC(=O)OC
REMARK SMILES IDX 11 1 10 2 9 3 8 4 7 5 6 6 5 7 4 8 3 9 2 10 1 11 12 12 13 13
REMARK SMILES IDX 14 14 15 15 16 16 17 17 18 18 19 19 20 20 21 21
REMARK H PARENT
REMARK Flexibility Score: inf
ROOT
ATOM      1  C   UNL     1      93.169 -59.502 103.259  1.00  0.00     0.027 C 
ENDROOT
BRANCH   1   2
ATOM      2  C   UNL     1      94.348 -59.018 104.066  1.00  0.00    -0.031 C 
ATOM      3  C   UNL     1      95.383 -59.792 104.443  1.00  0.00    -0.027 C 
BRANCH   3   4
ATOM      4  C   UNL     1      95.541 -61.243 104.068  1.00  0.00     0.054 C 
BRANCH   4   5
ATOM      5  C   UNL     1      95.064 -62.147 105.177  1.00  0.00    -0.027 C 
ATOM      6  C   UNL     1      95.775 -63.189 105.647  1.00  0.00    -0.031 C 
BRANCH   6   7
ATOM      7  C   UNL     1      97.110 -63.627 105.096  1.00  0.00     0.027 C 
BRANCH   7   8
ATOM      8  C   UNL     1      98.153 -63.828 106.210  1.00  0.00     0.004 C 
BRANCH   8   9
ATOM      9  C   UNL     1      98.860 -62.518 106.624  1.00  0.00     0.000 C 
BRANCH   9  10
ATOM     10  C   UNL     1      99.112 -61.559 105.449  1.00  0.00    -0.003 C 
ATOM     11  C   UNL     1      98.797 -60.105 105.787  1.00  0.00     0.004 C 
ENDBRANCH   9  10
ENDBRANCH   8   9
ENDBRANCH   7   8
ENDBRANCH   6   7
ENDBRANCH   4   5
ENDBRANCH   3   4
ENDBRANCH   1   2
BRANCH   1  12
ATOM     12  C   UNL     1      93.512 -59.547 101.766  1.00  0.00     0.004 C 
BRANCH  12  13
ATOM     13  C   UNL     1      92.548 -60.468 101.009  1.00  0.00     0.000 C 
BRANCH  13  14
ATOM     14  C   UNL     1      92.288 -61.761 101.797  1.00  0.00     0.000 C 
BRANCH  14  15
ATOM     15  C   UNL     1      93.377 -62.821 101.564  1.00  0.00     0.001 C 
BRANCH  15  16
ATOM     16  C   UNL     1      93.298 -63.977 102.571  1.00  0.00     0.012 C 
BRANCH  16  17
ATOM     17  C   UNL     1      92.049 -63.857 103.449  1.00  0.00     0.123 C 
BRANCH  17  18
ATOM     18  C   UNL     1      91.101 -64.980 103.166  1.00  0.00     0.305 C 
ATOM     19  O   UNL     1      90.542 -65.061 102.038  1.00  0.00    -0.252 OA
BRANCH  18  20
ATOM     20  O   UNL     1      90.872 -65.947 104.149  1.00  0.00    -0.469 OA
ATOM     21  C   UNL     1      91.852 -66.910 104.520  1.00  0.00     0.282 C 
ENDBRANCH  18  20
ENDBRANCH  17  18
ENDBRANCH  16  17
ENDBRANCH  15  16
ENDBRANCH  14  15
ENDBRANCH  13  14
ENDBRANCH  12  13
ENDBRANCH   1  12
TORSDOF 15
ENDMDL
MODEL 8
REMARK VINA RESULT:    -4.798      2.246      2.869
REMARK INTER + INTRA:         -11.318
REMARK INTER:                  -9.301
REMARK INTRA:                  -2.017
REMARK UNBOUND:                -2.312
REMARK SMILES CCCCCC=CCC=CCCCCCCCC(=O)OC
REMARK SMILES IDX 11 1 10 2 9 3 8 4 7 5 6 6 5 7 4 8 3 9 2 10 1 11 12 12 13 13
REMARK SMILES IDX 14 14 15 15 16 16 17 17 18 18 19 19 20 20 21 21
REMARK H PARENT
REMARK Flexibility Score: inf
ROOT
ATOM      1  C   UNL     1      96.012 -60.105 105.175  1.00  0.00     0.027 C 
ENDROOT
BRANCH   1   2
ATOM      2  C   UNL     1      97.332 -59.446 105.487  1.00  0.00    -0.031 C 
ATOM      3  C   UNL     1      98.503 -60.101 105.599  1.00  0.00    -0.027 C 
BRANCH   3   4
ATOM      4  C   UNL     1      98.676 -61.581 105.375  1.00  0.00     0.054 C 
BRANCH   4   5
ATOM      5  C   UNL     1      98.858 -62.312 106.683  1.00  0.00    -0.027 C 
ATOM      6  C   UNL     1      98.272 -63.490 106.966  1.00  0.00    -0.031 C 
BRANCH   6   7
ATOM      7  C   UNL     1      97.314 -64.208 106.045  1.00  0.00     0.027 C 
BRANCH   7   8
ATOM      8  C   UNL     1      95.880 -63.667 106.173  1.00  0.00     0.004 C 
BRANCH   8   9
ATOM      9  C   UNL     1      94.934 -64.185 105.066  1.00  0.00     0.000 C 
BRANCH   9  10
ATOM     10  C   UNL     1      95.584 -65.227 104.141  1.00  0.00    -0.003 C 
ATOM     11  C   UNL     1      94.707 -65.596 102.948  1.00  0.00     0.004 C 
ENDBRANCH   9  10
ENDBRANCH   8   9
ENDBRANCH   7   8
ENDBRANCH   6   7
ENDBRANCH   4   5
ENDBRANCH   3   4
ENDBRANCH   1   2
BRANCH   1  12
ATOM     12  C   UNL     1      95.105 -59.159 104.379  1.00  0.00     0.004 C 
BRANCH  12  13
ATOM     13  C   UNL     1      94.278 -59.932 103.345  1.00  0.00     0.000 C 
BRANCH  13  14
ATOM     14  C   UNL     1      94.947 -61.270 102.992  1.00  0.00     0.000 C 
BRANCH  14  15
ATOM     15  C   UNL     1      94.067 -62.146 102.087  1.00  0.00     0.001 C 
BRANCH  15  16
ATOM     16  C   UNL     1      92.596 -61.707 102.093  1.00  0.00     0.012 C 
BRANCH  16  17
ATOM     17  C   UNL     1      91.973 -61.851 100.702  1.00  0.00     0.123 C 
BRANCH  17  18
ATOM     18  C   UNL     1      91.796 -60.508 100.066  1.00  0.00     0.305 C 
ATOM     19  O   UNL     1      91.045 -60.383  99.060  1.00  0.00    -0.252 OA
BRANCH  18  20
ATOM     20  O   UNL     1      92.442 -59.398 100.617  1.00  0.00    -0.469 OA
ATOM     21  C   UNL     1      91.740 -58.233 101.036  1.00  0.00     0.282 C 
ENDBRANCH  18  20
ENDBRANCH  17  18
ENDBRANCH  16  17
ENDBRANCH  15  16
ENDBRANCH  14  15
ENDBRANCH  13  14
ENDBRANCH  12  13
ENDBRANCH   1  12
TORSDOF 15
ENDMDL
MODEL 9
REMARK VINA RESULT:    -4.751      2.260      5.335
REMARK INTER + INTRA:         -11.230
REMARK INTER:                  -9.056
REMARK INTRA:                  -2.174
REMARK UNBOUND:                -2.312
REMARK SMILES CCCCCC=CCC=CCCCCCCCC(=O)OC
REMARK SMILES IDX 11 1 10 2 9 3 8 4 7 5 6 6 5 7 4 8 3 9 2 10 1 11 12 12 13 13
REMARK SMILES IDX 14 14 15 15 16 16 17 17 18 18 19 19 20 20 21 21
REMARK H PARENT
REMARK Flexibility Score: inf
ROOT
ATOM      1  C   UNL     1      95.390 -59.797 104.821  1.00  0.00     0.027 C 
ENDROOT
BRANCH   1   2
ATOM      2  C   UNL     1      94.445 -58.975 103.981  1.00  0.00    -0.031 C 
ATOM      3  C   UNL     1      93.516 -59.490 103.155  1.00  0.00    -0.027 C 
BRANCH   3   4
ATOM      4  C   UNL     1      93.247 -60.964 102.988  1.00  0.00     0.054 C 
BRANCH   4   5
ATOM      5  C   UNL     1      94.337 -61.628 102.183  1.00  0.00    -0.027 C 
ATOM      6  C   UNL     1      95.000 -62.726 102.592  1.00  0.00    -0.031 C 
BRANCH   6   7
ATOM      7  C   UNL     1      94.788 -63.404 103.924  1.00  0.00     0.027 C 
BRANCH   7   8
ATOM      8  C   UNL     1      93.802 -64.580 103.819  1.00  0.00     0.004 C 
BRANCH   8   9
ATOM      9  C   UNL     1      92.359 -64.201 104.221  1.00  0.00     0.000 C 
BRANCH   9  10
ATOM     10  C   UNL     1      91.291 -64.737 103.253  1.00  0.00    -0.003 C 
ATOM     11  C   UNL     1      91.276 -64.003 101.915  1.00  0.00     0.004 C 
ENDBRANCH   9  10
ENDBRANCH   8   9
ENDBRANCH   7   8
ENDBRANCH   6   7
ENDBRANCH   4   5
ENDBRANCH   3   4
ENDBRANCH   1   2
BRANCH   1  12
ATOM     12  C   UNL     1      96.626 -58.978 105.212  1.00  0.00     0.004 C 
BRANCH  12  13
ATOM     13  C   UNL     1      97.812 -59.894 105.535  1.00  0.00     0.000 C 
BRANCH  13  14
ATOM     14  C   UNL     1      97.472 -61.362 105.238  1.00  0.00     0.000 C 
BRANCH  14  15
ATOM     15  C   UNL     1      98.653 -62.307 105.514  1.00  0.00     0.001 C 
BRANCH  15  16
ATOM     16  C   UNL     1      98.323 -63.366 106.575  1.00  0.00     0.012 C 
BRANCH  16  17
ATOM     17  C   UNL     1      97.642 -64.584 105.944  1.00  0.00     0.123 C 
BRANCH  17  18
ATOM     18  C   UNL     1      96.535 -65.078 106.820  1.00  0.00     0.305 C 
ATOM     19  O   UNL     1      96.258 -64.466 107.888  1.00  0.00    -0.252 OA
BRANCH  18  20
ATOM     20  O   UNL     1      95.796 -66.198 106.426  1.00  0.00    -0.469 OA
ATOM     21  C   UNL     1      96.199 -67.042 105.354  1.00  0.00     0.282 C 
ENDBRANCH  18  20
ENDBRANCH  17  18
ENDBRANCH  16  17
ENDBRANCH  15  16
ENDBRANCH  14  15
ENDBRANCH  13  14
ENDBRANCH  12  13
ENDBRANCH   1  12
TORSDOF 15
ENDMDL
