MODEL 1
REMARK VINA RESULT:    -4.028      0.000      0.000
REMARK INTER + INTRA:          -9.056
REMARK INTER:                  -7.089
REMARK INTRA:                  -1.966
REMARK UNBOUND:                -1.966
REMARK SMILES CCCCCCCCCCCCCCC(=O)[O-]
REMARK SMILES IDX 9 1 10 2 11 3 12 4 13 5 14 6 15 7 16 8 17 9 8 10 7 11 6 12
REMARK SMILES IDX 5 13 4 14 3 15 2 16 1 17
REMARK H PARENT
REMARK Flexibility Score: inf
ROOT
ATOM      1  C   UNL     1       3.201   3.590  -3.868  1.00  0.00     0.000 C 
ENDROOT
BRANCH   1   2
ATOM      2  C   UNL     1       2.750   3.217  -5.292  1.00  0.00     0.000 C 
BRANCH   2   3
ATOM      3  C   UNL     1       2.185   1.791  -5.445  1.00  0.00     0.000 C 
BRANCH   3   4
ATOM      4  C   UNL     1       1.440   1.245  -4.209  1.00  0.00     0.000 C 
BRANCH   4   5
ATOM      5  C   UNL     1       0.046   0.654  -4.498  1.00  0.00     0.006 C 
BRANCH   5   6
ATOM      6  C   UNL     1      -0.084  -0.846  -4.186  1.00  0.00     0.053 C 
BRANCH   6   7
ATOM      7  C   UNL     1       1.007  -1.649  -4.825  1.00  0.00     0.041 C 
ATOM      8  O   UNL     1       1.825  -2.287  -4.109  1.00  0.00    -0.550 OA
ATOM      9  O   UNL     1       1.143  -1.666  -6.206  1.00  0.00    -0.550 OA
ENDBRANCH   6   7
ENDBRANCH   5   6
ENDBRANCH   4   5
ENDBRANCH   3   4
ENDBRANCH   2   3
ENDBRANCH   1   2
BRANCH   1  10
ATOM     10  C   UNL     1       4.038   4.876  -3.825  1.00  0.00     0.000 C 
BRANCH  10  11
ATOM     11  C   UNL     1       5.019   4.932  -5.006  1.00  0.00    -0.000 C 
BRANCH  11  12
ATOM     12  C   UNL     1       6.275   4.076  -4.773  1.00  0.00    -0.000 C 
BRANCH  12  13
ATOM     13  C   UNL     1       6.388   2.909  -5.770  1.00  0.00    -0.000 C 
BRANCH  13  14
ATOM     14  C   UNL     1       6.145   1.543  -5.111  1.00  0.00    -0.000 C 
BRANCH  14  15
ATOM     15  C   UNL     1       6.172   1.613  -3.576  1.00  0.00    -0.000 C 
BRANCH  15  16
ATOM     16  C   UNL     1       5.432   0.421  -2.959  1.00  0.00    -0.003 C 
ATOM     17  C   UNL     1       4.871  -0.499  -4.040  1.00  0.00     0.004 C 
ENDBRANCH  15  16
ENDBRANCH  14  15
ENDBRANCH  13  14
ENDBRANCH  12  13
ENDBRANCH  11  12
ENDBRANCH  10  11
ENDBRANCH   1  10
TORSDOF 13
ENDMDL
MODEL 2
REMARK VINA RESULT:    -3.988      0.917      3.116
REMARK INTER + INTRA:          -8.984
REMARK INTER:                  -7.150
REMARK INTRA:                  -1.834
REMARK UNBOUND:                -1.966
REMARK SMILES CCCCCCCCCCCCCCC(=O)[O-]
REMARK SMILES IDX 9 1 10 2 11 3 12 4 13 5 14 6 15 7 16 8 17 9 8 10 7 11 6 12
REMARK SMILES IDX 5 13 4 14 3 15 2 16 1 17
REMARK H PARENT
REMARK Flexibility Score: inf
ROOT
ATOM      1  C   UNL     1       4.066  -0.170  -4.135  1.00  0.00     0.000 C 
ENDROOT
BRANCH   1   2
ATOM      2  C   UNL     1       3.739   0.251  -5.580  1.00  0.00     0.000 C 
BRANCH   2   3
ATOM      3  C   UNL     1       2.560   1.235  -5.720  1.00  0.00     0.000 C 
BRANCH   3   4
ATOM      4  C   UNL     1       1.580   1.258  -4.530  1.00  0.00     0.000 C 
BRANCH   4   5
ATOM      5  C   UNL     1       0.158   0.750  -4.846  1.00  0.00     0.006 C 
BRANCH   5   6
ATOM      6  C   UNL     1      -0.205  -0.580  -4.167  1.00  0.00     0.053 C 
BRANCH   6   7
ATOM      7  C   UNL     1       0.727  -1.685  -4.560  1.00  0.00     0.041 C 
ATOM      8  O   UNL     1       1.318  -2.358  -3.675  1.00  0.00    -0.550 OA
ATOM      9  O   UNL     1       0.969  -1.948  -5.902  1.00  0.00    -0.550 OA
ENDBRANCH   6   7
ENDBRANCH   5   6
ENDBRANCH   4   5
ENDBRANCH   3   4
ENDBRANCH   2   3
ENDBRANCH   1   2
BRANCH   1  10
ATOM     10  C   UNL     1       5.554  -0.015  -3.792  1.00  0.00     0.000 C 
BRANCH  10  11
ATOM     11  C   UNL     1       5.876   1.432  -3.386  1.00  0.00    -0.000 C 
BRANCH  11  12
ATOM     12  C   UNL     1       6.639   2.197  -4.479  1.00  0.00    -0.000 C 
BRANCH  12  13
ATOM     13  C   UNL     1       6.176   3.659  -4.611  1.00  0.00    -0.000 C 
BRANCH  13  14
ATOM     14  C   UNL     1       5.108   3.844  -5.702  1.00  0.00    -0.000 C 
BRANCH  14  15
ATOM     15  C   UNL     1       3.830   4.511  -5.171  1.00  0.00    -0.000 C 
BRANCH  15  16
ATOM     16  C   UNL     1       3.914   4.729  -3.656  1.00  0.00    -0.003 C 
ATOM     17  C   UNL     1       3.904   6.216  -3.312  1.00  0.00     0.004 C 
ENDBRANCH  15  16
ENDBRANCH  14  15
ENDBRANCH  13  14
ENDBRANCH  12  13
ENDBRANCH  11  12
ENDBRANCH  10  11
ENDBRANCH   1  10
TORSDOF 13
ENDMDL
MODEL 3
REMARK VINA RESULT:    -3.930      0.529      1.273
REMARK INTER + INTRA:          -8.884
REMARK INTER:                  -6.844
REMARK INTRA:                  -2.040
REMARK UNBOUND:                -1.966
REMARK SMILES CCCCCCCCCCCCCCC(=O)[O-]
REMARK SMILES IDX 9 1 10 2 11 3 12 4 13 5 14 6 15 7 16 8 17 9 8 10 7 11 6 12
REMARK SMILES IDX 5 13 4 14 3 15 2 16 1 17
REMARK H PARENT
REMARK Flexibility Score: inf
ROOT
ATOM      1  C   UNL     1       3.307   3.931  -3.837  1.00  0.00     0.000 C 
ENDROOT
BRANCH   1   2
ATOM      2  C   UNL     1       2.929   3.543  -5.278  1.00  0.00     0.000 C 
BRANCH   2   3
ATOM      3  C   UNL     1       2.553   2.061  -5.478  1.00  0.00     0.000 C 
BRANCH   3   4
ATOM      4  C   UNL     1       1.769   1.422  -4.313  1.00  0.00     0.000 C 
BRANCH   4   5
ATOM      5  C   UNL     1       0.348   0.941  -4.672  1.00  0.00     0.006 C 
BRANCH   5   6
ATOM      6  C   UNL     1       0.084  -0.541  -4.359  1.00  0.00     0.053 C 
BRANCH   6   7
ATOM      7  C   UNL     1       1.119  -1.437  -4.968  1.00  0.00     0.041 C 
ATOM      8  O   UNL     1       1.130  -1.637  -6.211  1.00  0.00    -0.550 OA
ATOM      9  O   UNL     1       2.049  -2.077  -4.159  1.00  0.00    -0.550 OA
ENDBRANCH   6   7
ENDBRANCH   5   6
ENDBRANCH   4   5
ENDBRANCH   3   4
ENDBRANCH   2   3
ENDBRANCH   1   2
BRANCH   1  10
ATOM     10  C   UNL     1       4.248   5.142  -3.772  1.00  0.00     0.000 C 
BRANCH  10  11
ATOM     11  C   UNL     1       4.987   5.334  -5.106  1.00  0.00    -0.000 C 
BRANCH  11  12
ATOM     12  C   UNL     1       6.513   5.405  -4.932  1.00  0.00    -0.000 C 
BRANCH  12  13
ATOM     13  C   UNL     1       7.168   4.013  -4.893  1.00  0.00    -0.000 C 
BRANCH  13  14
ATOM     14  C   UNL     1       6.547   3.039  -5.907  1.00  0.00    -0.000 C 
BRANCH  14  15
ATOM     15  C   UNL     1       6.258   1.658  -5.300  1.00  0.00    -0.000 C 
BRANCH  15  16
ATOM     16  C   UNL     1       6.229   1.727  -3.769  1.00  0.00    -0.003 C 
ATOM     17  C   UNL     1       5.352   0.624  -3.183  1.00  0.00     0.004 C 
ENDBRANCH  15  16
ENDBRANCH  14  15
ENDBRANCH  13  14
ENDBRANCH  12  13
ENDBRANCH  11  12
ENDBRANCH  10  11
ENDBRANCH   1  10
TORSDOF 13
ENDMDL
MODEL 4
REMARK VINA RESULT:    -3.762      3.249      5.905
REMARK INTER + INTRA:          -8.587
REMARK INTER:                  -6.683
REMARK INTRA:                  -1.905
REMARK UNBOUND:                -1.966
REMARK SMILES CCCCCCCCCCCCCCC(=O)[O-]
REMARK SMILES IDX 9 1 10 2 11 3 12 4 13 5 14 6 15 7 16 8 17 9 8 10 7 11 6 12
REMARK SMILES IDX 5 13 4 14 3 15 2 16 1 17
REMARK H PARENT
REMARK Flexibility Score: inf
ROOT
ATOM      1  C   UNL     1       5.159  -0.002  -3.416  1.00  0.00     0.000 C 
ENDROOT
BRANCH   1   2
ATOM      2  C   UNL     1       5.702   1.372  -2.985  1.00  0.00     0.000 C 
BRANCH   2   3
ATOM      3  C   UNL     1       6.430   2.162  -4.092  1.00  0.00     0.000 C 
BRANCH   3   4
ATOM      4  C   UNL     1       5.724   3.455  -4.546  1.00  0.00     0.000 C 
BRANCH   4   5
ATOM      5  C   UNL     1       4.440   3.805  -3.767  1.00  0.00     0.006 C 
BRANCH   5   6
ATOM      6  C   UNL     1       3.544   4.846  -4.457  1.00  0.00     0.053 C 
BRANCH   6   7
ATOM      7  C   UNL     1       3.365   6.076  -3.620  1.00  0.00     0.041 C 
ATOM      8  O   UNL     1       4.273   6.439  -2.827  1.00  0.00    -0.550 OA
ATOM      9  O   UNL     1       2.183   6.800  -3.692  1.00  0.00    -0.550 OA
ENDBRANCH   6   7
ENDBRANCH   5   6
ENDBRANCH   4   5
ENDBRANCH   3   4
ENDBRANCH   2   3
ENDBRANCH   1   2
BRANCH   1  10
ATOM     10  C   UNL     1       5.141  -0.185  -4.940  1.00  0.00     0.000 C 
BRANCH  10  11
ATOM     11  C   UNL     1       3.708  -0.094  -5.487  1.00  0.00    -0.000 C 
BRANCH  11  12
ATOM     12  C   UNL     1       3.430   1.241  -6.197  1.00  0.00    -0.000 C 
BRANCH  12  13
ATOM     13  C   UNL     1       2.034   1.804  -5.873  1.00  0.00    -0.000 C 
BRANCH  13  14
ATOM     14  C   UNL     1       1.553   1.414  -4.466  1.00  0.00    -0.000 C 
BRANCH  14  15
ATOM     15  C   UNL     1       0.169   0.747  -4.478  1.00  0.00    -0.000 C 
BRANCH  15  16
ATOM     16  C   UNL     1       0.293  -0.771  -4.644  1.00  0.00    -0.003 C 
ATOM     17  C   UNL     1       0.183  -1.177  -6.111  1.00  0.00     0.004 C 
ENDBRANCH  15  16
ENDBRANCH  14  15
ENDBRANCH  13  14
ENDBRANCH  12  13
ENDBRANCH  11  12
ENDBRANCH  10  11
ENDBRANCH   1  10
TORSDOF 13
ENDMDL
MODEL 5
REMARK VINA RESULT:    -3.759      1.328      3.550
REMARK INTER + INTRA:          -8.582
REMARK INTER:                  -6.948
REMARK INTRA:                  -1.634
REMARK UNBOUND:                -1.966
REMARK SMILES CCCCCCCCCCCCCCC(=O)[O-]
REMARK SMILES IDX 9 1 10 2 11 3 12 4 13 5 14 6 15 7 16 8 17 9 8 10 7 11 6 12
REMARK SMILES IDX 5 13 4 14 3 15 2 16 1 17
REMARK H PARENT
REMARK Flexibility Score: inf
ROOT
ATOM      1  C   UNL     1       5.337  -0.125  -3.700  1.00  0.00     0.000 C 
ENDROOT
BRANCH   1   2
ATOM      2  C   UNL     1       3.864  -0.179  -4.142  1.00  0.00     0.000 C 
BRANCH   2   3
ATOM      3  C   UNL     1       3.589   0.359  -5.561  1.00  0.00     0.000 C 
BRANCH   3   4
ATOM      4  C   UNL     1       2.308   1.206  -5.704  1.00  0.00     0.000 C 
BRANCH   4   5
ATOM      5  C   UNL     1       1.485   1.366  -4.410  1.00  0.00     0.006 C 
BRANCH   5   6
ATOM      6  C   UNL     1       0.040   0.853  -4.510  1.00  0.00     0.053 C 
BRANCH   6   7
ATOM      7  C   UNL     1      -0.069  -0.595  -4.142  1.00  0.00     0.041 C 
ATOM      8  O   UNL     1      -0.670  -0.937  -3.090  1.00  0.00    -0.550 OA
ATOM      9  O   UNL     1       0.522  -1.564  -4.943  1.00  0.00    -0.550 OA
ENDBRANCH   6   7
ENDBRANCH   5   6
ENDBRANCH   4   5
ENDBRANCH   3   4
ENDBRANCH   2   3
ENDBRANCH   1   2
BRANCH   1  10
ATOM     10  C   UNL     1       5.770   1.274  -3.238  1.00  0.00     0.000 C 
BRANCH  10  11
ATOM     11  C   UNL     1       6.664   1.947  -4.291  1.00  0.00    -0.000 C 
BRANCH  11  12
ATOM     12  C   UNL     1       6.266   3.407  -4.558  1.00  0.00    -0.000 C 
BRANCH  12  13
ATOM     13  C   UNL     1       5.192   3.537  -5.653  1.00  0.00    -0.000 C 
BRANCH  13  14
ATOM     14  C   UNL     1       4.168   4.642  -5.349  1.00  0.00    -0.000 C 
BRANCH  14  15
ATOM     15  C   UNL     1       3.784   4.698  -3.862  1.00  0.00    -0.000 C 
BRANCH  15  16
ATOM     16  C   UNL     1       3.888   6.129  -3.324  1.00  0.00    -0.003 C 
ATOM     17  C   UNL     1       2.690   6.970  -3.756  1.00  0.00     0.004 C 
ENDBRANCH  15  16
ENDBRANCH  14  15
ENDBRANCH  13  14
ENDBRANCH  12  13
ENDBRANCH  11  12
ENDBRANCH  10  11
ENDBRANCH   1  10
TORSDOF 13
ENDMDL
MODEL 6
REMARK VINA RESULT:    -3.686      1.431      4.554
REMARK INTER + INTRA:          -8.454
REMARK INTER:                  -6.714
REMARK INTRA:                  -1.740
REMARK UNBOUND:                -1.966
REMARK SMILES CCCCCCCCCCCCCCC(=O)[O-]
REMARK SMILES IDX 9 1 10 2 11 3 12 4 13 5 14 6 15 7 16 8 17 9 8 10 7 11 6 12
REMARK SMILES IDX 5 13 4 14 3 15 2 16 1 17
REMARK H PARENT
REMARK Flexibility Score: inf
ROOT
ATOM      1  C   UNL     1       4.868   5.460  -4.794  1.00  0.00     0.000 C 
ENDROOT
BRANCH   1   2
ATOM      2  C   UNL     1       6.177   4.656  -4.701  1.00  0.00     0.000 C 
BRANCH   2   3
ATOM      3  C   UNL     1       6.424   3.676  -5.866  1.00  0.00     0.000 C 
BRANCH   3   4
ATOM      4  C   UNL     1       6.114   2.198  -5.556  1.00  0.00     0.000 C 
BRANCH   4   5
ATOM      5  C   UNL     1       6.461   1.746  -4.123  1.00  0.00     0.006 C 
BRANCH   5   6
ATOM      6  C   UNL     1       5.417   0.820  -3.480  1.00  0.00     0.053 C 
BRANCH   6   7
ATOM      7  C   UNL     1       5.438  -0.553  -4.079  1.00  0.00     0.041 C 
ATOM      8  O   UNL     1       6.525  -1.056  -4.468  1.00  0.00    -0.550 OA
ATOM      9  O   UNL     1       4.255  -1.262  -4.238  1.00  0.00    -0.550 OA
ENDBRANCH   6   7
ENDBRANCH   5   6
ENDBRANCH   4   5
ENDBRANCH   3   4
ENDBRANCH   2   3
ENDBRANCH   1   2
BRANCH   1  10
ATOM     10  C   UNL     1       3.908   5.172  -3.630  1.00  0.00     0.000 C 
BRANCH  10  11
ATOM     11  C   UNL     1       3.314   3.760  -3.745  1.00  0.00    -0.000 C 
BRANCH  11  12
ATOM     12  C   UNL     1       2.666   3.501  -5.115  1.00  0.00    -0.000 C 
BRANCH  12  13
ATOM     13  C   UNL     1       2.380   2.009  -5.361  1.00  0.00    -0.000 C 
BRANCH  13  14
ATOM     14  C   UNL     1       1.534   1.378  -4.244  1.00  0.00    -0.000 C 
BRANCH  14  15
ATOM     15  C   UNL     1       0.126   0.988  -4.717  1.00  0.00    -0.000 C 
BRANCH  15  16
ATOM     16  C   UNL     1      -0.277  -0.384  -4.167  1.00  0.00    -0.003 C 
ATOM     17  C   UNL     1       0.701  -1.467  -4.614  1.00  0.00     0.004 C 
ENDBRANCH  15  16
ENDBRANCH  14  15
ENDBRANCH  13  14
ENDBRANCH  12  13
ENDBRANCH  11  12
ENDBRANCH  10  11
ENDBRANCH   1  10
TORSDOF 13
ENDMDL
MODEL 7
REMARK VINA RESULT:    -3.680      0.985      2.057
REMARK INTER + INTRA:          -8.442
REMARK INTER:                  -6.048
REMARK INTRA:                  -2.394
REMARK UNBOUND:                -1.966
REMARK SMILES CCCCCCCCCCCCCCC(=O)[O-]
REMARK SMILES IDX 9 1 10 2 11 3 12 4 13 5 14 6 15 7 16 8 17 9 8 10 7 11 6 12
REMARK SMILES IDX 5 13 4 14 3 15 2 16 1 17
REMARK H PARENT
REMARK Flexibility Score: inf
ROOT
ATOM      1  C   UNL     1       4.533   5.067  -4.475  1.00  0.00     0.000 C 
ENDROOT
BRANCH   1   2
ATOM      2  C   UNL     1       4.283   3.755  -3.709  1.00  0.00     0.000 C 
BRANCH   2   3
ATOM      3  C   UNL     1       2.967   3.033  -4.065  1.00  0.00     0.000 C 
BRANCH   3   4
ATOM      4  C   UNL     1       2.765   2.744  -5.566  1.00  0.00     0.000 C 
BRANCH   4   5
ATOM      5  C   UNL     1       2.490   1.267  -5.914  1.00  0.00     0.006 C 
BRANCH   5   6
ATOM      6  C   UNL     1       1.706   0.498  -4.839  1.00  0.00     0.053 C 
BRANCH   6   7
ATOM      7  C   UNL     1       1.689  -0.977  -5.103  1.00  0.00     0.041 C 
ATOM      8  O   UNL     1       1.270  -1.417  -6.206  1.00  0.00    -0.550 OA
ATOM      9  O   UNL     1       2.103  -1.865  -4.119  1.00  0.00    -0.550 OA
ENDBRANCH   6   7
ENDBRANCH   5   6
ENDBRANCH   4   5
ENDBRANCH   3   4
ENDBRANCH   2   3
ENDBRANCH   1   2
BRANCH   1  10
ATOM     10  C   UNL     1       5.914   5.112  -5.144  1.00  0.00     0.000 C 
BRANCH  10  11
ATOM     11  C   UNL     1       6.593   3.735  -5.093  1.00  0.00    -0.000 C 
BRANCH  11  12
ATOM     12  C   UNL     1       6.596   3.026  -6.458  1.00  0.00    -0.000 C 
BRANCH  12  13
ATOM     13  C   UNL     1       6.110   1.569  -6.369  1.00  0.00    -0.000 C 
BRANCH  13  14
ATOM     14  C   UNL     1       6.344   0.953  -4.980  1.00  0.00    -0.000 C 
BRANCH  14  15
ATOM     15  C   UNL     1       5.461  -0.278  -4.723  1.00  0.00    -0.000 C 
BRANCH  15  16
ATOM     16  C   UNL     1       5.052  -0.361  -3.248  1.00  0.00    -0.003 C 
ATOM     17  C   UNL     1       5.728   0.733  -2.426  1.00  0.00     0.004 C 
ENDBRANCH  15  16
ENDBRANCH  14  15
ENDBRANCH  13  14
ENDBRANCH  12  13
ENDBRANCH  11  12
ENDBRANCH  10  11
ENDBRANCH   1  10
TORSDOF 13
ENDMDL
MODEL 8
REMARK VINA RESULT:    -3.674      1.446      1.808
REMARK INTER + INTRA:          -8.433
REMARK INTER:                  -6.486
REMARK INTRA:                  -1.948
REMARK UNBOUND:                -1.966
REMARK SMILES CCCCCCCCCCCCCCC(=O)[O-]
REMARK SMILES IDX 9 1 10 2 11 3 12 4 13 5 14 6 15 7 16 8 17 9 8 10 7 11 6 12
REMARK SMILES IDX 5 13 4 14 3 15 2 16 1 17
REMARK H PARENT
REMARK Flexibility Score: inf
ROOT
ATOM      1  C   UNL     1       3.198   3.674  -3.687  1.00  0.00     0.000 C 
ENDROOT
BRANCH   1   2
ATOM      2  C   UNL     1       2.589   2.348  -4.176  1.00  0.00     0.000 C 
BRANCH   2   3
ATOM      3  C   UNL     1       2.735   2.082  -5.688  1.00  0.00     0.000 C 
BRANCH   3   4
ATOM      4  C   UNL     1       2.237   0.701  -6.161  1.00  0.00     0.000 C 
BRANCH   4   5
ATOM      5  C   UNL     1       2.130  -0.368  -5.055  1.00  0.00     0.006 C 
BRANCH   5   6
ATOM      6  C   UNL     1       0.793  -1.123  -5.030  1.00  0.00     0.053 C 
BRANCH   6   7
ATOM      7  C   UNL     1      -0.177  -0.519  -4.061  1.00  0.00     0.041 C 
ATOM      8  O   UNL     1      -0.592   0.657  -4.233  1.00  0.00    -0.550 OA
ATOM      9  O   UNL     1      -0.594  -1.242  -2.952  1.00  0.00    -0.550 OA
ENDBRANCH   6   7
ENDBRANCH   5   6
ENDBRANCH   4   5
ENDBRANCH   3   4
ENDBRANCH   2   3
ENDBRANCH   1   2
BRANCH   1  10
ATOM     10  C   UNL     1       3.836   4.491  -4.820  1.00  0.00     0.000 C 
BRANCH  10  11
ATOM     11  C   UNL     1       4.922   5.430  -4.275  1.00  0.00    -0.000 C 
BRANCH  11  12
ATOM     12  C   UNL     1       6.296   5.184  -4.922  1.00  0.00    -0.000 C 
BRANCH  12  13
ATOM     13  C   UNL     1       6.416   3.779  -5.538  1.00  0.00    -0.000 C 
BRANCH  13  14
ATOM     14  C   UNL     1       7.034   2.760  -4.568  1.00  0.00    -0.000 C 
BRANCH  14  15
ATOM     15  C   UNL     1       6.233   1.451  -4.496  1.00  0.00    -0.000 C 
BRANCH  15  16
ATOM     16  C   UNL     1       5.843   1.125  -3.051  1.00  0.00    -0.003 C 
ATOM     17  C   UNL     1       5.136  -0.224  -2.960  1.00  0.00     0.004 C 
ENDBRANCH  15  16
ENDBRANCH  14  15
ENDBRANCH  13  14
ENDBRANCH  12  13
ENDBRANCH  11  12
ENDBRANCH  10  11
ENDBRANCH   1  10
TORSDOF 13
ENDMDL
MODEL 9
REMARK VINA RESULT:    -3.570      1.817      5.038
REMARK INTER + INTRA:          -8.249
REMARK INTER:                  -6.752
REMARK INTRA:                  -1.497
REMARK UNBOUND:                -1.966
REMARK SMILES CCCCCCCCCCCCCCC(=O)[O-]
REMARK SMILES IDX 9 1 10 2 11 3 12 4 13 5 14 6 15 7 16 8 17 9 8 10 7 11 6 12
REMARK SMILES IDX 5 13 4 14 3 15 2 16 1 17
REMARK H PARENT
REMARK Flexibility Score: inf
ROOT
ATOM      1  C   UNL     1       2.842   2.974  -5.419  1.00  0.00     0.000 C 
ENDROOT
BRANCH   1   2
ATOM      2  C   UNL     1       3.362   3.815  -4.239  1.00  0.00     0.000 C 
BRANCH   2   3
ATOM      3  C   UNL     1       4.896   3.839  -4.082  1.00  0.00     0.000 C 
BRANCH   3   4
ATOM      4  C   UNL     1       5.621   2.556  -4.536  1.00  0.00     0.000 C 
BRANCH   4   5
ATOM      5  C   UNL     1       5.798   1.486  -3.440  1.00  0.00     0.006 C 
BRANCH   5   6
ATOM      6  C   UNL     1       4.787   0.331  -3.511  1.00  0.00     0.053 C 
BRANCH   6   7
ATOM      7  C   UNL     1       5.402  -0.922  -4.055  1.00  0.00     0.041 C 
ATOM      8  O   UNL     1       6.579  -0.906  -4.503  1.00  0.00    -0.550 OA
ATOM      9  O   UNL     1       4.665  -2.097  -4.100  1.00  0.00    -0.550 OA
ENDBRANCH   6   7
ENDBRANCH   5   6
ENDBRANCH   4   5
ENDBRANCH   3   4
ENDBRANCH   2   3
ENDBRANCH   1   2
BRANCH   1  10
ATOM     10  C   UNL     1       1.782   1.947  -4.997  1.00  0.00     0.000 C 
BRANCH  10  11
ATOM     11  C   UNL     1       0.572   1.986  -5.944  1.00  0.00    -0.000 C 
BRANCH  11  12
ATOM     12  C   UNL     1       0.655   0.925  -7.053  1.00  0.00    -0.000 C 
BRANCH  12  13
ATOM     13  C   UNL     1       1.469  -0.311  -6.630  1.00  0.00    -0.000 C 
BRANCH  13  14
ATOM     14  C   UNL     1       0.595  -1.403  -5.994  1.00  0.00    -0.000 C 
BRANCH  14  15
ATOM     15  C   UNL     1       1.149  -1.895  -4.649  1.00  0.00    -0.000 C 
BRANCH  15  16
ATOM     16  C   UNL     1       0.064  -1.871  -3.567  1.00  0.00    -0.003 C 
ATOM     17  C   UNL     1      -0.746  -0.578  -3.626  1.00  0.00     0.004 C 
ENDBRANCH  15  16
ENDBRANCH  14  15
ENDBRANCH  13  14
ENDBRANCH  12  13
ENDBRANCH  11  12
ENDBRANCH  10  11
ENDBRANCH   1  10
TORSDOF 13
ENDMDL
