MODEL 1
REMARK VINA RESULT:    -4.674      0.000      0.000
REMARK INTER + INTRA:          -9.534
REMARK INTER:                  -8.225
REMARK INTRA:                  -1.309
REMARK UNBOUND:                -1.309
REMARK SMILES CCCCCCC=CCCCCCCCC(=O)[O-]
REMARK SMILES IDX 10 1 11 2 12 3 13 4 14 5 15 6 16 7 17 8 18 9 9 10 8 11 7 12
REMARK SMILES IDX 6 13 5 14 4 15 3 16 2 17 1 18
REMARK H PARENT
REMARK Flexibility Score: inf
ROOT
ATOM      1  C   UNL     1       9.830   4.161  19.928  1.00  0.00     0.004 C 
ENDROOT
BRANCH   1   2
ATOM      2  C   UNL     1       8.994   2.907  20.241  1.00  0.00     0.000 C 
BRANCH   2   3
ATOM      3  C   UNL     1       7.961   3.149  21.352  1.00  0.00     0.000 C 
BRANCH   3   4
ATOM      4  C   UNL     1       6.514   3.003  20.855  1.00  0.00     0.000 C 
BRANCH   4   5
ATOM      5  C   UNL     1       6.437   3.175  19.331  1.00  0.00     0.006 C 
BRANCH   5   6
ATOM      6  C   UNL     1       5.742   1.990  18.648  1.00  0.00     0.053 C 
BRANCH   6   7
ATOM      7  C   UNL     1       6.495   1.526  17.439  1.00  0.00     0.041 C 
ATOM      8  O   UNL     1       6.116   0.505  16.808  1.00  0.00    -0.550 OA
ATOM      9  O   UNL     1       7.636   2.204  17.030  1.00  0.00    -0.550 OA
ENDBRANCH   6   7
ENDBRANCH   5   6
ENDBRANCH   4   5
ENDBRANCH   3   4
ENDBRANCH   2   3
ENDBRANCH   1   2
BRANCH   1  10
ATOM     10  C   UNL     1       9.626   5.265  20.977  1.00  0.00     0.027 C 
BRANCH  10  11
ATOM     11  C   UNL     1       9.184   6.565  20.359  1.00  0.00    -0.031 C 
ATOM     12  C   UNL     1       7.889   6.909  20.293  1.00  0.00    -0.031 C 
BRANCH  12  13
ATOM     13  C   UNL     1       7.448   8.202  19.665  1.00  0.00     0.027 C 
BRANCH  13  14
ATOM     14  C   UNL     1       8.591   8.857  18.880  1.00  0.00     0.004 C 
BRANCH  14  15
ATOM     15  C   UNL     1       8.044   9.748  17.755  1.00  0.00     0.000 C 
BRANCH  15  16
ATOM     16  C   UNL     1       8.802   9.565  16.432  1.00  0.00    -0.000 C 
BRANCH  16  17
ATOM     17  C   UNL     1       7.865   9.282  15.248  1.00  0.00    -0.003 C 
ATOM     18  C   UNL     1       6.415   9.167  15.710  1.00  0.00     0.004 C 
ENDBRANCH  16  17
ENDBRANCH  15  16
ENDBRANCH  14  15
ENDBRANCH  13  14
ENDBRANCH  12  13
ENDBRANCH  10  11
ENDBRANCH   1  10
TORSDOF 13
ENDMDL
MODEL 2
REMARK VINA RESULT:    -4.592      2.705      6.579
REMARK INTER + INTRA:          -9.390
REMARK INTER:                  -7.948
REMARK INTRA:                  -1.442
REMARK UNBOUND:                -1.309
REMARK SMILES CCCCCCC=CCCCCCCCC(=O)[O-]
REMARK SMILES IDX 10 1 11 2 12 3 13 4 14 5 15 6 16 7 17 8 18 9 9 10 8 11 7 12
REMARK SMILES IDX 6 13 5 14 4 15 3 16 2 17 1 18
REMARK H PARENT
REMARK Flexibility Score: inf
ROOT
ATOM      1  C   UNL     1       6.560   8.197  19.520  1.00  0.00     0.004 C 
ENDROOT
BRANCH   1   2
ATOM      2  C   UNL     1       7.106   9.635  19.469  1.00  0.00     0.000 C 
BRANCH   2   3
ATOM      3  C   UNL     1       8.599   9.687  19.109  1.00  0.00     0.000 C 
BRANCH   3   4
ATOM      4  C   UNL     1       8.916   8.959  17.793  1.00  0.00     0.000 C 
BRANCH   4   5
ATOM      5  C   UNL     1       8.688   9.883  16.587  1.00  0.00     0.006 C 
BRANCH   5   6
ATOM      6  C   UNL     1       7.804   9.231  15.515  1.00  0.00     0.053 C 
BRANCH   6   7
ATOM      7  C   UNL     1       6.347   9.398  15.820  1.00  0.00     0.041 C 
ATOM      8  O   UNL     1       5.910  10.498  16.247  1.00  0.00    -0.550 OA
ATOM      9  O   UNL     1       5.478   8.326  15.663  1.00  0.00    -0.550 OA
ENDBRANCH   6   7
ENDBRANCH   5   6
ENDBRANCH   4   5
ENDBRANCH   3   4
ENDBRANCH   2   3
ENDBRANCH   1   2
BRANCH   1  10
ATOM     10  C   UNL     1       6.788   7.543  20.892  1.00  0.00     0.027 C 
BRANCH  10  11
ATOM     11  C   UNL     1       7.627   6.296  20.798  1.00  0.00    -0.031 C 
ATOM     12  C   UNL     1       8.965   6.341  20.873  1.00  0.00    -0.031 C 
BRANCH  12  13
ATOM     13  C   UNL     1       9.802   5.096  20.767  1.00  0.00     0.027 C 
BRANCH  13  14
ATOM     14  C   UNL     1       9.533   4.356  19.450  1.00  0.00     0.004 C 
BRANCH  14  15
ATOM     15  C   UNL     1       8.876   2.992  19.711  1.00  0.00     0.000 C 
BRANCH  15  16
ATOM     16  C   UNL     1       8.078   2.479  18.503  1.00  0.00    -0.000 C 
BRANCH  16  17
ATOM     17  C   UNL     1       6.569   2.403  18.781  1.00  0.00    -0.003 C 
ATOM     18  C   UNL     1       5.768   2.470  17.484  1.00  0.00     0.004 C 
ENDBRANCH  16  17
ENDBRANCH  15  16
ENDBRANCH  14  15
ENDBRANCH  13  14
ENDBRANCH  12  13
ENDBRANCH  10  11
ENDBRANCH   1  10
TORSDOF 13
ENDMDL
MODEL 3
REMARK VINA RESULT:    -4.509      5.167      8.435
REMARK INTER + INTRA:          -9.245
REMARK INTER:                  -8.092
REMARK INTRA:                  -1.152
REMARK UNBOUND:                -1.309
REMARK SMILES CCCCCCC=CCCCCCCCC(=O)[O-]
REMARK SMILES IDX 10 1 11 2 12 3 13 4 14 5 15 6 16 7 17 8 18 9 9 10 8 11 7 12
REMARK SMILES IDX 6 13 5 14 4 15 3 16 2 17 1 18
REMARK H PARENT
REMARK Flexibility Score: inf
ROOT
ATOM      1  C   UNL     1       7.551   9.782  14.105  1.00  0.00     0.004 C 
ENDROOT
BRANCH   1   2
ATOM      2  C   UNL     1       7.593   9.152  15.508  1.00  0.00     0.000 C 
BRANCH   2   3
ATOM      3  C   UNL     1       8.210  10.089  16.558  1.00  0.00     0.000 C 
BRANCH   3   4
ATOM      4  C   UNL     1       9.271   9.391  17.423  1.00  0.00     0.000 C 
BRANCH   4   5
ATOM      5  C   UNL     1       8.619   8.642  18.594  1.00  0.00     0.006 C 
BRANCH   5   6
ATOM      6  C   UNL     1       7.682   9.543  19.410  1.00  0.00     0.053 C 
BRANCH   6   7
ATOM      7  C   UNL     1       8.123   9.656  20.836  1.00  0.00     0.041 C 
ATOM      8  O   UNL     1       7.798   8.774  21.673  1.00  0.00    -0.550 OA
ATOM      9  O   UNL     1       8.866  10.755  21.248  1.00  0.00    -0.550 OA
ENDBRANCH   6   7
ENDBRANCH   5   6
ENDBRANCH   4   5
ENDBRANCH   3   4
ENDBRANCH   2   3
ENDBRANCH   1   2
BRANCH   1  10
ATOM     10  C   UNL     1       7.509  11.317  14.164  1.00  0.00     0.027 C 
BRANCH  10  11
ATOM     11  C   UNL     1       7.579  11.944  12.797  1.00  0.00    -0.031 C 
ATOM     12  C   UNL     1       7.983  11.248  11.724  1.00  0.00    -0.031 C 
BRANCH  12  13
ATOM     13  C   UNL     1       8.064  11.879  10.361  1.00  0.00     0.027 C 
BRANCH  13  14
ATOM     14  C   UNL     1       6.984  11.323   9.425  1.00  0.00     0.004 C 
BRANCH  14  15
ATOM     15  C   UNL     1       6.783   9.817   9.653  1.00  0.00     0.000 C 
BRANCH  15  16
ATOM     16  C   UNL     1       7.821   8.961   8.913  1.00  0.00    -0.000 C 
BRANCH  16  17
ATOM     17  C   UNL     1       8.186   7.680   9.679  1.00  0.00    -0.003 C 
ATOM     18  C   UNL     1       7.513   7.648  11.048  1.00  0.00     0.004 C 
ENDBRANCH  16  17
ENDBRANCH  15  16
ENDBRANCH  14  15
ENDBRANCH  13  14
ENDBRANCH  12  13
ENDBRANCH  10  11
ENDBRANCH   1  10
TORSDOF 13
ENDMDL
MODEL 4
REMARK VINA RESULT:    -4.412      4.991      7.891
REMARK INTER + INTRA:          -9.074
REMARK INTER:                  -7.798
REMARK INTRA:                  -1.275
REMARK UNBOUND:                -1.309
REMARK SMILES CCCCCCC=CCCCCCCCC(=O)[O-]
REMARK SMILES IDX 10 1 11 2 12 3 13 4 14 5 15 6 16 7 17 8 18 9 9 10 8 11 7 12
REMARK SMILES IDX 6 13 5 14 4 15 3 16 2 17 1 18
REMARK H PARENT
REMARK Flexibility Score: inf
ROOT
ATOM      1  C   UNL     1       7.409   9.222  14.786  1.00  0.00     0.004 C 
ENDROOT
BRANCH   1   2
ATOM      2  C   UNL     1       6.077   8.827  15.447  1.00  0.00     0.000 C 
BRANCH   2   3
ATOM      3  C   UNL     1       5.656   9.805  16.555  1.00  0.00     0.000 C 
BRANCH   3   4
ATOM      4  C   UNL     1       5.298   9.092  17.868  1.00  0.00     0.000 C 
BRANCH   4   5
ATOM      5  C   UNL     1       6.220   9.548  19.009  1.00  0.00     0.006 C 
BRANCH   5   6
ATOM      6  C   UNL     1       7.595   9.997  18.500  1.00  0.00     0.053 C 
BRANCH   6   7
ATOM      7  C   UNL     1       8.640   8.946  18.718  1.00  0.00     0.041 C 
ATOM      8  O   UNL     1       9.737   9.004  18.105  1.00  0.00    -0.550 OA
ATOM      9  O   UNL     1       8.386   7.883  19.575  1.00  0.00    -0.550 OA
ENDBRANCH   6   7
ENDBRANCH   5   6
ENDBRANCH   4   5
ENDBRANCH   3   4
ENDBRANCH   2   3
ENDBRANCH   1   2
BRANCH   1  10
ATOM     10  C   UNL     1       7.686  10.729  14.902  1.00  0.00     0.027 C 
BRANCH  10  11
ATOM     11  C   UNL     1       7.489  11.449  13.595  1.00  0.00    -0.031 C 
ATOM     12  C   UNL     1       7.978  10.964  12.444  1.00  0.00    -0.031 C 
BRANCH  12  13
ATOM     13  C   UNL     1       7.791  11.691  11.141  1.00  0.00     0.027 C 
BRANCH  13  14
ATOM     14  C   UNL     1       6.929  10.876  10.168  1.00  0.00     0.004 C 
BRANCH  14  15
ATOM     15  C   UNL     1       7.805  10.128   9.153  1.00  0.00     0.000 C 
BRANCH  15  16
ATOM     16  C   UNL     1       7.322   8.693   8.896  1.00  0.00    -0.000 C 
BRANCH  16  17
ATOM     17  C   UNL     1       8.080   7.653   9.737  1.00  0.00    -0.003 C 
ATOM     18  C   UNL     1       7.499   7.557  11.144  1.00  0.00     0.004 C 
ENDBRANCH  16  17
ENDBRANCH  15  16
ENDBRANCH  14  15
ENDBRANCH  13  14
ENDBRANCH  12  13
ENDBRANCH  10  11
ENDBRANCH   1  10
TORSDOF 13
ENDMDL
MODEL 5
REMARK VINA RESULT:    -4.386      1.271      2.368
REMARK INTER + INTRA:          -9.029
REMARK INTER:                  -7.315
REMARK INTRA:                  -1.714
REMARK UNBOUND:                -1.309
REMARK SMILES CCCCCCC=CCCCCCCCC(=O)[O-]
REMARK SMILES IDX 10 1 11 2 12 3 13 4 14 5 15 6 16 7 17 8 18 9 9 10 8 11 7 12
REMARK SMILES IDX 6 13 5 14 4 15 3 16 2 17 1 18
REMARK H PARENT
REMARK Flexibility Score: inf
ROOT
ATOM      1  C   UNL     1       8.695   6.873  20.001  1.00  0.00     0.004 C 
ENDROOT
BRANCH   1   2
ATOM      2  C   UNL     1       9.331   5.859  20.968  1.00  0.00     0.000 C 
BRANCH   2   3
ATOM      3  C   UNL     1       8.772   4.439  20.786  1.00  0.00     0.000 C 
BRANCH   3   4
ATOM      4  C   UNL     1       7.238   4.393  20.869  1.00  0.00     0.000 C 
BRANCH   4   5
ATOM      5  C   UNL     1       6.643   3.697  19.636  1.00  0.00     0.006 C 
BRANCH   5   6
ATOM      6  C   UNL     1       7.558   2.591  19.095  1.00  0.00     0.053 C 
BRANCH   6   7
ATOM      7  C   UNL     1       6.973   1.927  17.887  1.00  0.00     0.041 C 
ATOM      8  O   UNL     1       5.910   1.259  17.981  1.00  0.00    -0.550 OA
ATOM      9  O   UNL     1       7.621   2.018  16.662  1.00  0.00    -0.550 OA
ENDBRANCH   6   7
ENDBRANCH   5   6
ENDBRANCH   4   5
ENDBRANCH   3   4
ENDBRANCH   2   3
ENDBRANCH   1   2
BRANCH   1  10
ATOM     10  C   UNL     1       7.928   7.976  20.747  1.00  0.00     0.027 C 
BRANCH  10  11
ATOM     11  C   UNL     1       6.809   8.552  19.921  1.00  0.00    -0.031 C 
ATOM     12  C   UNL     1       5.999   7.770  19.191  1.00  0.00    -0.031 C 
BRANCH  12  13
ATOM     13  C   UNL     1       4.889   8.348  18.357  1.00  0.00     0.027 C 
BRANCH  13  14
ATOM     14  C   UNL     1       5.409   9.446  17.422  1.00  0.00     0.004 C 
BRANCH  14  15
ATOM     15  C   UNL     1       5.666   8.892  16.013  1.00  0.00     0.000 C 
BRANCH  15  16
ATOM     16  C   UNL     1       7.078   9.208  15.499  1.00  0.00    -0.000 C 
BRANCH  16  17
ATOM     17  C   UNL     1       7.887  10.068  16.482  1.00  0.00    -0.003 C 
ATOM     18  C   UNL     1       9.045   9.276  17.080  1.00  0.00     0.004 C 
ENDBRANCH  16  17
ENDBRANCH  15  16
ENDBRANCH  14  15
ENDBRANCH  13  14
ENDBRANCH  12  13
ENDBRANCH  10  11
ENDBRANCH   1  10
TORSDOF 13
ENDMDL
MODEL 6
REMARK VINA RESULT:    -4.382      2.545      3.850
REMARK INTER + INTRA:          -9.020
REMARK INTER:                  -7.460
REMARK INTRA:                  -1.560
REMARK UNBOUND:                -1.309
REMARK SMILES CCCCCCC=CCCCCCCCC(=O)[O-]
REMARK SMILES IDX 10 1 11 2 12 3 13 4 14 5 15 6 16 7 17 8 18 9 9 10 8 11 7 12
REMARK SMILES IDX 6 13 5 14 4 15 3 16 2 17 1 18
REMARK H PARENT
REMARK Flexibility Score: inf
ROOT
ATOM      1  C   UNL     1       8.347   7.343  20.011  1.00  0.00     0.004 C 
ENDROOT
BRANCH   1   2
ATOM      2  C   UNL     1       7.026   6.601  20.284  1.00  0.00     0.000 C 
BRANCH   2   3
ATOM      3  C   UNL     1       7.232   5.306  21.084  1.00  0.00     0.000 C 
BRANCH   3   4
ATOM      4  C   UNL     1       6.938   4.046  20.255  1.00  0.00     0.000 C 
BRANCH   4   5
ATOM      5  C   UNL     1       8.216   3.515  19.590  1.00  0.00     0.006 C 
BRANCH   5   6
ATOM      6  C   UNL     1       9.046   2.642  20.541  1.00  0.00     0.053 C 
BRANCH   6   7
ATOM      7  C   UNL     1      10.349   3.289  20.896  1.00  0.00     0.041 C 
ATOM      8  O   UNL     1      11.238   2.637  21.501  1.00  0.00    -0.550 OA
ATOM      9  O   UNL     1      10.567   4.626  20.586  1.00  0.00    -0.550 OA
ENDBRANCH   6   7
ENDBRANCH   5   6
ENDBRANCH   4   5
ENDBRANCH   3   4
ENDBRANCH   2   3
ENDBRANCH   1   2
BRANCH   1  10
ATOM     10  C   UNL     1       8.182   8.867  20.106  1.00  0.00     0.027 C 
BRANCH  10  11
ATOM     11  C   UNL     1       8.268   9.537  18.760  1.00  0.00    -0.031 C 
ATOM     12  C   UNL     1       8.908   8.965  17.729  1.00  0.00    -0.031 C 
BRANCH  12  13
ATOM     13  C   UNL     1       9.004   9.641  16.389  1.00  0.00     0.027 C 
BRANCH  13  14
ATOM     14  C   UNL     1       7.888   9.170  15.448  1.00  0.00     0.004 C 
BRANCH  14  15
ATOM     15  C   UNL     1       6.854  10.282  15.222  1.00  0.00     0.000 C 
BRANCH  15  16
ATOM     16  C   UNL     1       5.566  10.069  16.032  1.00  0.00    -0.000 C 
BRANCH  16  17
ATOM     17  C   UNL     1       5.258   8.583  16.271  1.00  0.00    -0.003 C 
ATOM     18  C   UNL     1       4.875   8.329  17.726  1.00  0.00     0.004 C 
ENDBRANCH  16  17
ENDBRANCH  15  16
ENDBRANCH  14  15
ENDBRANCH  13  14
ENDBRANCH  12  13
ENDBRANCH  10  11
ENDBRANCH   1  10
TORSDOF 13
ENDMDL
MODEL 7
REMARK VINA RESULT:    -4.346      1.182      1.930
REMARK INTER + INTRA:          -8.957
REMARK INTER:                  -7.434
REMARK INTRA:                  -1.524
REMARK UNBOUND:                -1.309
REMARK SMILES CCCCCCC=CCCCCCCCC(=O)[O-]
REMARK SMILES IDX 10 1 11 2 12 3 13 4 14 5 15 6 16 7 17 8 18 9 9 10 8 11 7 12
REMARK SMILES IDX 6 13 5 14 4 15 3 16 2 17 1 18
REMARK H PARENT
REMARK Flexibility Score: inf
ROOT
ATOM      1  C   UNL     1       6.621   5.680  21.714  1.00  0.00     0.004 C 
ENDROOT
BRANCH   1   2
ATOM      2  C   UNL     1       7.407   4.357  21.698  1.00  0.00     0.000 C 
BRANCH   2   3
ATOM      3  C   UNL     1       8.560   4.368  20.682  1.00  0.00     0.000 C 
BRANCH   3   4
ATOM      4  C   UNL     1       8.593   3.102  19.812  1.00  0.00     0.000 C 
BRANCH   4   5
ATOM      5  C   UNL     1       7.203   2.455  19.731  1.00  0.00     0.006 C 
BRANCH   5   6
ATOM      6  C   UNL     1       6.474   2.806  18.427  1.00  0.00     0.053 C 
BRANCH   6   7
ATOM      7  C   UNL     1       6.818   1.854  17.324  1.00  0.00     0.041 C 
ATOM      8  O   UNL     1       6.144   0.804  17.157  1.00  0.00    -0.550 OA
ATOM      9  O   UNL     1       7.907   2.109  16.500  1.00  0.00    -0.550 OA
ENDBRANCH   6   7
ENDBRANCH   5   6
ENDBRANCH   4   5
ENDBRANCH   3   4
ENDBRANCH   2   3
ENDBRANCH   1   2
BRANCH   1  10
ATOM     10  C   UNL     1       5.968   5.979  20.356  1.00  0.00     0.027 C 
BRANCH  10  11
ATOM     11  C   UNL     1       6.076   7.432  19.977  1.00  0.00    -0.031 C 
ATOM     12  C   UNL     1       7.264   8.045  19.869  1.00  0.00    -0.031 C 
BRANCH  12  13
ATOM     13  C   UNL     1       7.369   9.500  19.502  1.00  0.00     0.027 C 
BRANCH  13  14
ATOM     14  C   UNL     1       8.560   9.753  18.569  1.00  0.00     0.004 C 
BRANCH  14  15
ATOM     15  C   UNL     1       8.089  10.309  17.217  1.00  0.00     0.000 C 
BRANCH  15  16
ATOM     16  C   UNL     1       8.022   9.231  16.125  1.00  0.00    -0.000 C 
BRANCH  16  17
ATOM     17  C   UNL     1       6.673   9.216  15.390  1.00  0.00    -0.003 C 
ATOM     18  C   UNL     1       5.553   8.734  16.308  1.00  0.00     0.004 C 
ENDBRANCH  16  17
ENDBRANCH  15  16
ENDBRANCH  14  15
ENDBRANCH  13  14
ENDBRANCH  12  13
ENDBRANCH  10  11
ENDBRANCH   1  10
TORSDOF 13
ENDMDL
MODEL 8
REMARK VINA RESULT:    -4.300      9.876     13.625
REMARK INTER + INTRA:          -8.877
REMARK INTER:                  -7.320
REMARK INTRA:                  -1.557
REMARK UNBOUND:                -1.309
REMARK SMILES CCCCCCC=CCCCCCCCC(=O)[O-]
REMARK SMILES IDX 10 1 11 2 12 3 13 4 14 5 15 6 16 7 17 8 18 9 9 10 8 11 7 12
REMARK SMILES IDX 6 13 5 14 4 15 3 16 2 17 1 18
REMARK H PARENT
REMARK Flexibility Score: inf
ROOT
ATOM      1  C   UNL     1      14.255   6.596   5.483  1.00  0.00     0.004 C 
ENDROOT
BRANCH   1   2
ATOM      2  C   UNL     1      14.593   8.003   6.008  1.00  0.00     0.000 C 
BRANCH   2   3
ATOM      3  C   UNL     1      15.030   7.994   7.481  1.00  0.00     0.000 C 
BRANCH   3   4
ATOM      4  C   UNL     1      14.048   8.745   8.393  1.00  0.00     0.000 C 
BRANCH   4   5
ATOM      5  C   UNL     1      13.842  10.187   7.908  1.00  0.00     0.006 C 
BRANCH   5   6
ATOM      6  C   UNL     1      13.918  11.203   9.055  1.00  0.00     0.053 C 
BRANCH   6   7
ATOM      7  C   UNL     1      15.212  11.101   9.803  1.00  0.00     0.041 C 
ATOM      8  O   UNL     1      15.223  10.733  11.006  1.00  0.00    -0.550 OA
ATOM      9  O   UNL     1      16.404  11.446   9.178  1.00  0.00    -0.550 OA
ENDBRANCH   6   7
ENDBRANCH   5   6
ENDBRANCH   4   5
ENDBRANCH   3   4
ENDBRANCH   2   3
ENDBRANCH   1   2
BRANCH   1  10
ATOM     10  C   UNL     1      12.856   6.138   5.925  1.00  0.00     0.027 C 
BRANCH  10  11
ATOM     11  C   UNL     1      11.811   7.200   5.707  1.00  0.00    -0.031 C 
ATOM     12  C   UNL     1      10.974   7.575   6.685  1.00  0.00    -0.031 C 
BRANCH  12  13
ATOM     13  C   UNL     1       9.923   8.628   6.462  1.00  0.00     0.027 C 
BRANCH  13  14
ATOM     14  C   UNL     1       9.718   9.483   7.718  1.00  0.00     0.004 C 
BRANCH  14  15
ATOM     15  C   UNL     1       8.224   9.639   8.038  1.00  0.00     0.000 C 
BRANCH  15  16
ATOM     16  C   UNL     1       7.528   8.293   8.292  1.00  0.00    -0.000 C 
BRANCH  16  17
ATOM     17  C   UNL     1       8.055   7.582   9.548  1.00  0.00    -0.003 C 
ATOM     18  C   UNL     1       7.566   8.275  10.817  1.00  0.00     0.004 C 
ENDBRANCH  16  17
ENDBRANCH  15  16
ENDBRANCH  14  15
ENDBRANCH  13  14
ENDBRANCH  12  13
ENDBRANCH  10  11
ENDBRANCH   1  10
TORSDOF 13
ENDMDL
MODEL 9
REMARK VINA RESULT:    -4.245      2.368      4.235
REMARK INTER + INTRA:          -8.779
REMARK INTER:                  -7.169
REMARK INTRA:                  -1.610
REMARK UNBOUND:                -1.309
REMARK SMILES CCCCCCC=CCCCCCCCC(=O)[O-]
REMARK SMILES IDX 10 1 11 2 12 3 13 4 14 5 15 6 16 7 17 8 18 9 9 10 8 11 7 12
REMARK SMILES IDX 6 13 5 14 4 15 3 16 2 17 1 18
REMARK H PARENT
REMARK Flexibility Score: inf
ROOT
ATOM      1  C   UNL     1       5.906   6.834  19.839  1.00  0.00     0.004 C 
ENDROOT
BRANCH   1   2
ATOM      2  C   UNL     1       6.965   7.075  20.930  1.00  0.00     0.000 C 
BRANCH   2   3
ATOM      3  C   UNL     1       8.329   6.465  20.572  1.00  0.00     0.000 C 
BRANCH   3   4
ATOM      4  C   UNL     1       9.119   6.016  21.811  1.00  0.00     0.000 C 
BRANCH   4   5
ATOM      5  C   UNL     1      10.175   4.966  21.437  1.00  0.00     0.006 C 
BRANCH   5   6
ATOM      6  C   UNL     1       9.882   4.302  20.086  1.00  0.00     0.053 C 
BRANCH   6   7
ATOM      7  C   UNL     1       9.696   2.822  20.222  1.00  0.00     0.041 C 
ATOM      8  O   UNL     1       8.773   2.238  19.597  1.00  0.00    -0.550 OA
ATOM      9  O   UNL     1      10.522   2.093  21.067  1.00  0.00    -0.550 OA
ENDBRANCH   6   7
ENDBRANCH   5   6
ENDBRANCH   4   5
ENDBRANCH   3   4
ENDBRANCH   2   3
ENDBRANCH   1   2
BRANCH   1  10
ATOM     10  C   UNL     1       5.193   8.134  19.432  1.00  0.00     0.027 C 
BRANCH  10  11
ATOM     11  C   UNL     1       5.227   8.362  17.944  1.00  0.00    -0.031 C 
ATOM     12  C   UNL     1       5.327   9.594  17.424  1.00  0.00    -0.031 C 
BRANCH  12  13
ATOM     13  C   UNL     1       5.348   9.822  15.937  1.00  0.00     0.027 C 
BRANCH  13  14
ATOM     14  C   UNL     1       6.772   9.714  15.379  1.00  0.00     0.004 C 
BRANCH  14  15
ATOM     15  C   UNL     1       7.788  10.354  16.336  1.00  0.00     0.000 C 
BRANCH  15  16
ATOM     16  C   UNL     1       9.048   9.496  16.525  1.00  0.00    -0.000 C 
BRANCH  16  17
ATOM     17  C   UNL     1       9.109   8.830  17.908  1.00  0.00    -0.003 C 
ATOM     18  C   UNL     1       8.610   9.777  18.996  1.00  0.00     0.004 C 
ENDBRANCH  16  17
ENDBRANCH  15  16
ENDBRANCH  14  15
ENDBRANCH  13  14
ENDBRANCH  12  13
ENDBRANCH  10  11
ENDBRANCH   1  10
TORSDOF 13
ENDMDL
