MODEL 1
REMARK VINA RESULT:    -3.660      0.000      0.000
REMARK INTER + INTRA:          -4.350
REMARK INTER:                  -4.302
REMARK INTRA:                  -0.048
REMARK UNBOUND:                -0.048
REMARK SMILES CCCCC(=O)[O-]
REMARK SMILES IDX 4 1 5 2 6 3 7 4 3 5 2 6 1 7
REMARK H PARENT
REMARK Flexibility Score: inf
ROOT
ATOM      1  C   UNL     1     -30.522 -21.205 -24.315  1.00  0.00     0.053 C 
ENDROOT
BRANCH   1   2
ATOM      2  C   UNL     1     -31.316 -21.511 -23.083  1.00  0.00     0.041 C 
ATOM      3  O   UNL     1     -32.315 -20.807 -22.782  1.00  0.00    -0.550 OA
ATOM      4  O   UNL     1     -30.981 -22.605 -22.296  1.00  0.00    -0.550 OA
ENDBRANCH   1   2
BRANCH   1   5
ATOM      5  C   UNL     1     -31.309 -20.271 -25.239  1.00  0.00     0.006 C 
BRANCH   5   6
ATOM      6  C   UNL     1     -30.923 -20.500 -26.706  1.00  0.00    -0.003 C 
ATOM      7  C   UNL     1     -30.974 -21.982 -27.064  1.00  0.00     0.004 C 
ENDBRANCH   5   6
ENDBRANCH   1   5
TORSDOF 3
ENDMDL
MODEL 2
REMARK VINA RESULT:    -3.466      1.953      2.562
REMARK INTER + INTRA:          -4.122
REMARK INTER:                  -4.050
REMARK INTRA:                  -0.072
REMARK UNBOUND:                -0.048
REMARK SMILES CCCCC(=O)[O-]
REMARK SMILES IDX 4 1 5 2 6 3 7 4 3 5 2 6 1 7
REMARK H PARENT
REMARK Flexibility Score: inf
ROOT
ATOM      1  C   UNL     1     -30.929 -22.372 -22.284  1.00  0.00     0.053 C 
ENDROOT
BRANCH   1   2
ATOM      2  C   UNL     1     -29.663 -21.952 -21.605  1.00  0.00     0.041 C 
ATOM      3  O   UNL     1     -29.696 -21.115 -20.666  1.00  0.00    -0.550 OA
ATOM      4  O   UNL     1     -28.452 -22.521 -21.979  1.00  0.00    -0.550 OA
ENDBRANCH   1   2
BRANCH   1   5
ATOM      5  C   UNL     1     -31.454 -21.248 -23.181  1.00  0.00     0.006 C 
BRANCH   5   6
ATOM      6  C   UNL     1     -30.630 -21.145 -24.471  1.00  0.00    -0.003 C 
ATOM      7  C   UNL     1     -31.179 -20.059 -25.390  1.00  0.00     0.004 C 
ENDBRANCH   5   6
ENDBRANCH   1   5
TORSDOF 3
ENDMDL
MODEL 3
REMARK VINA RESULT:    -3.450      1.992      2.706
REMARK INTER + INTRA:          -4.103
REMARK INTER:                  -4.047
REMARK INTRA:                  -0.056
REMARK UNBOUND:                -0.048
REMARK SMILES CCCCC(=O)[O-]
REMARK SMILES IDX 4 1 5 2 6 3 7 4 3 5 2 6 1 7
REMARK H PARENT
REMARK Flexibility Score: inf
ROOT
ATOM      1  C   UNL     1     -30.847 -22.345 -22.349  1.00  0.00     0.053 C 
ENDROOT
BRANCH   1   2
ATOM      2  C   UNL     1     -29.564 -21.872 -21.742  1.00  0.00     0.041 C 
ATOM      3  O   UNL     1     -28.464 -22.156 -22.284  1.00  0.00    -0.550 OA
ATOM      4  O   UNL     1     -29.586 -21.075 -20.604  1.00  0.00    -0.550 OA
ENDBRANCH   1   2
BRANCH   1   5
ATOM      5  C   UNL     1     -31.475 -21.240 -23.203  1.00  0.00     0.006 C 
BRANCH   5   6
ATOM      6  C   UNL     1     -30.965 -21.307 -24.648  1.00  0.00    -0.003 C 
ATOM      7  C   UNL     1     -31.168 -19.976 -25.367  1.00  0.00     0.004 C 
ENDBRANCH   5   6
ENDBRANCH   1   5
TORSDOF 3
ENDMDL
MODEL 4
REMARK VINA RESULT:    -3.386      2.227      3.693
REMARK INTER + INTRA:          -4.028
REMARK INTER:                  -3.994
REMARK INTRA:                  -0.034
REMARK UNBOUND:                -0.048
REMARK SMILES CCCCC(=O)[O-]
REMARK SMILES IDX 4 1 5 2 6 3 7 4 3 5 2 6 1 7
REMARK H PARENT
REMARK Flexibility Score: inf
ROOT
ATOM      1  C   UNL     1     -30.679 -21.324 -24.080  1.00  0.00     0.053 C 
ENDROOT
BRANCH   1   2
ATOM      2  C   UNL     1     -31.198 -21.065 -25.459  1.00  0.00     0.041 C 
ATOM      3  O   UNL     1     -31.247 -19.889 -25.907  1.00  0.00    -0.550 OA
ATOM      4  O   UNL     1     -31.584 -22.127 -26.267  1.00  0.00    -0.550 OA
ENDBRANCH   1   2
BRANCH   1   5
ATOM      5  C   UNL     1     -31.774 -21.073 -23.040  1.00  0.00     0.006 C 
BRANCH   5   6
ATOM      6  C   UNL     1     -31.346 -21.584 -21.658  1.00  0.00    -0.003 C 
ATOM      7  C   UNL     1     -30.416 -22.787 -21.780  1.00  0.00     0.004 C 
ENDBRANCH   5   6
ENDBRANCH   1   5
TORSDOF 3
ENDMDL
MODEL 5
REMARK VINA RESULT:    -3.318      2.667      3.644
REMARK INTER + INTRA:          -3.948
REMARK INTER:                  -3.866
REMARK INTRA:                  -0.081
REMARK UNBOUND:                -0.048
REMARK SMILES CCCCC(=O)[O-]
REMARK SMILES IDX 4 1 5 2 6 3 7 4 3 5 2 6 1 7
REMARK H PARENT
REMARK Flexibility Score: inf
ROOT
ATOM      1  C   UNL     1     -30.481 -22.749 -21.889  1.00  0.00     0.053 C 
ENDROOT
BRANCH   1   2
ATOM      2  C   UNL     1     -29.018 -22.674 -21.587  1.00  0.00     0.041 C 
ATOM      3  O   UNL     1     -28.573 -23.121 -20.497  1.00  0.00    -0.550 OA
ATOM      4  O   UNL     1     -28.140 -22.155 -22.529  1.00  0.00    -0.550 OA
ENDBRANCH   1   2
BRANCH   1   5
ATOM      5  C   UNL     1     -31.172 -21.433 -21.520  1.00  0.00     0.006 C 
BRANCH   5   6
ATOM      6  C   UNL     1     -32.049 -20.931 -22.675  1.00  0.00    -0.003 C 
ATOM      7  C   UNL     1     -31.398 -21.217 -24.025  1.00  0.00     0.004 C 
ENDBRANCH   5   6
ENDBRANCH   1   5
TORSDOF 3
ENDMDL
MODEL 6
REMARK VINA RESULT:    -3.311      2.979      4.896
REMARK INTER + INTRA:          -3.939
REMARK INTER:                  -3.924
REMARK INTRA:                  -0.015
REMARK UNBOUND:                -0.048
REMARK SMILES CCCCC(=O)[O-]
REMARK SMILES IDX 4 1 5 2 6 3 7 4 3 5 2 6 1 7
REMARK H PARENT
REMARK Flexibility Score: inf
ROOT
ATOM      1  C   UNL     1     -30.451 -22.754 -21.880  1.00  0.00     0.053 C 
ENDROOT
BRANCH   1   2
ATOM      2  C   UNL     1     -31.264 -21.746 -22.630  1.00  0.00     0.041 C 
ATOM      3  O   UNL     1     -31.219 -21.704 -23.887  1.00  0.00    -0.550 OA
ATOM      4  O   UNL     1     -32.110 -20.886 -21.941  1.00  0.00    -0.550 OA
ENDBRANCH   1   2
BRANCH   1   5
ATOM      5  C   UNL     1     -29.337 -22.062 -21.089  1.00  0.00     0.006 C 
BRANCH   5   6
ATOM      6  C   UNL     1     -28.451 -23.090 -20.375  1.00  0.00    -0.003 C 
ATOM      7  C   UNL     1     -28.418 -22.839 -18.871  1.00  0.00     0.004 C 
ENDBRANCH   5   6
ENDBRANCH   1   5
TORSDOF 3
ENDMDL
MODEL 7
REMARK VINA RESULT:    -3.258      2.839      3.562
REMARK INTER + INTRA:          -3.877
REMARK INTER:                  -3.794
REMARK INTRA:                  -0.084
REMARK UNBOUND:                -0.048
REMARK SMILES CCCCC(=O)[O-]
REMARK SMILES IDX 4 1 5 2 6 3 7 4 3 5 2 6 1 7
REMARK H PARENT
REMARK Flexibility Score: inf
ROOT
ATOM      1  C   UNL     1     -30.854 -22.251 -21.522  1.00  0.00     0.053 C 
ENDROOT
BRANCH   1   2
ATOM      2  C   UNL     1     -29.599 -22.013 -20.742  1.00  0.00     0.041 C 
ATOM      3  O   UNL     1     -29.383 -20.889 -20.218  1.00  0.00    -0.550 OA
ATOM      4  O   UNL     1     -28.691 -23.047 -20.554  1.00  0.00    -0.550 OA
ENDBRANCH   1   2
BRANCH   1   5
ATOM      5  C   UNL     1     -30.655 -21.860 -22.989  1.00  0.00     0.006 C 
BRANCH   5   6
ATOM      6  C   UNL     1     -31.757 -20.900 -23.455  1.00  0.00    -0.003 C 
ATOM      7  C   UNL     1     -32.576 -20.388 -22.275  1.00  0.00     0.004 C 
ENDBRANCH   5   6
ENDBRANCH   1   5
TORSDOF 3
ENDMDL
MODEL 8
REMARK VINA RESULT:    -3.224      4.201      6.140
REMARK INTER + INTRA:          -3.838
REMARK INTER:                  -3.822
REMARK INTRA:                  -0.016
REMARK UNBOUND:                -0.048
REMARK SMILES CCCCC(=O)[O-]
REMARK SMILES IDX 4 1 5 2 6 3 7 4 3 5 2 6 1 7
REMARK H PARENT
REMARK Flexibility Score: inf
ROOT
ATOM      1  C   UNL     1     -29.318 -21.943 -20.473  1.00  0.00     0.053 C 
ENDROOT
BRANCH   1   2
ATOM      2  C   UNL     1     -29.284 -22.025 -21.966  1.00  0.00     0.041 C 
ATOM      3  O   UNL     1     -30.357 -22.074 -22.622  1.00  0.00    -0.550 OA
ATOM      4  O   UNL     1     -28.067 -21.998 -22.636  1.00  0.00    -0.550 OA
ENDBRANCH   1   2
BRANCH   1   5
ATOM      5  C   UNL     1     -28.558 -23.121 -19.855  1.00  0.00     0.006 C 
BRANCH   5   6
ATOM      6  C   UNL     1     -28.701 -23.125 -18.328  1.00  0.00    -0.003 C 
ATOM      7  C   UNL     1     -27.533 -22.401 -17.664  1.00  0.00     0.004 C 
ENDBRANCH   5   6
ENDBRANCH   1   5
TORSDOF 3
ENDMDL
MODEL 9
REMARK VINA RESULT:    -3.042      5.424      6.679
REMARK INTER + INTRA:          -3.623
REMARK INTER:                  -3.570
REMARK INTRA:                  -0.053
REMARK UNBOUND:                -0.048
REMARK SMILES CCCCC(=O)[O-]
REMARK SMILES IDX 4 1 5 2 6 3 7 4 3 5 2 6 1 7
REMARK H PARENT
REMARK Flexibility Score: inf
ROOT
ATOM      1  C   UNL     1     -28.260 -22.052 -18.666  1.00  0.00     0.053 C 
ENDROOT
BRANCH   1   2
ATOM      2  C   UNL     1     -28.159 -22.686 -17.314  1.00  0.00     0.041 C 
ATOM      3  O   UNL     1     -29.200 -23.047 -16.705  1.00  0.00    -0.550 OA
ATOM      4  O   UNL     1     -26.913 -22.922 -16.749  1.00  0.00    -0.550 OA
ENDBRANCH   1   2
BRANCH   1   5
ATOM      5  C   UNL     1     -28.384 -23.124 -19.752  1.00  0.00     0.006 C 
BRANCH   5   6
ATOM      6  C   UNL     1     -29.566 -22.827 -20.683  1.00  0.00    -0.003 C 
ATOM      7  C   UNL     1     -29.775 -21.324 -20.846  1.00  0.00     0.004 C 
ENDBRANCH   5   6
ENDBRANCH   1   5
TORSDOF 3
ENDMDL
