MODEL 1
REMARK VINA RESULT:    -5.324      0.000      0.000
REMARK INTER + INTRA:          -5.480
REMARK INTER:                  -5.480
REMARK INTRA:                   0.000
REMARK UNBOUND:                 0.000
REMARK SMILES O=c1ccc2ccc(O)cc2o1
REMARK SMILES IDX 6 1 7 2 8 3 10 4 11 5 5 6 4 7 3 8 2 9 1 10 12 11 9 12
REMARK H PARENT 9 13
REMARK Flexibility Score: inf
ROOT
ATOM      1  C   UNL     1      19.755  -1.298 -19.249  1.00  0.00     0.016 A 
ATOM      2  C   UNL     1      19.790  -0.772 -17.954  1.00  0.00     0.047 A 
ATOM      3  C   UNL     1      20.519   0.393 -17.683  1.00  0.00     0.119 A 
ATOM      4  C   UNL     1      21.217   1.037 -18.714  1.00  0.00     0.094 A 
ATOM      5  C   UNL     1      21.189   0.517 -20.013  1.00  0.00     0.142 A 
ATOM      6  C   UNL     1      20.452  -0.658 -20.283  1.00  0.00     0.018 A 
ATOM      7  C   UNL     1      20.442  -1.153 -21.590  1.00  0.00     0.019 A 
ATOM      8  C   UNL     1      21.152  -0.478 -22.583  1.00  0.00     0.094 A 
ATOM      9  C   UNL     1      21.859   0.680 -22.243  1.00  0.00     0.336 A 
ATOM     10  O   UNL     1      22.506   1.303 -23.125  1.00  0.00    -0.246 OA
ATOM     11  O   UNL     1      21.852   1.130 -20.990  1.00  0.00    -0.423 OA
ENDROOT
BRANCH   3  12
ATOM     12  O   UNL     1      20.542   0.901 -16.385  1.00  0.00    -0.508 OA
ATOM     13  H   UNL     1      20.610   1.897 -16.208  1.00  0.00     0.293 HD
ENDBRANCH   3  12
TORSDOF 1
ENDMDL
MODEL 2
REMARK VINA RESULT:    -5.323      0.764      4.230
REMARK INTER + INTRA:          -5.479
REMARK INTER:                  -5.479
REMARK INTRA:                   0.000
REMARK UNBOUND:                 0.000
REMARK SMILES O=c1ccc2ccc(O)cc2o1
REMARK SMILES IDX 6 1 7 2 8 3 10 4 11 5 5 6 4 7 3 8 2 9 1 10 12 11 9 12
REMARK H PARENT 9 13
REMARK Flexibility Score: inf
ROOT
ATOM      1  C   UNL     1      20.392  -1.283 -21.415  1.00  0.00     0.016 A 
ATOM      2  C   UNL     1      21.096  -0.596 -22.409  1.00  0.00     0.047 A 
ATOM      3  C   UNL     1      21.746   0.608 -22.112  1.00  0.00     0.119 A 
ATOM      4  C   UNL     1      21.692   1.130 -20.812  1.00  0.00     0.094 A 
ATOM      5  C   UNL     1      20.990   0.450 -19.810  1.00  0.00     0.142 A 
ATOM      6  C   UNL     1      20.336  -0.765 -20.114  1.00  0.00     0.018 A 
ATOM      7  C   UNL     1      19.643  -1.423 -19.093  1.00  0.00     0.019 A 
ATOM      8  C   UNL     1      19.618  -0.864 -17.814  1.00  0.00     0.094 A 
ATOM      9  C   UNL     1      20.288   0.341 -17.587  1.00  0.00     0.336 A 
ATOM     10  O   UNL     1      20.277   0.860 -16.440  1.00  0.00    -0.246 OA
ATOM     11  O   UNL     1      20.940   0.946 -18.577  1.00  0.00    -0.423 OA
ENDROOT
BRANCH   3  12
ATOM     12  O   UNL     1      22.441   1.278 -23.117  1.00  0.00    -0.508 OA
ATOM     13  H   UNL     1      23.454   1.324 -23.120  1.00  0.00     0.293 HD
ENDBRANCH   3  12
TORSDOF 1
ENDMDL
MODEL 3
REMARK VINA RESULT:    -5.255     16.070     18.399
REMARK INTER + INTRA:          -5.408
REMARK INTER:                  -5.408
REMARK INTRA:                   0.000
REMARK UNBOUND:                 0.000
REMARK SMILES O=c1ccc2ccc(O)cc2o1
REMARK SMILES IDX 6 1 7 2 8 3 10 4 11 5 5 6 4 7 3 8 2 9 1 10 12 11 9 12
REMARK H PARENT 9 13
REMARK Flexibility Score: inf
ROOT
ATOM      1  C   UNL     1       8.240  -8.016  -6.612  1.00  0.00     0.016 A 
ATOM      2  C   UNL     1       7.636  -7.129  -5.715  1.00  0.00     0.047 A 
ATOM      3  C   UNL     1       8.064  -5.798  -5.639  1.00  0.00     0.119 A 
ATOM      4  C   UNL     1       9.104  -5.350  -6.466  1.00  0.00     0.094 A 
ATOM      5  C   UNL     1       9.715  -6.229  -7.367  1.00  0.00     0.142 A 
ATOM      6  C   UNL     1       9.280  -7.571  -7.440  1.00  0.00     0.018 A 
ATOM      7  C   UNL     1       9.909  -8.427  -8.350  1.00  0.00     0.019 A 
ATOM      8  C   UNL     1      10.939  -7.935  -9.152  1.00  0.00     0.094 A 
ATOM      9  C   UNL     1      11.317  -6.595  -9.024  1.00  0.00     0.336 A 
ATOM     10  O   UNL     1      12.244  -6.132  -9.740  1.00  0.00    -0.246 OA
ATOM     11  O   UNL     1      10.701  -5.802  -8.150  1.00  0.00    -0.423 OA
ENDROOT
BRANCH   3  12
ATOM     12  O   UNL     1       7.450  -4.931  -4.738  1.00  0.00    -0.508 OA
ATOM     13  H   UNL     1       7.975  -4.209  -4.257  1.00  0.00     0.293 HD
ENDBRANCH   3  12
TORSDOF 1
ENDMDL
MODEL 4
REMARK VINA RESULT:    -5.129      2.405      4.659
REMARK INTER + INTRA:          -5.279
REMARK INTER:                  -5.279
REMARK INTRA:                   0.000
REMARK UNBOUND:                 0.000
REMARK SMILES O=c1ccc2ccc(O)cc2o1
REMARK SMILES IDX 6 1 7 2 8 3 10 4 11 5 5 6 4 7 3 8 2 9 1 10 12 11 9 12
REMARK H PARENT 9 13
REMARK Flexibility Score: inf
ROOT
ATOM      1  C   UNL     1      21.462   0.776 -19.991  1.00  0.00     0.016 A 
ATOM      2  C   UNL     1      20.324   0.077 -20.407  1.00  0.00     0.047 A 
ATOM      3  C   UNL     1      19.412  -0.414 -19.465  1.00  0.00     0.119 A 
ATOM      4  C   UNL     1      19.639  -0.205 -18.097  1.00  0.00     0.094 A 
ATOM      5  C   UNL     1      20.774   0.493 -17.671  1.00  0.00     0.142 A 
ATOM      6  C   UNL     1      21.692   0.987 -18.625  1.00  0.00     0.018 A 
ATOM      7  C   UNL     1      22.817   1.681 -18.170  1.00  0.00     0.019 A 
ATOM      8  C   UNL     1      23.000   1.864 -16.799  1.00  0.00     0.094 A 
ATOM      9  C   UNL     1      22.049   1.347 -15.913  1.00  0.00     0.336 A 
ATOM     10  O   UNL     1      22.196   1.502 -14.672  1.00  0.00    -0.246 OA
ATOM     11  O   UNL     1      20.987   0.690 -16.373  1.00  0.00    -0.423 OA
ENDROOT
BRANCH   3  12
ATOM     12  O   UNL     1      18.285  -1.109 -19.899  1.00  0.00    -0.508 OA
ATOM     13  H   UNL     1      17.470  -1.219 -19.307  1.00  0.00     0.293 HD
ENDBRANCH   3  12
TORSDOF 1
ENDMDL
MODEL 5
REMARK VINA RESULT:    -5.077      1.903      2.775
REMARK INTER + INTRA:          -5.226
REMARK INTER:                  -5.226
REMARK INTRA:                   0.000
REMARK UNBOUND:                 0.000
REMARK SMILES O=c1ccc2ccc(O)cc2o1
REMARK SMILES IDX 6 1 7 2 8 3 10 4 11 5 5 6 4 7 3 8 2 9 1 10 12 11 9 12
REMARK H PARENT 9 13
REMARK Flexibility Score: inf
ROOT
ATOM      1  C   UNL     1      19.194   0.285 -16.392  1.00  0.00     0.016 A 
ATOM      2  C   UNL     1      20.096   0.988 -15.587  1.00  0.00     0.047 A 
ATOM      3  C   UNL     1      21.368   1.318 -16.070  1.00  0.00     0.119 A 
ATOM      4  C   UNL     1      21.742   0.941 -17.368  1.00  0.00     0.094 A 
ATOM      5  C   UNL     1      20.847   0.237 -18.181  1.00  0.00     0.142 A 
ATOM      6  C   UNL     1      19.565  -0.093 -17.690  1.00  0.00     0.018 A 
ATOM      7  C   UNL     1      18.691  -0.797 -18.525  1.00  0.00     0.019 A 
ATOM      8  C   UNL     1      19.109  -1.151 -19.808  1.00  0.00     0.094 A 
ATOM      9  C   UNL     1      20.393  -0.790 -20.227  1.00  0.00     0.336 A 
ATOM     10  O   UNL     1      20.788  -1.099 -21.382  1.00  0.00    -0.246 OA
ATOM     11  O   UNL     1      21.204  -0.120 -19.412  1.00  0.00    -0.423 OA
ENDROOT
BRANCH   3  12
ATOM     12  O   UNL     1      22.252   2.018 -15.252  1.00  0.00    -0.508 OA
ATOM     13  H   UNL     1      23.237   1.782 -15.213  1.00  0.00     0.293 HD
ENDBRANCH   3  12
TORSDOF 1
ENDMDL
MODEL 6
REMARK VINA RESULT:    -5.044      7.233      8.785
REMARK INTER + INTRA:          -5.192
REMARK INTER:                  -5.192
REMARK INTRA:                   0.000
REMARK UNBOUND:                 0.000
REMARK SMILES O=c1ccc2ccc(O)cc2o1
REMARK SMILES IDX 6 1 7 2 8 3 10 4 11 5 5 6 4 7 3 8 2 9 1 10 12 11 9 12
REMARK H PARENT 9 13
REMARK Flexibility Score: inf
ROOT
ATOM      1  C   UNL     1      25.052   6.275 -19.352  1.00  0.00     0.016 A 
ATOM      2  C   UNL     1      24.304   5.265 -19.968  1.00  0.00     0.047 A 
ATOM      3  C   UNL     1      22.914   5.387 -20.088  1.00  0.00     0.119 A 
ATOM      4  C   UNL     1      22.267   6.526 -19.588  1.00  0.00     0.094 A 
ATOM      5  C   UNL     1      23.006   7.541 -18.970  1.00  0.00     0.142 A 
ATOM      6  C   UNL     1      24.408   7.414 -18.852  1.00  0.00     0.018 A 
ATOM      7  C   UNL     1      25.120   8.444 -18.230  1.00  0.00     0.019 A 
ATOM      8  C   UNL     1      24.431   9.558 -17.748  1.00  0.00     0.094 A 
ATOM      9  C   UNL     1      23.043   9.615 -17.901  1.00  0.00     0.336 A 
ATOM     10  O   UNL     1      22.404  10.612 -17.474  1.00  0.00    -0.246 OA
ATOM     11  O   UNL     1      22.389   8.621 -18.497  1.00  0.00    -0.423 OA
ENDROOT
BRANCH   3  12
ATOM     12  O   UNL     1      22.187   4.371 -20.704  1.00  0.00    -0.508 OA
ATOM     13  H   UNL     1      22.530   3.905 -21.537  1.00  0.00     0.293 HD
ENDBRANCH   3  12
TORSDOF 1
ENDMDL
MODEL 7
REMARK VINA RESULT:    -4.991      1.764      4.835
REMARK INTER + INTRA:          -5.137
REMARK INTER:                  -5.137
REMARK INTRA:                   0.000
REMARK UNBOUND:                 0.000
REMARK SMILES O=c1ccc2ccc(O)cc2o1
REMARK SMILES IDX 6 1 7 2 8 3 10 4 11 5 5 6 4 7 3 8 2 9 1 10 12 11 9 12
REMARK H PARENT 9 13
REMARK Flexibility Score: inf
ROOT
ATOM      1  C   UNL     1      21.606   1.050 -20.082  1.00  0.00     0.016 A 
ATOM      2  C   UNL     1      21.764   0.585 -21.392  1.00  0.00     0.047 A 
ATOM      3  C   UNL     1      21.107  -0.576 -21.816  1.00  0.00     0.119 A 
ATOM      4  C   UNL     1      20.284  -1.279 -20.924  1.00  0.00     0.094 A 
ATOM      5  C   UNL     1      20.119  -0.823 -19.612  1.00  0.00     0.142 A 
ATOM      6  C   UNL     1      20.784   0.350 -19.188  1.00  0.00     0.018 A 
ATOM      7  C   UNL     1      20.600   0.782 -17.871  1.00  0.00     0.019 A 
ATOM      8  C   UNL     1      19.772   0.049 -17.020  1.00  0.00     0.094 A 
ATOM      9  C   UNL     1      19.146  -1.102 -17.509  1.00  0.00     0.336 A 
ATOM     10  O   UNL     1      18.394  -1.776 -16.757  1.00  0.00    -0.246 OA
ATOM     11  O   UNL     1      19.338  -1.491 -18.767  1.00  0.00    -0.423 OA
ENDROOT
BRANCH   3  12
ATOM     12  O   UNL     1      21.279  -1.023 -23.125  1.00  0.00    -0.508 OA
ATOM     13  H   UNL     1      20.517  -1.441 -23.646  1.00  0.00     0.293 HD
ENDBRANCH   3  12
TORSDOF 1
ENDMDL
MODEL 8
REMARK VINA RESULT:    -4.808     15.060     17.365
REMARK INTER + INTRA:          -4.948
REMARK INTER:                  -4.948
REMARK INTRA:                   0.000
REMARK UNBOUND:                 0.000
REMARK SMILES O=c1ccc2ccc(O)cc2o1
REMARK SMILES IDX 6 1 7 2 8 3 10 4 11 5 5 6 4 7 3 8 2 9 1 10 12 11 9 12
REMARK H PARENT 9 13
REMARK Flexibility Score: inf
ROOT
ATOM      1  C   UNL     1       8.796  -6.429  -6.988  1.00  0.00     0.016 A 
ATOM      2  C   UNL     1       7.570  -5.755  -7.009  1.00  0.00     0.047 A 
ATOM      3  C   UNL     1       7.171  -5.047  -8.149  1.00  0.00     0.119 A 
ATOM      4  C   UNL     1       8.003  -5.011  -9.277  1.00  0.00     0.094 A 
ATOM      5  C   UNL     1       9.231  -5.682  -9.266  1.00  0.00     0.142 A 
ATOM      6  C   UNL     1       9.630  -6.395  -8.114  1.00  0.00     0.018 A 
ATOM      7  C   UNL     1      10.862  -7.056  -8.133  1.00  0.00     0.019 A 
ATOM      8  C   UNL     1      11.655  -6.992  -9.279  1.00  0.00     0.094 A 
ATOM      9  C   UNL     1      11.195  -6.266 -10.382  1.00  0.00     0.336 A 
ATOM     10  O   UNL     1      11.897  -6.197 -11.426  1.00  0.00    -0.246 OA
ATOM     11  O   UNL     1      10.019  -5.647 -10.338  1.00  0.00    -0.423 OA
ENDROOT
BRANCH   3  12
ATOM     12  O   UNL     1       5.947  -4.381  -8.149  1.00  0.00    -0.508 OA
ATOM     13  H   UNL     1       5.773  -3.592  -7.537  1.00  0.00     0.293 HD
ENDBRANCH   3  12
TORSDOF 1
ENDMDL
MODEL 9
REMARK VINA RESULT:    -4.758     17.010     18.778
REMARK INTER + INTRA:          -4.897
REMARK INTER:                  -4.897
REMARK INTRA:                   0.000
REMARK UNBOUND:                 0.000
REMARK SMILES O=c1ccc2ccc(O)cc2o1
REMARK SMILES IDX 6 1 7 2 8 3 10 4 11 5 5 6 4 7 3 8 2 9 1 10 12 11 9 12
REMARK H PARENT 9 13
REMARK Flexibility Score: inf
ROOT
ATOM      1  C   UNL     1       7.845  -8.105  -6.918  1.00  0.00     0.016 A 
ATOM      2  C   UNL     1       7.722  -7.254  -5.815  1.00  0.00     0.047 A 
ATOM      3  C   UNL     1       7.737  -5.864  -5.988  1.00  0.00     0.119 A 
ATOM      4  C   UNL     1       7.877  -5.321  -7.273  1.00  0.00     0.094 A 
ATOM      5  C   UNL     1       8.001  -6.164  -8.383  1.00  0.00     0.142 A 
ATOM      6  C   UNL     1       7.985  -7.565  -8.204  1.00  0.00     0.018 A 
ATOM      7  C   UNL     1       8.110  -8.383  -9.332  1.00  0.00     0.019 A 
ATOM      8  C   UNL     1       8.247  -7.796 -10.590  1.00  0.00     0.094 A 
ATOM      9  C   UNL     1       8.254  -6.401 -10.691  1.00  0.00     0.336 A 
ATOM     10  O   UNL     1       8.376  -5.853 -11.818  1.00  0.00    -0.246 OA
ATOM     11  O   UNL     1       8.133  -5.647  -9.602  1.00  0.00    -0.423 OA
ENDROOT
BRANCH   3  12
ATOM     12  O   UNL     1       7.614  -5.034  -4.876  1.00  0.00    -0.508 OA
ATOM     13  H   UNL     1       6.725  -4.907  -4.406  1.00  0.00     0.293 HD
ENDBRANCH   3  12
TORSDOF 1
ENDMDL
