MODEL 1
REMARK VINA RESULT:    -6.115      0.000      0.000
REMARK INTER + INTRA:          -9.085
REMARK INTER:                  -7.724
REMARK INTRA:                  -1.362
REMARK UNBOUND:                -1.362
REMARK SMILES O=C(C=Cc1ccc(O)cc1)c1ccc(O)cc1O
REMARK SMILES IDX 4 1 3 2 5 3 6 4 7 5 8 6 11 7 10 8 9 9 2 11 1 12 12 13 18 14
REMARK SMILES IDX 13 15 17 16 14 17 15 18 19 19 16 21
REMARK H PARENT 9 10 19 20 16 22
REMARK Flexibility Score: inf
ROOT
ATOM      1  C   UNL     1      30.288  23.502  52.571  1.00  0.00     0.012 C 
ATOM      2  C   UNL     1      30.972  23.326  51.429  1.00  0.00     0.053 C 
ENDROOT
BRANCH   1   3
ATOM      3  C   UNL     1      28.929  22.988  52.844  1.00  0.00    -0.025 A 
ATOM      4  C   UNL     1      27.816  23.744  52.449  1.00  0.00     0.012 A 
ATOM      5  C   UNL     1      26.522  23.255  52.655  1.00  0.00     0.047 A 
ATOM      6  C   UNL     1      26.330  21.996  53.239  1.00  0.00     0.115 A 
ATOM      7  C   UNL     1      28.732  21.712  53.401  1.00  0.00     0.012 A 
ATOM      8  C   UNL     1      27.437  21.226  53.606  1.00  0.00     0.047 A 
BRANCH   6   9
ATOM      9  O   UNL     1      25.045  21.500  53.450  1.00  0.00    -0.508 OA
ATOM     10  H   UNL     1      24.234  21.933  53.025  1.00  0.00     0.293 HD
ENDBRANCH   6   9
ENDBRANCH   1   3
BRANCH   2  11
ATOM     11  C   UNL     1      30.566  22.431  50.318  1.00  0.00     0.189 C 
ATOM     12  O   UNL     1      31.159  21.332  50.142  1.00  0.00    -0.289 OA
BRANCH  11  13
ATOM     13  C   UNL     1      29.491  22.823  49.375  1.00  0.00     0.064 A 
ATOM     14  C   UNL     1      28.305  22.062  49.290  1.00  0.00     0.130 A 
ATOM     15  C   UNL     1      29.645  23.943  48.536  1.00  0.00     0.020 A 
ATOM     16  C   UNL     1      27.299  22.431  48.385  1.00  0.00     0.093 A 
ATOM     17  C   UNL     1      28.635  24.304  47.640  1.00  0.00     0.047 A 
ATOM     18  C   UNL     1      27.462  23.552  47.562  1.00  0.00     0.119 A 
BRANCH  14  19
ATOM     19  O   UNL     1      28.119  20.952  50.115  1.00  0.00    -0.507 OA
ATOM     20  H   UNL     1      27.336  20.322  49.991  1.00  0.00     0.293 HD
ENDBRANCH  14  19
BRANCH  18  21
ATOM     21  O   UNL     1      26.466  23.924  46.663  1.00  0.00    -0.508 OA
ATOM     22  H   UNL     1      25.591  23.416  46.600  1.00  0.00     0.293 HD
ENDBRANCH  18  21
ENDBRANCH  11  13
ENDBRANCH   2  11
TORSDOF 6
ENDMDL
MODEL 2
REMARK VINA RESULT:    -6.013     12.884     14.735
REMARK INTER + INTRA:          -8.956
REMARK INTER:                  -7.878
REMARK INTRA:                  -1.078
REMARK UNBOUND:                -1.362
REMARK SMILES O=C(C=Cc1ccc(O)cc1)c1ccc(O)cc1O
REMARK SMILES IDX 4 1 3 2 5 3 6 4 7 5 8 6 11 7 10 8 9 9 2 11 1 12 12 13 18 14
REMARK SMILES IDX 13 15 17 16 14 17 15 18 19 19 16 21
REMARK H PARENT 9 10 19 20 16 22
REMARK Flexibility Score: inf
ROOT
ATOM      1  C   UNL     1      19.986  25.274  40.420  1.00  0.00     0.012 C 
ATOM      2  C   UNL     1      19.026  25.682  41.265  1.00  0.00     0.053 C 
ENDROOT
BRANCH   1   3
ATOM      3  C   UNL     1      19.984  23.998  39.673  1.00  0.00    -0.025 A 
ATOM      4  C   UNL     1      19.491  23.970  38.360  1.00  0.00     0.012 A 
ATOM      5  C   UNL     1      19.523  22.785  37.619  1.00  0.00     0.047 A 
ATOM      6  C   UNL     1      20.069  21.621  38.176  1.00  0.00     0.115 A 
ATOM      7  C   UNL     1      20.559  22.835  40.217  1.00  0.00     0.012 A 
ATOM      8  C   UNL     1      20.589  21.651  39.473  1.00  0.00     0.047 A 
BRANCH   6   9
ATOM      9  O   UNL     1      20.105  20.434  37.448  1.00  0.00    -0.508 OA
ATOM     10  H   UNL     1      19.496  20.282  36.652  1.00  0.00     0.293 HD
ENDBRANCH   6   9
ENDBRANCH   1   3
BRANCH   2  11
ATOM     11  C   UNL     1      17.714  25.016  41.457  1.00  0.00     0.189 C 
ATOM     12  O   UNL     1      16.758  25.265  40.672  1.00  0.00    -0.289 OA
BRANCH  11  13
ATOM     13  C   UNL     1      17.487  24.082  42.585  1.00  0.00     0.064 A 
ATOM     14  C   UNL     1      16.869  24.532  43.772  1.00  0.00     0.130 A 
ATOM     15  C   UNL     1      17.903  22.739  42.499  1.00  0.00     0.020 A 
ATOM     16  C   UNL     1      16.671  23.645  44.839  1.00  0.00     0.093 A 
ATOM     17  C   UNL     1      17.699  21.863  43.568  1.00  0.00     0.047 A 
ATOM     18  C   UNL     1      17.083  22.311  44.737  1.00  0.00     0.119 A 
BRANCH  14  19
ATOM     19  O   UNL     1      16.437  25.854  43.883  1.00  0.00    -0.507 OA
ATOM     20  H   UNL     1      16.356  26.314  44.782  1.00  0.00     0.293 HD
ENDBRANCH  14  19
BRANCH  18  21
ATOM     21  O   UNL     1      16.888  21.424  45.794  1.00  0.00    -0.508 OA
ATOM     22  H   UNL     1      17.535  21.377  46.574  1.00  0.00     0.293 HD
ENDBRANCH  18  21
ENDBRANCH  11  13
ENDBRANCH   2  11
TORSDOF 6
ENDMDL
MODEL 3
REMARK VINA RESULT:    -5.944      1.342      4.875
REMARK INTER + INTRA:          -8.869
REMARK INTER:                  -7.560
REMARK INTRA:                  -1.309
REMARK UNBOUND:                -1.362
REMARK SMILES O=C(C=Cc1ccc(O)cc1)c1ccc(O)cc1O
REMARK SMILES IDX 4 1 3 2 5 3 6 4 7 5 8 6 11 7 10 8 9 9 2 11 1 12 12 13 18 14
REMARK SMILES IDX 13 15 17 16 14 17 15 18 19 19 16 21
REMARK H PARENT 9 10 19 20 16 22
REMARK Flexibility Score: inf
ROOT
ATOM      1  C   UNL     1      31.079  21.836  49.413  1.00  0.00     0.012 C 
ATOM      2  C   UNL     1      31.396  21.963  50.712  1.00  0.00     0.053 C 
ENDROOT
BRANCH   1   3
ATOM      3  C   UNL     1      29.910  22.452  48.752  1.00  0.00    -0.025 A 
ATOM      4  C   UNL     1      28.659  21.823  48.842  1.00  0.00     0.012 A 
ATOM      5  C   UNL     1      27.531  22.413  48.264  1.00  0.00     0.047 A 
ATOM      6  C   UNL     1      27.638  23.647  47.608  1.00  0.00     0.115 A 
ATOM      7  C   UNL     1      30.007  23.705  48.120  1.00  0.00     0.012 A 
ATOM      8  C   UNL     1      28.876  24.291  47.543  1.00  0.00     0.047 A 
BRANCH   6   9
ATOM      9  O   UNL     1      26.520  24.242  47.028  1.00  0.00    -0.508 OA
ATOM     10  H   UNL     1      26.339  25.234  47.121  1.00  0.00     0.293 HD
ENDBRANCH   6   9
ENDBRANCH   1   3
BRANCH   2  11
ATOM     11  C   UNL     1      30.739  22.890  51.667  1.00  0.00     0.189 C 
ATOM     12  O   UNL     1      31.376  23.873  52.133  1.00  0.00    -0.289 OA
BRANCH  11  13
ATOM     13  C   UNL     1      29.345  22.662  52.118  1.00  0.00     0.064 A 
ATOM     14  C   UNL     1      28.343  23.619  51.850  1.00  0.00     0.130 A 
ATOM     15  C   UNL     1      29.004  21.500  52.837  1.00  0.00     0.020 A 
ATOM     16  C   UNL     1      27.030  23.403  52.293  1.00  0.00     0.093 A 
ATOM     17  C   UNL     1      27.693  21.292  53.271  1.00  0.00     0.047 A 
ATOM     18  C   UNL     1      26.704  22.239  53.000  1.00  0.00     0.119 A 
BRANCH  14  19
ATOM     19  O   UNL     1      28.647  24.776  51.131  1.00  0.00    -0.507 OA
ATOM     20  H   UNL     1      29.578  24.948  50.769  1.00  0.00     0.293 HD
ENDBRANCH  14  19
BRANCH  18  21
ATOM     21  O   UNL     1      25.401  22.017  53.442  1.00  0.00    -0.508 OA
ATOM     22  H   UNL     1      25.163  21.211  54.009  1.00  0.00     0.293 HD
ENDBRANCH  18  21
ENDBRANCH  11  13
ENDBRANCH   2  11
TORSDOF 6
ENDMDL
MODEL 4
REMARK VINA RESULT:    -5.882      1.598      4.724
REMARK INTER + INTRA:          -8.791
REMARK INTER:                  -7.997
REMARK INTRA:                  -0.794
REMARK UNBOUND:                -1.362
REMARK SMILES O=C(C=Cc1ccc(O)cc1)c1ccc(O)cc1O
REMARK SMILES IDX 4 1 3 2 5 3 6 4 7 5 8 6 11 7 10 8 9 9 2 11 1 12 12 13 18 14
REMARK SMILES IDX 13 15 17 16 14 17 15 18 19 19 16 21
REMARK H PARENT 9 10 19 20 16 22
REMARK Flexibility Score: inf
ROOT
ATOM      1  C   UNL     1      30.166  23.779  48.094  1.00  0.00     0.012 C 
ATOM      2  C   UNL     1      28.862  24.050  47.927  1.00  0.00     0.053 C 
ENDROOT
BRANCH   1   3
ATOM      3  C   UNL     1      30.718  22.742  48.991  1.00  0.00    -0.025 A 
ATOM      4  C   UNL     1      30.525  22.857  50.376  1.00  0.00     0.012 A 
ATOM      5  C   UNL     1      30.998  21.864  51.239  1.00  0.00     0.047 A 
ATOM      6  C   UNL     1      31.648  20.734  50.724  1.00  0.00     0.115 A 
ATOM      7  C   UNL     1      31.343  21.592  48.477  1.00  0.00     0.012 A 
ATOM      8  C   UNL     1      31.815  20.600  49.343  1.00  0.00     0.047 A 
BRANCH   6   9
ATOM      9  O   UNL     1      32.124  19.739  51.575  1.00  0.00    -0.508 OA
ATOM     10  H   UNL     1      31.761  18.794  51.541  1.00  0.00     0.293 HD
ENDBRANCH   6   9
ENDBRANCH   1   3
BRANCH   2  11
ATOM     11  C   UNL     1      27.743  23.238  48.465  1.00  0.00     0.189 C 
ATOM     12  O   UNL     1      27.051  22.522  47.690  1.00  0.00    -0.289 OA
BRANCH  11  13
ATOM     13  C   UNL     1      27.392  23.277  49.905  1.00  0.00     0.064 A 
ATOM     14  C   UNL     1      27.308  22.082  50.652  1.00  0.00     0.130 A 
ATOM     15  C   UNL     1      27.118  24.502  50.543  1.00  0.00     0.020 A 
ATOM     16  C   UNL     1      26.962  22.128  52.010  1.00  0.00     0.093 A 
ATOM     17  C   UNL     1      26.777  24.536  51.898  1.00  0.00     0.047 A 
ATOM     18  C   UNL     1      26.699  23.353  52.634  1.00  0.00     0.119 A 
BRANCH  14  19
ATOM     19  O   UNL     1      27.584  20.854  50.050  1.00  0.00    -0.507 OA
ATOM     20  H   UNL     1      27.934  20.794  49.101  1.00  0.00     0.293 HD
ENDBRANCH  14  19
BRANCH  18  21
ATOM     21  O   UNL     1      26.357  23.405  53.983  1.00  0.00    -0.508 OA
ATOM     22  H   UNL     1      25.389  23.382  54.286  1.00  0.00     0.293 HD
ENDBRANCH  18  21
ENDBRANCH  11  13
ENDBRANCH   2  11
TORSDOF 6
ENDMDL
MODEL 5
REMARK VINA RESULT:    -5.852     11.987     13.878
REMARK INTER + INTRA:          -8.753
REMARK INTER:                  -7.976
REMARK INTRA:                  -0.777
REMARK UNBOUND:                -1.362
REMARK SMILES O=C(C=Cc1ccc(O)cc1)c1ccc(O)cc1O
REMARK SMILES IDX 4 1 3 2 5 3 6 4 7 5 8 6 11 7 10 8 9 9 2 11 1 12 12 13 18 14
REMARK SMILES IDX 13 15 17 16 14 17 15 18 19 19 16 21
REMARK H PARENT 9 10 19 20 16 22
REMARK Flexibility Score: inf
ROOT
ATOM      1  C   UNL     1      18.388  24.708  39.247  1.00  0.00     0.012 C 
ATOM      2  C   UNL     1      18.612  26.029  39.345  1.00  0.00     0.053 C 
ENDROOT
BRANCH   1   3
ATOM      3  C   UNL     1      19.124  23.658  39.981  1.00  0.00    -0.025 A 
ATOM      4  C   UNL     1      18.719  23.313  41.279  1.00  0.00     0.012 A 
ATOM      5  C   UNL     1      19.371  22.290  41.973  1.00  0.00     0.047 A 
ATOM      6  C   UNL     1      20.423  21.587  41.368  1.00  0.00     0.115 A 
ATOM      7  C   UNL     1      20.159  22.929  39.367  1.00  0.00     0.012 A 
ATOM      8  C   UNL     1      20.810  21.907  40.064  1.00  0.00     0.047 A 
BRANCH   6   9
ATOM      9  O   UNL     1      21.081  20.567  42.052  1.00  0.00    -0.508 OA
ATOM     10  H   UNL     1      21.265  19.671  41.617  1.00  0.00     0.293 HD
ENDBRANCH   6   9
ENDBRANCH   1   3
BRANCH   2  11
ATOM     11  C   UNL     1      19.504  26.675  40.338  1.00  0.00     0.189 C 
ATOM     12  O   UNL     1      20.639  27.098  39.988  1.00  0.00    -0.289 OA
BRANCH  11  13
ATOM     13  C   UNL     1      19.101  26.802  41.759  1.00  0.00     0.064 A 
ATOM     14  C   UNL     1      20.070  27.042  42.758  1.00  0.00     0.130 A 
ATOM     15  C   UNL     1      17.751  26.666  42.137  1.00  0.00     0.020 A 
ATOM     16  C   UNL     1      19.681  27.147  44.101  1.00  0.00     0.093 A 
ATOM     17  C   UNL     1      17.374  26.775  43.478  1.00  0.00     0.047 A 
ATOM     18  C   UNL     1      18.335  27.017  44.462  1.00  0.00     0.119 A 
BRANCH  14  19
ATOM     19  O   UNL     1      21.414  27.192  42.413  1.00  0.00    -0.507 OA
ATOM     20  H   UNL     1      22.050  27.741  42.978  1.00  0.00     0.293 HD
ENDBRANCH  14  19
BRANCH  18  21
ATOM     21  O   UNL     1      17.942  27.122  45.794  1.00  0.00    -0.508 OA
ATOM     22  H   UNL     1      16.969  27.050  46.067  1.00  0.00     0.293 HD
ENDBRANCH  18  21
ENDBRANCH  11  13
ENDBRANCH   2  11
TORSDOF 6
ENDMDL
MODEL 6
REMARK VINA RESULT:    -5.843      1.853      3.612
REMARK INTER + INTRA:          -8.742
REMARK INTER:                  -7.657
REMARK INTRA:                  -1.085
REMARK UNBOUND:                -1.362
REMARK SMILES O=C(C=Cc1ccc(O)cc1)c1ccc(O)cc1O
REMARK SMILES IDX 4 1 3 2 5 3 6 4 7 5 8 6 11 7 10 8 9 9 2 11 1 12 12 13 18 14
REMARK SMILES IDX 13 15 17 16 14 17 15 18 19 19 16 21
REMARK H PARENT 9 10 19 20 16 22
REMARK Flexibility Score: inf
ROOT
ATOM      1  C   UNL     1      27.251  24.362  51.423  1.00  0.00     0.012 C 
ATOM      2  C   UNL     1      26.675  24.279  50.213  1.00  0.00     0.053 C 
ENDROOT
BRANCH   1   3
ATOM      3  C   UNL     1      28.317  23.470  51.927  1.00  0.00    -0.025 A 
ATOM      4  C   UNL     1      27.973  22.211  52.441  1.00  0.00     0.012 A 
ATOM      5  C   UNL     1      28.969  21.333  52.880  1.00  0.00     0.047 A 
ATOM      6  C   UNL     1      30.319  21.696  52.789  1.00  0.00     0.115 A 
ATOM      7  C   UNL     1      29.674  23.818  51.809  1.00  0.00     0.012 A 
ATOM      8  C   UNL     1      30.667  22.937  52.249  1.00  0.00     0.047 A 
BRANCH   6   9
ATOM      9  O   UNL     1      31.319  20.830  53.225  1.00  0.00    -0.508 OA
ATOM     10  H   UNL     1      31.758  20.168  52.595  1.00  0.00     0.293 HD
ENDBRANCH   6   9
ENDBRANCH   1   3
BRANCH   2  11
ATOM     11  C   UNL     1      27.132  23.405  49.105  1.00  0.00     0.189 C 
ATOM     12  O   UNL     1      26.809  22.186  49.088  1.00  0.00    -0.289 OA
BRANCH  11  13
ATOM     13  C   UNL     1      27.999  23.930  48.023  1.00  0.00     0.064 A 
ATOM     14  C   UNL     1      27.496  24.074  46.712  1.00  0.00     0.130 A 
ATOM     15  C   UNL     1      29.340  24.274  48.281  1.00  0.00     0.020 A 
ATOM     16  C   UNL     1      28.327  24.559  45.692  1.00  0.00     0.093 A 
ATOM     17  C   UNL     1      30.159  24.758  47.259  1.00  0.00     0.047 A 
ATOM     18  C   UNL     1      29.657  24.903  45.964  1.00  0.00     0.119 A 
BRANCH  14  19
ATOM     19  O   UNL     1      26.169  23.752  46.427  1.00  0.00    -0.507 OA
ATOM     20  H   UNL     1      25.922  23.154  45.648  1.00  0.00     0.293 HD
ENDBRANCH  14  19
BRANCH  18  21
ATOM     21  O   UNL     1      30.487  25.386  44.955  1.00  0.00    -0.508 OA
ATOM     22  H   UNL     1      30.319  25.168  43.980  1.00  0.00     0.293 HD
ENDBRANCH  18  21
ENDBRANCH  11  13
ENDBRANCH   2  11
TORSDOF 6
ENDMDL
MODEL 7
REMARK VINA RESULT:    -5.826      1.843      3.332
REMARK INTER + INTRA:          -8.720
REMARK INTER:                  -7.326
REMARK INTRA:                  -1.394
REMARK UNBOUND:                -1.362
REMARK SMILES O=C(C=Cc1ccc(O)cc1)c1ccc(O)cc1O
REMARK SMILES IDX 4 1 3 2 5 3 6 4 7 5 8 6 11 7 10 8 9 9 2 11 1 12 12 13 18 14
REMARK SMILES IDX 13 15 17 16 14 17 15 18 19 19 16 21
REMARK H PARENT 9 10 19 20 16 22
REMARK Flexibility Score: inf
ROOT
ATOM      1  C   UNL     1      27.009  24.620  51.908  1.00  0.00     0.012 C 
ATOM      2  C   UNL     1      26.505  24.220  50.729  1.00  0.00     0.053 C 
ENDROOT
BRANCH   1   3
ATOM      3  C   UNL     1      27.987  23.868  52.721  1.00  0.00    -0.025 A 
ATOM      4  C   UNL     1      27.544  22.799  53.515  1.00  0.00     0.012 A 
ATOM      5  C   UNL     1      28.459  22.045  54.255  1.00  0.00     0.047 A 
ATOM      6  C   UNL     1      29.828  22.338  54.193  1.00  0.00     0.115 A 
ATOM      7  C   UNL     1      29.365  24.138  52.638  1.00  0.00     0.012 A 
ATOM      8  C   UNL     1      30.277  23.382  53.380  1.00  0.00     0.047 A 
BRANCH   6   9
ATOM      9  O   UNL     1      30.748  21.593  54.928  1.00  0.00    -0.508 OA
ATOM     10  H   UNL     1      30.933  20.620  54.715  1.00  0.00     0.293 HD
ENDBRANCH   6   9
ENDBRANCH   1   3
BRANCH   2  11
ATOM     11  C   UNL     1      26.978  23.051  49.949  1.00  0.00     0.189 C 
ATOM     12  O   UNL     1      26.280  22.002  49.896  1.00  0.00    -0.289 OA
BRANCH  11  13
ATOM     13  C   UNL     1      28.285  23.075  49.251  1.00  0.00     0.064 A 
ATOM     14  C   UNL     1      29.303  22.164  49.608  1.00  0.00     0.130 A 
ATOM     15  C   UNL     1      28.540  24.019  48.238  1.00  0.00     0.020 A 
ATOM     16  C   UNL     1      30.541  22.203  48.952  1.00  0.00     0.093 A 
ATOM     17  C   UNL     1      29.777  24.048  47.588  1.00  0.00     0.047 A 
ATOM     18  C   UNL     1      30.778  23.142  47.941  1.00  0.00     0.119 A 
BRANCH  14  19
ATOM     19  O   UNL     1      29.076  21.210  50.601  1.00  0.00    -0.507 OA
ATOM     20  H   UNL     1      29.761  20.495  50.818  1.00  0.00     0.293 HD
ENDBRANCH  14  19
BRANCH  18  21
ATOM     21  O   UNL     1      32.006  23.185  47.285  1.00  0.00    -0.508 OA
ATOM     22  H   UNL     1      32.327  22.416  46.708  1.00  0.00     0.293 HD
ENDBRANCH  18  21
ENDBRANCH  11  13
ENDBRANCH   2  11
TORSDOF 6
ENDMDL
MODEL 8
REMARK VINA RESULT:    -5.700      2.313      6.014
REMARK INTER + INTRA:          -8.561
REMARK INTER:                  -7.824
REMARK INTRA:                  -0.737
REMARK UNBOUND:                -1.362
REMARK SMILES O=C(C=Cc1ccc(O)cc1)c1ccc(O)cc1O
REMARK SMILES IDX 4 1 3 2 5 3 6 4 7 5 8 6 11 7 10 8 9 9 2 11 1 12 12 13 18 14
REMARK SMILES IDX 13 15 17 16 14 17 15 18 19 19 16 21
REMARK H PARENT 9 10 19 20 16 22
REMARK Flexibility Score: inf
ROOT
ATOM      1  C   UNL     1      26.773  21.717  49.464  1.00  0.00     0.012 C 
ATOM      2  C   UNL     1      26.252  22.013  50.666  1.00  0.00     0.053 C 
ENDROOT
BRANCH   1   3
ATOM      3  C   UNL     1      27.720  22.563  48.709  1.00  0.00    -0.025 A 
ATOM      4  C   UNL     1      27.230  23.422  47.713  1.00  0.00     0.012 A 
ATOM      5  C   UNL     1      28.102  24.266  47.019  1.00  0.00     0.047 A 
ATOM      6  C   UNL     1      29.470  24.274  47.327  1.00  0.00     0.115 A 
ATOM      7  C   UNL     1      29.087  22.597  49.036  1.00  0.00     0.012 A 
ATOM      8  C   UNL     1      29.957  23.442  48.339  1.00  0.00     0.047 A 
BRANCH   6   9
ATOM      9  O   UNL     1      30.347  25.110  46.640  1.00  0.00    -0.508 OA
ATOM     10  H   UNL     1      31.337  25.132  46.857  1.00  0.00     0.293 HD
ENDBRANCH   6   9
ENDBRANCH   1   3
BRANCH   2  11
ATOM     11  C   UNL     1      26.675  23.145  51.527  1.00  0.00     0.189 C 
ATOM     12  O   UNL     1      26.089  24.258  51.440  1.00  0.00    -0.289 OA
BRANCH  11  13
ATOM     13  C   UNL     1      27.807  23.004  52.473  1.00  0.00     0.064 A 
ATOM     14  C   UNL     1      28.195  24.089  53.289  1.00  0.00     0.130 A 
ATOM     15  C   UNL     1      28.526  21.797  52.557  1.00  0.00     0.020 A 
ATOM     16  C   UNL     1      29.276  23.952  54.171  1.00  0.00     0.093 A 
ATOM     17  C   UNL     1      29.601  21.669  53.441  1.00  0.00     0.047 A 
ATOM     18  C   UNL     1      29.977  22.743  54.250  1.00  0.00     0.119 A 
BRANCH  14  19
ATOM     19  O   UNL     1      27.495  25.295  53.236  1.00  0.00    -0.507 OA
ATOM     20  H   UNL     1      26.631  25.387  52.715  1.00  0.00     0.293 HD
ENDBRANCH  14  19
BRANCH  18  21
ATOM     21  O   UNL     1      31.052  22.600  55.125  1.00  0.00    -0.508 OA
ATOM     22  H   UNL     1      31.231  23.276  55.859  1.00  0.00     0.293 HD
ENDBRANCH  18  21
ENDBRANCH  11  13
ENDBRANCH   2  11
TORSDOF 6
ENDMDL
MODEL 9
REMARK VINA RESULT:    -5.499     12.534     15.649
REMARK INTER + INTRA:          -8.307
REMARK INTER:                  -7.173
REMARK INTRA:                  -1.134
REMARK UNBOUND:                -1.362
REMARK SMILES O=C(C=Cc1ccc(O)cc1)c1ccc(O)cc1O
REMARK SMILES IDX 4 1 3 2 5 3 6 4 7 5 8 6 11 7 10 8 9 9 2 11 1 12 12 13 18 14
REMARK SMILES IDX 13 15 17 16 14 17 15 18 19 19 16 21
REMARK H PARENT 9 10 19 20 16 22
REMARK Flexibility Score: inf
ROOT
ATOM      1  C   UNL     1      19.755  24.736  39.365  1.00  0.00     0.012 C 
ATOM      2  C   UNL     1      20.175  25.307  40.506  1.00  0.00     0.053 C 
ENDROOT
BRANCH   1   3
ATOM      3  C   UNL     1      18.540  25.116  38.614  1.00  0.00    -0.025 A 
ATOM      4  C   UNL     1      18.650  26.001  37.531  1.00  0.00     0.012 A 
ATOM      5  C   UNL     1      17.522  26.338  36.777  1.00  0.00     0.047 A 
ATOM      6  C   UNL     1      16.275  25.775  37.086  1.00  0.00     0.115 A 
ATOM      7  C   UNL     1      17.294  24.530  38.900  1.00  0.00     0.012 A 
ATOM      8  C   UNL     1      16.167  24.869  38.144  1.00  0.00     0.047 A 
BRANCH   6   9
ATOM      9  O   UNL     1      15.144  26.105  36.342  1.00  0.00    -0.508 OA
ATOM     10  H   UNL     1      14.734  25.452  35.685  1.00  0.00     0.293 HD
ENDBRANCH   6   9
ENDBRANCH   1   3
BRANCH   2  11
ATOM     11  C   UNL     1      19.601  26.534  41.111  1.00  0.00     0.189 C 
ATOM     12  O   UNL     1      19.860  27.664  40.614  1.00  0.00    -0.289 OA
BRANCH  11  13
ATOM     13  C   UNL     1      18.751  26.464  42.323  1.00  0.00     0.064 A 
ATOM     14  C   UNL     1      19.219  26.970  43.555  1.00  0.00     0.130 A 
ATOM     15  C   UNL     1      17.474  25.873  42.270  1.00  0.00     0.020 A 
ATOM     16  C   UNL     1      18.413  26.887  44.699  1.00  0.00     0.093 A 
ATOM     17  C   UNL     1      16.678  25.797  43.416  1.00  0.00     0.047 A 
ATOM     18  C   UNL     1      17.143  26.304  44.630  1.00  0.00     0.119 A 
BRANCH  14  19
ATOM     19  O   UNL     1      20.476  27.571  43.637  1.00  0.00    -0.507 OA
ATOM     20  H   UNL     1      21.081  27.433  44.438  1.00  0.00     0.293 HD
ENDBRANCH  14  19
BRANCH  18  21
ATOM     21  O   UNL     1      16.337  26.219  45.764  1.00  0.00    -0.508 OA
ATOM     22  H   UNL     1      15.960  25.333  46.081  1.00  0.00     0.293 HD
ENDBRANCH  18  21
ENDBRANCH  11  13
ENDBRANCH   2  11
TORSDOF 6
ENDMDL
