MODEL 1
REMARK VINA RESULT:    -5.383      0.000      0.000
REMARK INTER + INTRA:          -5.855
REMARK INTER:                  -5.855
REMARK INTRA:                   0.000
REMARK UNBOUND:                 0.000
REMARK SMILES Cc1cc(O)c2c(c1)C(=O)c1cc(O)cc(O)c1C2=O
REMARK SMILES IDX 1 1 2 2 8 3 7 4 6 5 4 6 3 7 19 8 20 9 18 10 11 11 9 12 10 13
REMARK SMILES IDX 12 14 13 15 15 16 16 17 5 18 17 20 14 22
REMARK H PARENT 5 19 17 21 14 23
REMARK Flexibility Score: inf
ROOT
ATOM      1  C   UNL     1       4.734  23.857   6.247  1.00  0.00     0.044 C 
ATOM      2  C   UNL     1       5.482  25.136   6.011  1.00  0.00    -0.047 A 
ATOM      3  C   UNL     1       6.825  25.107   5.624  1.00  0.00     0.016 A 
ATOM      4  C   UNL     1       7.521  26.298   5.359  1.00  0.00     0.038 A 
ATOM      5  C   UNL     1       6.854  27.539   5.456  1.00  0.00     0.076 A 
ATOM      6  C   UNL     1       5.504  27.567   5.892  1.00  0.00     0.127 A 
ATOM      7  C   UNL     1       4.827  26.368   6.131  1.00  0.00     0.050 A 
ATOM      8  C   UNL     1       7.580  28.762   5.025  1.00  0.00     0.201 C 
ATOM      9  O   UNL     1       6.940  29.737   4.548  1.00  0.00    -0.288 OA
ATOM     10  C   UNL     1       9.065  28.761   4.980  1.00  0.00     0.076 A 
ATOM     11  C   UNL     1       9.730  27.517   4.883  1.00  0.00     0.041 A 
ATOM     12  C   UNL     1       8.955  26.258   4.981  1.00  0.00     0.194 C 
ATOM     13  O   UNL     1       9.521  25.150   4.767  1.00  0.00    -0.289 OA
ATOM     14  C   UNL     1      11.122  27.481   4.699  1.00  0.00     0.059 A 
ATOM     15  C   UNL     1      11.858  28.666   4.627  1.00  0.00     0.120 A 
ATOM     16  C   UNL     1      11.212  29.894   4.763  1.00  0.00     0.093 A 
ATOM     17  C   UNL     1       9.830  29.956   4.967  1.00  0.00     0.131 A 
ENDROOT
BRANCH   6  18
ATOM     18  O   UNL     1       4.811  28.756   6.131  1.00  0.00    -0.507 OA
ATOM     19  H   UNL     1       5.172  29.670   5.895  1.00  0.00     0.293 HD
ENDBRANCH   6  18
BRANCH  17  20
ATOM     20  O   UNL     1       9.268  31.217   5.184  1.00  0.00    -0.507 OA
ATOM     21  H   UNL     1       8.497  31.585   4.644  1.00  0.00     0.293 HD
ENDBRANCH  17  20
BRANCH  15  22
ATOM     22  O   UNL     1      13.239  28.633   4.432  1.00  0.00    -0.508 OA
ATOM     23  H   UNL     1      13.641  28.437   3.525  1.00  0.00     0.293 HD
ENDBRANCH  15  22
TORSDOF 3
ENDMDL
MODEL 2
REMARK VINA RESULT:    -5.350      1.763      2.346
REMARK INTER + INTRA:          -5.819
REMARK INTER:                  -5.819
REMARK INTRA:                   0.000
REMARK UNBOUND:                 0.000
REMARK SMILES Cc1cc(O)c2c(c1)C(=O)c1cc(O)cc(O)c1C2=O
REMARK SMILES IDX 1 1 2 2 8 3 7 4 6 5 4 6 3 7 19 8 20 9 18 10 11 11 9 12 10 13
REMARK SMILES IDX 12 14 13 15 15 16 16 17 5 18 17 20 14 22
REMARK H PARENT 5 19 17 21 14 23
REMARK Flexibility Score: inf
ROOT
ATOM      1  C   UNL     1       4.759  24.349   6.223  1.00  0.00     0.044 C 
ATOM      2  C   UNL     1       5.976  25.180   5.940  1.00  0.00    -0.047 A 
ATOM      3  C   UNL     1       7.147  24.577   5.469  1.00  0.00     0.016 A 
ATOM      4  C   UNL     1       8.277  25.351   5.160  1.00  0.00     0.038 A 
ATOM      5  C   UNL     1       8.227  26.756   5.298  1.00  0.00     0.076 A 
ATOM      6  C   UNL     1       7.053  27.359   5.819  1.00  0.00     0.127 A 
ATOM      7  C   UNL     1       5.934  26.569   6.101  1.00  0.00     0.050 A 
ATOM      8  C   UNL     1       9.389  27.551   4.822  1.00  0.00     0.201 C 
ATOM      9  O   UNL     1       9.213  28.720   4.385  1.00  0.00    -0.288 OA
ATOM     10  C   UNL     1      10.718  26.903   4.683  1.00  0.00     0.076 A 
ATOM     11  C   UNL     1      10.765  25.497   4.545  1.00  0.00     0.041 A 
ATOM     12  C   UNL     1       9.525  24.700   4.692  1.00  0.00     0.194 C 
ATOM     13  O   UNL     1       9.536  23.463   4.444  1.00  0.00    -0.289 OA
ATOM     14  C   UNL     1      11.988  24.862   4.274  1.00  0.00     0.059 A 
ATOM     15  C   UNL     1      13.164  25.608   4.155  1.00  0.00     0.120 A 
ATOM     16  C   UNL     1      13.129  26.991   4.330  1.00  0.00     0.093 A 
ATOM     17  C   UNL     1      11.927  27.645   4.621  1.00  0.00     0.131 A 
ENDROOT
BRANCH   6  18
ATOM     18  O   UNL     1       6.964  28.724   6.101  1.00  0.00    -0.507 OA
ATOM     19  H   UNL     1       6.232  29.322   5.743  1.00  0.00     0.293 HD
ENDBRANCH   6  18
BRANCH  17  20
ATOM     20  O   UNL     1      11.986  29.017   4.873  1.00  0.00    -0.507 OA
ATOM     21  H   UNL     1      11.281  29.520   5.395  1.00  0.00     0.293 HD
ENDBRANCH  17  20
BRANCH  15  22
ATOM     22  O   UNL     1      14.377  24.982   3.873  1.00  0.00    -0.508 OA
ATOM     23  H   UNL     1      14.962  24.604   4.608  1.00  0.00     0.293 HD
ENDBRANCH  15  22
TORSDOF 3
ENDMDL
MODEL 3
REMARK VINA RESULT:    -5.335     11.827     12.932
REMARK INTER + INTRA:          -5.803
REMARK INTER:                  -5.803
REMARK INTRA:                   0.000
REMARK UNBOUND:                 0.000
REMARK SMILES Cc1cc(O)c2c(c1)C(=O)c1cc(O)cc(O)c1C2=O
REMARK SMILES IDX 1 1 2 2 8 3 7 4 6 5 4 6 3 7 19 8 20 9 18 10 11 11 9 12 10 13
REMARK SMILES IDX 12 14 13 15 15 16 16 17 5 18 17 20 14 22
REMARK H PARENT 5 19 17 21 14 23
REMARK Flexibility Score: inf
ROOT
ATOM      1  C   UNL     1      11.561  41.109   7.338  1.00  0.00     0.044 C 
ATOM      2  C   UNL     1      12.604  40.333   6.589  1.00  0.00    -0.047 A 
ATOM      3  C   UNL     1      13.158  39.176   7.146  1.00  0.00     0.016 A 
ATOM      4  C   UNL     1      14.104  38.420   6.435  1.00  0.00     0.038 A 
ATOM      5  C   UNL     1      14.483  38.811   5.132  1.00  0.00     0.076 A 
ATOM      6  C   UNL     1      13.952  40.010   4.588  1.00  0.00     0.127 A 
ATOM      7  C   UNL     1      12.998  40.736   5.307  1.00  0.00     0.050 A 
ATOM      8  C   UNL     1      15.370  37.907   4.356  1.00  0.00     0.201 C 
ATOM      9  O   UNL     1      15.285  37.869   3.100  1.00  0.00    -0.288 OA
ATOM     10  C   UNL     1      16.217  36.916   5.069  1.00  0.00     0.076 A 
ATOM     11  C   UNL     1      15.836  36.526   6.373  1.00  0.00     0.041 A 
ATOM     12  C   UNL     1      14.710  37.212   7.048  1.00  0.00     0.194 C 
ATOM     13  O   UNL     1      14.282  36.785   8.156  1.00  0.00    -0.289 OA
ATOM     14  C   UNL     1      16.529  35.492   7.025  1.00  0.00     0.059 A 
ATOM     15  C   UNL     1      17.605  34.857   6.399  1.00  0.00     0.120 A 
ATOM     16  C   UNL     1      18.010  35.266   5.129  1.00  0.00     0.093 A 
ATOM     17  C   UNL     1      17.349  36.305   4.468  1.00  0.00     0.131 A 
ENDROOT
BRANCH   6  18
ATOM     18  O   UNL     1      14.366  40.531   3.360  1.00  0.00    -0.507 OA
ATOM     19  H   UNL     1      15.205  41.081   3.241  1.00  0.00     0.293 HD
ENDBRANCH   6  18
BRANCH  17  20
ATOM     20  O   UNL     1      17.868  36.720   3.239  1.00  0.00    -0.507 OA
ATOM     21  H   UNL     1      17.758  36.197   2.381  1.00  0.00     0.293 HD
ENDBRANCH  17  20
BRANCH  15  22
ATOM     22  O   UNL     1      18.288  33.822   7.038  1.00  0.00    -0.508 OA
ATOM     23  H   UNL     1      19.278  33.885   7.238  1.00  0.00     0.293 HD
ENDBRANCH  15  22
TORSDOF 3
ENDMDL
MODEL 4
REMARK VINA RESULT:    -5.160      2.033      6.038
REMARK INTER + INTRA:          -5.613
REMARK INTER:                  -5.613
REMARK INTRA:                   0.000
REMARK UNBOUND:                 0.000
REMARK SMILES Cc1cc(O)c2c(c1)C(=O)c1cc(O)cc(O)c1C2=O
REMARK SMILES IDX 1 1 2 2 8 3 7 4 6 5 4 6 3 7 19 8 20 9 18 10 11 11 9 12 10 13
REMARK SMILES IDX 12 14 13 15 15 16 16 17 5 18 17 20 14 22
REMARK H PARENT 5 19 17 21 14 23
REMARK Flexibility Score: inf
ROOT
ATOM      1  C   UNL     1      12.562  26.321   4.147  1.00  0.00     0.044 C 
ATOM      2  C   UNL     1      11.142  25.971   4.483  1.00  0.00    -0.047 A 
ATOM      3  C   UNL     1      10.159  26.966   4.515  1.00  0.00     0.016 A 
ATOM      4  C   UNL     1       8.819  26.641   4.786  1.00  0.00     0.038 A 
ATOM      5  C   UNL     1       8.451  25.295   5.002  1.00  0.00     0.076 A 
ATOM      6  C   UNL     1       9.458  24.295   5.014  1.00  0.00     0.127 A 
ATOM      7  C   UNL     1      10.782  24.640   4.723  1.00  0.00     0.050 A 
ATOM      8  C   UNL     1       7.006  24.975   5.138  1.00  0.00     0.201 C 
ATOM      9  O   UNL     1       6.574  23.851   4.765  1.00  0.00    -0.288 OA
ATOM     10  C   UNL     1       6.049  26.040   5.532  1.00  0.00     0.076 A 
ATOM     11  C   UNL     1       6.420  27.386   5.314  1.00  0.00     0.041 A 
ATOM     12  C   UNL     1       7.790  27.707   4.849  1.00  0.00     0.194 C 
ATOM     13  O   UNL     1       8.087  28.891   4.530  1.00  0.00    -0.289 OA
ATOM     14  C   UNL     1       5.491  28.414   5.545  1.00  0.00     0.059 A 
ATOM     15  C   UNL     1       4.205  28.117   6.004  1.00  0.00     0.120 A 
ATOM     16  C   UNL     1       3.847  26.793   6.259  1.00  0.00     0.093 A 
ATOM     17  C   UNL     1       4.761  25.754   6.057  1.00  0.00     0.131 A 
ENDROOT
BRANCH   6  18
ATOM     18  O   UNL     1       9.197  22.963   5.340  1.00  0.00    -0.507 OA
ATOM     19  H   UNL     1       8.335  22.489   5.109  1.00  0.00     0.293 HD
ENDBRANCH   6  18
BRANCH  17  20
ATOM     20  O   UNL     1       4.361  24.466   6.420  1.00  0.00    -0.507 OA
ATOM     21  H   UNL     1       4.630  24.021   7.287  1.00  0.00     0.293 HD
ENDBRANCH  17  20
BRANCH  15  22
ATOM     22  O   UNL     1       3.276  29.134   6.222  1.00  0.00    -0.508 OA
ATOM     23  H   UNL     1       3.544  30.109   6.203  1.00  0.00     0.293 HD
ENDBRANCH  15  22
TORSDOF 3
ENDMDL
MODEL 5
REMARK VINA RESULT:    -5.111      1.557      6.327
REMARK INTER + INTRA:          -5.560
REMARK INTER:                  -5.560
REMARK INTRA:                   0.000
REMARK UNBOUND:                 0.000
REMARK SMILES Cc1cc(O)c2c(c1)C(=O)c1cc(O)cc(O)c1C2=O
REMARK SMILES IDX 1 1 2 2 8 3 7 4 6 5 4 6 3 7 19 8 20 9 18 10 11 11 9 12 10 13
REMARK SMILES IDX 12 14 13 15 15 16 16 17 5 18 17 20 14 22
REMARK H PARENT 5 19 17 21 14 23
REMARK Flexibility Score: inf
ROOT
ATOM      1  C   UNL     1      13.008  29.005   4.080  1.00  0.00     0.044 C 
ATOM      2  C   UNL     1      11.918  28.023   4.398  1.00  0.00    -0.047 A 
ATOM      3  C   UNL     1      10.609  28.468   4.610  1.00  0.00     0.016 A 
ATOM      4  C   UNL     1       9.574  27.554   4.866  1.00  0.00     0.038 A 
ATOM      5  C   UNL     1       9.847  26.167   4.881  1.00  0.00     0.076 A 
ATOM      6  C   UNL     1      11.184  25.724   4.710  1.00  0.00     0.127 A 
ATOM      7  C   UNL     1      12.194  26.652   4.438  1.00  0.00     0.050 A 
ATOM      8  C   UNL     1       8.703  25.227   5.007  1.00  0.00     0.201 C 
ATOM      9  O   UNL     1       8.768  24.086   4.477  1.00  0.00    -0.288 OA
ATOM     10  C   UNL     1       7.421  25.700   5.588  1.00  0.00     0.076 A 
ATOM     11  C   UNL     1       7.150  27.087   5.571  1.00  0.00     0.041 A 
ATOM     12  C   UNL     1       8.195  28.037   5.122  1.00  0.00     0.194 C 
ATOM     13  O   UNL     1       7.919  29.260   4.982  1.00  0.00    -0.289 OA
ATOM     14  C   UNL     1       5.893  27.560   5.984  1.00  0.00     0.059 A 
ATOM     15  C   UNL     1       4.912  26.669   6.428  1.00  0.00     0.120 A 
ATOM     16  C   UNL     1       5.189  25.304   6.484  1.00  0.00     0.093 A 
ATOM     17  C   UNL     1       6.439  24.810   6.098  1.00  0.00     0.131 A 
ENDROOT
BRANCH   6  18
ATOM     18  O   UNL     1      11.558  24.384   4.833  1.00  0.00    -0.507 OA
ATOM     19  H   UNL     1      11.250  23.658   4.201  1.00  0.00     0.293 HD
ENDBRANCH   6  18
BRANCH  17  20
ATOM     20  O   UNL     1       6.673  23.444   6.269  1.00  0.00    -0.507 OA
ATOM     21  H   UNL     1       6.904  23.023   7.158  1.00  0.00     0.293 HD
ENDBRANCH  17  20
BRANCH  15  22
ATOM     22  O   UNL     1       3.659  27.134   6.826  1.00  0.00    -0.508 OA
ATOM     23  H   UNL     1       3.561  27.867   7.517  1.00  0.00     0.293 HD
ENDBRANCH  15  22
TORSDOF 3
ENDMDL
MODEL 6
REMARK VINA RESULT:    -5.031      2.501      5.059
REMARK INTER + INTRA:          -5.472
REMARK INTER:                  -5.472
REMARK INTRA:                   0.000
REMARK UNBOUND:                 0.000
REMARK SMILES Cc1cc(O)c2c(c1)C(=O)c1cc(O)cc(O)c1C2=O
REMARK SMILES IDX 1 1 2 2 8 3 7 4 6 5 4 6 3 7 19 8 20 9 18 10 11 11 9 12 10 13
REMARK SMILES IDX 12 14 13 15 15 16 16 17 5 18 17 20 14 22
REMARK H PARENT 5 19 17 21 14 23
REMARK Flexibility Score: inf
ROOT
ATOM      1  C   UNL     1       8.120  20.987   6.974  1.00  0.00     0.044 C 
ATOM      2  C   UNL     1       8.057  22.381   6.422  1.00  0.00    -0.047 A 
ATOM      3  C   UNL     1       6.944  23.190   6.674  1.00  0.00     0.016 A 
ATOM      4  C   UNL     1       6.895  24.511   6.198  1.00  0.00     0.038 A 
ATOM      5  C   UNL     1       7.990  25.042   5.482  1.00  0.00     0.076 A 
ATOM      6  C   UNL     1       9.098  24.204   5.190  1.00  0.00     0.127 A 
ATOM      7  C   UNL     1       9.132  22.899   5.690  1.00  0.00     0.050 A 
ATOM      8  C   UNL     1       7.964  26.484   5.125  1.00  0.00     0.201 C 
ATOM      9  O   UNL     1       9.043  27.128   5.032  1.00  0.00    -0.288 OA
ATOM     10  C   UNL     1       6.666  27.206   5.067  1.00  0.00     0.076 A 
ATOM     11  C   UNL     1       5.572  26.672   5.786  1.00  0.00     0.041 A 
ATOM     12  C   UNL     1       5.697  25.350   6.443  1.00  0.00     0.194 C 
ATOM     13  O   UNL     1       4.772  24.926   7.191  1.00  0.00    -0.289 OA
ATOM     14  C   UNL     1       4.371  27.394   5.869  1.00  0.00     0.059 A 
ATOM     15  C   UNL     1       4.243  28.632   5.233  1.00  0.00     0.120 A 
ATOM     16  C   UNL     1       5.306  29.144   4.490  1.00  0.00     0.093 A 
ATOM     17  C   UNL     1       6.505  28.434   4.375  1.00  0.00     0.131 A 
ENDROOT
BRANCH   6  18
ATOM     18  O   UNL     1      10.164  24.613   4.385  1.00  0.00    -0.507 OA
ATOM     19  H   UNL     1      11.129  24.388   4.580  1.00  0.00     0.293 HD
ENDBRANCH   6  18
BRANCH  17  20
ATOM     20  O   UNL     1       7.491  28.966   3.540  1.00  0.00    -0.507 OA
ATOM     21  H   UNL     1       8.049  28.408   2.909  1.00  0.00     0.293 HD
ENDBRANCH  17  20
BRANCH  15  22
ATOM     22  O   UNL     1       3.056  29.358   5.324  1.00  0.00    -0.508 OA
ATOM     23  H   UNL     1       3.055  30.347   5.537  1.00  0.00     0.293 HD
ENDBRANCH  15  22
TORSDOF 3
ENDMDL
MODEL 7
REMARK VINA RESULT:    -4.947      2.677      4.925
REMARK INTER + INTRA:          -5.381
REMARK INTER:                  -5.381
REMARK INTRA:                   0.000
REMARK UNBOUND:                 0.000
REMARK SMILES Cc1cc(O)c2c(c1)C(=O)c1cc(O)cc(O)c1C2=O
REMARK SMILES IDX 1 1 2 2 8 3 7 4 6 5 4 6 3 7 19 8 20 9 18 10 11 11 9 12 10 13
REMARK SMILES IDX 12 14 13 15 15 16 16 17 5 18 17 20 14 22
REMARK H PARENT 5 19 17 21 14 23
REMARK Flexibility Score: inf
ROOT
ATOM      1  C   UNL     1       9.802  21.803   4.497  1.00  0.00     0.044 C 
ATOM      2  C   UNL     1      10.433  23.165   4.474  1.00  0.00    -0.047 A 
ATOM      3  C   UNL     1       9.658  24.305   4.710  1.00  0.00     0.016 A 
ATOM      4  C   UNL     1      10.247  25.580   4.734  1.00  0.00     0.038 A 
ATOM      5  C   UNL     1      11.641  25.715   4.545  1.00  0.00     0.076 A 
ATOM      6  C   UNL     1      12.415  24.561   4.261  1.00  0.00     0.127 A 
ATOM      7  C   UNL     1      11.810  23.300   4.262  1.00  0.00     0.050 A 
ATOM      8  C   UNL     1      12.247  27.060   4.724  1.00  0.00     0.201 C 
ATOM      9  O   UNL     1      13.434  27.164   5.133  1.00  0.00    -0.288 OA
ATOM     10  C   UNL     1      11.398  28.273   4.604  1.00  0.00     0.076 A 
ATOM     11  C   UNL     1      10.004  28.135   4.794  1.00  0.00     0.041 A 
ATOM     12  C   UNL     1       9.412  26.786   4.953  1.00  0.00     0.194 C 
ATOM     13  O   UNL     1       8.191  26.663   5.250  1.00  0.00    -0.289 OA
ATOM     14  C   UNL     1       9.186  29.276   4.826  1.00  0.00     0.059 A 
ATOM     15  C   UNL     1       9.738  30.549   4.655  1.00  0.00     0.120 A 
ATOM     16  C   UNL     1      11.106  30.687   4.428  1.00  0.00     0.093 A 
ATOM     17  C   UNL     1      11.939  29.565   4.372  1.00  0.00     0.131 A 
ENDROOT
BRANCH   6  18
ATOM     18  O   UNL     1      13.774  24.621   3.942  1.00  0.00    -0.507 OA
ATOM     19  H   UNL     1      14.301  25.483   3.905  1.00  0.00     0.293 HD
ENDBRANCH   6  18
BRANCH  17  20
ATOM     20  O   UNL     1      13.282  29.775   4.050  1.00  0.00    -0.507 OA
ATOM     21  H   UNL     1      14.026  29.784   4.734  1.00  0.00     0.293 HD
ENDBRANCH  17  20
BRANCH  15  22
ATOM     22  O   UNL     1       8.930  31.685   4.699  1.00  0.00    -0.508 OA
ATOM     23  H   UNL     1       8.619  32.146   3.854  1.00  0.00     0.293 HD
ENDBRANCH  15  22
TORSDOF 3
ENDMDL
MODEL 8
REMARK VINA RESULT:    -4.902      3.281      7.370
REMARK INTER + INTRA:          -5.332
REMARK INTER:                  -5.332
REMARK INTRA:                   0.000
REMARK UNBOUND:                 0.000
REMARK SMILES Cc1cc(O)c2c(c1)C(=O)c1cc(O)cc(O)c1C2=O
REMARK SMILES IDX 1 1 2 2 8 3 7 4 6 5 4 6 3 7 19 8 20 9 18 10 11 11 9 12 10 13
REMARK SMILES IDX 12 14 13 15 15 16 16 17 5 18 17 20 14 22
REMARK H PARENT 5 19 17 21 14 23
REMARK Flexibility Score: inf
ROOT
ATOM      1  C   UNL     1      12.761  30.045   4.086  1.00  0.00     0.044 C 
ATOM      2  C   UNL     1      12.672  28.548   4.156  1.00  0.00    -0.047 A 
ATOM      3  C   UNL     1      11.447  27.926   4.415  1.00  0.00     0.016 A 
ATOM      4  C   UNL     1      11.346  26.525   4.439  1.00  0.00     0.038 A 
ATOM      5  C   UNL     1      12.484  25.732   4.173  1.00  0.00     0.076 A 
ATOM      6  C   UNL     1      13.735  26.368   3.956  1.00  0.00     0.127 A 
ATOM      7  C   UNL     1      13.806  27.763   3.917  1.00  0.00     0.050 A 
ATOM      8  C   UNL     1      12.306  24.261   4.061  1.00  0.00     0.201 C 
ATOM      9  O   UNL     1      13.061  23.592   3.306  1.00  0.00    -0.288 OA
ATOM     10  C   UNL     1      11.125  23.612   4.687  1.00  0.00     0.076 A 
ATOM     11  C   UNL     1       9.988  24.408   4.952  1.00  0.00     0.041 A 
ATOM     12  C   UNL     1      10.049  25.874   4.746  1.00  0.00     0.194 C 
ATOM     13  O   UNL     1       9.003  26.572   4.857  1.00  0.00    -0.289 OA
ATOM     14  C   UNL     1       8.805  23.806   5.414  1.00  0.00     0.059 A 
ATOM     15  C   UNL     1       8.750  22.426   5.630  1.00  0.00     0.120 A 
ATOM     16  C   UNL     1       9.882  21.643   5.408  1.00  0.00     0.093 A 
ATOM     17  C   UNL     1      11.077  22.221   4.967  1.00  0.00     0.131 A 
ENDROOT
BRANCH   6  18
ATOM     18  O   UNL     1      14.928  25.657   3.807  1.00  0.00    -0.507 OA
ATOM     19  H   UNL     1      15.106  25.016   3.047  1.00  0.00     0.293 HD
ENDBRANCH   6  18
BRANCH  17  20
ATOM     20  O   UNL     1      12.192  21.388   4.855  1.00  0.00    -0.507 OA
ATOM     21  H   UNL     1      13.100  21.616   5.236  1.00  0.00     0.293 HD
ENDBRANCH  17  20
BRANCH  15  22
ATOM     22  O   UNL     1       7.574  21.824   6.076  1.00  0.00    -0.508 OA
ATOM     23  H   UNL     1       7.446  20.821   6.040  1.00  0.00     0.293 HD
ENDBRANCH  15  22
TORSDOF 3
ENDMDL
MODEL 9
REMARK VINA RESULT:    -4.775      7.543     10.577
REMARK INTER + INTRA:          -5.193
REMARK INTER:                  -5.193
REMARK INTRA:                   0.000
REMARK UNBOUND:                 0.000
REMARK SMILES Cc1cc(O)c2c(c1)C(=O)c1cc(O)cc(O)c1C2=O
REMARK SMILES IDX 1 1 2 2 8 3 7 4 6 5 4 6 3 7 19 8 20 9 18 10 11 11 9 12 10 13
REMARK SMILES IDX 12 14 13 15 15 16 16 17 5 18 17 20 14 22
REMARK H PARENT 5 19 17 21 14 23
REMARK Flexibility Score: inf
ROOT
ATOM      1  C   UNL     1      14.486  36.624   8.120  1.00  0.00     0.044 C 
ATOM      2  C   UNL     1      15.157  35.700   7.147  1.00  0.00    -0.047 A 
ATOM      3  C   UNL     1      14.402  34.779   6.413  1.00  0.00     0.016 A 
ATOM      4  C   UNL     1      15.015  33.940   5.469  1.00  0.00     0.038 A 
ATOM      5  C   UNL     1      16.405  34.041   5.234  1.00  0.00     0.076 A 
ATOM      6  C   UNL     1      17.174  34.945   6.013  1.00  0.00     0.127 A 
ATOM      7  C   UNL     1      16.538  35.783   6.933  1.00  0.00     0.050 A 
ATOM      8  C   UNL     1      16.990  33.244   4.125  1.00  0.00     0.201 C 
ATOM      9  O   UNL     1      17.999  33.675   3.506  1.00  0.00    -0.288 OA
ATOM     10  C   UNL     1      16.277  32.040   3.627  1.00  0.00     0.076 A 
ATOM     11  C   UNL     1      14.887  31.941   3.863  1.00  0.00     0.041 A 
ATOM     12  C   UNL     1      14.211  32.945   4.718  1.00  0.00     0.194 C 
ATOM     13  O   UNL     1      12.954  32.937   4.829  1.00  0.00    -0.289 OA
ATOM     14  C   UNL     1      14.153  30.889   3.290  1.00  0.00     0.059 A 
ATOM     15  C   UNL     1      14.790  29.929   2.500  1.00  0.00     0.120 A 
ATOM     16  C   UNL     1      16.168  30.000   2.297  1.00  0.00     0.093 A 
ATOM     17  C   UNL     1      16.924  31.025   2.873  1.00  0.00     0.131 A 
ENDROOT
BRANCH   6  18
ATOM     18  O   UNL     1      18.566  35.019   5.929  1.00  0.00    -0.507 OA
ATOM     19  H   UNL     1      19.071  35.076   5.056  1.00  0.00     0.293 HD
ENDBRANCH   6  18
BRANCH  17  20
ATOM     20  O   UNL     1      18.309  30.979   2.701  1.00  0.00    -0.507 OA
ATOM     21  H   UNL     1      18.932  31.725   2.980  1.00  0.00     0.293 HD
ENDBRANCH  17  20
BRANCH  15  22
ATOM     22  O   UNL     1      14.063  28.891   1.919  1.00  0.00    -0.508 OA
ATOM     23  H   UNL     1      13.341  28.399   2.430  1.00  0.00     0.293 HD
ENDBRANCH  15  22
TORSDOF 3
ENDMDL
