MODEL 1
REMARK VINA RESULT:    -7.693      0.000      0.000
REMARK INTER + INTRA:          -9.468
REMARK INTER:                  -9.267
REMARK INTRA:                  -0.201
REMARK UNBOUND:                -0.201
REMARK SMILES O=c1c(O)c(-c2ccc(O)cc2O)oc2cc(O)cc(O)c12
REMARK SMILES IDX 5 1 3 2 2 3 1 4 22 5 20 6 19 7 17 8 16 9 15 10 14 11 6 12
REMARK SMILES IDX 8 13 7 14 9 15 11 16 12 17 10 18 13 20 4 22 21 24 18 26
REMARK H PARENT 10 19 13 21 4 23 21 25 18 27
REMARK Flexibility Score: inf
ROOT
ATOM      1  C   UNL     1      13.079  56.666   6.659  1.00  0.00     0.184 A 
ATOM      2  C   UNL     1      13.806  56.462   7.842  1.00  0.00     0.208 A 
ATOM      3  C   UNL     1      14.942  57.248   8.087  1.00  0.00     0.238 A 
ATOM      4  O   UNL     1      15.621  57.024   9.123  1.00  0.00    -0.285 OA
ATOM      5  C   UNL     1      15.327  58.239   7.151  1.00  0.00     0.111 A 
ATOM      6  C   UNL     1      16.438  59.121   7.314  1.00  0.00     0.134 A 
ATOM      7  C   UNL     1      16.803  59.973   6.266  1.00  0.00     0.093 A 
ATOM      8  C   UNL     1      16.060  60.025   5.088  1.00  0.00     0.123 A 
ATOM      9  C   UNL     1      14.936  59.210   4.940  1.00  0.00     0.094 A 
ATOM     10  C   UNL     1      14.569  58.322   5.953  1.00  0.00     0.146 A 
ATOM     11  O   UNL     1      13.500  57.557   5.769  1.00  0.00    -0.451 OA
ENDROOT
BRANCH   1  12
ATOM     12  C   UNL     1      11.863  55.884   6.350  1.00  0.00     0.063 A 
ATOM     13  C   UNL     1       9.702  55.032   7.068  1.00  0.00     0.047 A 
ATOM     14  C   UNL     1      10.861  55.769   7.326  1.00  0.00     0.020 A 
ATOM     15  C   UNL     1       9.536  54.391   5.835  1.00  0.00     0.119 A 
ATOM     16  C   UNL     1      10.539  54.482   4.865  1.00  0.00     0.093 A 
ATOM     17  C   UNL     1      11.709  55.214   5.119  1.00  0.00     0.130 A 
BRANCH  15  18
ATOM     18  O   UNL     1       8.383  53.658   5.565  1.00  0.00    -0.508 OA
ATOM     19  H   UNL     1       7.941  53.086   6.275  1.00  0.00     0.293 HD
ENDBRANCH  15  18
BRANCH  17  20
ATOM     20  O   UNL     1      12.722  55.256   4.161  1.00  0.00    -0.507 OA
ATOM     21  H   UNL     1      12.545  55.566   3.213  1.00  0.00     0.293 HD
ENDBRANCH  17  20
ENDBRANCH   1  12
BRANCH   2  22
ATOM     22  O   UNL     1      13.415  55.465   8.740  1.00  0.00    -0.502 OA
ATOM     23  H   UNL     1      13.987  54.651   8.932  1.00  0.00     0.293 HD
ENDBRANCH   2  22
BRANCH   6  24
ATOM     24  O   UNL     1      17.193  59.215   8.487  1.00  0.00    -0.507 OA
ATOM     25  H   UNL     1      17.957  59.860   8.629  1.00  0.00     0.293 HD
ENDBRANCH   6  24
BRANCH   8  26
ATOM     26  O   UNL     1      16.443  60.898   4.070  1.00  0.00    -0.508 OA
ATOM     27  H   UNL     1      16.237  61.889   4.118  1.00  0.00     0.293 HD
ENDBRANCH   8  26
TORSDOF 6
ENDMDL
MODEL 2
REMARK VINA RESULT:    -7.508      8.422     10.533
REMARK INTER + INTRA:          -9.244
REMARK INTER:                  -8.834
REMARK INTRA:                  -0.411
REMARK UNBOUND:                -0.201
REMARK SMILES O=c1c(O)c(-c2ccc(O)cc2O)oc2cc(O)cc(O)c12
REMARK SMILES IDX 5 1 3 2 2 3 1 4 22 5 20 6 19 7 17 8 16 9 15 10 14 11 6 12
REMARK SMILES IDX 8 13 7 14 9 15 11 16 12 17 10 18 13 20 4 22 21 24 18 26
REMARK H PARENT 10 19 13 21 4 23 21 25 18 27
REMARK Flexibility Score: inf
ROOT
ATOM      1  C   UNL     1      13.628  53.208  -3.039  1.00  0.00     0.184 A 
ATOM      2  C   UNL     1      14.925  53.262  -2.506  1.00  0.00     0.208 A 
ATOM      3  C   UNL     1      15.113  53.803  -1.225  1.00  0.00     0.238 A 
ATOM      4  O   UNL     1      16.286  53.898  -0.775  1.00  0.00    -0.285 OA
ATOM      5  C   UNL     1      13.998  54.267  -0.487  1.00  0.00     0.111 A 
ATOM      6  C   UNL     1      14.066  54.797   0.837  1.00  0.00     0.134 A 
ATOM      7  C   UNL     1      12.918  55.347   1.421  1.00  0.00     0.093 A 
ATOM      8  C   UNL     1      11.693  55.326   0.757  1.00  0.00     0.123 A 
ATOM      9  C   UNL     1      11.602  54.757  -0.514  1.00  0.00     0.094 A 
ATOM     10  C   UNL     1      12.737  54.234  -1.137  1.00  0.00     0.146 A 
ATOM     11  O   UNL     1      12.610  53.711  -2.351  1.00  0.00    -0.451 OA
ENDROOT
BRANCH   1  12
ATOM     12  C   UNL     1      13.359  52.636  -4.374  1.00  0.00     0.063 A 
ATOM     13  C   UNL     1      12.840  50.687  -5.734  1.00  0.00     0.047 A 
ATOM     14  C   UNL     1      13.093  51.261  -4.485  1.00  0.00     0.020 A 
ATOM     15  C   UNL     1      12.863  51.477  -6.889  1.00  0.00     0.119 A 
ATOM     16  C   UNL     1      13.150  52.842  -6.790  1.00  0.00     0.093 A 
ATOM     17  C   UNL     1      13.411  53.426  -5.541  1.00  0.00     0.130 A 
BRANCH  15  18
ATOM     18  O   UNL     1      12.608  50.917  -8.138  1.00  0.00    -0.508 OA
ATOM     19  H   UNL     1      12.511  49.915  -8.259  1.00  0.00     0.293 HD
ENDBRANCH  15  18
BRANCH  17  20
ATOM     20  O   UNL     1      13.744  54.778  -5.463  1.00  0.00    -0.507 OA
ATOM     21  H   UNL     1      13.115  55.457  -5.049  1.00  0.00     0.293 HD
ENDBRANCH  17  20
ENDBRANCH   1  12
BRANCH   2  22
ATOM     22  O   UNL     1      16.011  52.814  -3.264  1.00  0.00    -0.502 OA
ATOM     23  H   UNL     1      15.958  52.687  -4.268  1.00  0.00     0.293 HD
ENDBRANCH   2  22
BRANCH   6  24
ATOM     24  O   UNL     1      15.221  54.784   1.625  1.00  0.00    -0.507 OA
ATOM     25  H   UNL     1      15.927  55.506   1.623  1.00  0.00     0.293 HD
ENDBRANCH   6  24
BRANCH   8  26
ATOM     26  O   UNL     1      10.567  55.868   1.375  1.00  0.00    -0.508 OA
ATOM     27  H   UNL     1      10.494  55.930   2.384  1.00  0.00     0.293 HD
ENDBRANCH   8  26
TORSDOF 6
ENDMDL
MODEL 3
REMARK VINA RESULT:    -7.452      3.259      6.471
REMARK INTER + INTRA:          -9.178
REMARK INTER:                  -8.767
REMARK INTRA:                  -0.411
REMARK UNBOUND:                -0.201
REMARK SMILES O=c1c(O)c(-c2ccc(O)cc2O)oc2cc(O)cc(O)c12
REMARK SMILES IDX 5 1 3 2 2 3 1 4 22 5 20 6 19 7 17 8 16 9 15 10 14 11 6 12
REMARK SMILES IDX 8 13 7 14 9 15 11 16 12 17 10 18 13 20 4 22 21 24 18 26
REMARK H PARENT 10 19 13 21 4 23 21 25 18 27
REMARK Flexibility Score: inf
ROOT
ATOM      1  C   UNL     1      12.608  55.289   3.307  1.00  0.00     0.184 A 
ATOM      2  C   UNL     1      11.316  54.741   3.310  1.00  0.00     0.208 A 
ATOM      3  C   UNL     1      10.593  54.712   4.511  1.00  0.00     0.238 A 
ATOM      4  O   UNL     1       9.456  54.169   4.519  1.00  0.00    -0.285 OA
ATOM      5  C   UNL     1      11.165  55.246   5.691  1.00  0.00     0.111 A 
ATOM      6  C   UNL     1      10.507  55.305   6.957  1.00  0.00     0.134 A 
ATOM      7  C   UNL     1      11.216  55.736   8.084  1.00  0.00     0.093 A 
ATOM      8  C   UNL     1      12.536  56.171   7.982  1.00  0.00     0.123 A 
ATOM      9  C   UNL     1      13.171  56.173   6.739  1.00  0.00     0.094 A 
ATOM     10  C   UNL     1      12.502  55.715   5.602  1.00  0.00     0.146 A 
ATOM     11  O   UNL     1      13.145  55.723   4.441  1.00  0.00    -0.451 OA
ENDROOT
BRANCH   1  12
ATOM     12  C   UNL     1      13.417  55.367   2.072  1.00  0.00     0.063 A 
ATOM     13  C   UNL     1      14.734  54.225   0.377  1.00  0.00     0.047 A 
ATOM     14  C   UNL     1      13.960  54.186   1.539  1.00  0.00     0.020 A 
ATOM     15  C   UNL     1      14.987  55.445  -0.260  1.00  0.00     0.119 A 
ATOM     16  C   UNL     1      14.469  56.628   0.276  1.00  0.00     0.093 A 
ATOM     17  C   UNL     1      13.696  56.599   1.447  1.00  0.00     0.130 A 
BRANCH  15  18
ATOM     18  O   UNL     1      15.753  55.495  -1.422  1.00  0.00    -0.508 OA
ATOM     19  H   UNL     1      15.700  56.282  -2.058  1.00  0.00     0.293 HD
ENDBRANCH  15  18
BRANCH  17  20
ATOM     20  O   UNL     1      13.228  57.791   1.998  1.00  0.00    -0.507 OA
ATOM     21  H   UNL     1      12.609  57.799   2.801  1.00  0.00     0.293 HD
ENDBRANCH  17  20
ENDBRANCH   1  12
BRANCH   2  22
ATOM     22  O   UNL     1      10.783  54.203   2.135  1.00  0.00    -0.502 OA
ATOM     23  H   UNL     1      10.406  54.782   1.394  1.00  0.00     0.293 HD
ENDBRANCH   2  22
BRANCH   6  24
ATOM     24  O   UNL     1       9.161  54.981   7.152  1.00  0.00    -0.507 OA
ATOM     25  H   UNL     1       8.423  55.653   7.300  1.00  0.00     0.293 HD
ENDBRANCH   6  24
BRANCH   8  26
ATOM     26  O   UNL     1      13.207  56.609   9.123  1.00  0.00    -0.508 OA
ATOM     27  H   UNL     1      12.756  57.207   9.806  1.00  0.00     0.293 HD
ENDBRANCH   8  26
TORSDOF 6
ENDMDL
MODEL 4
REMARK VINA RESULT:    -7.438      4.356      6.812
REMARK INTER + INTRA:          -9.161
REMARK INTER:                  -8.899
REMARK INTRA:                  -0.262
REMARK UNBOUND:                -0.201
REMARK SMILES O=c1c(O)c(-c2ccc(O)cc2O)oc2cc(O)cc(O)c12
REMARK SMILES IDX 5 1 3 2 2 3 1 4 22 5 20 6 19 7 17 8 16 9 15 10 14 11 6 12
REMARK SMILES IDX 8 13 7 14 9 15 11 16 12 17 10 18 13 20 4 22 21 24 18 26
REMARK H PARENT 10 19 13 21 4 23 21 25 18 27
REMARK Flexibility Score: inf
ROOT
ATOM      1  C   UNL     1      12.214  54.714   2.496  1.00  0.00     0.184 A 
ATOM      2  C   UNL     1      11.744  55.290   1.306  1.00  0.00     0.208 A 
ATOM      3  C   UNL     1      12.511  55.159   0.138  1.00  0.00     0.238 A 
ATOM      4  O   UNL     1      12.112  55.724  -0.914  1.00  0.00    -0.285 OA
ATOM      5  C   UNL     1      13.730  54.439   0.173  1.00  0.00     0.111 A 
ATOM      6  C   UNL     1      14.568  54.208  -0.959  1.00  0.00     0.134 A 
ATOM      7  C   UNL     1      15.814  53.595  -0.782  1.00  0.00     0.093 A 
ATOM      8  C   UNL     1      16.223  53.144   0.472  1.00  0.00     0.123 A 
ATOM      9  C   UNL     1      15.386  53.311   1.576  1.00  0.00     0.094 A 
ATOM     10  C   UNL     1      14.153  53.953   1.438  1.00  0.00     0.146 A 
ATOM     11  O   UNL     1      13.391  54.101   2.515  1.00  0.00    -0.451 OA
ENDROOT
BRANCH   1  12
ATOM     12  C   UNL     1      11.447  54.801   3.757  1.00  0.00     0.063 A 
ATOM     13  C   UNL     1       9.354  54.449   4.944  1.00  0.00     0.047 A 
ATOM     14  C   UNL     1      10.109  54.376   3.770  1.00  0.00     0.020 A 
ATOM     15  C   UNL     1       9.924  54.962   6.116  1.00  0.00     0.119 A 
ATOM     16  C   UNL     1      11.248  55.408   6.105  1.00  0.00     0.093 A 
ATOM     17  C   UNL     1      12.012  55.343   4.930  1.00  0.00     0.130 A 
BRANCH  15  18
ATOM     18  O   UNL     1       9.182  55.035   7.292  1.00  0.00    -0.508 OA
ATOM     19  H   UNL     1       8.169  55.049   7.280  1.00  0.00     0.293 HD
ENDBRANCH  15  18
BRANCH  17  20
ATOM     20  O   UNL     1      13.316  55.837   4.921  1.00  0.00    -0.507 OA
ATOM     21  H   UNL     1      13.967  55.606   4.179  1.00  0.00     0.293 HD
ENDBRANCH  17  20
ENDBRANCH   1  12
BRANCH   2  22
ATOM     22  O   UNL     1      10.547  56.012   1.303  1.00  0.00    -0.502 OA
ATOM     23  H   UNL     1      10.262  56.595   2.081  1.00  0.00     0.293 HD
ENDBRANCH   2  22
BRANCH   6  24
ATOM     24  O   UNL     1      14.215  54.536  -2.271  1.00  0.00    -0.507 OA
ATOM     25  H   UNL     1      14.023  55.472  -2.598  1.00  0.00     0.293 HD
ENDBRANCH   6  24
BRANCH   8  26
ATOM     26  O   UNL     1      17.464  52.523   0.609  1.00  0.00    -0.508 OA
ATOM     27  H   UNL     1      18.223  52.962   1.117  1.00  0.00     0.293 HD
ENDBRANCH   8  26
TORSDOF 6
ENDMDL
MODEL 5
REMARK VINA RESULT:    -7.394      1.635      6.438
REMARK INTER + INTRA:          -9.108
REMARK INTER:                  -8.889
REMARK INTRA:                  -0.218
REMARK UNBOUND:                -0.201
REMARK SMILES O=c1c(O)c(-c2ccc(O)cc2O)oc2cc(O)cc(O)c12
REMARK SMILES IDX 5 1 3 2 2 3 1 4 22 5 20 6 19 7 17 8 16 9 15 10 14 11 6 12
REMARK SMILES IDX 8 13 7 14 9 15 11 16 12 17 10 18 13 20 4 22 21 24 18 26
REMARK H PARENT 10 19 13 21 4 23 21 25 18 27
REMARK Flexibility Score: inf
ROOT
ATOM      1  C   UNL     1      12.600  56.562   6.745  1.00  0.00     0.184 A 
ATOM      2  C   UNL     1      11.560  56.049   7.534  1.00  0.00     0.208 A 
ATOM      3  C   UNL     1      10.488  55.397   6.907  1.00  0.00     0.238 A 
ATOM      4  O   UNL     1       9.531  54.987   7.615  1.00  0.00    -0.285 OA
ATOM      5  C   UNL     1      10.478  55.253   5.498  1.00  0.00     0.111 A 
ATOM      6  C   UNL     1       9.463  54.575   4.759  1.00  0.00     0.134 A 
ATOM      7  C   UNL     1       9.490  54.607   3.359  1.00  0.00     0.093 A 
ATOM      8  C   UNL     1      10.528  55.233   2.673  1.00  0.00     0.123 A 
ATOM      9  C   UNL     1      11.559  55.849   3.386  1.00  0.00     0.094 A 
ATOM     10  C   UNL     1      11.541  55.866   4.782  1.00  0.00     0.146 A 
ATOM     11  O   UNL     1      12.534  56.471   5.422  1.00  0.00    -0.451 OA
ENDROOT
BRANCH   1  12
ATOM     12  C   UNL     1      13.767  57.245   7.344  1.00  0.00     0.063 A 
ATOM     13  C   UNL     1      15.561  57.237   8.985  1.00  0.00     0.047 A 
ATOM     14  C   UNL     1      14.458  56.617   8.392  1.00  0.00     0.020 A 
ATOM     15  C   UNL     1      15.979  58.498   8.545  1.00  0.00     0.119 A 
ATOM     16  C   UNL     1      15.283  59.141   7.517  1.00  0.00     0.093 A 
ATOM     17  C   UNL     1      14.170  58.528   6.921  1.00  0.00     0.130 A 
BRANCH  15  18
ATOM     18  O   UNL     1      17.080  59.124   9.125  1.00  0.00    -0.508 OA
ATOM     19  H   UNL     1      17.665  58.646   9.801  1.00  0.00     0.293 HD
ENDBRANCH  15  18
BRANCH  17  20
ATOM     20  O   UNL     1      13.455  59.201   5.931  1.00  0.00    -0.507 OA
ATOM     21  H   UNL     1      13.674  59.089   4.947  1.00  0.00     0.293 HD
ENDBRANCH  17  20
ENDBRANCH   1  12
BRANCH   2  22
ATOM     22  O   UNL     1      11.584  56.221   8.921  1.00  0.00    -0.502 OA
ATOM     23  H   UNL     1      12.016  55.550   9.545  1.00  0.00     0.293 HD
ENDBRANCH   2  22
BRANCH   6  24
ATOM     24  O   UNL     1       8.429  53.840   5.347  1.00  0.00    -0.507 OA
ATOM     25  H   UNL     1       8.134  52.922   5.047  1.00  0.00     0.293 HD
ENDBRANCH   6  24
BRANCH   8  26
ATOM     26  O   UNL     1      10.532  55.232   1.279  1.00  0.00    -0.508 OA
ATOM     27  H   UNL     1      10.179  56.019   0.747  1.00  0.00     0.293 HD
ENDBRANCH   8  26
TORSDOF 6
ENDMDL
MODEL 6
REMARK VINA RESULT:    -7.380      7.304      9.508
REMARK INTER + INTRA:          -9.091
REMARK INTER:                  -8.680
REMARK INTRA:                  -0.411
REMARK UNBOUND:                -0.201
REMARK SMILES O=c1c(O)c(-c2ccc(O)cc2O)oc2cc(O)cc(O)c12
REMARK SMILES IDX 5 1 3 2 2 3 1 4 22 5 20 6 19 7 17 8 16 9 15 10 14 11 6 12
REMARK SMILES IDX 8 13 7 14 9 15 11 16 12 17 10 18 13 20 4 22 21 24 18 26
REMARK H PARENT 10 19 13 21 4 23 21 25 18 27
REMARK Flexibility Score: inf
ROOT
ATOM      1  C   UNL     1      13.471  53.873  -1.894  1.00  0.00     0.184 A 
ATOM      2  C   UNL     1      14.694  53.913  -1.207  1.00  0.00     0.208 A 
ATOM      3  C   UNL     1      14.708  54.323   0.135  1.00  0.00     0.238 A 
ATOM      4  O   UNL     1      15.815  54.409   0.730  1.00  0.00    -0.285 OA
ATOM      5  C   UNL     1      13.495  54.672   0.777  1.00  0.00     0.111 A 
ATOM      6  C   UNL     1      13.385  55.063   2.145  1.00  0.00     0.134 A 
ATOM      7  C   UNL     1      12.154  55.512   2.638  1.00  0.00     0.093 A 
ATOM      8  C   UNL     1      11.016  55.521   1.834  1.00  0.00     0.123 A 
ATOM      9  C   UNL     1      11.099  55.085   0.510  1.00  0.00     0.094 A 
ATOM     10  C   UNL     1      12.321  54.667  -0.021  1.00  0.00     0.146 A 
ATOM     11  O   UNL     1      12.359  54.269  -1.287  1.00  0.00    -0.451 OA
ENDROOT
BRANCH   1  12
ATOM     12  C   UNL     1      13.385  53.435  -3.303  1.00  0.00     0.063 A 
ATOM     13  C   UNL     1      13.290  54.025  -5.660  1.00  0.00     0.047 A 
ATOM     14  C   UNL     1      13.377  54.405  -4.318  1.00  0.00     0.020 A 
ATOM     15  C   UNL     1      13.198  52.671  -6.003  1.00  0.00     0.119 A 
ATOM     16  C   UNL     1      13.183  51.700  -4.997  1.00  0.00     0.093 A 
ATOM     17  C   UNL     1      13.263  52.073  -3.647  1.00  0.00     0.130 A 
BRANCH  15  18
ATOM     18  O   UNL     1      13.116  52.281  -7.337  1.00  0.00    -0.508 OA
ATOM     19  H   UNL     1      12.723  51.385  -7.604  1.00  0.00     0.293 HD
ENDBRANCH  15  18
BRANCH  17  20
ATOM     20  O   UNL     1      13.197  51.098  -2.653  1.00  0.00    -0.507 OA
ATOM     21  H   UNL     1      13.930  50.994  -1.960  1.00  0.00     0.293 HD
ENDBRANCH  17  20
ENDBRANCH   1  12
BRANCH   2  22
ATOM     22  O   UNL     1      15.879  53.581  -1.870  1.00  0.00    -0.502 OA
ATOM     23  H   UNL     1      16.269  52.646  -1.852  1.00  0.00     0.293 HD
ENDBRANCH   2  22
BRANCH   6  24
ATOM     24  O   UNL     1      14.440  55.005   3.061  1.00  0.00    -0.507 OA
ATOM     25  H   UNL     1      14.669  54.199   3.624  1.00  0.00     0.293 HD
ENDBRANCH   6  24
BRANCH   8  26
ATOM     26  O   UNL     1       9.803  55.959   2.363  1.00  0.00    -0.508 OA
ATOM     27  H   UNL     1       9.766  56.562   3.177  1.00  0.00     0.293 HD
ENDBRANCH   8  26
TORSDOF 6
ENDMDL
MODEL 7
REMARK VINA RESULT:    -7.334      8.501     11.437
REMARK INTER + INTRA:          -9.036
REMARK INTER:                  -8.614
REMARK INTRA:                  -0.422
REMARK UNBOUND:                -0.201
REMARK SMILES O=c1c(O)c(-c2ccc(O)cc2O)oc2cc(O)cc(O)c12
REMARK SMILES IDX 5 1 3 2 2 3 1 4 22 5 20 6 19 7 17 8 16 9 15 10 14 11 6 12
REMARK SMILES IDX 8 13 7 14 9 15 11 16 12 17 10 18 13 20 4 22 21 24 18 26
REMARK H PARENT 10 19 13 21 4 23 21 25 18 27
REMARK Flexibility Score: inf
ROOT
ATOM      1  C   UNL     1      13.138  53.992  -2.327  1.00  0.00     0.184 A 
ATOM      2  C   UNL     1      13.649  54.841  -3.321  1.00  0.00     0.208 A 
ATOM      3  C   UNL     1      13.762  54.361  -4.634  1.00  0.00     0.238 A 
ATOM      4  O   UNL     1      14.271  55.109  -5.510  1.00  0.00    -0.285 OA
ATOM      5  C   UNL     1      13.347  53.042  -4.940  1.00  0.00     0.111 A 
ATOM      6  C   UNL     1      13.378  52.464  -6.245  1.00  0.00     0.134 A 
ATOM      7  C   UNL     1      13.065  51.109  -6.407  1.00  0.00     0.093 A 
ATOM      8  C   UNL     1      12.660  50.329  -5.326  1.00  0.00     0.123 A 
ATOM      9  C   UNL     1      12.568  50.899  -4.055  1.00  0.00     0.094 A 
ATOM     10  C   UNL     1      12.909  52.238  -3.854  1.00  0.00     0.146 A 
ATOM     11  O   UNL     1      12.818  52.739  -2.629  1.00  0.00    -0.451 OA
ENDROOT
BRANCH   1  12
ATOM     12  C   UNL     1      12.977  54.441  -0.928  1.00  0.00     0.063 A 
ATOM     13  C   UNL     1      13.990  54.911   1.232  1.00  0.00     0.047 A 
ATOM     14  C   UNL     1      14.107  54.497  -0.098  1.00  0.00     0.020 A 
ATOM     15  C   UNL     1      12.738  55.262   1.751  1.00  0.00     0.119 A 
ATOM     16  C   UNL     1      11.604  55.187   0.937  1.00  0.00     0.093 A 
ATOM     17  C   UNL     1      11.712  54.766  -0.397  1.00  0.00     0.130 A 
BRANCH  15  18
ATOM     18  O   UNL     1      12.609  55.681   3.073  1.00  0.00    -0.508 OA
ATOM     19  H   UNL     1      11.712  55.958   3.456  1.00  0.00     0.293 HD
ENDBRANCH  15  18
BRANCH  17  20
ATOM     20  O   UNL     1      10.566  54.649  -1.183  1.00  0.00    -0.507 OA
ATOM     21  H   UNL     1      10.479  53.929  -1.892  1.00  0.00     0.293 HD
ENDBRANCH  17  20
ENDBRANCH   1  12
BRANCH   2  22
ATOM     22  O   UNL     1      14.069  56.133  -2.988  1.00  0.00    -0.502 OA
ATOM     23  H   UNL     1      13.865  56.937  -3.569  1.00  0.00     0.293 HD
ENDBRANCH   2  22
BRANCH   6  24
ATOM     24  O   UNL     1      13.681  53.178  -7.408  1.00  0.00    -0.507 OA
ATOM     25  H   UNL     1      12.998  53.525  -8.064  1.00  0.00     0.293 HD
ENDBRANCH   6  24
BRANCH   8  26
ATOM     26  O   UNL     1      12.340  48.987  -5.527  1.00  0.00    -0.508 OA
ATOM     27  H   UNL     1      11.412  48.628  -5.335  1.00  0.00     0.293 HD
ENDBRANCH   8  26
TORSDOF 6
ENDMDL
MODEL 8
REMARK VINA RESULT:    -7.245      4.158      6.744
REMARK INTER + INTRA:          -8.929
REMARK INTER:                  -8.740
REMARK INTRA:                  -0.189
REMARK UNBOUND:                -0.201
REMARK SMILES O=c1c(O)c(-c2ccc(O)cc2O)oc2cc(O)cc(O)c12
REMARK SMILES IDX 5 1 3 2 2 3 1 4 22 5 20 6 19 7 17 8 16 9 15 10 14 11 6 12
REMARK SMILES IDX 8 13 7 14 9 15 11 16 12 17 10 18 13 20 4 22 21 24 18 26
REMARK H PARENT 10 19 13 21 4 23 21 25 18 27
REMARK Flexibility Score: inf
ROOT
ATOM      1  C   UNL     1      12.962  55.122   1.960  1.00  0.00     0.184 A 
ATOM      2  C   UNL     1      13.960  55.851   2.625  1.00  0.00     0.208 A 
ATOM      3  C   UNL     1      13.801  56.133   3.990  1.00  0.00     0.238 A 
ATOM      4  O   UNL     1      14.673  56.834   4.568  1.00  0.00    -0.285 OA
ATOM      5  C   UNL     1      12.653  55.668   4.676  1.00  0.00     0.111 A 
ATOM      6  C   UNL     1      12.407  55.861   6.069  1.00  0.00     0.134 A 
ATOM      7  C   UNL     1      11.177  55.471   6.613  1.00  0.00     0.093 A 
ATOM      8  C   UNL     1      10.212  54.837   5.833  1.00  0.00     0.123 A 
ATOM      9  C   UNL     1      10.466  54.590   4.482  1.00  0.00     0.094 A 
ATOM     10  C   UNL     1      11.668  55.000   3.902  1.00  0.00     0.146 A 
ATOM     11  O   UNL     1      11.865  54.755   2.612  1.00  0.00    -0.451 OA
ENDROOT
BRANCH   1  12
ATOM     12  C   UNL     1      13.076  54.776   0.527  1.00  0.00     0.063 A 
ATOM     13  C   UNL     1      14.414  53.875  -1.292  1.00  0.00     0.047 A 
ATOM     14  C   UNL     1      14.271  54.208   0.057  1.00  0.00     0.020 A 
ATOM     15  C   UNL     1      13.368  54.118  -2.191  1.00  0.00     0.119 A 
ATOM     16  C   UNL     1      12.184  54.704  -1.736  1.00  0.00     0.093 A 
ATOM     17  C   UNL     1      12.034  55.047  -0.383  1.00  0.00     0.130 A 
BRANCH  15  18
ATOM     18  O   UNL     1      13.498  53.785  -3.537  1.00  0.00    -0.508 OA
ATOM     19  H   UNL     1      13.627  52.825  -3.836  1.00  0.00     0.293 HD
ENDBRANCH  15  18
BRANCH  17  20
ATOM     20  O   UNL     1      10.866  55.676   0.048  1.00  0.00    -0.507 OA
ATOM     21  H   UNL     1      10.264  55.257   0.747  1.00  0.00     0.293 HD
ENDBRANCH  17  20
ENDBRANCH   1  12
BRANCH   2  22
ATOM     22  O   UNL     1      15.074  56.314   1.920  1.00  0.00    -0.502 OA
ATOM     23  H   UNL     1      15.382  57.279   1.961  1.00  0.00     0.293 HD
ENDBRANCH   2  22
BRANCH   6  24
ATOM     24  O   UNL     1      13.340  56.403   6.958  1.00  0.00    -0.507 OA
ATOM     25  H   UNL     1      13.122  57.071   7.683  1.00  0.00     0.293 HD
ENDBRANCH   6  24
BRANCH   8  26
ATOM     26  O   UNL     1       9.006  54.448   6.412  1.00  0.00    -0.508 OA
ATOM     27  H   UNL     1       8.579  54.984   7.158  1.00  0.00     0.293 HD
ENDBRANCH   8  26
TORSDOF 6
ENDMDL
MODEL 9
REMARK VINA RESULT:    -7.238      9.784     12.311
REMARK INTER + INTRA:          -8.920
REMARK INTER:                  -8.502
REMARK INTRA:                  -0.418
REMARK UNBOUND:                -0.201
REMARK SMILES O=c1c(O)c(-c2ccc(O)cc2O)oc2cc(O)cc(O)c12
REMARK SMILES IDX 5 1 3 2 2 3 1 4 22 5 20 6 19 7 17 8 16 9 15 10 14 11 6 12
REMARK SMILES IDX 8 13 7 14 9 15 11 16 12 17 10 18 13 20 4 22 21 24 18 26
REMARK H PARENT 10 19 13 21 4 23 21 25 18 27
REMARK Flexibility Score: inf
ROOT
ATOM      1  C   UNL     1      15.393  53.889  -3.263  1.00  0.00     0.184 A 
ATOM      2  C   UNL     1      15.195  55.230  -3.626  1.00  0.00     0.208 A 
ATOM      3  C   UNL     1      14.435  55.521  -4.769  1.00  0.00     0.238 A 
ATOM      4  O   UNL     1      14.306  56.723  -5.121  1.00  0.00    -0.285 OA
ATOM      5  C   UNL     1      13.870  54.465  -5.526  1.00  0.00     0.111 A 
ATOM      6  C   UNL     1      13.049  54.644  -6.680  1.00  0.00     0.134 A 
ATOM      7  C   UNL     1      12.652  53.527  -7.424  1.00  0.00     0.093 A 
ATOM      8  C   UNL     1      12.990  52.236  -7.022  1.00  0.00     0.123 A 
ATOM      9  C   UNL     1      13.742  52.046  -5.861  1.00  0.00     0.094 A 
ATOM     10  C   UNL     1      14.184  53.142  -5.118  1.00  0.00     0.146 A 
ATOM     11  O   UNL     1      14.907  52.918  -4.027  1.00  0.00    -0.451 OA
ENDROOT
BRANCH   1  12
ATOM     12  C   UNL     1      16.168  53.516  -2.061  1.00  0.00     0.063 A 
ATOM     13  C   UNL     1      18.297  52.869  -1.080  1.00  0.00     0.047 A 
ATOM     14  C   UNL     1      17.536  53.231  -2.195  1.00  0.00     0.020 A 
ATOM     15  C   UNL     1      17.697  52.774   0.180  1.00  0.00     0.119 A 
ATOM     16  C   UNL     1      16.330  53.034   0.319  1.00  0.00     0.093 A 
ATOM     17  C   UNL     1      15.557  53.392  -0.796  1.00  0.00     0.130 A 
BRANCH  15  18
ATOM     18  O   UNL     1      18.446  52.419   1.299  1.00  0.00    -0.508 OA
ATOM     19  H   UNL     1      18.493  53.017   2.117  1.00  0.00     0.293 HD
ENDBRANCH  15  18
BRANCH  17  20
ATOM     20  O   UNL     1      14.186  53.600  -0.652  1.00  0.00    -0.507 OA
ATOM     21  H   UNL     1      13.818  54.442  -0.224  1.00  0.00     0.293 HD
ENDBRANCH  17  20
ENDBRANCH   1  12
BRANCH   2  22
ATOM     22  O   UNL     1      15.780  56.252  -2.872  1.00  0.00    -0.502 OA
ATOM     23  H   UNL     1      15.238  56.866  -2.276  1.00  0.00     0.293 HD
ENDBRANCH   2  22
BRANCH   6  24
ATOM     24  O   UNL     1      12.578  55.885  -7.118  1.00  0.00    -0.507 OA
ATOM     25  H   UNL     1      12.972  56.776  -6.852  1.00  0.00     0.293 HD
ENDBRANCH   6  24
BRANCH   8  26
ATOM     26  O   UNL     1      12.564  51.145  -7.778  1.00  0.00    -0.508 OA
ATOM     27  H   UNL     1      11.692  50.669  -7.578  1.00  0.00     0.293 HD
ENDBRANCH   8  26
TORSDOF 6
ENDMDL
