MODEL 1
REMARK VINA RESULT:    -4.838      0.000      0.000
REMARK INTER + INTRA:          -5.934
REMARK INTER:                  -5.828
REMARK INTRA:                  -0.106
REMARK UNBOUND:                -0.106
REMARK SMILES NC(=O)C[C@H]([NH3+])C(=O)[O-]
REMARK SMILES IDX 4 1 5 2 6 3 7 7 8 8 9 9 2 10 3 11 1 12
REMARK H PARENT 6 4 6 5 6 6 1 13 1 14
REMARK Flexibility Score: inf
ROOT
ATOM      1  C   UNL     1      18.988 -66.964  -0.715  1.00  0.00     0.171 C 
ENDROOT
BRANCH   1   2
ATOM      2  C   UNL     1      19.104 -68.479  -0.977  1.00  0.00     0.237 C 
BRANCH   2   3
ATOM      3  N   UNL     1      17.801 -69.148  -0.853  1.00  0.00    -0.350 N 
ATOM      4  H   UNL     1      17.560 -69.656  -1.735  1.00  0.00     0.345 HD
ATOM      5  H   UNL     1      17.820 -69.826  -0.059  1.00  0.00     0.345 HD
ATOM      6  H   UNL     1      17.057 -68.439  -0.652  1.00  0.00     0.345 HD
ENDBRANCH   2   3
BRANCH   2   7
ATOM      7  C   UNL     1      20.095 -69.088  -0.021  1.00  0.00     0.100 C 
ATOM      8  O   UNL     1      20.512 -68.433   0.971  1.00  0.00    -0.544 OA
ATOM      9  O   UNL     1      20.570 -70.375  -0.241  1.00  0.00    -0.544 OA
ENDBRANCH   2   7
ENDBRANCH   1   2
BRANCH   1  10
ATOM     10  C   UNL     1      19.606 -66.159  -1.821  1.00  0.00     0.223 C 
ATOM     11  O   UNL     1      20.509 -66.670  -2.535  1.00  0.00    -0.275 OA
ATOM     12  N   UNL     1      19.154 -64.833  -2.093  1.00  0.00    -0.369 N 
ATOM     13  H   UNL     1      18.391 -64.403  -1.526  1.00  0.00     0.159 HD
ATOM     14  H   UNL     1      19.579 -64.280  -2.870  1.00  0.00     0.159 HD
ENDBRANCH   1  10
TORSDOF 4
ENDMDL
MODEL 2
REMARK VINA RESULT:    -4.837      3.036      4.878
REMARK INTER + INTRA:          -5.932
REMARK INTER:                  -5.822
REMARK INTRA:                  -0.110
REMARK UNBOUND:                -0.106
REMARK SMILES NC(=O)C[C@H]([NH3+])C(=O)[O-]
REMARK SMILES IDX 4 1 5 2 6 3 7 7 8 8 9 9 2 10 3 11 1 12
REMARK H PARENT 6 4 6 5 6 6 1 13 1 14
REMARK Flexibility Score: inf
ROOT
ATOM      1  C   UNL     1      21.640 -69.716   1.308  1.00  0.00     0.171 C 
ENDROOT
BRANCH   1   2
ATOM      2  C   UNL     1      21.893 -68.947  -0.005  1.00  0.00     0.237 C 
BRANCH   2   3
ATOM      3  N   UNL     1      23.162 -68.206   0.042  1.00  0.00    -0.350 N 
ATOM      4  H   UNL     1      23.767 -68.455  -0.774  1.00  0.00     0.345 HD
ATOM      5  H   UNL     1      22.977 -67.178   0.033  1.00  0.00     0.345 HD
ATOM      6  H   UNL     1      23.671 -68.433   0.928  1.00  0.00     0.345 HD
ENDBRANCH   2   3
BRANCH   2   7
ATOM      7  C   UNL     1      20.750 -68.006  -0.274  1.00  0.00     0.100 C 
ATOM      8  O   UNL     1      19.859 -67.817   0.597  1.00  0.00    -0.544 OA
ATOM      9  O   UNL     1      20.663 -67.352  -1.497  1.00  0.00    -0.544 OA
ENDBRANCH   2   7
ENDBRANCH   1   2
BRANCH   1  10
ATOM     10  C   UNL     1      21.337 -71.164   1.054  1.00  0.00     0.223 C 
ATOM     11  O   UNL     1      20.873 -71.519  -0.062  1.00  0.00    -0.275 OA
ATOM     12  N   UNL     1      21.603 -72.147   2.055  1.00  0.00    -0.369 N 
ATOM     13  H   UNL     1      22.009 -71.873   2.977  1.00  0.00     0.159 HD
ATOM     14  H   UNL     1      21.401 -73.155   1.871  1.00  0.00     0.159 HD
ENDBRANCH   1  10
TORSDOF 4
ENDMDL
MODEL 3
REMARK VINA RESULT:    -4.723      2.909      3.622
REMARK INTER + INTRA:          -5.795
REMARK INTER:                  -5.524
REMARK INTRA:                  -0.271
REMARK UNBOUND:                -0.106
REMARK SMILES NC(=O)C[C@H]([NH3+])C(=O)[O-]
REMARK SMILES IDX 4 1 5 2 6 3 7 7 8 8 9 9 2 10 3 11 1 12
REMARK H PARENT 6 4 6 5 6 6 1 13 1 14
REMARK Flexibility Score: inf
ROOT
ATOM      1  C   UNL     1      21.216 -68.183  -0.634  1.00  0.00     0.171 C 
ENDROOT
BRANCH   1   2
ATOM      2  C   UNL     1      20.202 -69.158  -0.002  1.00  0.00     0.237 C 
BRANCH   2   3
ATOM      3  N   UNL     1      20.635 -70.555  -0.149  1.00  0.00    -0.350 N 
ATOM      4  H   UNL     1      20.578 -70.857  -1.149  1.00  0.00     0.345 HD
ATOM      5  H   UNL     1      21.618 -70.663   0.188  1.00  0.00     0.345 HD
ATOM      6  H   UNL     1      20.026 -71.178   0.432  1.00  0.00     0.345 HD
ENDBRANCH   2   3
BRANCH   2   7
ATOM      7  C   UNL     1      18.847 -68.963  -0.629  1.00  0.00     0.100 C 
ATOM      8  O   UNL     1      18.206 -69.947  -1.085  1.00  0.00    -0.544 OA
ATOM      9  O   UNL     1      18.305 -67.687  -0.725  1.00  0.00    -0.544 OA
ENDBRANCH   2   7
ENDBRANCH   1   2
BRANCH   1  10
ATOM     10  C   UNL     1      22.571 -68.301   0.002  1.00  0.00     0.223 C 
ATOM     11  O   UNL     1      22.674 -68.748   1.175  1.00  0.00    -0.275 OA
ATOM     12  N   UNL     1      23.747 -67.945  -0.725  1.00  0.00    -0.369 N 
ATOM     13  H   UNL     1      23.681 -67.595  -1.706  1.00  0.00     0.159 HD
ATOM     14  H   UNL     1      24.688 -68.039  -0.283  1.00  0.00     0.159 HD
ENDBRANCH   1  10
TORSDOF 4
ENDMDL
MODEL 4
REMARK VINA RESULT:    -4.663      2.365      3.048
REMARK INTER + INTRA:          -5.723
REMARK INTER:                  -5.370
REMARK INTRA:                  -0.353
REMARK UNBOUND:                -0.106
REMARK SMILES NC(=O)C[C@H]([NH3+])C(=O)[O-]
REMARK SMILES IDX 4 1 5 2 6 3 7 7 8 8 9 9 2 10 3 11 1 12
REMARK H PARENT 6 4 6 5 6 6 1 13 1 14
REMARK Flexibility Score: inf
ROOT
ATOM      1  C   UNL     1      20.328 -67.751  -1.058  1.00  0.00     0.171 C 
ENDROOT
BRANCH   1   2
ATOM      2  C   UNL     1      21.317 -68.897  -0.760  1.00  0.00     0.237 C 
BRANCH   2   3
ATOM      3  N   UNL     1      20.730 -69.890   0.152  1.00  0.00    -0.350 N 
ATOM      4  H   UNL     1      21.376 -70.087   0.950  1.00  0.00     0.345 HD
ATOM      5  H   UNL     1      19.819 -69.540   0.524  1.00  0.00     0.345 HD
ATOM      6  H   UNL     1      20.544 -70.780  -0.367  1.00  0.00     0.345 HD
ENDBRANCH   2   3
BRANCH   2   7
ATOM      7  C   UNL     1      22.586 -68.337  -0.174  1.00  0.00     0.100 C 
ATOM      8  O   UNL     1      23.476 -67.852  -0.922  1.00  0.00    -0.544 OA
ATOM      9  O   UNL     1      22.788 -68.370   1.200  1.00  0.00    -0.544 OA
ENDBRANCH   2   7
ENDBRANCH   1   2
BRANCH   1  10
ATOM     10  C   UNL     1      19.208 -67.710  -0.061  1.00  0.00     0.223 C 
ATOM     11  O   UNL     1      19.439 -67.353   1.125  1.00  0.00    -0.275 OA
ATOM     12  N   UNL     1      17.875 -68.039  -0.453  1.00  0.00    -0.369 N 
ATOM     13  H   UNL     1      17.662 -68.315  -1.437  1.00  0.00     0.159 HD
ATOM     14  H   UNL     1      17.096 -67.999   0.242  1.00  0.00     0.159 HD
ENDBRANCH   1  10
TORSDOF 4
ENDMDL
MODEL 5
REMARK VINA RESULT:    -4.653      1.918      2.547
REMARK INTER + INTRA:          -5.711
REMARK INTER:                  -5.199
REMARK INTRA:                  -0.512
REMARK UNBOUND:                -0.106
REMARK SMILES NC(=O)C[C@H]([NH3+])C(=O)[O-]
REMARK SMILES IDX 4 1 5 2 6 3 7 7 8 8 9 9 2 10 3 11 1 12
REMARK H PARENT 6 4 6 5 6 6 1 13 1 14
REMARK Flexibility Score: inf
ROOT
ATOM      1  C   UNL     1      19.779 -67.856   0.672  1.00  0.00     0.171 C 
ENDROOT
BRANCH   1   2
ATOM      2  C   UNL     1      21.197 -68.435   0.488  1.00  0.00     0.237 C 
BRANCH   2   3
ATOM      3  N   UNL     1      21.779 -68.030  -0.800  1.00  0.00    -0.350 N 
ATOM      4  H   UNL     1      22.823 -68.081  -0.768  1.00  0.00     0.345 HD
ATOM      5  H   UNL     1      21.428 -68.652  -1.563  1.00  0.00     0.345 HD
ATOM      6  H   UNL     1      21.490 -67.050  -1.027  1.00  0.00     0.345 HD
ENDBRANCH   2   3
BRANCH   2   7
ATOM      7  C   UNL     1      21.154 -69.936   0.592  1.00  0.00     0.100 C 
ATOM      8  O   UNL     1      21.715 -70.527   1.552  1.00  0.00    -0.544 OA
ATOM      9  O   UNL     1      20.506 -70.680  -0.387  1.00  0.00    -0.544 OA
ENDBRANCH   2   7
ENDBRANCH   1   2
BRANCH   1  10
ATOM     10  C   UNL     1      19.103 -67.611  -0.645  1.00  0.00     0.223 C 
ATOM     11  O   UNL     1      19.250 -66.503  -1.226  1.00  0.00    -0.275 OA
ATOM     12  N   UNL     1      18.324 -68.636  -1.263  1.00  0.00    -0.369 N 
ATOM     13  H   UNL     1      18.211 -69.568  -0.806  1.00  0.00     0.159 HD
ATOM     14  H   UNL     1      17.865 -68.465  -2.185  1.00  0.00     0.159 HD
ENDBRANCH   1  10
TORSDOF 4
ENDMDL
MODEL 6
REMARK VINA RESULT:    -4.643      2.301      3.230
REMARK INTER + INTRA:          -5.699
REMARK INTER:                  -5.492
REMARK INTRA:                  -0.206
REMARK UNBOUND:                -0.106
REMARK SMILES NC(=O)C[C@H]([NH3+])C(=O)[O-]
REMARK SMILES IDX 4 1 5 2 6 3 7 7 8 8 9 9 2 10 3 11 1 12
REMARK H PARENT 6 4 6 5 6 6 1 13 1 14
REMARK Flexibility Score: inf
ROOT
ATOM      1  C   UNL     1      20.706 -68.234  -0.426  1.00  0.00     0.171 C 
ENDROOT
BRANCH   1   2
ATOM      2  C   UNL     1      21.342 -68.920   0.801  1.00  0.00     0.237 C 
BRANCH   2   3
ATOM      3  N   UNL     1      22.757 -68.551   0.949  1.00  0.00    -0.350 N 
ATOM      4  H   UNL     1      23.154 -68.231   0.036  1.00  0.00     0.345 HD
ATOM      5  H   UNL     1      22.857 -67.787   1.654  1.00  0.00     0.345 HD
ATOM      6  H   UNL     1      23.304 -69.376   1.290  1.00  0.00     0.345 HD
ENDBRANCH   2   3
BRANCH   2   7
ATOM      7  C   UNL     1      21.203 -70.414   0.679  1.00  0.00     0.100 C 
ATOM      8  O   UNL     1      20.630 -70.923  -0.321  1.00  0.00    -0.544 OA
ATOM      9  O   UNL     1      21.691 -71.240   1.684  1.00  0.00    -0.544 OA
ENDBRANCH   2   7
ENDBRANCH   1   2
BRANCH   1  10
ATOM     10  C   UNL     1      19.252 -67.933  -0.202  1.00  0.00     0.223 C 
ATOM     11  O   UNL     1      18.918 -66.892   0.423  1.00  0.00    -0.275 OA
ATOM     12  N   UNL     1      18.244 -68.800  -0.723  1.00  0.00    -0.369 N 
ATOM     13  H   UNL     1      18.503 -69.654  -1.263  1.00  0.00     0.159 HD
ATOM     14  H   UNL     1      17.234 -68.582  -0.574  1.00  0.00     0.159 HD
ENDBRANCH   1  10
TORSDOF 4
ENDMDL
MODEL 7
REMARK VINA RESULT:    -4.581      2.376      3.356
REMARK INTER + INTRA:          -5.624
REMARK INTER:                  -5.351
REMARK INTRA:                  -0.273
REMARK UNBOUND:                -0.106
REMARK SMILES NC(=O)C[C@H]([NH3+])C(=O)[O-]
REMARK SMILES IDX 4 1 5 2 6 3 7 7 8 8 9 9 2 10 3 11 1 12
REMARK H PARENT 6 4 6 5 6 6 1 13 1 14
REMARK Flexibility Score: inf
ROOT
ATOM      1  C   UNL     1      19.972 -69.348  -0.220  1.00  0.00     0.171 C 
ENDROOT
BRANCH   1   2
ATOM      2  C   UNL     1      20.834 -68.069  -0.208  1.00  0.00     0.237 C 
BRANCH   2   3
ATOM      3  N   UNL     1      20.806 -67.389  -1.511  1.00  0.00    -0.350 N 
ATOM      4  H   UNL     1      21.313 -66.475  -1.464  1.00  0.00     0.345 HD
ATOM      5  H   UNL     1      21.250 -67.992  -2.240  1.00  0.00     0.345 HD
ATOM      6  H   UNL     1      19.814 -67.216  -1.799  1.00  0.00     0.345 HD
ENDBRANCH   2   3
BRANCH   2   7
ATOM      7  C   UNL     1      22.251 -68.411   0.170  1.00  0.00     0.100 C 
ATOM      8  O   UNL     1      23.121 -68.605  -0.719  1.00  0.00    -0.544 OA
ATOM      9  O   UNL     1      22.600 -68.532   1.510  1.00  0.00    -0.544 OA
ENDBRANCH   2   7
ENDBRANCH   1   2
BRANCH   1  10
ATOM     10  C   UNL     1      18.558 -69.061  -0.631  1.00  0.00     0.223 C 
ATOM     11  O   UNL     1      18.043 -67.943  -0.363  1.00  0.00    -0.275 OA
ATOM     12  N   UNL     1      17.801 -70.031  -1.355  1.00  0.00    -0.369 N 
ATOM     13  H   UNL     1      18.220 -70.954  -1.606  1.00  0.00     0.159 HD
ATOM     14  H   UNL     1      16.821 -69.824  -1.649  1.00  0.00     0.159 HD
ENDBRANCH   1  10
TORSDOF 4
ENDMDL
MODEL 8
REMARK VINA RESULT:    -4.578      2.182      3.609
REMARK INTER + INTRA:          -5.621
REMARK INTER:                  -5.427
REMARK INTRA:                  -0.194
REMARK UNBOUND:                -0.106
REMARK SMILES NC(=O)C[C@H]([NH3+])C(=O)[O-]
REMARK SMILES IDX 4 1 5 2 6 3 7 7 8 8 9 9 2 10 3 11 1 12
REMARK H PARENT 6 4 6 5 6 6 1 13 1 14
REMARK Flexibility Score: inf
ROOT
ATOM      1  C   UNL     1      20.653 -69.876  -0.687  1.00  0.00     0.171 C 
ENDROOT
BRANCH   1   2
ATOM      2  C   UNL     1      19.329 -69.146  -0.382  1.00  0.00     0.237 C 
BRANCH   2   3
ATOM      3  N   UNL     1      18.256 -69.577  -1.289  1.00  0.00    -0.350 N 
ATOM      4  H   UNL     1      17.318 -69.430  -0.851  1.00  0.00     0.345 HD
ATOM      5  H   UNL     1      18.306 -69.039  -2.184  1.00  0.00     0.345 HD
ATOM      6  H   UNL     1      18.372 -70.591  -1.518  1.00  0.00     0.345 HD
ENDBRANCH   2   3
BRANCH   2   7
ATOM      7  C   UNL     1      19.531 -67.657  -0.483  1.00  0.00     0.100 C 
ATOM      8  O   UNL     1      18.973 -66.879   0.335  1.00  0.00    -0.544 OA
ATOM      9  O   UNL     1      20.324 -67.133  -1.497  1.00  0.00    -0.544 OA
ENDBRANCH   2   7
ENDBRANCH   1   2
BRANCH   1  10
ATOM     10  C   UNL     1      21.679 -69.634   0.381  1.00  0.00     0.223 C 
ATOM     11  O   UNL     1      21.601 -70.255   1.475  1.00  0.00    -0.275 OA
ATOM     12  N   UNL     1      22.764 -68.733   0.156  1.00  0.00    -0.369 N 
ATOM     13  H   UNL     1      22.856 -68.228  -0.753  1.00  0.00     0.159 HD
ATOM     14  H   UNL     1      23.482 -68.576   0.897  1.00  0.00     0.159 HD
ENDBRANCH   1  10
TORSDOF 4
ENDMDL
MODEL 9
REMARK VINA RESULT:    -4.540      2.738      3.990
REMARK INTER + INTRA:          -5.574
REMARK INTER:                  -5.289
REMARK INTRA:                  -0.286
REMARK UNBOUND:                -0.106
REMARK SMILES NC(=O)C[C@H]([NH3+])C(=O)[O-]
REMARK SMILES IDX 4 1 5 2 6 3 7 7 8 8 9 9 2 10 3 11 1 12
REMARK H PARENT 6 4 6 5 6 6 1 13 1 14
REMARK Flexibility Score: inf
ROOT
ATOM      1  C   UNL     1      20.575 -68.320   1.212  1.00  0.00     0.171 C 
ENDROOT
BRANCH   1   2
ATOM      2  C   UNL     1      19.793 -68.743  -0.049  1.00  0.00     0.237 C 
BRANCH   2   3
ATOM      3  N   UNL     1      20.699 -69.060  -1.162  1.00  0.00    -0.350 N 
ATOM      4  H   UNL     1      20.735 -70.092  -1.328  1.00  0.00     0.345 HD
ATOM      5  H   UNL     1      20.378 -68.583  -2.034  1.00  0.00     0.345 HD
ATOM      6  H   UNL     1      21.662 -68.715  -0.944  1.00  0.00     0.345 HD
ENDBRANCH   2   3
BRANCH   2   7
ATOM      7  C   UNL     1      18.840 -67.648  -0.449  1.00  0.00     0.100 C 
ATOM      8  O   UNL     1      17.662 -67.631  -0.002  1.00  0.00    -0.544 OA
ATOM      9  O   UNL     1      19.252 -66.658  -1.333  1.00  0.00    -0.544 OA
ENDBRANCH   2   7
ENDBRANCH   1   2
BRANCH   1  10
ATOM     10  C   UNL     1      21.857 -69.086   1.353  1.00  0.00     0.223 C 
ATOM     11  O   UNL     1      21.833 -70.345   1.384  1.00  0.00    -0.275 OA
ATOM     12  N   UNL     1      23.108 -68.401   1.417  1.00  0.00    -0.369 N 
ATOM     13  H   UNL     1      23.148 -67.359   1.370  1.00  0.00     0.159 HD
ATOM     14  H   UNL     1      23.999 -68.938   1.505  1.00  0.00     0.159 HD
ENDBRANCH   1  10
TORSDOF 4
ENDMDL
