MODEL 1
REMARK VINA RESULT:    -3.065      0.000      0.000
REMARK INTER + INTRA:          -4.206
REMARK INTER:                  -3.692
REMARK INTRA:                  -0.514
REMARK UNBOUND:                -0.514
REMARK SMILES NC(=O)C[C@@H]([NH3+])C(=O)[O-]
REMARK SMILES IDX 4 1 5 2 6 3 7 7 8 8 9 9 2 10 3 11 1 12
REMARK H PARENT 6 4 6 5 6 6 1 13 1 14
REMARK Flexibility Score: inf
ROOT
ATOM      1  C   UNL     1     119.625 128.148 110.077  1.00  0.00     0.171 C 
ENDROOT
BRANCH   1   2
ATOM      2  C   UNL     1     118.725 127.464 111.125  1.00  0.00     0.237 C 
BRANCH   2   3
ATOM      3  N   UNL     1     118.722 126.005 110.961  1.00  0.00    -0.350 N 
ATOM      4  H   UNL     1     117.748 125.666 110.790  1.00  0.00     0.345 HD
ATOM      5  H   UNL     1     119.071 125.548 111.836  1.00  0.00     0.345 HD
ATOM      6  H   UNL     1     119.332 125.720 110.159  1.00  0.00     0.345 HD
ENDBRANCH   2   3
BRANCH   2   7
ATOM      7  C   UNL     1     119.195 127.827 112.509  1.00  0.00     0.100 C 
ATOM      8  O   UNL     1     118.491 128.570 113.242  1.00  0.00    -0.544 OA
ATOM      9  O   UNL     1     120.417 127.359 112.979  1.00  0.00    -0.544 OA
ENDBRANCH   2   7
ENDBRANCH   1   2
BRANCH   1  10
ATOM     10  C   UNL     1     120.711 127.230 109.595  1.00  0.00     0.223 C 
ATOM     11  O   UNL     1     120.497 126.469 108.614  1.00  0.00    -0.275 OA
ATOM     12  N   UNL     1     121.975 127.189 110.260  1.00  0.00    -0.369 N 
ATOM     13  H   UNL     1     122.161 127.797 111.088  1.00  0.00     0.159 HD
ATOM     14  H   UNL     1     122.723 126.542 109.928  1.00  0.00     0.159 HD
ENDBRANCH   1  10
TORSDOF 4
ENDMDL
MODEL 2
REMARK VINA RESULT:    -2.947     11.896     12.534
REMARK INTER + INTRA:          -4.063
REMARK INTER:                  -3.554
REMARK INTRA:                  -0.509
REMARK UNBOUND:                -0.514
REMARK SMILES NC(=O)C[C@@H]([NH3+])C(=O)[O-]
REMARK SMILES IDX 4 1 5 2 6 3 7 7 8 8 9 9 2 10 3 11 1 12
REMARK H PARENT 6 4 6 5 6 6 1 13 1 14
REMARK Flexibility Score: inf
ROOT
ATOM      1  C   UNL     1     113.386 116.017 109.516  1.00  0.00     0.171 C 
ENDROOT
BRANCH   1   2
ATOM      2  C   UNL     1     114.522 115.631 110.484  1.00  0.00     0.237 C 
BRANCH   2   3
ATOM      3  N   UNL     1     115.690 116.507 110.320  1.00  0.00    -0.350 N 
ATOM      4  H   UNL     1     115.902 116.634 109.304  1.00  0.00     0.345 HD
ATOM      5  H   UNL     1     116.528 116.070 110.770  1.00  0.00     0.345 HD
ATOM      6  H   UNL     1     115.516 117.442 110.755  1.00  0.00     0.345 HD
ENDBRANCH   2   3
BRANCH   2   7
ATOM      7  C   UNL     1     114.023 115.697 111.903  1.00  0.00     0.100 C 
ATOM      8  O   UNL     1     113.859 114.640 112.567  1.00  0.00    -0.544 OA
ATOM      9  O   UNL     1     113.721 116.924 112.483  1.00  0.00    -0.544 OA
ENDBRANCH   2   7
ENDBRANCH   1   2
BRANCH   1  10
ATOM     10  C   UNL     1     113.446 117.469 109.142  1.00  0.00     0.223 C 
ATOM     11  O   UNL     1     114.174 117.838 108.182  1.00  0.00    -0.275 OA
ATOM     12  N   UNL     1     112.711 118.441 109.886  1.00  0.00    -0.369 N 
ATOM     13  H   UNL     1     112.121 118.155 110.699  1.00  0.00     0.159 HD
ATOM     14  H   UNL     1     112.764 119.451 109.629  1.00  0.00     0.159 HD
ENDBRANCH   1  10
TORSDOF 4
ENDMDL
MODEL 3
REMARK VINA RESULT:    -2.938     11.980     12.658
REMARK INTER + INTRA:          -4.052
REMARK INTER:                  -3.549
REMARK INTRA:                  -0.503
REMARK UNBOUND:                -0.514
REMARK SMILES NC(=O)C[C@@H]([NH3+])C(=O)[O-]
REMARK SMILES IDX 4 1 5 2 6 3 7 7 8 8 9 9 2 10 3 11 1 12
REMARK H PARENT 6 4 6 5 6 6 1 13 1 14
REMARK Flexibility Score: inf
ROOT
ATOM      1  C   UNL     1     126.771 116.254 109.503  1.00  0.00     0.171 C 
ENDROOT
BRANCH   1   2
ATOM      2  C   UNL     1     126.561 117.521 110.356  1.00  0.00     0.237 C 
BRANCH   2   3
ATOM      3  N   UNL     1     125.228 118.099 110.142  1.00  0.00    -0.350 N 
ATOM      4  H   UNL     1     124.894 118.563 111.017  1.00  0.00     0.345 HD
ATOM      5  H   UNL     1     124.546 117.341 109.901  1.00  0.00     0.345 HD
ATOM      6  H   UNL     1     125.248 118.801 109.365  1.00  0.00     0.345 HD
ENDBRANCH   2   3
BRANCH   2   7
ATOM      7  C   UNL     1     126.751 117.187 111.812  1.00  0.00     0.100 C 
ATOM      8  O   UNL     1     127.673 117.734 112.472  1.00  0.00    -0.544 OA
ATOM      9  O   UNL     1     125.922 116.260 112.432  1.00  0.00    -0.544 OA
ENDBRANCH   2   7
ENDBRANCH   1   2
BRANCH   1  10
ATOM     10  C   UNL     1     125.467 115.590 109.166  1.00  0.00     0.223 C 
ATOM     11  O   UNL     1     124.810 115.975 108.162  1.00  0.00    -0.275 OA
ATOM     12  N   UNL     1     124.949 114.547 109.993  1.00  0.00    -0.369 N 
ATOM     13  H   UNL     1     125.470 114.232 110.842  1.00  0.00     0.159 HD
ATOM     14  H   UNL     1     124.038 114.096 109.762  1.00  0.00     0.159 HD
ENDBRANCH   1  10
TORSDOF 4
ENDMDL
MODEL 4
REMARK VINA RESULT:    -2.925      1.984      3.636
REMARK INTER + INTRA:          -4.037
REMARK INTER:                  -3.695
REMARK INTRA:                  -0.342
REMARK UNBOUND:                -0.514
REMARK SMILES NC(=O)C[C@@H]([NH3+])C(=O)[O-]
REMARK SMILES IDX 4 1 5 2 6 3 7 7 8 8 9 9 2 10 3 11 1 12
REMARK H PARENT 6 4 6 5 6 6 1 13 1 14
REMARK Flexibility Score: inf
ROOT
ATOM      1  C   UNL     1     120.652 127.071 112.729  1.00  0.00     0.171 C 
ENDROOT
BRANCH   1   2
ATOM      2  C   UNL     1     120.103 126.508 111.404  1.00  0.00     0.237 C 
BRANCH   2   3
ATOM      3  N   UNL     1     118.679 126.167 111.513  1.00  0.00    -0.350 N 
ATOM      4  H   UNL     1     118.448 125.903 112.498  1.00  0.00     0.345 HD
ATOM      5  H   UNL     1     118.462 125.344 110.903  1.00  0.00     0.345 HD
ATOM      6  H   UNL     1     118.080 126.975 111.224  1.00  0.00     0.345 HD
ENDBRANCH   2   3
BRANCH   2   7
ATOM      7  C   UNL     1     120.310 127.513 110.303  1.00  0.00     0.100 C 
ATOM      8  O   UNL     1     119.412 128.354 110.035  1.00  0.00    -0.544 OA
ATOM      9  O   UNL     1     121.486 127.509 109.561  1.00  0.00    -0.544 OA
ENDBRANCH   2   7
ENDBRANCH   1   2
BRANCH   1  10
ATOM     10  C   UNL     1     119.550 127.375 113.702  1.00  0.00     0.223 C 
ATOM     11  O   UNL     1     118.689 128.250 113.417  1.00  0.00    -0.275 OA
ATOM     12  N   UNL     1     119.488 126.705 114.961  1.00  0.00    -0.369 N 
ATOM     13  H   UNL     1     120.207 125.994 115.223  1.00  0.00     0.159 HD
ATOM     14  H   UNL     1     118.727 126.927 115.639  1.00  0.00     0.159 HD
ENDBRANCH   1  10
TORSDOF 4
ENDMDL
MODEL 5
REMARK VINA RESULT:    -2.895      9.637     10.355
REMARK INTER + INTRA:          -4.002
REMARK INTER:                  -3.511
REMARK INTRA:                  -0.491
REMARK UNBOUND:                -0.514
REMARK SMILES NC(=O)C[C@@H]([NH3+])C(=O)[O-]
REMARK SMILES IDX 4 1 5 2 6 3 7 7 8 8 9 9 2 10 3 11 1 12
REMARK H PARENT 6 4 6 5 6 6 1 13 1 14
REMARK Flexibility Score: inf
ROOT
ATOM      1  C   UNL     1     112.461 119.138 109.798  1.00  0.00     0.171 C 
ENDROOT
BRANCH   1   2
ATOM      2  C   UNL     1     113.201 119.637 111.054  1.00  0.00     0.237 C 
BRANCH   2   3
ATOM      3  N   UNL     1     114.146 118.631 111.556  1.00  0.00    -0.350 N 
ATOM      4  H   UNL     1     113.778 118.200 112.435  1.00  0.00     0.345 HD
ATOM      5  H   UNL     1     115.062 119.085 111.781  1.00  0.00     0.345 HD
ATOM      6  H   UNL     1     114.302 117.880 110.844  1.00  0.00     0.345 HD
ENDBRANCH   2   3
BRANCH   2   7
ATOM      7  C   UNL     1     113.928 120.917 110.739  1.00  0.00     0.100 C 
ATOM      8  O   UNL     1     113.885 121.885 111.542  1.00  0.00    -0.544 OA
ATOM      9  O   UNL     1     114.637 121.045 109.549  1.00  0.00    -0.544 OA
ENDBRANCH   2   7
ENDBRANCH   1   2
BRANCH   1  10
ATOM     10  C   UNL     1     113.226 118.054 109.097  1.00  0.00     0.223 C 
ATOM     11  O   UNL     1     113.075 116.854 109.449  1.00  0.00    -0.275 OA
ATOM     12  N   UNL     1     114.150 118.375 108.056  1.00  0.00    -0.369 N 
ATOM     13  H   UNL     1     114.305 119.366 107.767  1.00  0.00     0.159 HD
ATOM     14  H   UNL     1     114.688 117.619 107.578  1.00  0.00     0.159 HD
ENDBRANCH   1  10
TORSDOF 4
ENDMDL
MODEL 6
REMARK VINA RESULT:    -2.873     11.472     12.348
REMARK INTER + INTRA:          -3.975
REMARK INTER:                  -3.481
REMARK INTRA:                  -0.494
REMARK UNBOUND:                -0.514
REMARK SMILES NC(=O)C[C@@H]([NH3+])C(=O)[O-]
REMARK SMILES IDX 4 1 5 2 6 3 7 7 8 8 9 9 2 10 3 11 1 12
REMARK H PARENT 6 4 6 5 6 6 1 13 1 14
REMARK Flexibility Score: inf
ROOT
ATOM      1  C   UNL     1     125.175 116.329 112.976  1.00  0.00     0.171 C 
ENDROOT
BRANCH   1   2
ATOM      2  C   UNL     1     125.481 117.350 111.863  1.00  0.00     0.237 C 
BRANCH   2   3
ATOM      3  N   UNL     1     124.977 118.686 112.206  1.00  0.00    -0.350 N 
ATOM      4  H   UNL     1     125.306 119.385 111.501  1.00  0.00     0.345 HD
ATOM      5  H   UNL     1     125.347 118.977 113.141  1.00  0.00     0.345 HD
ATOM      6  H   UNL     1     123.931 118.692 112.234  1.00  0.00     0.345 HD
ENDBRANCH   2   3
BRANCH   2   7
ATOM      7  C   UNL     1     126.966 117.404 111.621  1.00  0.00     0.100 C 
ATOM      8  O   UNL     1     127.430 117.174 110.473  1.00  0.00    -0.544 OA
ATOM      9  O   UNL     1     127.837 117.691 112.666  1.00  0.00    -0.544 OA
ENDBRANCH   2   7
ENDBRANCH   1   2
BRANCH   1  10
ATOM     10  C   UNL     1     124.971 117.000 114.303  1.00  0.00     0.223 C 
ATOM     11  O   UNL     1     123.812 117.344 114.658  1.00  0.00    -0.275 OA
ATOM     12  N   UNL     1     126.084 117.281 115.153  1.00  0.00    -0.369 N 
ATOM     13  H   UNL     1     127.054 117.023 114.864  1.00  0.00     0.159 HD
ATOM     14  H   UNL     1     125.939 117.757 116.070  1.00  0.00     0.159 HD
ENDBRANCH   1  10
TORSDOF 4
ENDMDL
MODEL 7
REMARK VINA RESULT:    -2.841     12.010     12.832
REMARK INTER + INTRA:          -3.937
REMARK INTER:                  -3.582
REMARK INTRA:                  -0.355
REMARK UNBOUND:                -0.514
REMARK SMILES NC(=O)C[C@@H]([NH3+])C(=O)[O-]
REMARK SMILES IDX 4 1 5 2 6 3 7 7 8 8 9 9 2 10 3 11 1 12
REMARK H PARENT 6 4 6 5 6 6 1 13 1 14
REMARK Flexibility Score: inf
ROOT
ATOM      1  C   UNL     1     125.762 116.223 112.718  1.00  0.00     0.171 C 
ENDROOT
BRANCH   1   2
ATOM      2  C   UNL     1     125.490 117.047 111.444  1.00  0.00     0.237 C 
BRANCH   2   3
ATOM      3  N   UNL     1     125.669 118.485 111.686  1.00  0.00    -0.350 N 
ATOM      4  H   UNL     1     125.762 118.992 110.776  1.00  0.00     0.345 HD
ATOM      5  H   UNL     1     126.545 118.648 112.235  1.00  0.00     0.345 HD
ATOM      6  H   UNL     1     124.855 118.876 112.216  1.00  0.00     0.345 HD
ENDBRANCH   2   3
BRANCH   2   7
ATOM      7  C   UNL     1     126.409 116.591 110.342  1.00  0.00     0.100 C 
ATOM      8  O   UNL     1     127.533 117.136 110.188  1.00  0.00    -0.544 OA
ATOM      9  O   UNL     1     126.014 115.578 109.475  1.00  0.00    -0.544 OA
ENDBRANCH   2   7
ENDBRANCH   1   2
BRANCH   1  10
ATOM     10  C   UNL     1     126.509 117.021 113.746  1.00  0.00     0.223 C 
ATOM     11  O   UNL     1     127.685 117.405 113.507  1.00  0.00    -0.275 OA
ATOM     12  N   UNL     1     125.910 117.322 115.008  1.00  0.00    -0.369 N 
ATOM     13  H   UNL     1     124.945 116.992 115.232  1.00  0.00     0.159 HD
ATOM     14  H   UNL     1     126.437 117.868 115.724  1.00  0.00     0.159 HD
ENDBRANCH   1  10
TORSDOF 4
ENDMDL
MODEL 8
REMARK VINA RESULT:    -2.824     12.126     13.115
REMARK INTER + INTRA:          -3.916
REMARK INTER:                  -3.417
REMARK INTRA:                  -0.498
REMARK UNBOUND:                -0.514
REMARK SMILES NC(=O)C[C@@H]([NH3+])C(=O)[O-]
REMARK SMILES IDX 4 1 5 2 6 3 7 7 8 8 9 9 2 10 3 11 1 12
REMARK H PARENT 6 4 6 5 6 6 1 13 1 14
REMARK Flexibility Score: inf
ROOT
ATOM      1  C   UNL     1     114.000 116.936 112.520  1.00  0.00     0.171 C 
ENDROOT
BRANCH   1   2
ATOM      2  C   UNL     1     114.732 116.893 111.165  1.00  0.00     0.237 C 
BRANCH   2   3
ATOM      3  N   UNL     1     115.952 116.079 111.238  1.00  0.00    -0.350 N 
ATOM      4  H   UNL     1     116.077 115.539 110.352  1.00  0.00     0.345 HD
ATOM      5  H   UNL     1     115.874 115.391 112.024  1.00  0.00     0.345 HD
ATOM      6  H   UNL     1     116.793 116.683 111.395  1.00  0.00     0.345 HD
ENDBRANCH   2   3
BRANCH   2   7
ATOM      7  C   UNL     1     113.809 116.345 110.109  1.00  0.00     0.100 C 
ATOM      8  O   UNL     1     113.523 115.120 110.091  1.00  0.00    -0.544 OA
ATOM      9  O   UNL     1     113.281 117.186 109.135  1.00  0.00    -0.544 OA
ENDBRANCH   2   7
ENDBRANCH   1   2
BRANCH   1  10
ATOM     10  C   UNL     1     114.319 115.735 113.362  1.00  0.00     0.223 C 
ATOM     11  O   UNL     1     115.285 115.777 114.171  1.00  0.00    -0.275 OA
ATOM     12  N   UNL     1     113.559 114.534 113.231  1.00  0.00    -0.369 N 
ATOM     13  H   UNL     1     112.770 114.474 112.549  1.00  0.00     0.159 HD
ATOM     14  H   UNL     1     113.791 113.698 113.810  1.00  0.00     0.159 HD
ENDBRANCH   1  10
TORSDOF 4
ENDMDL
MODEL 9
REMARK VINA RESULT:    -2.790     11.802     12.663
REMARK INTER + INTRA:          -3.875
REMARK INTER:                  -3.409
REMARK INTRA:                  -0.466
REMARK UNBOUND:                -0.514
REMARK SMILES NC(=O)C[C@@H]([NH3+])C(=O)[O-]
REMARK SMILES IDX 4 1 5 2 6 3 7 7 8 8 9 9 2 10 3 11 1 12
REMARK H PARENT 6 4 6 5 6 6 1 13 1 14
REMARK Flexibility Score: inf
ROOT
ATOM      1  C   UNL     1     114.390 117.550 112.952  1.00  0.00     0.171 C 
ENDROOT
BRANCH   1   2
ATOM      2  C   UNL     1     114.956 116.745 111.765  1.00  0.00     0.237 C 
BRANCH   2   3
ATOM      3  N   UNL     1     116.369 116.404 111.972  1.00  0.00    -0.350 N 
ATOM      4  H   UNL     1     116.884 116.443 111.063  1.00  0.00     0.345 HD
ATOM      5  H   UNL     1     116.448 115.428 112.342  1.00  0.00     0.345 HD
ATOM      6  H   UNL     1     116.815 117.065 112.649  1.00  0.00     0.345 HD
ENDBRANCH   2   3
BRANCH   2   7
ATOM      7  C   UNL     1     114.144 115.492 111.572  1.00  0.00     0.100 C 
ATOM      8  O   UNL     1     113.779 115.145 110.418  1.00  0.00    -0.544 OA
ATOM      9  O   UNL     1     113.777 114.718 112.668  1.00  0.00    -0.544 OA
ENDBRANCH   2   7
ENDBRANCH   1   2
BRANCH   1  10
ATOM     10  C   UNL     1     115.142 117.270 114.220  1.00  0.00     0.223 C 
ATOM     11  O   UNL     1     116.159 117.955 114.509  1.00  0.00    -0.275 OA
ATOM     12  N   UNL     1     114.733 116.211 115.087  1.00  0.00    -0.369 N 
ATOM     13  H   UNL     1     113.907 115.618 114.852  1.00  0.00     0.159 HD
ATOM     14  H   UNL     1     115.265 116.012 115.963  1.00  0.00     0.159 HD
ENDBRANCH   1  10
TORSDOF 4
ENDMDL
