MODEL 1
REMARK VINA RESULT:    -5.534      0.000      0.000
REMARK INTER + INTRA:          -6.683
REMARK INTER:                  -6.504
REMARK INTRA:                  -0.178
REMARK UNBOUND:                -0.178
REMARK SMILES CCC=Cc1oc(O)c2c(O)cccc12
REMARK SMILES IDX 7 1 6 2 5 3 15 4 14 5 13 6 12 7 10 8 9 9 8 10 4 12 3 13 2 14
REMARK SMILES IDX 1 15 11 16
REMARK H PARENT 8 11 11 17
REMARK Flexibility Score: inf
ROOT
ATOM      1  C   UNL     1      14.775 -50.482   7.239  1.00  0.00     0.294 A 
ATOM      2  O   UNL     1      14.534 -51.746   7.528  1.00  0.00    -0.425 OA
ATOM      3  C   UNL     1      15.685 -52.396   7.571  1.00  0.00     0.138 A 
ATOM      4  C   UNL     1      16.713 -51.509   7.296  1.00  0.00     0.035 A 
ATOM      5  C   UNL     1      18.096 -51.683   7.219  1.00  0.00     0.013 A 
ATOM      6  C   UNL     1      18.883 -50.556   6.915  1.00  0.00     0.005 A 
ATOM      7  C   UNL     1      18.280 -49.298   6.697  1.00  0.00     0.047 A 
ATOM      8  C   UNL     1      16.881 -49.152   6.782  1.00  0.00     0.130 A 
ATOM      9  C   UNL     1      16.130 -50.288   7.086  1.00  0.00     0.108 A 
ENDROOT
BRANCH   1  10
ATOM     10  O   UNL     1      13.793 -49.506   7.113  1.00  0.00    -0.480 OA
ATOM     11  H   UNL     1      14.037 -48.570   6.815  1.00  0.00     0.297 HD
ENDBRANCH   1  10
BRANCH   3  12
ATOM     12  C   UNL     1      15.824 -53.831   7.864  1.00  0.00     0.043 C 
ATOM     13  C   UNL     1      14.790 -54.560   8.295  1.00  0.00    -0.023 C 
BRANCH  13  14
ATOM     14  C   UNL     1      14.928 -56.027   8.582  1.00  0.00     0.024 C 
ATOM     15  C   UNL     1      13.704 -56.568   9.315  1.00  0.00     0.008 C 
ENDBRANCH  13  14
ENDBRANCH   3  12
BRANCH   8  16
ATOM     16  O   UNL     1      16.263 -47.920   6.571  1.00  0.00    -0.507 OA
ATOM     17  H   UNL     1      16.207 -47.512   5.646  1.00  0.00     0.293 HD
ENDBRANCH   8  16
TORSDOF 4
ENDMDL
MODEL 2
REMARK VINA RESULT:    -5.501      1.759      2.760
REMARK INTER + INTRA:          -6.644
REMARK INTER:                  -6.405
REMARK INTRA:                  -0.238
REMARK UNBOUND:                -0.178
REMARK SMILES CCC=Cc1oc(O)c2c(O)cccc12
REMARK SMILES IDX 7 1 6 2 5 3 15 4 14 5 13 6 12 7 10 8 9 9 8 10 4 12 3 13 2 14
REMARK SMILES IDX 1 15 11 16
REMARK H PARENT 8 11 11 17
REMARK Flexibility Score: inf
ROOT
ATOM      1  C   UNL     1      17.655 -52.041   7.149  1.00  0.00     0.294 A 
ATOM      2  O   UNL     1      17.221 -53.286   7.165  1.00  0.00    -0.425 OA
ATOM      3  C   UNL     1      15.993 -53.300   7.655  1.00  0.00     0.138 A 
ATOM      4  C   UNL     1      15.620 -52.003   7.968  1.00  0.00     0.035 A 
ATOM      5  C   UNL     1      14.443 -51.478   8.505  1.00  0.00     0.013 A 
ATOM      6  C   UNL     1      14.378 -50.086   8.707  1.00  0.00     0.005 A 
ATOM      7  C   UNL     1      15.474 -49.261   8.373  1.00  0.00     0.047 A 
ATOM      8  C   UNL     1      16.650 -49.819   7.832  1.00  0.00     0.130 A 
ATOM      9  C   UNL     1      16.682 -51.201   7.644  1.00  0.00     0.108 A 
ENDROOT
BRANCH   1  10
ATOM     10  O   UNL     1      18.911 -51.654   6.696  1.00  0.00    -0.480 OA
ATOM     11  H   UNL     1      19.215 -51.898   5.762  1.00  0.00     0.297 HD
ENDBRANCH   1  10
BRANCH   3  12
ATOM     12  C   UNL     1      15.175 -54.511   7.828  1.00  0.00     0.043 C 
ATOM     13  C   UNL     1      15.460 -55.417   8.768  1.00  0.00    -0.023 C 
BRANCH  13  14
ATOM     14  C   UNL     1      14.618 -56.646   8.954  1.00  0.00     0.024 C 
ATOM     15  C   UNL     1      13.271 -56.308   9.585  1.00  0.00     0.008 C 
ENDBRANCH  13  14
ENDBRANCH   3  12
BRANCH   8  16
ATOM     16  O   UNL     1      17.744 -49.025   7.495  1.00  0.00    -0.507 OA
ATOM     17  H   UNL     1      17.624 -48.137   7.022  1.00  0.00     0.293 HD
ENDBRANCH   8  16
TORSDOF 4
ENDMDL
MODEL 3
REMARK VINA RESULT:    -5.434     10.129     10.771
REMARK INTER + INTRA:          -6.566
REMARK INTER:                  -6.366
REMARK INTRA:                  -0.199
REMARK UNBOUND:                -0.178
REMARK SMILES CCC=Cc1oc(O)c2c(O)cccc12
REMARK SMILES IDX 7 1 6 2 5 3 15 4 14 5 13 6 12 7 10 8 9 9 8 10 4 12 3 13 2 14
REMARK SMILES IDX 1 15 11 16
REMARK H PARENT 8 11 11 17
REMARK Flexibility Score: inf
ROOT
ATOM      1  C   UNL     1      16.918 -52.097  -1.305  1.00  0.00     0.294 A 
ATOM      2  O   UNL     1      17.338 -52.989  -2.181  1.00  0.00    -0.425 OA
ATOM      3  C   UNL     1      16.297 -53.680  -2.614  1.00  0.00     0.138 A 
ATOM      4  C   UNL     1      15.154 -53.212  -1.987  1.00  0.00     0.035 A 
ATOM      5  C   UNL     1      13.815 -53.592  -2.088  1.00  0.00     0.013 A 
ATOM      6  C   UNL     1      12.875 -52.902  -1.299  1.00  0.00     0.005 A 
ATOM      7  C   UNL     1      13.288 -51.860  -0.439  1.00  0.00     0.047 A 
ATOM      8  C   UNL     1      14.648 -51.497  -0.357  1.00  0.00     0.130 A 
ATOM      9  C   UNL     1      15.553 -52.201  -1.152  1.00  0.00     0.108 A 
ENDROOT
BRANCH   1  10
ATOM     10  O   UNL     1      17.745 -51.196  -0.645  1.00  0.00    -0.480 OA
ATOM     11  H   UNL     1      17.730 -50.214  -0.890  1.00  0.00     0.297 HD
ENDBRANCH   1  10
BRANCH   3  12
ATOM     12  C   UNL     1      16.368 -54.768  -3.603  1.00  0.00     0.043 C 
ATOM     13  C   UNL     1      16.865 -54.568  -4.826  1.00  0.00    -0.023 C 
BRANCH  13  14
ATOM     14  C   UNL     1      16.949 -55.680  -5.831  1.00  0.00     0.024 C 
ATOM     15  C   UNL     1      18.088 -55.450  -6.821  1.00  0.00     0.008 C 
ENDBRANCH  13  14
ENDBRANCH   3  12
BRANCH   8  16
ATOM     16  O   UNL     1      15.078 -50.473   0.484  1.00  0.00    -0.507 OA
ATOM     17  H   UNL     1      15.885 -49.906   0.251  1.00  0.00     0.293 HD
ENDBRANCH   8  16
TORSDOF 4
ENDMDL
MODEL 4
REMARK VINA RESULT:    -5.286     10.910     11.269
REMARK INTER + INTRA:          -6.392
REMARK INTER:                  -6.201
REMARK INTRA:                  -0.191
REMARK UNBOUND:                -0.178
REMARK SMILES CCC=Cc1oc(O)c2c(O)cccc12
REMARK SMILES IDX 7 1 6 2 5 3 15 4 14 5 13 6 12 7 10 8 9 9 8 10 4 12 3 13 2 14
REMARK SMILES IDX 1 15 11 16
REMARK H PARENT 8 11 11 17
REMARK Flexibility Score: inf
ROOT
ATOM      1  C   UNL     1      18.062 -53.286  -2.700  1.00  0.00     0.294 A 
ATOM      2  O   UNL     1      17.832 -54.266  -3.553  1.00  0.00    -0.425 OA
ATOM      3  C   UNL     1      16.551 -54.585  -3.495  1.00  0.00     0.138 A 
ATOM      4  C   UNL     1      15.927 -53.774  -2.562  1.00  0.00     0.035 A 
ATOM      5  C   UNL     1      14.601 -53.704  -2.129  1.00  0.00     0.013 A 
ATOM      6  C   UNL     1      14.282 -52.748  -1.146  1.00  0.00     0.005 A 
ATOM      7  C   UNL     1      15.280 -51.895  -0.625  1.00  0.00     0.047 A 
ATOM      8  C   UNL     1      16.610 -51.988  -1.081  1.00  0.00     0.130 A 
ATOM      9  C   UNL     1      16.893 -52.945  -2.056  1.00  0.00     0.108 A 
ENDROOT
BRANCH   1  10
ATOM     10  O   UNL     1      19.305 -52.699  -2.496  1.00  0.00    -0.480 OA
ATOM     11  H   UNL     1      19.377 -51.797  -2.043  1.00  0.00     0.297 HD
ENDBRANCH   1  10
BRANCH   3  12
ATOM     12  C   UNL     1      15.914 -55.638  -4.303  1.00  0.00     0.043 C 
ATOM     13  C   UNL     1      16.484 -56.103  -5.419  1.00  0.00    -0.023 C 
BRANCH  13  14
ATOM     14  C   UNL     1      15.842 -57.186  -6.236  1.00  0.00     0.024 C 
ATOM     15  C   UNL     1      15.882 -58.528  -5.511  1.00  0.00     0.008 C 
ENDBRANCH  13  14
ENDBRANCH   3  12
BRANCH   8  16
ATOM     16  O   UNL     1      17.611 -51.157  -0.582  1.00  0.00    -0.507 OA
ATOM     17  H   UNL     1      18.465 -51.538  -0.192  1.00  0.00     0.293 HD
ENDBRANCH   8  16
TORSDOF 4
ENDMDL
MODEL 5
REMARK VINA RESULT:    -5.251      2.929      5.063
REMARK INTER + INTRA:          -6.350
REMARK INTER:                  -6.111
REMARK INTRA:                  -0.239
REMARK UNBOUND:                -0.178
REMARK SMILES CCC=Cc1oc(O)c2c(O)cccc12
REMARK SMILES IDX 7 1 6 2 5 3 15 4 14 5 13 6 12 7 10 8 9 9 8 10 4 12 3 13 2 14
REMARK SMILES IDX 1 15 11 16
REMARK H PARENT 8 11 11 17
REMARK Flexibility Score: inf
ROOT
ATOM      1  C   UNL     1      15.854 -46.701   5.111  1.00  0.00     0.294 A 
ATOM      2  O   UNL     1      16.591 -47.794   5.096  1.00  0.00    -0.425 OA
ATOM      3  C   UNL     1      16.140 -48.621   6.024  1.00  0.00     0.138 A 
ATOM      4  C   UNL     1      15.063 -48.033   6.666  1.00  0.00     0.035 A 
ATOM      5  C   UNL     1      14.242 -48.479   7.703  1.00  0.00     0.013 A 
ATOM      6  C   UNL     1      13.211 -47.624   8.137  1.00  0.00     0.005 A 
ATOM      7  C   UNL     1      13.025 -46.360   7.534  1.00  0.00     0.047 A 
ATOM      8  C   UNL     1      13.870 -45.936   6.488  1.00  0.00     0.130 A 
ATOM      9  C   UNL     1      14.881 -46.807   6.081  1.00  0.00     0.108 A 
ENDROOT
BRANCH   1  10
ATOM     10  O   UNL     1      16.045 -45.614   4.266  1.00  0.00    -0.480 OA
ATOM     11  H   UNL     1      15.543 -45.553   3.389  1.00  0.00     0.297 HD
ENDBRANCH   1  10
BRANCH   3  12
ATOM     12  C   UNL     1      16.710 -49.948   6.308  1.00  0.00     0.043 C 
ATOM     13  C   UNL     1      17.974 -50.094   6.713  1.00  0.00    -0.023 C 
BRANCH  13  14
ATOM     14  C   UNL     1      18.551 -51.446   7.016  1.00  0.00     0.024 C 
ATOM     15  C   UNL     1      17.468 -52.429   7.450  1.00  0.00     0.008 C 
ENDBRANCH  13  14
ENDBRANCH   3  12
BRANCH   8  16
ATOM     16  O   UNL     1      13.706 -44.695   5.878  1.00  0.00    -0.507 OA
ATOM     17  H   UNL     1      14.137 -43.861   6.259  1.00  0.00     0.293 HD
ENDBRANCH   8  16
TORSDOF 4
ENDMDL
MODEL 6
REMARK VINA RESULT:    -5.154      1.879      3.192
REMARK INTER + INTRA:          -6.236
REMARK INTER:                  -6.015
REMARK INTRA:                  -0.221
REMARK UNBOUND:                -0.178
REMARK SMILES CCC=Cc1oc(O)c2c(O)cccc12
REMARK SMILES IDX 7 1 6 2 5 3 15 4 14 5 13 6 12 7 10 8 9 9 8 10 4 12 3 13 2 14
REMARK SMILES IDX 1 15 11 16
REMARK H PARENT 8 11 11 17
REMARK Flexibility Score: inf
ROOT
ATOM      1  C   UNL     1      17.402 -49.082   5.951  1.00  0.00     0.294 A 
ATOM      2  O   UNL     1      17.732 -50.291   6.361  1.00  0.00    -0.425 OA
ATOM      3  C   UNL     1      16.823 -50.705   7.228  1.00  0.00     0.138 A 
ATOM      4  C   UNL     1      15.865 -49.717   7.382  1.00  0.00     0.035 A 
ATOM      5  C   UNL     1      14.712 -49.654   8.167  1.00  0.00     0.013 A 
ATOM      6  C   UNL     1      13.933 -48.483   8.095  1.00  0.00     0.005 A 
ATOM      7  C   UNL     1      14.317 -47.416   7.253  1.00  0.00     0.047 A 
ATOM      8  C   UNL     1      15.487 -47.508   6.472  1.00  0.00     0.130 A 
ATOM      9  C   UNL     1      16.236 -48.682   6.565  1.00  0.00     0.108 A 
ENDROOT
BRANCH   1  10
ATOM     10  O   UNL     1      18.135 -48.338   5.033  1.00  0.00    -0.480 OA
ATOM     11  H   UNL     1      18.947 -47.812   5.333  1.00  0.00     0.297 HD
ENDBRANCH   1  10
BRANCH   3  12
ATOM     12  C   UNL     1      16.849 -52.012   7.906  1.00  0.00     0.043 C 
ATOM     13  C   UNL     1      15.976 -52.975   7.600  1.00  0.00    -0.023 C 
BRANCH  13  14
ATOM     14  C   UNL     1      16.010 -54.312   8.281  1.00  0.00     0.024 C 
ATOM     15  C   UNL     1      14.978 -55.266   7.688  1.00  0.00     0.008 C 
ENDBRANCH  13  14
ENDBRANCH   3  12
BRANCH   8  16
ATOM     16  O   UNL     1      15.886 -46.469   5.634  1.00  0.00    -0.507 OA
ATOM     17  H   UNL     1      15.983 -46.607   4.635  1.00  0.00     0.293 HD
ENDBRANCH   8  16
TORSDOF 4
ENDMDL
MODEL 7
REMARK VINA RESULT:    -5.149      2.394      5.361
REMARK INTER + INTRA:          -6.230
REMARK INTER:                  -5.981
REMARK INTRA:                  -0.249
REMARK UNBOUND:                -0.178
REMARK SMILES CCC=Cc1oc(O)c2c(O)cccc12
REMARK SMILES IDX 7 1 6 2 5 3 15 4 14 5 13 6 12 7 10 8 9 9 8 10 4 12 3 13 2 14
REMARK SMILES IDX 1 15 11 16
REMARK H PARENT 8 11 11 17
REMARK Flexibility Score: inf
ROOT
ATOM      1  C   UNL     1      14.685 -51.254   8.577  1.00  0.00     0.294 A 
ATOM      2  O   UNL     1      14.170 -50.044   8.470  1.00  0.00    -0.425 OA
ATOM      3  C   UNL     1      15.045 -49.264   7.859  1.00  0.00     0.138 A 
ATOM      4  C   UNL     1      16.176 -50.005   7.560  1.00  0.00     0.035 A 
ATOM      5  C   UNL     1      17.372 -49.662   6.927  1.00  0.00     0.013 A 
ATOM      6  C   UNL     1      18.345 -50.669   6.772  1.00  0.00     0.005 A 
ATOM      7  C   UNL     1      18.104 -51.978   7.245  1.00  0.00     0.047 A 
ATOM      8  C   UNL     1      16.886 -52.295   7.881  1.00  0.00     0.130 A 
ATOM      9  C   UNL     1      15.944 -51.275   8.018  1.00  0.00     0.108 A 
ENDROOT
BRANCH   1  10
ATOM     10  O   UNL     1      14.038 -52.332   9.168  1.00  0.00    -0.480 OA
ATOM     11  H   UNL     1      14.564 -53.019   9.694  1.00  0.00     0.297 HD
ENDBRANCH   1  10
BRANCH   3  12
ATOM     12  C   UNL     1      14.828 -47.840   7.558  1.00  0.00     0.043 C 
ATOM     13  C   UNL     1      14.014 -47.450   6.574  1.00  0.00    -0.023 C 
BRANCH  13  14
ATOM     14  C   UNL     1      13.782 -45.997   6.275  1.00  0.00     0.024 C 
ATOM     15  C   UNL     1      15.100 -45.245   6.115  1.00  0.00     0.008 C 
ENDBRANCH  13  14
ENDBRANCH   3  12
BRANCH   8  16
ATOM     16  O   UNL     1      16.626 -53.579   8.356  1.00  0.00    -0.507 OA
ATOM     17  H   UNL     1      15.826 -53.768   8.948  1.00  0.00     0.293 HD
ENDBRANCH   8  16
TORSDOF 4
ENDMDL
MODEL 8
REMARK VINA RESULT:    -4.902      2.347      3.895
REMARK INTER + INTRA:          -5.941
REMARK INTER:                  -5.706
REMARK INTRA:                  -0.235
REMARK UNBOUND:                -0.178
REMARK SMILES CCC=Cc1oc(O)c2c(O)cccc12
REMARK SMILES IDX 7 1 6 2 5 3 15 4 14 5 13 6 12 7 10 8 9 9 8 10 4 12 3 13 2 14
REMARK SMILES IDX 1 15 11 16
REMARK H PARENT 8 11 11 17
REMARK Flexibility Score: inf
ROOT
ATOM      1  C   UNL     1      16.726 -48.577   5.608  1.00  0.00     0.294 A 
ATOM      2  O   UNL     1      16.696 -49.753   6.203  1.00  0.00    -0.425 OA
ATOM      3  C   UNL     1      15.624 -49.810   6.975  1.00  0.00     0.138 A 
ATOM      4  C   UNL     1      14.933 -48.614   6.872  1.00  0.00     0.035 A 
ATOM      5  C   UNL     1      13.754 -48.167   7.471  1.00  0.00     0.013 A 
ATOM      6  C   UNL     1      13.305 -46.871   7.151  1.00  0.00     0.005 A 
ATOM      7  C   UNL     1      14.034 -46.062   6.251  1.00  0.00     0.047 A 
ATOM      8  C   UNL     1      15.221 -46.540   5.661  1.00  0.00     0.130 A 
ATOM      9  C   UNL     1      15.638 -47.828   5.999  1.00  0.00     0.108 A 
ENDROOT
BRANCH   1  10
ATOM     10  O   UNL     1      17.718 -48.171   4.723  1.00  0.00    -0.480 OA
ATOM     11  H   UNL     1      17.822 -48.629   3.826  1.00  0.00     0.297 HD
ENDBRANCH   1  10
BRANCH   3  12
ATOM     12  C   UNL     1      15.248 -50.969   7.800  1.00  0.00     0.043 C 
ATOM     13  C   UNL     1      14.511 -51.968   7.307  1.00  0.00    -0.023 C 
BRANCH  13  14
ATOM     14  C   UNL     1      14.138 -53.157   8.145  1.00  0.00     0.024 C 
ATOM     15  C   UNL     1      15.117 -54.310   7.940  1.00  0.00     0.008 C 
ENDBRANCH  13  14
ENDBRANCH   3  12
BRANCH   8  16
ATOM     16  O   UNL     1      15.957 -45.761   4.770  1.00  0.00    -0.507 OA
ATOM     17  H   UNL     1      16.925 -45.527   4.952  1.00  0.00     0.293 HD
ENDBRANCH   8  16
TORSDOF 4
ENDMDL
