MODEL 1
REMARK VINA RESULT:    -3.038      0.000      0.000
REMARK INTER + INTRA:          -4.501
REMARK INTER:                  -4.103
REMARK INTRA:                  -0.397
REMARK UNBOUND:                -0.397
REMARK SMILES CCCCCCCC(=O)[O-]
REMARK SMILES IDX 5 1 6 2 7 3 8 4 9 5 10 6 4 7 3 8 2 9 1 10
REMARK H PARENT
REMARK Flexibility Score: inf
ROOT
ATOM      1  C   UNL     1       6.626 -21.010 -16.695  1.00  0.00     0.000 C 
ENDROOT
BRANCH   1   2
ATOM      2  C   UNL     1       7.382 -22.290 -17.073  1.00  0.00     0.006 C 
BRANCH   2   3
ATOM      3  C   UNL     1       7.723 -22.308 -18.565  1.00  0.00     0.053 C 
BRANCH   3   4
ATOM      4  C   UNL     1       9.146 -21.902 -18.783  1.00  0.00     0.041 C 
ATOM      5  O   UNL     1      10.030 -22.214 -17.941  1.00  0.00    -0.550 OA
ATOM      6  O   UNL     1       9.489 -21.136 -19.890  1.00  0.00    -0.550 OA
ENDBRANCH   3   4
ENDBRANCH   2   3
ENDBRANCH   1   2
BRANCH   1   7
ATOM      7  C   UNL     1       7.244 -20.353 -15.452  1.00  0.00     0.000 C 
BRANCH   7   8
ATOM      8  C   UNL     1       8.540 -21.044 -14.990  1.00  0.00    -0.000 C 
BRANCH   8   9
ATOM      9  C   UNL     1       9.623 -20.094 -14.450  1.00  0.00    -0.003 C 
ATOM     10  C   UNL     1      11.034 -20.486 -14.883  1.00  0.00     0.004 C 
ENDBRANCH   8   9
ENDBRANCH   7   8
ENDBRANCH   1   7
TORSDOF 6
ENDMDL
MODEL 2
REMARK VINA RESULT:    -2.783      3.058      3.626
REMARK INTER + INTRA:          -4.156
REMARK INTER:                  -3.806
REMARK INTRA:                  -0.350
REMARK UNBOUND:                -0.397
REMARK SMILES CCCCCCCC(=O)[O-]
REMARK SMILES IDX 5 1 6 2 7 3 8 4 9 5 10 6 4 7 3 8 2 9 1 10
REMARK H PARENT
REMARK Flexibility Score: inf
ROOT
ATOM      1  C   UNL     1       8.134 -22.687 -16.758  1.00  0.00     0.000 C 
ENDROOT
BRANCH   1   2
ATOM      2  C   UNL     1       6.844 -23.125 -16.055  1.00  0.00     0.006 C 
BRANCH   2   3
ATOM      3  C   UNL     1       5.610 -22.716 -16.864  1.00  0.00     0.053 C 
BRANCH   3   4
ATOM      4  C   UNL     1       4.706 -21.853 -16.042  1.00  0.00     0.041 C 
ATOM      5  O   UNL     1       5.167 -20.853 -15.431  1.00  0.00    -0.550 OA
ATOM      6  O   UNL     1       3.362 -22.181 -15.910  1.00  0.00    -0.550 OA
ENDBRANCH   3   4
ENDBRANCH   2   3
ENDBRANCH   1   2
BRANCH   1   7
ATOM      7  C   UNL     1       8.494 -21.239 -16.395  1.00  0.00     0.000 C 
BRANCH   7   8
ATOM      8  C   UNL     1       8.552 -20.999 -14.876  1.00  0.00    -0.000 C 
BRANCH   8   9
ATOM      9  C   UNL     1       9.739 -20.143 -14.401  1.00  0.00    -0.003 C 
ATOM     10  C   UNL     1      11.042 -20.469 -15.128  1.00  0.00     0.004 C 
ENDBRANCH   8   9
ENDBRANCH   7   8
ENDBRANCH   1   7
TORSDOF 6
ENDMDL
MODEL 3
REMARK VINA RESULT:    -2.721      1.608      2.129
REMARK INTER + INTRA:          -4.072
REMARK INTER:                  -3.918
REMARK INTRA:                  -0.154
REMARK UNBOUND:                -0.397
REMARK SMILES CCCCCCCC(=O)[O-]
REMARK SMILES IDX 5 1 6 2 7 3 8 4 9 5 10 6 4 7 3 8 2 9 1 10
REMARK H PARENT
REMARK Flexibility Score: inf
ROOT
ATOM      1  C   UNL     1       8.921 -22.016 -17.185  1.00  0.00     0.000 C 
ENDROOT
BRANCH   1   2
ATOM      2  C   UNL     1       8.548 -21.946 -18.670  1.00  0.00     0.006 C 
BRANCH   2   3
ATOM      3  C   UNL     1       9.774 -21.629 -19.531  1.00  0.00     0.053 C 
BRANCH   3   4
ATOM      4  C   UNL     1       9.356 -21.215 -20.907  1.00  0.00     0.041 C 
ATOM      5  O   UNL     1       8.526 -21.908 -21.553  1.00  0.00    -0.550 OA
ATOM      6  O   UNL     1       9.919 -20.089 -21.495  1.00  0.00    -0.550 OA
ENDBRANCH   3   4
ENDBRANCH   2   3
ENDBRANCH   1   2
BRANCH   1   7
ATOM      7  C   UNL     1       7.715 -21.675 -16.298  1.00  0.00     0.000 C 
BRANCH   7   8
ATOM      8  C   UNL     1       8.006 -20.537 -15.303  1.00  0.00    -0.000 C 
BRANCH   8   9
ATOM      9  C   UNL     1       9.067 -20.864 -14.237  1.00  0.00    -0.003 C 
ATOM     10  C   UNL     1      10.413 -20.196 -14.509  1.00  0.00     0.004 C 
ENDBRANCH   8   9
ENDBRANCH   7   8
ENDBRANCH   1   7
TORSDOF 6
ENDMDL
MODEL 4
REMARK VINA RESULT:    -2.711      3.091      5.441
REMARK INTER + INTRA:          -4.059
REMARK INTER:                  -3.855
REMARK INTRA:                  -0.203
REMARK UNBOUND:                -0.397
REMARK SMILES CCCCCCCC(=O)[O-]
REMARK SMILES IDX 5 1 6 2 7 3 8 4 9 5 10 6 4 7 3 8 2 9 1 10
REMARK H PARENT
REMARK Flexibility Score: inf
ROOT
ATOM      1  C   UNL     1       8.139 -22.736 -19.395  1.00  0.00     0.000 C 
ENDROOT
BRANCH   1   2
ATOM      2  C   UNL     1       7.130 -22.507 -18.264  1.00  0.00     0.006 C 
BRANCH   2   3
ATOM      3  C   UNL     1       7.551 -21.330 -17.379  1.00  0.00     0.053 C 
BRANCH   3   4
ATOM      4  C   UNL     1       6.481 -21.016 -16.381  1.00  0.00     0.041 C 
ATOM      5  O   UNL     1       6.604 -20.028 -15.610  1.00  0.00    -0.550 OA
ATOM      6  O   UNL     1       5.371 -21.844 -16.268  1.00  0.00    -0.550 OA
ENDBRANCH   3   4
ENDBRANCH   2   3
ENDBRANCH   1   2
BRANCH   1   7
ATOM      7  C   UNL     1       7.425 -22.918 -20.742  1.00  0.00     0.000 C 
BRANCH   7   8
ATOM      8  C   UNL     1       8.378 -22.800 -21.946  1.00  0.00    -0.000 C 
BRANCH   8   9
ATOM      9  C   UNL     1       8.300 -21.463 -22.703  1.00  0.00    -0.003 C 
ATOM     10  C   UNL     1       9.211 -20.388 -22.114  1.00  0.00     0.004 C 
ENDBRANCH   8   9
ENDBRANCH   7   8
ENDBRANCH   1   7
TORSDOF 6
ENDMDL
MODEL 5
REMARK VINA RESULT:    -2.610      2.791      5.186
REMARK INTER + INTRA:          -3.923
REMARK INTER:                  -3.744
REMARK INTRA:                  -0.178
REMARK UNBOUND:                -0.397
REMARK SMILES CCCCCCCC(=O)[O-]
REMARK SMILES IDX 5 1 6 2 7 3 8 4 9 5 10 6 4 7 3 8 2 9 1 10
REMARK H PARENT
REMARK Flexibility Score: inf
ROOT
ATOM      1  C   UNL     1       7.903 -22.429 -18.907  1.00  0.00     0.000 C 
ENDROOT
BRANCH   1   2
ATOM      2  C   UNL     1       8.641 -21.994 -17.636  1.00  0.00     0.006 C 
BRANCH   2   3
ATOM      3  C   UNL     1       7.753 -22.160 -16.399  1.00  0.00     0.053 C 
BRANCH   3   4
ATOM      4  C   UNL     1       7.746 -20.905 -15.586  1.00  0.00     0.041 C 
ATOM      5  O   UNL     1       8.749 -20.595 -14.889  1.00  0.00    -0.550 OA
ATOM      6  O   UNL     1       6.614 -20.101 -15.559  1.00  0.00    -0.550 OA
ENDBRANCH   3   4
ENDBRANCH   2   3
ENDBRANCH   1   2
BRANCH   1   7
ATOM      7  C   UNL     1       8.802 -22.281 -20.143  1.00  0.00     0.000 C 
BRANCH   7   8
ATOM      8  C   UNL     1       8.061 -22.572 -21.461  1.00  0.00    -0.000 C 
BRANCH   8   9
ATOM      9  C   UNL     1       8.320 -21.557 -22.588  1.00  0.00    -0.003 C 
ATOM     10  C   UNL     1       9.221 -20.401 -22.157  1.00  0.00     0.004 C 
ENDBRANCH   8   9
ENDBRANCH   7   8
ENDBRANCH   1   7
TORSDOF 6
ENDMDL
MODEL 6
REMARK VINA RESULT:    -2.597     16.352     17.630
REMARK INTER + INTRA:          -3.906
REMARK INTER:                  -3.609
REMARK INTRA:                  -0.297
REMARK UNBOUND:                -0.397
REMARK SMILES CCCCCCCC(=O)[O-]
REMARK SMILES IDX 5 1 6 2 7 3 8 4 9 5 10 6 4 7 3 8 2 9 1 10
REMARK H PARENT
REMARK Flexibility Score: inf
ROOT
ATOM      1  C   UNL     1      -6.823 -22.504 -13.706  1.00  0.00     0.000 C 
ENDROOT
BRANCH   1   2
ATOM      2  C   UNL     1      -6.851 -22.377 -12.178  1.00  0.00     0.006 C 
BRANCH   2   3
ATOM      3  C   UNL     1      -8.276 -22.532 -11.639  1.00  0.00     0.053 C 
BRANCH   3   4
ATOM      4  C   UNL     1      -8.657 -21.342 -10.816  1.00  0.00     0.041 C 
ATOM      5  O   UNL     1      -8.728 -21.435  -9.562  1.00  0.00    -0.550 OA
ATOM      6  O   UNL     1      -8.980 -20.142 -11.437  1.00  0.00    -0.550 OA
ENDBRANCH   3   4
ENDBRANCH   2   3
ENDBRANCH   1   2
BRANCH   1   7
ATOM      7  C   UNL     1      -8.237 -22.392 -14.293  1.00  0.00     0.000 C 
BRANCH   7   8
ATOM      8  C   UNL     1      -8.377 -21.240 -15.304  1.00  0.00    -0.000 C 
BRANCH   8   9
ATOM      9  C   UNL     1      -8.051 -21.613 -16.761  1.00  0.00    -0.003 C 
ATOM     10  C   UNL     1      -6.615 -21.277 -17.157  1.00  0.00     0.004 C 
ENDBRANCH   8   9
ENDBRANCH   7   8
ENDBRANCH   1   7
TORSDOF 6
ENDMDL
MODEL 7
REMARK VINA RESULT:    -2.467      2.105      3.262
REMARK INTER + INTRA:          -3.730
REMARK INTER:                  -3.502
REMARK INTRA:                  -0.228
REMARK UNBOUND:                -0.397
REMARK SMILES CCCCCCCC(=O)[O-]
REMARK SMILES IDX 5 1 6 2 7 3 8 4 9 5 10 6 4 7 3 8 2 9 1 10
REMARK H PARENT
REMARK Flexibility Score: inf
ROOT
ATOM      1  C   UNL     1       9.897 -22.151 -17.914  1.00  0.00     0.000 C 
ENDROOT
BRANCH   1   2
ATOM      2  C   UNL     1      10.418 -21.809 -19.314  1.00  0.00     0.006 C 
BRANCH   2   3
ATOM      3  C   UNL     1       9.266 -21.453 -20.258  1.00  0.00     0.053 C 
BRANCH   3   4
ATOM      4  C   UNL     1       9.747 -20.558 -21.357  1.00  0.00     0.041 C 
ATOM      5  O   UNL     1      10.931 -20.131 -21.354  1.00  0.00    -0.550 OA
ATOM      6  O   UNL     1       8.872 -20.158 -22.359  1.00  0.00    -0.550 OA
ENDBRANCH   3   4
ENDBRANCH   2   3
ENDBRANCH   1   2
BRANCH   1   7
ATOM      7  C   UNL     1       8.371 -22.004 -17.843  1.00  0.00     0.000 C 
BRANCH   7   8
ATOM      8  C   UNL     1       7.818 -22.166 -16.415  1.00  0.00    -0.000 C 
BRANCH   8   9
ATOM      9  C   UNL     1       7.854 -20.889 -15.558  1.00  0.00    -0.003 C 
ATOM     10  C   UNL     1       6.522 -20.141 -15.543  1.00  0.00     0.004 C 
ENDBRANCH   8   9
ENDBRANCH   7   8
ENDBRANCH   1   7
TORSDOF 6
ENDMDL
MODEL 8
REMARK VINA RESULT:    -2.452     15.854     17.404
REMARK INTER + INTRA:          -3.709
REMARK INTER:                  -3.496
REMARK INTRA:                  -0.213
REMARK UNBOUND:                -0.397
REMARK SMILES CCCCCCCC(=O)[O-]
REMARK SMILES IDX 5 1 6 2 7 3 8 4 9 5 10 6 4 7 3 8 2 9 1 10
REMARK H PARENT
REMARK Flexibility Score: inf
ROOT
ATOM      1  C   UNL     1      -8.262 -20.444 -14.745  1.00  0.00     0.000 C 
ENDROOT
BRANCH   1   2
ATOM      2  C   UNL     1      -9.125 -20.507 -13.480  1.00  0.00     0.006 C 
BRANCH   2   3
ATOM      3  C   UNL     1      -8.287 -20.233 -12.228  1.00  0.00     0.053 C 
BRANCH   3   4
ATOM      4  C   UNL     1      -8.361 -21.392 -11.284  1.00  0.00     0.041 C 
ATOM      5  O   UNL     1      -8.847 -21.242 -10.133  1.00  0.00    -0.550 OA
ATOM      6  O   UNL     1      -7.847 -22.627 -11.659  1.00  0.00    -0.550 OA
ENDBRANCH   3   4
ENDBRANCH   2   3
ENDBRANCH   1   2
BRANCH   1   7
ATOM      7  C   UNL     1      -8.274 -21.788 -15.488  1.00  0.00     0.000 C 
BRANCH   7   8
ATOM      8  C   UNL     1      -7.917 -21.652 -16.979  1.00  0.00    -0.000 C 
BRANCH   8   9
ATOM      9  C   UNL     1      -6.462 -21.238 -17.262  1.00  0.00    -0.003 C 
ATOM     10  C   UNL     1      -5.449 -21.985 -16.397  1.00  0.00     0.004 C 
ENDBRANCH   8   9
ENDBRANCH   7   8
ENDBRANCH   1   7
TORSDOF 6
ENDMDL
MODEL 9
REMARK VINA RESULT:    -2.373     15.921     17.221
REMARK INTER + INTRA:          -3.603
REMARK INTER:                  -3.038
REMARK INTRA:                  -0.565
REMARK UNBOUND:                -0.397
REMARK SMILES CCCCCCCC(=O)[O-]
REMARK SMILES IDX 5 1 6 2 7 3 8 4 9 5 10 6 4 7 3 8 2 9 1 10
REMARK H PARENT
REMARK Flexibility Score: inf
ROOT
ATOM      1  C   UNL     1      -8.398 -20.111 -12.312  1.00  0.00     0.000 C 
ENDROOT
BRANCH   1   2
ATOM      2  C   UNL     1      -9.125 -20.447 -13.619  1.00  0.00     0.006 C 
BRANCH   2   3
ATOM      3  C   UNL     1      -8.160 -20.424 -14.808  1.00  0.00     0.053 C 
BRANCH   3   4
ATOM      4  C   UNL     1      -8.348 -21.640 -15.660  1.00  0.00     0.041 C 
ATOM      5  O   UNL     1      -8.007 -21.623 -16.872  1.00  0.00    -0.550 OA
ATOM      6  O   UNL     1      -8.945 -22.775 -15.128  1.00  0.00    -0.550 OA
ENDBRANCH   3   4
ENDBRANCH   2   3
ENDBRANCH   1   2
BRANCH   1   7
ATOM      7  C   UNL     1      -8.689 -21.164 -11.234  1.00  0.00     0.000 C 
BRANCH   7   8
ATOM      8  C   UNL     1      -8.276 -22.586 -11.658  1.00  0.00    -0.000 C 
BRANCH   8   9
ATOM      9  C   UNL     1      -6.772 -22.886 -11.538  1.00  0.00    -0.003 C 
ATOM     10  C   UNL     1      -6.039 -22.814 -12.876  1.00  0.00     0.004 C 
ENDBRANCH   8   9
ENDBRANCH   7   8
ENDBRANCH   1   7
TORSDOF 6
ENDMDL
