MODEL 1
REMARK VINA RESULT:    -3.252      0.000      0.000
REMARK INTER + INTRA:          -3.965
REMARK INTER:                  -3.822
REMARK INTRA:                  -0.143
REMARK UNBOUND:                -0.143
REMARK SMILES O=C([O-])CCC(=O)[O-]
REMARK SMILES IDX 4 1 2 2 1 3 3 4 5 5 6 6 7 7 8 8
REMARK H PARENT
REMARK Flexibility Score: inf
ROOT
ATOM      1  C   UNL     1      13.068  42.852  19.590  1.00  0.00     0.059 C 
ENDROOT
BRANCH   1   2
ATOM      2  C   UNL     1      13.377  41.433  19.219  1.00  0.00     0.042 C 
ATOM      3  O   UNL     1      13.301  41.062  18.019  1.00  0.00    -0.550 OA
ATOM      4  O   UNL     1      13.707  40.512  20.204  1.00  0.00    -0.550 OA
ENDBRANCH   1   2
BRANCH   1   5
ATOM      5  C   UNL     1      14.106  43.824  19.020  1.00  0.00     0.059 C 
BRANCH   5   6
ATOM      6  C   UNL     1      15.365  43.828  19.832  1.00  0.00     0.042 C 
ATOM      7  O   UNL     1      16.479  44.014  19.274  1.00  0.00    -0.550 OA
ATOM      8  O   UNL     1      15.313  43.585  21.199  1.00  0.00    -0.550 OA
ENDBRANCH   5   6
ENDBRANCH   1   5
TORSDOF 3
ENDMDL
MODEL 2
REMARK VINA RESULT:    -3.246      0.076      3.373
REMARK INTER + INTRA:          -3.958
REMARK INTER:                  -3.811
REMARK INTRA:                  -0.147
REMARK UNBOUND:                -0.143
REMARK SMILES O=C([O-])CCC(=O)[O-]
REMARK SMILES IDX 4 1 2 2 1 3 3 4 5 5 6 6 7 7 8 8
REMARK H PARENT
REMARK Flexibility Score: inf
ROOT
ATOM      1  C   UNL     1      14.036  43.886  19.108  1.00  0.00     0.059 C 
ENDROOT
BRANCH   1   2
ATOM      2  C   UNL     1      15.324  43.860  19.874  1.00  0.00     0.042 C 
ATOM      3  O   UNL     1      16.418  44.049  19.279  1.00  0.00    -0.550 OA
ATOM      4  O   UNL     1      15.320  43.584  21.234  1.00  0.00    -0.550 OA
ENDBRANCH   1   2
BRANCH   1   5
ATOM      5  C   UNL     1      13.032  42.866  19.655  1.00  0.00     0.059 C 
BRANCH   5   6
ATOM      6  C   UNL     1      13.367  41.473  19.219  1.00  0.00     0.042 C 
ATOM      7  O   UNL     1      13.302  41.157  18.001  1.00  0.00    -0.550 OA
ATOM      8  O   UNL     1      13.712  40.512  20.160  1.00  0.00    -0.550 OA
ENDBRANCH   5   6
ENDBRANCH   1   5
TORSDOF 3
ENDMDL
MODEL 3
REMARK VINA RESULT:    -3.187      0.229      1.633
REMARK INTER + INTRA:          -3.889
REMARK INTER:                  -3.760
REMARK INTRA:                  -0.129
REMARK UNBOUND:                -0.143
REMARK SMILES O=C([O-])CCC(=O)[O-]
REMARK SMILES IDX 4 1 2 2 1 3 3 4 5 5 6 6 7 7 8 8
REMARK H PARENT
REMARK Flexibility Score: inf
ROOT
ATOM      1  C   UNL     1      13.015  42.667  19.867  1.00  0.00     0.059 C 
ENDROOT
BRANCH   1   2
ATOM      2  C   UNL     1      13.299  41.280  19.376  1.00  0.00     0.042 C 
ATOM      3  O   UNL     1      13.721  40.401  20.171  1.00  0.00    -0.550 OA
ATOM      4  O   UNL     1      13.138  40.971  18.031  1.00  0.00    -0.550 OA
ENDBRANCH   1   2
BRANCH   1   5
ATOM      5  C   UNL     1      13.991  43.688  19.274  1.00  0.00     0.059 C 
BRANCH   5   6
ATOM      6  C   UNL     1      15.272  43.742  20.047  1.00  0.00     0.042 C 
ATOM      7  O   UNL     1      15.278  43.493  21.282  1.00  0.00    -0.550 OA
ATOM      8  O   UNL     1      16.454  44.107  19.414  1.00  0.00    -0.550 OA
ENDBRANCH   5   6
ENDBRANCH   1   5
TORSDOF 3
ENDMDL
MODEL 4
REMARK VINA RESULT:    -3.179      1.046      3.584
REMARK INTER + INTRA:          -3.879
REMARK INTER:                  -3.758
REMARK INTRA:                  -0.121
REMARK UNBOUND:                -0.143
REMARK SMILES O=C([O-])CCC(=O)[O-]
REMARK SMILES IDX 4 1 2 2 1 3 3 4 5 5 6 6 7 7 8 8
REMARK H PARENT
REMARK Flexibility Score: inf
ROOT
ATOM      1  C   UNL     1      14.730  43.391  20.506  1.00  0.00     0.059 C 
ENDROOT
BRANCH   1   2
ATOM      2  C   UNL     1      15.407  44.090  19.367  1.00  0.00     0.042 C 
ATOM      3  O   UNL     1      16.649  43.971  19.199  1.00  0.00    -0.550 OA
ATOM      4  O   UNL     1      14.674  44.907  18.516  1.00  0.00    -0.550 OA
ENDBRANCH   1   2
BRANCH   1   5
ATOM      5  C   UNL     1      13.374  42.812  20.089  1.00  0.00     0.059 C 
BRANCH   5   6
ATOM      6  C   UNL     1      13.516  41.443  19.499  1.00  0.00     0.042 C 
ATOM      7  O   UNL     1      13.465  41.283  18.250  1.00  0.00    -0.550 OA
ATOM      8  O   UNL     1      13.664  40.339  20.328  1.00  0.00    -0.550 OA
ENDBRANCH   5   6
ENDBRANCH   1   5
TORSDOF 3
ENDMDL
MODEL 5
REMARK VINA RESULT:    -3.100      1.365      1.998
REMARK INTER + INTRA:          -3.787
REMARK INTER:                  -3.721
REMARK INTRA:                  -0.066
REMARK UNBOUND:                -0.143
REMARK SMILES O=C([O-])CCC(=O)[O-]
REMARK SMILES IDX 4 1 2 2 1 3 3 4 5 5 6 6 7 7 8 8
REMARK H PARENT
REMARK Flexibility Score: inf
ROOT
ATOM      1  C   UNL     1      14.072  42.782  20.680  1.00  0.00     0.059 C 
ENDROOT
BRANCH   1   2
ATOM      2  C   UNL     1      13.709  41.328  20.651  1.00  0.00     0.042 C 
ATOM      3  O   UNL     1      13.782  40.636  21.701  1.00  0.00    -0.550 OA
ATOM      4  O   UNL     1      13.331  40.728  19.458  1.00  0.00    -0.550 OA
ENDBRANCH   1   2
BRANCH   1   5
ATOM      5  C   UNL     1      13.752  43.471  19.350  1.00  0.00     0.059 C 
BRANCH   5   6
ATOM      6  C   UNL     1      14.896  44.312  18.874  1.00  0.00     0.042 C 
ATOM      7  O   UNL     1      14.683  45.321  18.150  1.00  0.00    -0.550 OA
ATOM      8  O   UNL     1      16.201  43.962  19.197  1.00  0.00    -0.550 OA
ENDBRANCH   5   6
ENDBRANCH   1   5
TORSDOF 3
ENDMDL
MODEL 6
REMARK VINA RESULT:    -3.099      1.509      3.819
REMARK INTER + INTRA:          -3.785
REMARK INTER:                  -3.673
REMARK INTRA:                  -0.113
REMARK UNBOUND:                -0.143
REMARK SMILES O=C([O-])CCC(=O)[O-]
REMARK SMILES IDX 4 1 2 2 1 3 3 4 5 5 6 6 7 7 8 8
REMARK H PARENT
REMARK Flexibility Score: inf
ROOT
ATOM      1  C   UNL     1      13.498  42.821  19.945  1.00  0.00     0.059 C 
ENDROOT
BRANCH   1   2
ATOM      2  C   UNL     1      14.861  43.440  20.023  1.00  0.00     0.042 C 
ATOM      3  O   UNL     1      15.410  43.623  21.141  1.00  0.00    -0.550 OA
ATOM      4  O   UNL     1      15.506  43.853  18.865  1.00  0.00    -0.550 OA
ENDBRANCH   1   2
BRANCH   1   5
ATOM      5  C   UNL     1      13.576  41.318  19.657  1.00  0.00     0.059 C 
BRANCH   5   6
ATOM      6  C   UNL     1      13.308  40.506  20.887  1.00  0.00     0.042 C 
ATOM      7  O   UNL     1      12.303  39.749  20.940  1.00  0.00    -0.550 OA
ATOM      8  O   UNL     1      14.146  40.614  21.990  1.00  0.00    -0.550 OA
ENDBRANCH   5   6
ENDBRANCH   1   5
TORSDOF 3
ENDMDL
MODEL 7
REMARK VINA RESULT:    -3.094      1.548      3.813
REMARK INTER + INTRA:          -3.779
REMARK INTER:                  -3.743
REMARK INTRA:                  -0.036
REMARK UNBOUND:                -0.143
REMARK SMILES O=C([O-])CCC(=O)[O-]
REMARK SMILES IDX 4 1 2 2 1 3 3 4 5 5 6 6 7 7 8 8
REMARK H PARENT
REMARK Flexibility Score: inf
ROOT
ATOM      1  C   UNL     1      14.407  43.115  20.494  1.00  0.00     0.059 C 
ENDROOT
BRANCH   1   2
ATOM      2  C   UNL     1      15.120  43.944  19.470  1.00  0.00     0.042 C 
ATOM      3  O   UNL     1      16.378  43.997  19.462  1.00  0.00    -0.550 OA
ATOM      4  O   UNL     1      14.395  44.692  18.552  1.00  0.00    -0.550 OA
ENDBRANCH   1   2
BRANCH   1   5
ATOM      5  C   UNL     1      13.709  41.908  19.858  1.00  0.00     0.059 C 
BRANCH   5   6
ATOM      6  C   UNL     1      13.442  40.831  20.864  1.00  0.00     0.042 C 
ATOM      7  O   UNL     1      14.167  40.726  21.888  1.00  0.00    -0.550 OA
ATOM      8  O   UNL     1      12.417  39.918  20.652  1.00  0.00    -0.550 OA
ENDBRANCH   5   6
ENDBRANCH   1   5
TORSDOF 3
ENDMDL
MODEL 8
REMARK VINA RESULT:    -3.020      1.722      1.904
REMARK INTER + INTRA:          -3.692
REMARK INTER:                  -3.574
REMARK INTRA:                  -0.119
REMARK UNBOUND:                -0.143
REMARK SMILES O=C([O-])CCC(=O)[O-]
REMARK SMILES IDX 4 1 2 2 1 3 3 4 5 5 6 6 7 7 8 8
REMARK H PARENT
REMARK Flexibility Score: inf
ROOT
ATOM      1  C   UNL     1      12.838  42.014  20.453  1.00  0.00     0.059 C 
ENDROOT
BRANCH   1   2
ATOM      2  C   UNL     1      13.066  40.772  21.259  1.00  0.00     0.042 C 
ATOM      3  O   UNL     1      12.215  39.844  21.247  1.00  0.00    -0.550 OA
ATOM      4  O   UNL     1      14.198  40.656  22.055  1.00  0.00    -0.550 OA
ENDBRANCH   1   2
BRANCH   1   5
ATOM      5  C   UNL     1      13.991  42.278  19.480  1.00  0.00     0.059 C 
BRANCH   5   6
ATOM      6  C   UNL     1      14.744  43.522  19.839  1.00  0.00     0.042 C 
ATOM      7  O   UNL     1      14.851  44.460  19.005  1.00  0.00    -0.550 OA
ATOM      8  O   UNL     1      15.360  43.630  21.079  1.00  0.00    -0.550 OA
ENDBRANCH   5   6
ENDBRANCH   1   5
TORSDOF 3
ENDMDL
MODEL 9
REMARK VINA RESULT:    -2.189     16.344     17.489
REMARK INTER + INTRA:          -2.716
REMARK INTER:                  -2.689
REMARK INTRA:                  -0.027
REMARK UNBOUND:                -0.143
REMARK SMILES O=C([O-])CCC(=O)[O-]
REMARK SMILES IDX 4 1 2 2 1 3 3 4 5 5 6 6 7 7 8 8
REMARK H PARENT
REMARK Flexibility Score: inf
ROOT
ATOM      1  C   UNL     1      13.051  48.750  35.103  1.00  0.00     0.059 C 
ENDROOT
BRANCH   1   2
ATOM      2  C   UNL     1      12.249  48.840  33.840  1.00  0.00     0.042 C 
ATOM      3  O   UNL     1      11.875  49.961  33.406  1.00  0.00    -0.550 OA
ATOM      4  O   UNL     1      11.878  47.684  33.166  1.00  0.00    -0.550 OA
ENDBRANCH   1   2
BRANCH   1   5
ATOM      5  C   UNL     1      12.199  49.062  36.337  1.00  0.00     0.059 C 
BRANCH   5   6
ATOM      6  C   UNL     1      12.647  48.275  37.531  1.00  0.00     0.042 C 
ATOM      7  O   UNL     1      13.737  48.551  38.099  1.00  0.00    -0.550 OA
ATOM      8  O   UNL     1      11.882  47.212  37.992  1.00  0.00    -0.550 OA
ENDBRANCH   5   6
ENDBRANCH   1   5
TORSDOF 3
ENDMDL
