MODEL 1
REMARK VINA RESULT:    -4.504      0.000      0.000
REMARK INTER + INTRA:         -14.844
REMARK INTER:                 -10.297
REMARK INTRA:                  -4.547
REMARK UNBOUND:                -4.547
REMARK SMILES CCCCCCCCCCCCCCCCCCCCCCCC(=O)[O-]
REMARK SMILES IDX 13 1 14 2 15 3 16 4 17 5 18 6 19 7 20 8 21 9 22 10 23 11
REMARK SMILES IDX 24 12 25 13 26 14 12 15 11 16 10 17 9 18 8 19 7 20 6 21 5 22
REMARK SMILES IDX 4 23 3 24 2 25 1 26
REMARK H PARENT
REMARK Flexibility Score: inf
ROOT
ATOM      1  C   UNL     1       0.698   7.463  28.692  1.00  0.00     0.000 C 
ENDROOT
BRANCH   1   2
ATOM      2  C   UNL     1      -0.686   6.912  28.293  1.00  0.00     0.000 C 
BRANCH   2   3
ATOM      3  C   UNL     1      -1.164   5.696  29.109  1.00  0.00     0.000 C 
BRANCH   3   4
ATOM      4  C   UNL     1      -1.765   4.565  28.247  1.00  0.00     0.000 C 
BRANCH   4   5
ATOM      5  C   UNL     1      -1.342   4.665  26.772  1.00  0.00     0.000 C 
BRANCH   5   6
ATOM      6  C   UNL     1      -2.545   4.779  25.817  1.00  0.00     0.000 C 
BRANCH   6   7
ATOM      7  C   UNL     1      -2.292   4.208  24.408  1.00  0.00     0.000 C 
BRANCH   7   8
ATOM      8  C   UNL     1      -0.798   4.175  24.042  1.00  0.00     0.000 C 
BRANCH   8   9
ATOM      9  C   UNL     1      -0.530   4.753  22.632  1.00  0.00     0.000 C 
BRANCH   9  10
ATOM     10  C   UNL     1      -1.801   5.264  21.925  1.00  0.00     0.006 C 
BRANCH  10  11
ATOM     11  C   UNL     1      -1.722   6.743  21.505  1.00  0.00     0.053 C 
BRANCH  11  12
ATOM     12  C   UNL     1      -1.619   7.687  22.664  1.00  0.00     0.041 C 
ATOM     13  O   UNL     1      -2.429   7.611  23.626  1.00  0.00    -0.550 OA
ATOM     14  O   UNL     1      -0.570   8.597  22.722  1.00  0.00    -0.550 OA
ENDBRANCH  11  12
ENDBRANCH  10  11
ENDBRANCH   9  10
ENDBRANCH   8   9
ENDBRANCH   7   8
ENDBRANCH   6   7
ENDBRANCH   5   6
ENDBRANCH   4   5
ENDBRANCH   3   4
ENDBRANCH   2   3
ENDBRANCH   1   2
BRANCH   1  15
ATOM     15  C   UNL     1       1.727   7.526  27.548  1.00  0.00     0.000 C 
BRANCH  15  16
ATOM     16  C   UNL     1       1.077   7.540  26.156  1.00  0.00     0.000 C 
BRANCH  16  17
ATOM     17  C   UNL     1       1.733   6.498  25.238  1.00  0.00     0.000 C 
BRANCH  17  18
ATOM     18  C   UNL     1       3.148   6.107  25.693  1.00  0.00    -0.000 C 
BRANCH  18  19
ATOM     19  C   UNL     1       3.332   4.583  25.815  1.00  0.00    -0.000 C 
BRANCH  19  20
ATOM     20  C   UNL     1       2.075   3.874  26.362  1.00  0.00    -0.000 C 
BRANCH  20  21
ATOM     21  C   UNL     1       2.294   3.163  27.713  1.00  0.00    -0.000 C 
BRANCH  21  22
ATOM     22  C   UNL     1       2.065   4.042  28.954  1.00  0.00    -0.000 C 
BRANCH  22  23
ATOM     23  C   UNL     1       3.355   4.708  29.457  1.00  0.00    -0.000 C 
BRANCH  23  24
ATOM     24  C   UNL     1       3.160   5.285  30.868  1.00  0.00    -0.000 C 
BRANCH  24  25
ATOM     25  C   UNL     1       1.745   5.039  31.417  1.00  0.00    -0.003 C 
ATOM     26  C   UNL     1       1.208   6.224  32.223  1.00  0.00     0.004 C 
ENDBRANCH  24  25
ENDBRANCH  23  24
ENDBRANCH  22  23
ENDBRANCH  21  22
ENDBRANCH  20  21
ENDBRANCH  19  20
ENDBRANCH  18  19
ENDBRANCH  17  18
ENDBRANCH  16  17
ENDBRANCH  15  16
ENDBRANCH   1  15
TORSDOF 22
ENDMDL
MODEL 2
REMARK VINA RESULT:    -4.495      3.304      7.648
REMARK INTER + INTRA:         -14.824
REMARK INTER:                 -10.764
REMARK INTRA:                  -4.060
REMARK UNBOUND:                -4.547
REMARK SMILES CCCCCCCCCCCCCCCCCCCCCCCC(=O)[O-]
REMARK SMILES IDX 13 1 14 2 15 3 16 4 17 5 18 6 19 7 20 8 21 9 22 10 23 11
REMARK SMILES IDX 24 12 25 13 26 14 12 15 11 16 10 17 9 18 8 19 7 20 6 21 5 22
REMARK SMILES IDX 4 23 3 24 2 25 1 26
REMARK H PARENT
REMARK Flexibility Score: inf
ROOT
ATOM      1  C   UNL     1       0.516   4.691  23.700  1.00  0.00     0.000 C 
ENDROOT
BRANCH   1   2
ATOM      2  C   UNL     1       0.756   5.263  25.112  1.00  0.00     0.000 C 
BRANCH   2   3
ATOM      3  C   UNL     1       1.052   6.774  25.162  1.00  0.00     0.000 C 
BRANCH   3   4
ATOM      4  C   UNL     1       0.079   7.570  26.059  1.00  0.00     0.000 C 
BRANCH   4   5
ATOM      5  C   UNL     1      -1.290   7.783  25.392  1.00  0.00     0.000 C 
BRANCH   5   6
ATOM      6  C   UNL     1      -2.459   7.298  26.270  1.00  0.00     0.000 C 
BRANCH   6   7
ATOM      7  C   UNL     1      -3.158   6.027  25.750  1.00  0.00     0.000 C 
BRANCH   7   8
ATOM      8  C   UNL     1      -2.760   4.767  26.540  1.00  0.00     0.000 C 
BRANCH   8   9
ATOM      9  C   UNL     1      -2.251   5.107  27.961  1.00  0.00     0.000 C 
BRANCH   9  10
ATOM     10  C   UNL     1      -0.892   4.463  28.299  1.00  0.00     0.006 C 
BRANCH  10  11
ATOM     11  C   UNL     1       0.079   5.414  29.023  1.00  0.00     0.053 C 
BRANCH  11  12
ATOM     12  C   UNL     1       1.520   5.041  28.847  1.00  0.00     0.041 C 
ATOM     13  O   UNL     1       2.363   5.900  28.474  1.00  0.00    -0.550 OA
ATOM     14  O   UNL     1       1.947   3.762  29.181  1.00  0.00    -0.550 OA
ENDBRANCH  11  12
ENDBRANCH  10  11
ENDBRANCH   9  10
ENDBRANCH   8   9
ENDBRANCH   7   8
ENDBRANCH   6   7
ENDBRANCH   5   6
ENDBRANCH   4   5
ENDBRANCH   3   4
ENDBRANCH   2   3
ENDBRANCH   1   2
BRANCH   1  15
ATOM     15  C   UNL     1      -0.942   4.766  23.207  1.00  0.00     0.000 C 
BRANCH  15  16
ATOM     16  C   UNL     1      -1.090   5.539  21.888  1.00  0.00     0.000 C 
BRANCH  16  17
ATOM     17  C   UNL     1      -2.535   5.466  21.373  1.00  0.00     0.000 C 
BRANCH  17  18
ATOM     18  C   UNL     1      -3.203   4.111  21.656  1.00  0.00    -0.000 C 
BRANCH  18  19
ATOM     19  C   UNL     1      -4.191   3.694  20.552  1.00  0.00    -0.000 C 
BRANCH  19  20
ATOM     20  C   UNL     1      -5.355   4.695  20.386  1.00  0.00    -0.000 C 
BRANCH  20  21
ATOM     21  C   UNL     1      -6.750   4.073  20.595  1.00  0.00    -0.000 C 
BRANCH  21  22
ATOM     22  C   UNL     1      -7.110   3.759  22.057  1.00  0.00    -0.000 C 
BRANCH  22  23
ATOM     23  C   UNL     1      -6.654   4.857  23.030  1.00  0.00    -0.000 C 
BRANCH  23  24
ATOM     24  C   UNL     1      -6.031   4.245  24.294  1.00  0.00    -0.000 C 
BRANCH  24  25
ATOM     25  C   UNL     1      -5.762   2.737  24.151  1.00  0.00    -0.003 C 
ATOM     26  C   UNL     1      -4.287   2.378  24.342  1.00  0.00     0.004 C 
ENDBRANCH  24  25
ENDBRANCH  23  24
ENDBRANCH  22  23
ENDBRANCH  21  22
ENDBRANCH  20  21
ENDBRANCH  19  20
ENDBRANCH  18  19
ENDBRANCH  17  18
ENDBRANCH  16  17
ENDBRANCH  15  16
ENDBRANCH   1  15
TORSDOF 22
ENDMDL
MODEL 3
REMARK VINA RESULT:    -4.475      3.091      6.920
REMARK INTER + INTRA:         -14.778
REMARK INTER:                 -10.441
REMARK INTRA:                  -4.337
REMARK UNBOUND:                -4.547
REMARK SMILES CCCCCCCCCCCCCCCCCCCCCCCC(=O)[O-]
REMARK SMILES IDX 13 1 14 2 15 3 16 4 17 5 18 6 19 7 20 8 21 9 22 10 23 11
REMARK SMILES IDX 24 12 25 13 26 14 12 15 11 16 10 17 9 18 8 19 7 20 6 21 5 22
REMARK SMILES IDX 4 23 3 24 2 25 1 26
REMARK H PARENT
REMARK Flexibility Score: inf
ROOT
ATOM      1  C   UNL     1       3.429   4.397  29.504  1.00  0.00     0.000 C 
ENDROOT
BRANCH   1   2
ATOM      2  C   UNL     1       2.131   3.862  28.868  1.00  0.00     0.000 C 
BRANCH   2   3
ATOM      3  C   UNL     1       2.234   3.511  27.372  1.00  0.00     0.000 C 
BRANCH   3   4
ATOM      4  C   UNL     1       3.615   3.819  26.753  1.00  0.00     0.000 C 
BRANCH   4   5
ATOM      5  C   UNL     1       3.505   4.643  25.459  1.00  0.00     0.000 C 
BRANCH   5   6
ATOM      6  C   UNL     1       3.405   6.156  25.727  1.00  0.00     0.000 C 
BRANCH   6   7
ATOM      7  C   UNL     1       4.633   6.756  26.440  1.00  0.00     0.000 C 
BRANCH   7   8
ATOM      8  C   UNL     1       4.254   7.565  27.693  1.00  0.00     0.000 C 
BRANCH   8   9
ATOM      9  C   UNL     1       2.723   7.726  27.841  1.00  0.00     0.000 C 
BRANCH   9  10
ATOM     10  C   UNL     1       2.306   9.027  28.557  1.00  0.00     0.006 C 
BRANCH  10  11
ATOM     11  C   UNL     1       3.473   9.749  29.254  1.00  0.00     0.053 C 
BRANCH  11  12
ATOM     12  C   UNL     1       3.440   9.632  30.747  1.00  0.00     0.041 C 
ATOM     13  O   UNL     1       2.433  10.018  31.398  1.00  0.00    -0.550 OA
ATOM     14  O   UNL     1       4.490   9.012  31.414  1.00  0.00    -0.550 OA
ENDBRANCH  11  12
ENDBRANCH  10  11
ENDBRANCH   9  10
ENDBRANCH   8   9
ENDBRANCH   7   8
ENDBRANCH   6   7
ENDBRANCH   5   6
ENDBRANCH   4   5
ENDBRANCH   3   4
ENDBRANCH   2   3
ENDBRANCH   1   2
BRANCH   1  15
ATOM     15  C   UNL     1       3.232   5.203  30.803  1.00  0.00     0.000 C 
BRANCH  15  16
ATOM     16  C   UNL     1       1.765   5.260  31.257  1.00  0.00     0.000 C 
BRANCH  16  17
ATOM     17  C   UNL     1       1.239   6.702  31.220  1.00  0.00     0.000 C 
BRANCH  17  18
ATOM     18  C   UNL     1      -0.234   6.789  30.786  1.00  0.00    -0.000 C 
BRANCH  18  19
ATOM     19  C   UNL     1      -0.420   6.578  29.273  1.00  0.00    -0.000 C 
BRANCH  19  20
ATOM     20  C   UNL     1      -1.314   5.363  28.946  1.00  0.00    -0.000 C 
BRANCH  20  21
ATOM     21  C   UNL     1      -1.317   4.970  27.456  1.00  0.00    -0.000 C 
BRANCH  21  22
ATOM     22  C   UNL     1      -0.337   5.762  26.573  1.00  0.00    -0.000 C 
BRANCH  22  23
ATOM     23  C   UNL     1      -0.802   5.863  25.112  1.00  0.00    -0.000 C 
BRANCH  23  24
ATOM     24  C   UNL     1       0.211   5.197  24.168  1.00  0.00    -0.000 C 
BRANCH  24  25
ATOM     25  C   UNL     1      -0.464   4.481  22.986  1.00  0.00    -0.003 C 
ATOM     26  C   UNL     1      -0.947   5.449  21.904  1.00  0.00     0.004 C 
ENDBRANCH  24  25
ENDBRANCH  23  24
ENDBRANCH  22  23
ENDBRANCH  21  22
ENDBRANCH  20  21
ENDBRANCH  19  20
ENDBRANCH  18  19
ENDBRANCH  17  18
ENDBRANCH  16  17
ENDBRANCH  15  16
ENDBRANCH   1  15
TORSDOF 22
ENDMDL
MODEL 4
REMARK VINA RESULT:    -4.474      2.245      4.299
REMARK INTER + INTRA:         -14.776
REMARK INTER:                 -11.026
REMARK INTRA:                  -3.750
REMARK UNBOUND:                -4.547
REMARK SMILES CCCCCCCCCCCCCCCCCCCCCCCC(=O)[O-]
REMARK SMILES IDX 13 1 14 2 15 3 16 4 17 5 18 6 19 7 20 8 21 9 22 10 23 11
REMARK SMILES IDX 24 12 25 13 26 14 12 15 11 16 10 17 9 18 8 19 7 20 6 21 5 22
REMARK SMILES IDX 4 23 3 24 2 25 1 26
REMARK H PARENT
REMARK Flexibility Score: inf
ROOT
ATOM      1  C   UNL     1       1.102   4.586  29.515  1.00  0.00     0.000 C 
ENDROOT
BRANCH   1   2
ATOM      2  C   UNL     1       0.122   5.750  29.766  1.00  0.00     0.000 C 
BRANCH   2   3
ATOM      3  C   UNL     1      -0.680   6.205  28.532  1.00  0.00     0.000 C 
BRANCH   3   4
ATOM      4  C   UNL     1      -1.826   5.245  28.145  1.00  0.00     0.000 C 
BRANCH   4   5
ATOM      5  C   UNL     1      -1.520   4.459  26.859  1.00  0.00     0.000 C 
BRANCH   5   6
ATOM      6  C   UNL     1      -0.591   5.228  25.901  1.00  0.00     0.000 C 
BRANCH   6   7
ATOM      7  C   UNL     1       0.283   4.327  25.006  1.00  0.00     0.000 C 
BRANCH   7   8
ATOM      8  C   UNL     1       0.029   4.559  23.506  1.00  0.00     0.000 C 
BRANCH   8   9
ATOM      9  C   UNL     1      -1.068   5.620  23.257  1.00  0.00     0.000 C 
BRANCH   9  10
ATOM     10  C   UNL     1      -2.306   5.067  22.524  1.00  0.00     0.006 C 
BRANCH  10  11
ATOM     11  C   UNL     1      -2.968   3.876  23.241  1.00  0.00     0.053 C 
BRANCH  11  12
ATOM     12  C   UNL     1      -4.133   3.303  22.494  1.00  0.00     0.041 C 
ATOM     13  O   UNL     1      -4.135   3.274  21.235  1.00  0.00    -0.550 OA
ATOM     14  O   UNL     1      -5.182   2.719  23.195  1.00  0.00    -0.550 OA
ENDBRANCH  11  12
ENDBRANCH  10  11
ENDBRANCH   9  10
ENDBRANCH   8   9
ENDBRANCH   7   8
ENDBRANCH   6   7
ENDBRANCH   5   6
ENDBRANCH   4   5
ENDBRANCH   3   4
ENDBRANCH   2   3
ENDBRANCH   1   2
BRANCH   1  15
ATOM     15  C   UNL     1       2.114   4.334  30.649  1.00  0.00     0.000 C 
BRANCH  15  16
ATOM     16  C   UNL     1       3.084   5.506  30.860  1.00  0.00     0.000 C 
BRANCH  16  17
ATOM     17  C   UNL     1       4.542   5.027  30.787  1.00  0.00     0.000 C 
BRANCH  17  18
ATOM     18  C   UNL     1       5.473   6.048  30.113  1.00  0.00    -0.000 C 
BRANCH  18  19
ATOM     19  C   UNL     1       5.191   7.494  30.560  1.00  0.00    -0.000 C 
BRANCH  19  20
ATOM     20  C   UNL     1       4.972   8.452  29.369  1.00  0.00    -0.000 C 
BRANCH  20  21
ATOM     21  C   UNL     1       4.581   7.743  28.058  1.00  0.00    -0.000 C 
BRANCH  21  22
ATOM     22  C   UNL     1       3.067   7.644  27.799  1.00  0.00    -0.000 C 
BRANCH  22  23
ATOM     23  C   UNL     1       2.705   6.519  26.817  1.00  0.00    -0.000 C 
BRANCH  23  24
ATOM     24  C   UNL     1       3.954   5.720  26.414  1.00  0.00    -0.000 C 
BRANCH  24  25
ATOM     25  C   UNL     1       3.679   4.212  26.296  1.00  0.00    -0.003 C 
ATOM     26  C   UNL     1       4.035   3.444  27.571  1.00  0.00     0.004 C 
ENDBRANCH  24  25
ENDBRANCH  23  24
ENDBRANCH  22  23
ENDBRANCH  21  22
ENDBRANCH  20  21
ENDBRANCH  19  20
ENDBRANCH  18  19
ENDBRANCH  17  18
ENDBRANCH  16  17
ENDBRANCH  15  16
ENDBRANCH   1  15
TORSDOF 22
ENDMDL
MODEL 5
REMARK VINA RESULT:    -4.469      2.602      5.407
REMARK INTER + INTRA:         -14.763
REMARK INTER:                 -11.136
REMARK INTRA:                  -3.627
REMARK UNBOUND:                -4.547
REMARK SMILES CCCCCCCCCCCCCCCCCCCCCCCC(=O)[O-]
REMARK SMILES IDX 13 1 14 2 15 3 16 4 17 5 18 6 19 7 20 8 21 9 22 10 23 11
REMARK SMILES IDX 24 12 25 13 26 14 12 15 11 16 10 17 9 18 8 19 7 20 6 21 5 22
REMARK SMILES IDX 4 23 3 24 2 25 1 26
REMARK H PARENT
REMARK Flexibility Score: inf
ROOT
ATOM      1  C   UNL     1      -2.019   4.822  24.404  1.00  0.00     0.000 C 
ENDROOT
BRANCH   1   2
ATOM      2  C   UNL     1      -1.173   4.286  23.231  1.00  0.00     0.000 C 
BRANCH   2   3
ATOM      3  C   UNL     1      -0.987   5.268  22.059  1.00  0.00     0.000 C 
BRANCH   3   4
ATOM      4  C   UNL     1      -1.520   6.689  22.346  1.00  0.00     0.000 C 
BRANCH   4   5
ATOM      5  C   UNL     1      -2.540   7.154  21.292  1.00  0.00     0.000 C 
BRANCH   5   6
ATOM      6  C   UNL     1      -2.474   6.324  19.996  1.00  0.00     0.000 C 
BRANCH   6   7
ATOM      7  C   UNL     1      -3.809   6.233  19.233  1.00  0.00     0.000 C 
BRANCH   7   8
ATOM      8  C   UNL     1      -4.835   5.330  19.940  1.00  0.00     0.000 C 
BRANCH   8   9
ATOM      9  C   UNL     1      -4.351   3.864  20.039  1.00  0.00     0.000 C 
BRANCH   9  10
ATOM     10  C   UNL     1      -4.189   3.365  21.489  1.00  0.00     0.006 C 
BRANCH  10  11
ATOM     11  C   UNL     1      -5.086   4.102  22.500  1.00  0.00     0.053 C 
BRANCH  11  12
ATOM     12  C   UNL     1      -6.278   3.304  22.932  1.00  0.00     0.041 C 
ATOM     13  O   UNL     1      -6.246   2.630  23.996  1.00  0.00    -0.550 OA
ATOM     14  O   UNL     1      -7.458   3.376  22.202  1.00  0.00    -0.550 OA
ENDBRANCH  11  12
ENDBRANCH  10  11
ENDBRANCH   9  10
ENDBRANCH   8   9
ENDBRANCH   7   8
ENDBRANCH   6   7
ENDBRANCH   5   6
ENDBRANCH   4   5
ENDBRANCH   3   4
ENDBRANCH   2   3
ENDBRANCH   1   2
BRANCH   1  15
ATOM     15  C   UNL     1      -1.767   4.129  25.757  1.00  0.00     0.000 C 
BRANCH  15  16
ATOM     16  C   UNL     1      -2.593   4.732  26.903  1.00  0.00     0.000 C 
BRANCH  16  17
ATOM     17  C   UNL     1      -1.893   4.514  28.253  1.00  0.00     0.000 C 
BRANCH  17  18
ATOM     18  C   UNL     1      -1.296   5.808  28.831  1.00  0.00    -0.000 C 
BRANCH  18  19
ATOM     19  C   UNL     1       0.128   5.609  29.382  1.00  0.00    -0.000 C 
BRANCH  19  20
ATOM     20  C   UNL     1       0.768   4.285  28.911  1.00  0.00    -0.000 C 
BRANCH  20  21
ATOM     21  C   UNL     1       2.256   4.141  29.288  1.00  0.00    -0.000 C 
BRANCH  21  22
ATOM     22  C   UNL     1       3.186   3.755  28.125  1.00  0.00    -0.000 C 
BRANCH  22  23
ATOM     23  C   UNL     1       2.459   3.714  26.772  1.00  0.00    -0.000 C 
BRANCH  23  24
ATOM     24  C   UNL     1       2.868   4.907  25.894  1.00  0.00    -0.000 C 
BRANCH  24  25
ATOM     25  C   UNL     1       1.684   5.499  25.111  1.00  0.00    -0.003 C 
ATOM     26  C   UNL     1       1.006   6.655  25.849  1.00  0.00     0.004 C 
ENDBRANCH  24  25
ENDBRANCH  23  24
ENDBRANCH  22  23
ENDBRANCH  21  22
ENDBRANCH  20  21
ENDBRANCH  19  20
ENDBRANCH  18  19
ENDBRANCH  17  18
ENDBRANCH  16  17
ENDBRANCH  15  16
ENDBRANCH   1  15
TORSDOF 22
ENDMDL
MODEL 6
REMARK VINA RESULT:    -4.418      1.841      4.278
REMARK INTER + INTRA:         -14.646
REMARK INTER:                 -10.429
REMARK INTRA:                  -4.218
REMARK UNBOUND:                -4.547
REMARK SMILES CCCCCCCCCCCCCCCCCCCCCCCC(=O)[O-]
REMARK SMILES IDX 13 1 14 2 15 3 16 4 17 5 18 6 19 7 20 8 21 9 22 10 23 11
REMARK SMILES IDX 24 12 25 13 26 14 12 15 11 16 10 17 9 18 8 19 7 20 6 21 5 22
REMARK SMILES IDX 4 23 3 24 2 25 1 26
REMARK H PARENT
REMARK Flexibility Score: inf
ROOT
ATOM      1  C   UNL     1      -1.782   4.759  27.808  1.00  0.00     0.000 C 
ENDROOT
BRANCH   1   2
ATOM      2  C   UNL     1      -1.479   4.830  26.298  1.00  0.00     0.000 C 
BRANCH   2   3
ATOM      3  C   UNL     1      -0.973   6.197  25.798  1.00  0.00     0.000 C 
BRANCH   3   4
ATOM      4  C   UNL     1       0.035   6.099  24.633  1.00  0.00     0.000 C 
BRANCH   4   5
ATOM      5  C   UNL     1       0.185   4.661  24.108  1.00  0.00     0.000 C 
BRANCH   5   6
ATOM      6  C   UNL     1      -0.253   4.518  22.639  1.00  0.00     0.000 C 
BRANCH   6   7
ATOM      7  C   UNL     1      -1.050   5.719  22.095  1.00  0.00     0.000 C 
BRANCH   7   8
ATOM      8  C   UNL     1      -2.535   5.389  21.864  1.00  0.00     0.000 C 
BRANCH   8   9
ATOM      9  C   UNL     1      -2.952   4.067  22.551  1.00  0.00     0.000 C 
BRANCH   9  10
ATOM     10  C   UNL     1      -4.071   4.243  23.597  1.00  0.00     0.006 C 
BRANCH  10  11
ATOM     11  C   UNL     1      -4.258   5.698  24.063  1.00  0.00     0.053 C 
BRANCH  11  12
ATOM     12  C   UNL     1      -5.691   6.137  24.087  1.00  0.00     0.041 C 
ATOM     13  O   UNL     1      -6.079   7.095  23.368  1.00  0.00    -0.550 OA
ATOM     14  O   UNL     1      -6.618   5.426  24.840  1.00  0.00    -0.550 OA
ENDBRANCH  11  12
ENDBRANCH  10  11
ENDBRANCH   9  10
ENDBRANCH   8   9
ENDBRANCH   7   8
ENDBRANCH   6   7
ENDBRANCH   5   6
ENDBRANCH   4   5
ENDBRANCH   3   4
ENDBRANCH   2   3
ENDBRANCH   1   2
BRANCH   1  15
ATOM     15  C   UNL     1      -1.459   6.041  28.598  1.00  0.00     0.000 C 
BRANCH  15  16
ATOM     16  C   UNL     1      -0.479   5.801  29.757  1.00  0.00     0.000 C 
BRANCH  16  17
ATOM     17  C   UNL     1       0.332   7.070  30.057  1.00  0.00     0.000 C 
BRANCH  17  18
ATOM     18  C   UNL     1       1.630   6.782  30.829  1.00  0.00    -0.000 C 
BRANCH  18  19
ATOM     19  C   UNL     1       1.584   5.443  31.587  1.00  0.00    -0.000 C 
BRANCH  19  20
ATOM     20  C   UNL     1       2.696   4.469  31.142  1.00  0.00    -0.000 C 
BRANCH  20  21
ATOM     21  C   UNL     1       3.182   4.691  29.696  1.00  0.00    -0.000 C 
BRANCH  21  22
ATOM     22  C   UNL     1       2.539   3.770  28.646  1.00  0.00    -0.000 C 
BRANCH  22  23
ATOM     23  C   UNL     1       2.053   4.532  27.404  1.00  0.00    -0.000 C 
BRANCH  23  24
ATOM     24  C   UNL     1       2.717   5.915  27.315  1.00  0.00    -0.000 C 
BRANCH  24  25
ATOM     25  C   UNL     1       3.466   6.128  25.989  1.00  0.00    -0.003 C 
ATOM     26  C   UNL     1       3.852   4.813  25.309  1.00  0.00     0.004 C 
ENDBRANCH  24  25
ENDBRANCH  23  24
ENDBRANCH  22  23
ENDBRANCH  21  22
ENDBRANCH  20  21
ENDBRANCH  19  20
ENDBRANCH  18  19
ENDBRANCH  17  18
ENDBRANCH  16  17
ENDBRANCH  15  16
ENDBRANCH   1  15
TORSDOF 22
ENDMDL
MODEL 7
REMARK VINA RESULT:    -4.385      3.429      6.282
REMARK INTER + INTRA:         -14.571
REMARK INTER:                  -9.819
REMARK INTRA:                  -4.753
REMARK UNBOUND:                -4.547
REMARK SMILES CCCCCCCCCCCCCCCCCCCCCCCC(=O)[O-]
REMARK SMILES IDX 13 1 14 2 15 3 16 4 17 5 18 6 19 7 20 8 21 9 22 10 23 11
REMARK SMILES IDX 24 12 25 13 26 14 12 15 11 16 10 17 9 18 8 19 7 20 6 21 5 22
REMARK SMILES IDX 4 23 3 24 2 25 1 26
REMARK H PARENT
REMARK Flexibility Score: inf
ROOT
ATOM      1  C   UNL     1      -2.661   6.911  21.083  1.00  0.00     0.000 C 
ENDROOT
BRANCH   1   2
ATOM      2  C   UNL     1      -3.025   5.620  20.323  1.00  0.00     0.000 C 
BRANCH   2   3
ATOM      3  C   UNL     1      -4.478   5.549  19.816  1.00  0.00     0.000 C 
BRANCH   3   4
ATOM      4  C   UNL     1      -5.276   4.353  20.379  1.00  0.00     0.000 C 
BRANCH   4   5
ATOM      5  C   UNL     1      -4.391   3.386  21.185  1.00  0.00     0.000 C 
BRANCH   5   6
ATOM      6  C   UNL     1      -4.948   3.108  22.593  1.00  0.00     0.000 C 
BRANCH   6   7
ATOM      7  C   UNL     1      -6.209   3.920  22.948  1.00  0.00     0.000 C 
BRANCH   7   8
ATOM      8  C   UNL     1      -6.181   4.458  24.390  1.00  0.00     0.000 C 
BRANCH   8   9
ATOM      9  C   UNL     1      -6.328   5.997  24.441  1.00  0.00     0.000 C 
BRANCH   9  10
ATOM     10  C   UNL     1      -6.173   6.677  23.065  1.00  0.00     0.006 C 
BRANCH  10  11
ATOM     11  C   UNL     1      -7.354   7.589  22.690  1.00  0.00     0.053 C 
BRANCH  11  12
ATOM     12  C   UNL     1      -7.980   7.243  21.374  1.00  0.00     0.041 C 
ATOM     13  O   UNL     1      -8.274   6.049  21.099  1.00  0.00    -0.550 OA
ATOM     14  O   UNL     1      -8.320   8.255  20.484  1.00  0.00    -0.550 OA
ENDBRANCH  11  12
ENDBRANCH  10  11
ENDBRANCH   9  10
ENDBRANCH   8   9
ENDBRANCH   7   8
ENDBRANCH   6   7
ENDBRANCH   5   6
ENDBRANCH   4   5
ENDBRANCH   3   4
ENDBRANCH   2   3
ENDBRANCH   1   2
BRANCH   1  15
ATOM     15  C   UNL     1      -1.678   6.722  22.254  1.00  0.00     0.000 C 
BRANCH  15  16
ATOM     16  C   UNL     1      -1.630   5.275  22.769  1.00  0.00     0.000 C 
BRANCH  16  17
ATOM     17  C   UNL     1      -2.469   5.123  24.046  1.00  0.00     0.000 C 
BRANCH  17  18
ATOM     18  C   UNL     1      -2.611   6.440  24.828  1.00  0.00    -0.000 C 
BRANCH  18  19
ATOM     19  C   UNL     1      -3.246   6.240  26.216  1.00  0.00    -0.000 C 
BRANCH  19  20
ATOM     20  C   UNL     1      -3.044   4.810  26.763  1.00  0.00    -0.000 C 
BRANCH  20  21
ATOM     21  C   UNL     1      -2.205   4.746  28.054  1.00  0.00    -0.000 C 
BRANCH  21  22
ATOM     22  C   UNL     1      -0.697   4.535  27.840  1.00  0.00    -0.000 C 
BRANCH  22  23
ATOM     23  C   UNL     1      -0.387   3.666  26.611  1.00  0.00    -0.000 C 
BRANCH  23  24
ATOM     24  C   UNL     1       0.723   4.299  25.758  1.00  0.00    -0.000 C 
BRANCH  24  25
ATOM     25  C   UNL     1       1.052   5.739  26.188  1.00  0.00    -0.003 C 
ATOM     26  C   UNL     1       0.971   6.735  25.030  1.00  0.00     0.004 C 
ENDBRANCH  24  25
ENDBRANCH  23  24
ENDBRANCH  22  23
ENDBRANCH  21  22
ENDBRANCH  20  21
ENDBRANCH  19  20
ENDBRANCH  18  19
ENDBRANCH  17  18
ENDBRANCH  16  17
ENDBRANCH  15  16
ENDBRANCH   1  15
TORSDOF 22
ENDMDL
MODEL 8
REMARK VINA RESULT:    -4.343      2.312      4.999
REMARK INTER + INTRA:         -14.476
REMARK INTER:                  -9.909
REMARK INTRA:                  -4.567
REMARK UNBOUND:                -4.547
REMARK SMILES CCCCCCCCCCCCCCCCCCCCCCCC(=O)[O-]
REMARK SMILES IDX 13 1 14 2 15 3 16 4 17 5 18 6 19 7 20 8 21 9 22 10 23 11
REMARK SMILES IDX 24 12 25 13 26 14 12 15 11 16 10 17 9 18 8 19 7 20 6 21 5 22
REMARK SMILES IDX 4 23 3 24 2 25 1 26
REMARK H PARENT
REMARK Flexibility Score: inf
ROOT
ATOM      1  C   UNL     1       3.061   5.244  30.724  1.00  0.00     0.000 C 
ENDROOT
BRANCH   1   2
ATOM      2  C   UNL     1       2.129   4.137  30.191  1.00  0.00     0.000 C 
BRANCH   2   3
ATOM      3  C   UNL     1       1.969   4.099  28.660  1.00  0.00     0.000 C 
BRANCH   3   4
ATOM      4  C   UNL     1       2.936   3.122  27.957  1.00  0.00     0.000 C 
BRANCH   4   5
ATOM      5  C   UNL     1       3.628   3.758  26.739  1.00  0.00     0.000 C 
BRANCH   5   6
ATOM      6  C   UNL     1       3.678   5.296  26.823  1.00  0.00     0.000 C 
BRANCH   6   7
ATOM      7  C   UNL     1       3.032   6.017  25.624  1.00  0.00     0.000 C 
BRANCH   7   8
ATOM      8  C   UNL     1       1.636   6.578  25.952  1.00  0.00     0.000 C 
BRANCH   8   9
ATOM      9  C   UNL     1       0.552   6.043  24.987  1.00  0.00     0.000 C 
BRANCH   9  10
ATOM     10  C   UNL     1       0.522   4.505  24.885  1.00  0.00     0.006 C 
BRANCH  10  11
ATOM     11  C   UNL     1      -0.431   3.837  25.892  1.00  0.00     0.053 C 
BRANCH  11  12
ATOM     12  C   UNL     1      -1.872   3.909  25.487  1.00  0.00     0.041 C 
ATOM     13  O   UNL     1      -2.273   3.330  24.443  1.00  0.00    -0.550 OA
ATOM     14  O   UNL     1      -2.790   4.544  26.314  1.00  0.00    -0.550 OA
ENDBRANCH  11  12
ENDBRANCH  10  11
ENDBRANCH   9  10
ENDBRANCH   8   9
ENDBRANCH   7   8
ENDBRANCH   6   7
ENDBRANCH   5   6
ENDBRANCH   4   5
ENDBRANCH   3   4
ENDBRANCH   2   3
ENDBRANCH   1   2
BRANCH   1  15
ATOM     15  C   UNL     1       4.556   4.873  30.760  1.00  0.00     0.000 C 
BRANCH  15  16
ATOM     16  C   UNL     1       5.478   6.066  30.463  1.00  0.00     0.000 C 
BRANCH  16  17
ATOM     17  C   UNL     1       4.761   7.394  30.752  1.00  0.00     0.000 C 
BRANCH  17  18
ATOM     18  C   UNL     1       5.392   8.586  30.015  1.00  0.00    -0.000 C 
BRANCH  18  19
ATOM     19  C   UNL     1       4.470   9.167  28.928  1.00  0.00    -0.000 C 
BRANCH  19  20
ATOM     20  C   UNL     1       3.252   8.264  28.635  1.00  0.00    -0.000 C 
BRANCH  20  21
ATOM     21  C   UNL     1       1.892   8.960  28.839  1.00  0.00    -0.000 C 
BRANCH  21  22
ATOM     22  C   UNL     1       1.278   8.788  30.239  1.00  0.00    -0.000 C 
BRANCH  22  23
ATOM     23  C   UNL     1      -0.189   8.333  30.192  1.00  0.00    -0.000 C 
BRANCH  23  24
ATOM     24  C   UNL     1      -0.286   6.801  30.121  1.00  0.00    -0.000 C 
BRANCH  24  25
ATOM     25  C   UNL     1      -1.026   6.313  28.865  1.00  0.00    -0.003 C 
ATOM     26  C   UNL     1      -1.472   7.461  27.957  1.00  0.00     0.004 C 
ENDBRANCH  24  25
ENDBRANCH  23  24
ENDBRANCH  22  23
ENDBRANCH  21  22
ENDBRANCH  20  21
ENDBRANCH  19  20
ENDBRANCH  18  19
ENDBRANCH  17  18
ENDBRANCH  16  17
ENDBRANCH  15  16
ENDBRANCH   1  15
TORSDOF 22
ENDMDL
MODEL 9
REMARK VINA RESULT:    -4.341      1.762      4.945
REMARK INTER + INTRA:         -14.470
REMARK INTER:                  -9.717
REMARK INTRA:                  -4.753
REMARK UNBOUND:                -4.547
REMARK SMILES CCCCCCCCCCCCCCCCCCCCCCCC(=O)[O-]
REMARK SMILES IDX 13 1 14 2 15 3 16 4 17 5 18 6 19 7 20 8 21 9 22 10 23 11
REMARK SMILES IDX 24 12 25 13 26 14 12 15 11 16 10 17 9 18 8 19 7 20 6 21 5 22
REMARK SMILES IDX 4 23 3 24 2 25 1 26
REMARK H PARENT
REMARK Flexibility Score: inf
ROOT
ATOM      1  C   UNL     1       2.081   4.714  30.823  1.00  0.00     0.000 C 
ENDROOT
BRANCH   1   2
ATOM      2  C   UNL     1       3.604   4.945  30.897  1.00  0.00     0.000 C 
BRANCH   2   3
ATOM      3  C   UNL     1       4.273   5.318  29.561  1.00  0.00     0.000 C 
BRANCH   3   4
ATOM      4  C   UNL     1       4.466   4.120  28.606  1.00  0.00     0.000 C 
BRANCH   4   5
ATOM      5  C   UNL     1       3.491   4.158  27.416  1.00  0.00     0.000 C 
BRANCH   5   6
ATOM      6  C   UNL     1       3.907   5.182  26.343  1.00  0.00     0.000 C 
BRANCH   6   7
ATOM      7  C   UNL     1       2.749   5.669  25.450  1.00  0.00     0.000 C 
BRANCH   7   8
ATOM      8  C   UNL     1       1.637   4.617  25.296  1.00  0.00     0.000 C 
BRANCH   8   9
ATOM      9  C   UNL     1       0.465   5.131  24.426  1.00  0.00     0.000 C 
BRANCH   9  10
ATOM     10  C   UNL     1      -0.031   6.535  24.828  1.00  0.00     0.006 C 
BRANCH  10  11
ATOM     11  C   UNL     1      -1.545   6.735  24.632  1.00  0.00     0.053 C 
BRANCH  11  12
ATOM     12  C   UNL     1      -2.305   5.449  24.515  1.00  0.00     0.041 C 
ATOM     13  O   UNL     1      -2.750   4.872  25.542  1.00  0.00    -0.550 OA
ATOM     14  O   UNL     1      -2.599   4.933  23.258  1.00  0.00    -0.550 OA
ENDBRANCH  11  12
ENDBRANCH  10  11
ENDBRANCH   9  10
ENDBRANCH   8   9
ENDBRANCH   7   8
ENDBRANCH   6   7
ENDBRANCH   5   6
ENDBRANCH   4   5
ENDBRANCH   3   4
ENDBRANCH   2   3
ENDBRANCH   1   2
BRANCH   1  15
ATOM     15  C   UNL     1       1.272   5.333  31.980  1.00  0.00     0.000 C 
BRANCH  15  16
ATOM     16  C   UNL     1       1.805   6.706  32.417  1.00  0.00     0.000 C 
BRANCH  16  17
ATOM     17  C   UNL     1       0.954   7.836  31.819  1.00  0.00     0.000 C 
BRANCH  17  18
ATOM     18  C   UNL     1       1.785   9.073  31.440  1.00  0.00    -0.000 C 
BRANCH  18  19
ATOM     19  C   UNL     1       3.110   8.708  30.746  1.00  0.00    -0.000 C 
BRANCH  19  20
ATOM     20  C   UNL     1       3.231   9.321  29.335  1.00  0.00    -0.000 C 
BRANCH  20  21
ATOM     21  C   UNL     1       2.931   8.329  28.193  1.00  0.00    -0.000 C 
BRANCH  21  22
ATOM     22  C   UNL     1       1.447   8.216  27.804  1.00  0.00    -0.000 C 
BRANCH  22  23
ATOM     23  C   UNL     1       0.813   6.892  28.259  1.00  0.00    -0.000 C 
BRANCH  23  24
ATOM     24  C   UNL     1      -0.644   7.105  28.698  1.00  0.00    -0.000 C 
BRANCH  24  25
ATOM     25  C   UNL     1      -1.419   5.785  28.836  1.00  0.00    -0.003 C 
ATOM     26  C   UNL     1      -0.633   4.579  28.315  1.00  0.00     0.004 C 
ENDBRANCH  24  25
ENDBRANCH  23  24
ENDBRANCH  22  23
ENDBRANCH  21  22
ENDBRANCH  20  21
ENDBRANCH  19  20
ENDBRANCH  18  19
ENDBRANCH  17  18
ENDBRANCH  16  17
ENDBRANCH  15  16
ENDBRANCH   1  15
TORSDOF 22
ENDMDL
