MODEL 1
REMARK VINA RESULT:    -4.321      0.000      0.000
REMARK INTER + INTRA:          -9.385
REMARK INTER:                  -7.857
REMARK INTRA:                  -1.528
REMARK UNBOUND:                -1.528
REMARK SMILES CCCCCCCCCCCCCC[C@H](C)C(=O)[O-]
REMARK SMILES IDX 9 1 10 2 11 3 12 4 13 5 14 6 15 7 16 8 17 9 18 10 19 11 8 12
REMARK SMILES IDX 7 13 6 14 5 15 4 16 3 17 2 18 1 19
REMARK H PARENT
REMARK Flexibility Score: inf
ROOT
ATOM      1  C   UNL     1       5.534  10.555   7.330  1.00  0.00     0.000 C 
ENDROOT
BRANCH   1   2
ATOM      2  C   UNL     1       6.118  11.914   7.738  1.00  0.00     0.000 C 
BRANCH   2   3
ATOM      3  C   UNL     1       7.539  11.759   8.294  1.00  0.00     0.000 C 
BRANCH   3   4
ATOM      4  C   UNL     1       8.391  10.866   7.380  1.00  0.00     0.000 C 
BRANCH   4   5
ATOM      5  C   UNL     1       9.499  11.644   6.653  1.00  0.00     0.001 C 
BRANCH   5   6
ATOM      6  C   UNL     1       8.941  12.695   5.677  1.00  0.00     0.009 C 
BRANCH   6   7
ATOM      7  C   UNL     1       8.436  12.073   4.355  1.00  0.00     0.032 C 
ATOM      8  C   UNL     1       9.015  12.775   3.119  1.00  0.00     0.014 C 
BRANCH   7   9
ATOM      9  C   UNL     1       6.933  12.120   4.309  1.00  0.00     0.044 C 
ATOM     10  O   UNL     1       6.310  13.123   4.748  1.00  0.00    -0.550 OA
ATOM     11  O   UNL     1       6.222  11.050   3.780  1.00  0.00    -0.550 OA
ENDBRANCH   7   9
ENDBRANCH   6   7
ENDBRANCH   5   6
ENDBRANCH   4   5
ENDBRANCH   3   4
ENDBRANCH   2   3
ENDBRANCH   1   2
BRANCH   1  12
ATOM     12  C   UNL     1       4.174  10.727   6.639  1.00  0.00     0.000 C 
BRANCH  12  13
ATOM     13  C   UNL     1       3.020  10.106   7.441  1.00  0.00    -0.000 C 
BRANCH  13  14
ATOM     14  C   UNL     1       3.432   9.716   8.872  1.00  0.00    -0.000 C 
BRANCH  14  15
ATOM     15  C   UNL     1       2.811  10.651   9.930  1.00  0.00    -0.000 C 
BRANCH  15  16
ATOM     16  C   UNL     1       3.324  12.099   9.852  1.00  0.00    -0.000 C 
BRANCH  16  17
ATOM     17  C   UNL     1       2.192  13.123   9.668  1.00  0.00    -0.000 C 
BRANCH  17  18
ATOM     18  C   UNL     1       0.805  12.525   9.954  1.00  0.00    -0.003 C 
ATOM     19  C   UNL     1      -0.282  13.079   9.033  1.00  0.00     0.004 C 
ENDBRANCH  17  18
ENDBRANCH  16  17
ENDBRANCH  15  16
ENDBRANCH  14  15
ENDBRANCH  13  14
ENDBRANCH  12  13
ENDBRANCH   1  12
TORSDOF 14
ENDMDL
MODEL 2
REMARK VINA RESULT:    -4.213      2.503      6.711
REMARK INTER + INTRA:          -9.189
REMARK INTER:                  -7.154
REMARK INTRA:                  -2.035
REMARK UNBOUND:                -1.528
REMARK SMILES CCCCCCCCCCCCCC[C@H](C)C(=O)[O-]
REMARK SMILES IDX 9 1 10 2 11 3 12 4 13 5 14 6 15 7 16 8 17 9 18 10 19 11 8 12
REMARK SMILES IDX 7 13 6 14 5 15 4 16 3 17 2 18 1 19
REMARK H PARENT
REMARK Flexibility Score: inf
ROOT
ATOM      1  C   UNL     1       5.676  11.314   5.048  1.00  0.00     0.000 C 
ENDROOT
BRANCH   1   2
ATOM      2  C   UNL     1       4.621  10.991   6.114  1.00  0.00     0.000 C 
BRANCH   2   3
ATOM      3  C   UNL     1       5.040   9.779   6.954  1.00  0.00     0.000 C 
BRANCH   3   4
ATOM      4  C   UNL     1       3.938   9.397   7.954  1.00  0.00     0.000 C 
BRANCH   4   5
ATOM      5  C   UNL     1       4.205   9.938   9.368  1.00  0.00     0.001 C 
BRANCH   5   6
ATOM      6  C   UNL     1       3.666  11.365   9.567  1.00  0.00     0.009 C 
BRANCH   6   7
ATOM      7  C   UNL     1       2.303  11.392  10.295  1.00  0.00     0.032 C 
ATOM      8  C   UNL     1       1.888  10.008  10.812  1.00  0.00     0.014 C 
BRANCH   7   9
ATOM      9  C   UNL     1       1.241  11.929   9.374  1.00  0.00     0.044 C 
ATOM     10  O   UNL     1       0.669  13.023   9.626  1.00  0.00    -0.550 OA
ATOM     11  O   UNL     1       0.885  11.216   8.236  1.00  0.00    -0.550 OA
ENDBRANCH   7   9
ENDBRANCH   6   7
ENDBRANCH   5   6
ENDBRANCH   4   5
ENDBRANCH   3   4
ENDBRANCH   2   3
ENDBRANCH   1   2
BRANCH   1  12
ATOM     12  C   UNL     1       6.002  12.815   5.034  1.00  0.00     0.000 C 
BRANCH  12  13
ATOM     13  C   UNL     1       7.332  13.125   4.329  1.00  0.00    -0.000 C 
BRANCH  13  14
ATOM     14  C   UNL     1       8.318  11.943   4.373  1.00  0.00    -0.000 C 
BRANCH  14  15
ATOM     15  C   UNL     1       9.515  12.222   5.305  1.00  0.00    -0.000 C 
BRANCH  15  16
ATOM     16  C   UNL     1       9.629  11.232   6.477  1.00  0.00    -0.000 C 
BRANCH  16  17
ATOM     17  C   UNL     1       8.402  11.262   7.403  1.00  0.00    -0.000 C 
BRANCH  17  18
ATOM     18  C   UNL     1       8.222  12.622   8.096  1.00  0.00    -0.003 C 
ATOM     19  C   UNL     1       6.828  12.801   8.698  1.00  0.00     0.004 C 
ENDBRANCH  17  18
ENDBRANCH  16  17
ENDBRANCH  15  16
ENDBRANCH  14  15
ENDBRANCH  13  14
ENDBRANCH  12  13
ENDBRANCH   1  12
TORSDOF 14
ENDMDL
MODEL 3
REMARK VINA RESULT:    -3.985      2.097      6.559
REMARK INTER + INTRA:          -8.774
REMARK INTER:                  -7.239
REMARK INTRA:                  -1.536
REMARK UNBOUND:                -1.528
REMARK SMILES CCCCCCCCCCCCCC[C@H](C)C(=O)[O-]
REMARK SMILES IDX 9 1 10 2 11 3 12 4 13 5 14 6 15 7 16 8 17 9 18 10 19 11 8 12
REMARK SMILES IDX 7 13 6 14 5 15 4 16 3 17 2 18 1 19
REMARK H PARENT
REMARK Flexibility Score: inf
ROOT
ATOM      1  C   UNL     1       7.378  10.892   7.742  1.00  0.00     0.000 C 
ENDROOT
BRANCH   1   2
ATOM      2  C   UNL     1       6.718  12.277   7.774  1.00  0.00     0.000 C 
BRANCH   2   3
ATOM      3  C   UNL     1       6.661  12.828   9.204  1.00  0.00     0.000 C 
BRANCH   3   4
ATOM      4  C   UNL     1       5.207  13.042   9.651  1.00  0.00     0.000 C 
BRANCH   4   5
ATOM      5  C   UNL     1       4.187  12.466   8.656  1.00  0.00     0.001 C 
BRANCH   5   6
ATOM      6  C   UNL     1       2.829  12.159   9.311  1.00  0.00     0.009 C 
BRANCH   6   7
ATOM      7  C   UNL     1       2.497  10.650   9.316  1.00  0.00     0.032 C 
ATOM      8  C   UNL     1       2.294  10.100  10.735  1.00  0.00     0.014 C 
BRANCH   7   9
ATOM      9  C   UNL     1       3.591   9.883   8.626  1.00  0.00     0.044 C 
ATOM     10  O   UNL     1       3.542   9.673   7.384  1.00  0.00    -0.550 OA
ATOM     11  O   UNL     1       4.667   9.397   9.360  1.00  0.00    -0.550 OA
ENDBRANCH   7   9
ENDBRANCH   6   7
ENDBRANCH   5   6
ENDBRANCH   4   5
ENDBRANCH   3   4
ENDBRANCH   2   3
ENDBRANCH   1   2
BRANCH   1  12
ATOM     12  C   UNL     1       8.736  10.947   7.027  1.00  0.00     0.000 C 
BRANCH  12  13
ATOM     13  C   UNL     1       9.542  12.205   7.384  1.00  0.00    -0.000 C 
BRANCH  13  14
ATOM     14  C   UNL     1       9.835  13.091   6.160  1.00  0.00    -0.000 C 
BRANCH  14  15
ATOM     15  C   UNL     1       9.536  12.364   4.832  1.00  0.00    -0.000 C 
BRANCH  15  16
ATOM     16  C   UNL     1       8.529  13.104   3.936  1.00  0.00    -0.000 C 
BRANCH  16  17
ATOM     17  C   UNL     1       7.073  12.907   4.386  1.00  0.00    -0.000 C 
BRANCH  17  18
ATOM     18  C   UNL     1       6.571  11.475   4.144  1.00  0.00    -0.003 C 
ATOM     19  C   UNL     1       5.159  11.242   4.683  1.00  0.00     0.004 C 
ENDBRANCH  17  18
ENDBRANCH  16  17
ENDBRANCH  15  16
ENDBRANCH  14  15
ENDBRANCH  13  14
ENDBRANCH  12  13
ENDBRANCH   1  12
TORSDOF 14
ENDMDL
MODEL 4
REMARK VINA RESULT:    -3.979      2.543      6.964
REMARK INTER + INTRA:          -8.764
REMARK INTER:                  -7.234
REMARK INTRA:                  -1.529
REMARK UNBOUND:                -1.528
REMARK SMILES CCCCCCCCCCCCCC[C@H](C)C(=O)[O-]
REMARK SMILES IDX 9 1 10 2 11 3 12 4 13 5 14 6 15 7 16 8 17 9 18 10 19 11 8 12
REMARK SMILES IDX 7 13 6 14 5 15 4 16 3 17 2 18 1 19
REMARK H PARENT
REMARK Flexibility Score: inf
ROOT
ATOM      1  C   UNL     1       5.622  10.848   6.252  1.00  0.00     0.000 C 
ENDROOT
BRANCH   1   2
ATOM      2  C   UNL     1       4.154  10.525   6.558  1.00  0.00     0.000 C 
BRANCH   2   3
ATOM      3  C   UNL     1       4.041   9.381   7.573  1.00  0.00     0.000 C 
BRANCH   3   4
ATOM      4  C   UNL     1       4.973   9.617   8.771  1.00  0.00     0.000 C 
BRANCH   4   5
ATOM      5  C   UNL     1       4.251  10.248   9.972  1.00  0.00     0.001 C 
BRANCH   5   6
ATOM      6  C   UNL     1       3.452  11.505   9.588  1.00  0.00     0.009 C 
BRANCH   6   7
ATOM      7  C   UNL     1       2.039  11.528  10.214  1.00  0.00     0.032 C 
ATOM      8  C   UNL     1       1.673  10.194  10.881  1.00  0.00     0.014 C 
BRANCH   7   9
ATOM      9  C   UNL     1       1.019  11.865   9.161  1.00  0.00     0.044 C 
ATOM     10  O   UNL     1       0.998  11.242   8.066  1.00  0.00    -0.550 OA
ATOM     11  O   UNL     1       0.090  12.872   9.392  1.00  0.00    -0.550 OA
ENDBRANCH   7   9
ENDBRANCH   6   7
ENDBRANCH   5   6
ENDBRANCH   4   5
ENDBRANCH   3   4
ENDBRANCH   2   3
ENDBRANCH   1   2
BRANCH   1  12
ATOM     12  C   UNL     1       5.899  12.350   6.409  1.00  0.00     0.000 C 
BRANCH  12  13
ATOM     13  C   UNL     1       6.459  12.706   7.794  1.00  0.00    -0.000 C 
BRANCH  13  14
ATOM     14  C   UNL     1       7.996  12.622   7.854  1.00  0.00    -0.000 C 
BRANCH  14  15
ATOM     15  C   UNL     1       8.520  11.253   7.376  1.00  0.00    -0.000 C 
BRANCH  15  16
ATOM     16  C   UNL     1       9.507  11.347   6.199  1.00  0.00    -0.000 C 
BRANCH  16  17
ATOM     17  C   UNL     1       9.774  12.796   5.760  1.00  0.00    -0.000 C 
BRANCH  17  18
ATOM     18  C   UNL     1       9.154  13.119   4.391  1.00  0.00    -0.003 C 
ATOM     19  C   UNL     1       8.293  11.980   3.845  1.00  0.00     0.004 C 
ENDBRANCH  17  18
ENDBRANCH  16  17
ENDBRANCH  15  16
ENDBRANCH  14  15
ENDBRANCH  13  14
ENDBRANCH  12  13
ENDBRANCH   1  12
TORSDOF 14
ENDMDL
MODEL 5
REMARK VINA RESULT:    -3.942      2.482      5.909
REMARK INTER + INTRA:          -8.697
REMARK INTER:                  -7.235
REMARK INTRA:                  -1.461
REMARK UNBOUND:                -1.528
REMARK SMILES CCCCCCCCCCCCCC[C@H](C)C(=O)[O-]
REMARK SMILES IDX 9 1 10 2 11 3 12 4 13 5 14 6 15 7 16 8 17 9 18 10 19 11 8 12
REMARK SMILES IDX 7 13 6 14 5 15 4 16 3 17 2 18 1 19
REMARK H PARENT
REMARK Flexibility Score: inf
ROOT
ATOM      1  C   UNL     1       8.873  11.640   6.778  1.00  0.00     0.000 C 
ENDROOT
BRANCH   1   2
ATOM      2  C   UNL     1       9.277  12.726   7.784  1.00  0.00     0.000 C 
BRANCH   2   3
ATOM      3  C   UNL     1       8.168  12.961   8.817  1.00  0.00     0.000 C 
BRANCH   3   4
ATOM      4  C   UNL     1       6.890  12.201   8.432  1.00  0.00     0.000 C 
BRANCH   4   5
ATOM      5  C   UNL     1       5.669  13.123   8.291  1.00  0.00     0.001 C 
BRANCH   5   6
ATOM      6  C   UNL     1       4.727  13.047   9.505  1.00  0.00     0.009 C 
BRANCH   6   7
ATOM      7  C   UNL     1       3.401  12.319   9.187  1.00  0.00     0.032 C 
ATOM      8  C   UNL     1       2.171  13.125   9.627  1.00  0.00     0.014 C 
BRANCH   7   9
ATOM      9  C   UNL     1       3.387  10.968   9.849  1.00  0.00     0.044 C 
ATOM     10  O   UNL     1       4.460  10.334  10.034  1.00  0.00    -0.550 OA
ATOM     11  O   UNL     1       2.183  10.411  10.261  1.00  0.00    -0.550 OA
ENDBRANCH   7   9
ENDBRANCH   6   7
ENDBRANCH   5   6
ENDBRANCH   4   5
ENDBRANCH   3   4
ENDBRANCH   2   3
ENDBRANCH   1   2
BRANCH   1  12
ATOM     12  C   UNL     1       9.476  11.921   5.394  1.00  0.00     0.000 C 
BRANCH  12  13
ATOM     13  C   UNL     1       8.431  12.414   4.382  1.00  0.00    -0.000 C 
BRANCH  13  14
ATOM     14  C   UNL     1       7.168  12.980   5.058  1.00  0.00    -0.000 C 
BRANCH  14  15
ATOM     15  C   UNL     1       5.876  12.517   4.353  1.00  0.00    -0.000 C 
BRANCH  15  16
ATOM     16  C   UNL     1       5.693  10.990   4.341  1.00  0.00    -0.000 C 
BRANCH  16  17
ATOM     17  C   UNL     1       6.134  10.326   5.656  1.00  0.00    -0.000 C 
BRANCH  17  18
ATOM     18  C   UNL     1       4.959  10.084   6.616  1.00  0.00    -0.003 C 
ATOM     19  C   UNL     1       3.607  10.458   6.007  1.00  0.00     0.004 C 
ENDBRANCH  17  18
ENDBRANCH  16  17
ENDBRANCH  15  16
ENDBRANCH  14  15
ENDBRANCH  13  14
ENDBRANCH  12  13
ENDBRANCH   1  12
TORSDOF 14
ENDMDL
MODEL 6
REMARK VINA RESULT:    -3.825      1.625      3.078
REMARK INTER + INTRA:          -8.483
REMARK INTER:                  -7.550
REMARK INTRA:                  -0.934
REMARK UNBOUND:                -1.528
REMARK SMILES CCCCCCCCCCCCCC[C@H](C)C(=O)[O-]
REMARK SMILES IDX 9 1 10 2 11 3 12 4 13 5 14 6 15 7 16 8 17 9 18 10 19 11 8 12
REMARK SMILES IDX 7 13 6 14 5 15 4 16 3 17 2 18 1 19
REMARK H PARENT
REMARK Flexibility Score: inf
ROOT
ATOM      1  C   UNL     1       8.231  11.759   7.669  1.00  0.00     0.000 C 
ENDROOT
BRANCH   1   2
ATOM      2  C   UNL     1       9.731  11.794   7.348  1.00  0.00     0.000 C 
BRANCH   2   3
ATOM      3  C   UNL     1       9.976  11.644   5.842  1.00  0.00     0.000 C 
BRANCH   3   4
ATOM      4  C   UNL     1       9.251  12.746   5.056  1.00  0.00     0.000 C 
BRANCH   4   5
ATOM      5  C   UNL     1       8.448  12.197   3.866  1.00  0.00     0.001 C 
BRANCH   5   6
ATOM      6  C   UNL     1       7.462  11.090   4.277  1.00  0.00     0.009 C 
BRANCH   6   7
ATOM      7  C   UNL     1       6.031  11.624   4.513  1.00  0.00     0.032 C 
ATOM      8  C   UNL     1       6.016  13.112   4.891  1.00  0.00     0.014 C 
BRANCH   7   9
ATOM      9  C   UNL     1       5.356  10.820   5.592  1.00  0.00     0.044 C 
ATOM     10  O   UNL     1       6.037  10.136   6.402  1.00  0.00    -0.550 OA
ATOM     11  O   UNL     1       3.971  10.826   5.697  1.00  0.00    -0.550 OA
ENDBRANCH   7   9
ENDBRANCH   6   7
ENDBRANCH   5   6
ENDBRANCH   4   5
ENDBRANCH   3   4
ENDBRANCH   2   3
ENDBRANCH   1   2
BRANCH   1  12
ATOM     12  C   UNL     1       7.779  13.071   8.326  1.00  0.00     0.000 C 
BRANCH  12  13
ATOM     13  C   UNL     1       6.261  13.124   8.559  1.00  0.00    -0.000 C 
BRANCH  13  14
ATOM     14  C   UNL     1       5.741  11.921   9.366  1.00  0.00    -0.000 C 
BRANCH  14  15
ATOM     15  C   UNL     1       4.207  11.781   9.274  1.00  0.00    -0.000 C 
BRANCH  15  16
ATOM     16  C   UNL     1       3.712  10.329   9.388  1.00  0.00    -0.000 C 
BRANCH  16  17
ATOM     17  C   UNL     1       2.587  10.163  10.422  1.00  0.00    -0.000 C 
BRANCH  17  18
ATOM     18  C   UNL     1       1.523  11.267  10.318  1.00  0.00    -0.003 C 
ATOM     19  C   UNL     1       1.083  11.533   8.879  1.00  0.00     0.004 C 
ENDBRANCH  17  18
ENDBRANCH  16  17
ENDBRANCH  15  16
ENDBRANCH  14  15
ENDBRANCH  13  14
ENDBRANCH  12  13
ENDBRANCH   1  12
TORSDOF 14
ENDMDL
MODEL 7
REMARK VINA RESULT:    -3.757      2.506      6.534
REMARK INTER + INTRA:          -8.361
REMARK INTER:                  -7.039
REMARK INTRA:                  -1.321
REMARK UNBOUND:                -1.528
REMARK SMILES CCCCCCCCCCCCCC[C@H](C)C(=O)[O-]
REMARK SMILES IDX 9 1 10 2 11 3 12 4 13 5 14 6 15 7 16 8 17 9 18 10 19 11 8 12
REMARK SMILES IDX 7 13 6 14 5 15 4 16 3 17 2 18 1 19
REMARK H PARENT
REMARK Flexibility Score: inf
ROOT
ATOM      1  C   UNL     1       8.144  12.657   7.394  1.00  0.00     0.000 C 
ENDROOT
BRANCH   1   2
ATOM      2  C   UNL     1       7.732  13.062   8.816  1.00  0.00     0.000 C 
BRANCH   2   3
ATOM      3  C   UNL     1       6.428  12.370   9.230  1.00  0.00     0.000 C 
BRANCH   3   4
ATOM      4  C   UNL     1       6.448  10.884   8.842  1.00  0.00     0.000 C 
BRANCH   4   5
ATOM      5  C   UNL     1       5.051  10.341   8.498  1.00  0.00     0.001 C 
BRANCH   5   6
ATOM      6  C   UNL     1       4.071  10.438   9.680  1.00  0.00     0.009 C 
BRANCH   6   7
ATOM      7  C   UNL     1       2.611  10.665   9.226  1.00  0.00     0.032 C 
ATOM      8  C   UNL     1       2.421  10.424   7.722  1.00  0.00     0.014 C 
BRANCH   7   9
ATOM      9  C   UNL     1       2.179  12.064   9.574  1.00  0.00     0.044 C 
ATOM     10  O   UNL     1       3.018  13.004   9.605  1.00  0.00    -0.550 OA
ATOM     11  O   UNL     1       0.847  12.326   9.866  1.00  0.00    -0.550 OA
ENDBRANCH   7   9
ENDBRANCH   6   7
ENDBRANCH   5   6
ENDBRANCH   4   5
ENDBRANCH   3   4
ENDBRANCH   2   3
ENDBRANCH   1   2
BRANCH   1  12
ATOM     12  C   UNL     1       9.671  12.556   7.273  1.00  0.00     0.000 C 
BRANCH  12  13
ATOM     13  C   UNL     1      10.123  12.083   5.883  1.00  0.00    -0.000 C 
BRANCH  13  14
ATOM     14  C   UNL     1       9.643  13.013   4.753  1.00  0.00    -0.000 C 
BRANCH  14  15
ATOM     15  C   UNL     1       8.662  12.303   3.796  1.00  0.00    -0.000 C 
BRANCH  15  16
ATOM     16  C   UNL     1       7.946  11.098   4.429  1.00  0.00    -0.000 C 
BRANCH  16  17
ATOM     17  C   UNL     1       6.494  10.948   3.947  1.00  0.00    -0.000 C 
BRANCH  17  18
ATOM     18  C   UNL     1       5.472  11.324   5.031  1.00  0.00    -0.003 C 
ATOM     19  C   UNL     1       5.673  12.740   5.571  1.00  0.00     0.004 C 
ENDBRANCH  17  18
ENDBRANCH  16  17
ENDBRANCH  15  16
ENDBRANCH  14  15
ENDBRANCH  13  14
ENDBRANCH  12  13
ENDBRANCH   1  12
TORSDOF 14
ENDMDL
MODEL 8
REMARK VINA RESULT:    -3.739      1.074      2.876
REMARK INTER + INTRA:          -8.328
REMARK INTER:                  -6.711
REMARK INTRA:                  -1.616
REMARK UNBOUND:                -1.528
REMARK SMILES CCCCCCCCCCCCCC[C@H](C)C(=O)[O-]
REMARK SMILES IDX 9 1 10 2 11 3 12 4 13 5 14 6 15 7 16 8 17 9 18 10 19 11 8 12
REMARK SMILES IDX 7 13 6 14 5 15 4 16 3 17 2 18 1 19
REMARK H PARENT
REMARK Flexibility Score: inf
ROOT
ATOM      1  C   UNL     1       4.689  13.124   8.781  1.00  0.00     0.000 C 
ENDROOT
BRANCH   1   2
ATOM      2  C   UNL     1       6.168  12.979   9.165  1.00  0.00     0.000 C 
BRANCH   2   3
ATOM      3  C   UNL     1       7.068  13.035   7.924  1.00  0.00     0.000 C 
BRANCH   3   4
ATOM      4  C   UNL     1       8.191  11.991   8.013  1.00  0.00     0.000 C 
BRANCH   4   5
ATOM      5  C   UNL     1       9.371  12.306   7.080  1.00  0.00     0.001 C 
BRANCH   5   6
ATOM      6  C   UNL     1       8.949  13.125   5.848  1.00  0.00     0.009 C 
BRANCH   6   7
ATOM      7  C   UNL     1       8.888  12.274   4.559  1.00  0.00     0.032 C 
ATOM      8  C   UNL     1       9.035  13.125   3.289  1.00  0.00     0.014 C 
BRANCH   7   9
ATOM      9  C   UNL     1       7.593  11.510   4.510  1.00  0.00     0.044 C 
ATOM     10  O   UNL     1       6.513  12.096   4.234  1.00  0.00    -0.550 OA
ATOM     11  O   UNL     1       7.584  10.146   4.773  1.00  0.00    -0.550 OA
ENDBRANCH   7   9
ENDBRANCH   6   7
ENDBRANCH   5   6
ENDBRANCH   4   5
ENDBRANCH   3   4
ENDBRANCH   2   3
ENDBRANCH   1   2
BRANCH   1  12
ATOM     12  C   UNL     1       3.779  12.825   9.981  1.00  0.00     0.000 C 
BRANCH  12  13
ATOM     13  C   UNL     1       2.295  13.080   9.675  1.00  0.00    -0.000 C 
BRANCH  13  14
ATOM     14  C   UNL     1       1.473  11.780   9.594  1.00  0.00    -0.000 C 
BRANCH  14  15
ATOM     15  C   UNL     1       2.296  10.546  10.019  1.00  0.00    -0.000 C 
BRANCH  15  16
ATOM     16  C   UNL     1       2.927   9.789   8.838  1.00  0.00    -0.000 C 
BRANCH  16  17
ATOM     17  C   UNL     1       4.383   9.373   9.107  1.00  0.00    -0.000 C 
BRANCH  17  18
ATOM     18  C   UNL     1       5.336   9.810   7.984  1.00  0.00    -0.003 C 
ATOM     19  C   UNL     1       4.601  10.239   6.714  1.00  0.00     0.004 C 
ENDBRANCH  17  18
ENDBRANCH  16  17
ENDBRANCH  15  16
ENDBRANCH  14  15
ENDBRANCH  13  14
ENDBRANCH  12  13
ENDBRANCH   1  12
TORSDOF 14
ENDMDL
MODEL 9
REMARK VINA RESULT:    -3.616      1.278      1.771
REMARK INTER + INTRA:          -8.103
REMARK INTER:                  -6.314
REMARK INTRA:                  -1.790
REMARK UNBOUND:                -1.528
REMARK SMILES CCCCCCCCCCCCCC[C@H](C)C(=O)[O-]
REMARK SMILES IDX 9 1 10 2 11 3 12 4 13 5 14 6 15 7 16 8 17 9 18 10 19 11 8 12
REMARK SMILES IDX 7 13 6 14 5 15 4 16 3 17 2 18 1 19
REMARK H PARENT
REMARK Flexibility Score: inf
ROOT
ATOM      1  C   UNL     1       5.353  11.466   6.813  1.00  0.00     0.000 C 
ENDROOT
BRANCH   1   2
ATOM      2  C   UNL     1       5.299  12.660   7.775  1.00  0.00     0.000 C 
BRANCH   2   3
ATOM      3  C   UNL     1       6.254  12.458   8.958  1.00  0.00     0.000 C 
BRANCH   3   4
ATOM      4  C   UNL     1       7.595  11.875   8.488  1.00  0.00     0.000 C 
BRANCH   4   5
ATOM      5  C   UNL     1       8.722  12.920   8.466  1.00  0.00     0.001 C 
BRANCH   5   6
ATOM      6  C   UNL     1       9.321  13.116   7.063  1.00  0.00     0.009 C 
BRANCH   6   7
ATOM      7  C   UNL     1       8.979  11.955   6.101  1.00  0.00     0.032 C 
ATOM      8  C   UNL     1      10.118  10.930   5.994  1.00  0.00     0.014 C 
BRANCH   7   9
ATOM      9  C   UNL     1       8.656  12.499   4.736  1.00  0.00     0.044 C 
ATOM     10  O   UNL     1       7.459  12.631   4.366  1.00  0.00    -0.550 OA
ATOM     11  O   UNL     1       9.683  12.859   3.872  1.00  0.00    -0.550 OA
ENDBRANCH   7   9
ENDBRANCH   6   7
ENDBRANCH   5   6
ENDBRANCH   4   5
ENDBRANCH   3   4
ENDBRANCH   2   3
ENDBRANCH   1   2
BRANCH   1  12
ATOM     12  C   UNL     1       4.080  10.614   6.924  1.00  0.00     0.000 C 
BRANCH  12  13
ATOM     13  C   UNL     1       4.319   9.286   7.659  1.00  0.00    -0.000 C 
BRANCH  13  14
ATOM     14  C   UNL     1       3.376   9.094   8.861  1.00  0.00    -0.000 C 
BRANCH  14  15
ATOM     15  C   UNL     1       3.631  10.135   9.971  1.00  0.00    -0.000 C 
BRANCH  15  16
ATOM     16  C   UNL     1       2.380  10.941  10.360  1.00  0.00    -0.000 C 
BRANCH  16  17
ATOM     17  C   UNL     1       2.267  12.271   9.597  1.00  0.00    -0.000 C 
BRANCH  17  18
ATOM     18  C   UNL     1       1.065  13.112  10.055  1.00  0.00    -0.003 C 
ATOM     19  C   UNL     1      -0.093  13.084   9.058  1.00  0.00     0.004 C 
ENDBRANCH  17  18
ENDBRANCH  16  17
ENDBRANCH  15  16
ENDBRANCH  14  15
ENDBRANCH  13  14
ENDBRANCH  12  13
ENDBRANCH   1  12
TORSDOF 14
ENDMDL
