MODEL 1
REMARK VINA RESULT:    -6.004      0.000      0.000
REMARK INTER + INTRA:         -12.669
REMARK INTER:                 -11.620
REMARK INTRA:                  -1.049
REMARK UNBOUND:                -1.049
REMARK SMILES CCCCCCCCCCCCCCCCCC(=O)[O-]
REMARK SMILES IDX 10 1 11 2 12 3 13 4 14 5 15 6 16 7 17 8 18 9 19 10 20 11
REMARK SMILES IDX 9 12 8 13 7 14 6 15 5 16 4 17 3 18 2 19 1 20
REMARK H PARENT
REMARK Flexibility Score: inf
ROOT
ATOM      1  C   UNL     1      88.899 324.837 198.539  1.00  0.00     0.000 C 
ENDROOT
BRANCH   1   2
ATOM      2  C   UNL     1      88.514 324.714 197.058  1.00  0.00     0.000 C 
BRANCH   2   3
ATOM      3  C   UNL     1      88.094 326.072 196.485  1.00  0.00     0.000 C 
BRANCH   3   4
ATOM      4  C   UNL     1      88.980 326.467 195.297  1.00  0.00     0.000 C 
BRANCH   4   5
ATOM      5  C   UNL     1      88.139 326.684 194.029  1.00  0.00     0.000 C 
BRANCH   5   6
ATOM      6  C   UNL     1      86.708 326.125 194.179  1.00  0.00     0.000 C 
BRANCH   6   7
ATOM      7  C   UNL     1      86.443 324.877 193.322  1.00  0.00     0.006 C 
BRANCH   7   8
ATOM      8  C   UNL     1      87.681 324.416 192.542  1.00  0.00     0.053 C 
BRANCH   8   9
ATOM      9  C   UNL     1      87.276 323.652 191.321  1.00  0.00     0.041 C 
ATOM     10  O   UNL     1      86.108 323.195 191.217  1.00  0.00    -0.550 OA
ATOM     11  O   UNL     1      88.177 323.481 190.278  1.00  0.00    -0.550 OA
ENDBRANCH   8   9
ENDBRANCH   7   8
ENDBRANCH   6   7
ENDBRANCH   5   6
ENDBRANCH   4   5
ENDBRANCH   3   4
ENDBRANCH   2   3
ENDBRANCH   1   2
BRANCH   1  12
ATOM     12  C   UNL     1      88.983 326.297 199.011  1.00  0.00     0.000 C 
BRANCH  12  13
ATOM     13  C   UNL     1      89.591 326.431 200.420  1.00  0.00    -0.000 C 
BRANCH  13  14
ATOM     14  C   UNL     1      88.580 326.069 201.528  1.00  0.00    -0.000 C 
BRANCH  14  15
ATOM     15  C   UNL     1      89.212 325.980 202.928  1.00  0.00    -0.000 C 
BRANCH  15  16
ATOM     16  C   UNL     1      89.314 327.347 203.623  1.00  0.00    -0.000 C 
BRANCH  16  17
ATOM     17  C   UNL     1      89.275 327.233 205.155  1.00  0.00    -0.000 C 
BRANCH  17  18
ATOM     18  C   UNL     1      89.109 325.780 205.633  1.00  0.00    -0.000 C 
BRANCH  18  19
ATOM     19  C   UNL     1      87.970 325.622 206.652  1.00  0.00    -0.003 C 
ATOM     20  C   UNL     1      86.717 324.992 206.043  1.00  0.00     0.004 C 
ENDBRANCH  18  19
ENDBRANCH  17  18
ENDBRANCH  16  17
ENDBRANCH  15  16
ENDBRANCH  14  15
ENDBRANCH  13  14
ENDBRANCH  12  13
ENDBRANCH   1  12
TORSDOF 16
ENDMDL
MODEL 2
REMARK VINA RESULT:    -5.939     20.666     23.435
REMARK INTER + INTRA:         -12.543
REMARK INTER:                 -11.708
REMARK INTRA:                  -0.836
REMARK UNBOUND:                -1.049
REMARK SMILES CCCCCCCCCCCCCCCCCC(=O)[O-]
REMARK SMILES IDX 10 1 11 2 12 3 13 4 14 5 15 6 16 7 17 8 18 9 19 10 20 11
REMARK SMILES IDX 9 12 8 13 7 14 6 15 5 16 4 17 3 18 2 19 1 20
REMARK H PARENT
REMARK Flexibility Score: inf
ROOT
ATOM      1  C   UNL     1     103.950 312.826 196.860  1.00  0.00     0.000 C 
ENDROOT
BRANCH   1   2
ATOM      2  C   UNL     1     103.797 311.886 198.064  1.00  0.00     0.000 C 
BRANCH   2   3
ATOM      3  C   UNL     1     103.943 312.654 199.383  1.00  0.00     0.000 C 
BRANCH   3   4
ATOM      4  C   UNL     1     103.989 311.695 200.578  1.00  0.00     0.000 C 
BRANCH   4   5
ATOM      5  C   UNL     1     102.572 311.345 201.060  1.00  0.00     0.000 C 
BRANCH   5   6
ATOM      6  C   UNL     1     102.542 310.984 202.561  1.00  0.00     0.000 C 
BRANCH   6   7
ATOM      7  C   UNL     1     103.918 310.605 203.130  1.00  0.00     0.006 C 
BRANCH   7   8
ATOM      8  C   UNL     1     104.103 311.044 204.587  1.00  0.00     0.053 C 
BRANCH   8   9
ATOM      9  C   UNL     1     105.081 312.173 204.675  1.00  0.00     0.041 C 
ATOM     10  O   UNL     1     106.018 312.136 205.513  1.00  0.00    -0.550 OA
ATOM     11  O   UNL     1     104.981 313.247 203.799  1.00  0.00    -0.550 OA
ENDBRANCH   8   9
ENDBRANCH   7   8
ENDBRANCH   6   7
ENDBRANCH   5   6
ENDBRANCH   4   5
ENDBRANCH   3   4
ENDBRANCH   2   3
ENDBRANCH   1   2
BRANCH   1  12
ATOM     12  C   UNL     1     104.547 312.124 195.631  1.00  0.00     0.000 C 
BRANCH  12  13
ATOM     13  C   UNL     1     103.468 311.596 194.667  1.00  0.00    -0.000 C 
BRANCH  13  14
ATOM     14  C   UNL     1     104.003 311.430 193.228  1.00  0.00    -0.000 C 
BRANCH  14  15
ATOM     15  C   UNL     1     105.487 311.806 193.081  1.00  0.00    -0.000 C 
BRANCH  15  16
ATOM     16  C   UNL     1     105.695 313.121 192.314  1.00  0.00    -0.000 C 
BRANCH  16  17
ATOM     17  C   UNL     1     104.405 313.627 191.651  1.00  0.00    -0.000 C 
BRANCH  17  18
ATOM     18  C   UNL     1     104.679 314.436 190.371  1.00  0.00    -0.000 C 
BRANCH  18  19
ATOM     19  C   UNL     1     103.427 314.592 189.494  1.00  0.00    -0.003 C 
ATOM     20  C   UNL     1     103.704 315.357 188.201  1.00  0.00     0.004 C 
ENDBRANCH  18  19
ENDBRANCH  17  18
ENDBRANCH  16  17
ENDBRANCH  15  16
ENDBRANCH  14  15
ENDBRANCH  13  14
ENDBRANCH  12  13
ENDBRANCH   1  12
TORSDOF 16
ENDMDL
MODEL 3
REMARK VINA RESULT:    -5.878     20.403     21.141
REMARK INTER + INTRA:         -12.425
REMARK INTER:                 -11.274
REMARK INTRA:                  -1.152
REMARK UNBOUND:                -1.049
REMARK SMILES CCCCCCCCCCCCCCCCCC(=O)[O-]
REMARK SMILES IDX 10 1 11 2 12 3 13 4 14 5 15 6 16 7 17 8 18 9 19 10 20 11
REMARK SMILES IDX 9 12 8 13 7 14 6 15 5 16 4 17 3 18 2 19 1 20
REMARK H PARENT
REMARK Flexibility Score: inf
ROOT
ATOM      1  C   UNL     1     103.638 312.547 197.931  1.00  0.00     0.000 C 
ENDROOT
BRANCH   1   2
ATOM      2  C   UNL     1     104.126 311.592 196.833  1.00  0.00     0.000 C 
BRANCH   2   3
ATOM      3  C   UNL     1     104.434 312.353 195.539  1.00  0.00     0.000 C 
BRANCH   3   4
ATOM      4  C   UNL     1     105.708 311.819 194.874  1.00  0.00     0.000 C 
BRANCH   4   5
ATOM      5  C   UNL     1     105.461 311.484 193.395  1.00  0.00     0.000 C 
BRANCH   5   6
ATOM      6  C   UNL     1     104.091 312.000 192.903  1.00  0.00     0.000 C 
BRANCH   6   7
ATOM      7  C   UNL     1     104.194 313.022 191.760  1.00  0.00     0.006 C 
BRANCH   7   8
ATOM      8  C   UNL     1     105.532 313.770 191.748  1.00  0.00     0.053 C 
BRANCH   8   9
ATOM      9  C   UNL     1     105.372 315.140 192.326  1.00  0.00     0.041 C 
ATOM     10  O   UNL     1     105.093 316.114 191.579  1.00  0.00    -0.550 OA
ATOM     11  O   UNL     1     105.489 315.334 193.696  1.00  0.00    -0.550 OA
ENDBRANCH   8   9
ENDBRANCH   7   8
ENDBRANCH   6   7
ENDBRANCH   5   6
ENDBRANCH   4   5
ENDBRANCH   3   4
ENDBRANCH   2   3
ENDBRANCH   1   2
BRANCH   1  12
ATOM     12  C   UNL     1     103.524 311.867 199.303  1.00  0.00     0.000 C 
BRANCH  12  13
ATOM     13  C   UNL     1     104.667 312.261 200.258  1.00  0.00    -0.000 C 
BRANCH  13  14
ATOM     14  C   UNL     1     104.251 312.152 201.740  1.00  0.00    -0.000 C 
BRANCH  14  15
ATOM     15  C   UNL     1     102.923 311.405 201.950  1.00  0.00    -0.000 C 
BRANCH  15  16
ATOM     16  C   UNL     1     102.826 310.737 203.330  1.00  0.00    -0.000 C 
BRANCH  16  17
ATOM     17  C   UNL     1     104.167 310.738 204.081  1.00  0.00    -0.000 C 
BRANCH  17  18
ATOM     18  C   UNL     1     104.085 311.471 205.430  1.00  0.00    -0.000 C 
BRANCH  18  19
ATOM     19  C   UNL     1     105.467 311.881 205.962  1.00  0.00    -0.003 C 
ATOM     20  C   UNL     1     106.125 312.972 205.118  1.00  0.00     0.004 C 
ENDBRANCH  18  19
ENDBRANCH  17  18
ENDBRANCH  16  17
ENDBRANCH  15  16
ENDBRANCH  14  15
ENDBRANCH  13  14
ENDBRANCH  12  13
ENDBRANCH   1  12
TORSDOF 16
ENDMDL
MODEL 4
REMARK VINA RESULT:    -5.854     20.310     23.026
REMARK INTER + INTRA:         -12.378
REMARK INTER:                 -11.375
REMARK INTRA:                  -1.003
REMARK UNBOUND:                -1.049
REMARK SMILES CCCCCCCCCCCCCCCCCC(=O)[O-]
REMARK SMILES IDX 10 1 11 2 12 3 13 4 14 5 15 6 16 7 17 8 18 9 19 10 20 11
REMARK SMILES IDX 9 12 8 13 7 14 6 15 5 16 4 17 3 18 2 19 1 20
REMARK H PARENT
REMARK Flexibility Score: inf
ROOT
ATOM      1  C   UNL     1     103.665 311.932 194.464  1.00  0.00     0.000 C 
ENDROOT
BRANCH   1   2
ATOM      2  C   UNL     1     104.569 312.220 195.671  1.00  0.00     0.000 C 
BRANCH   2   3
ATOM      3  C   UNL     1     103.917 311.739 196.972  1.00  0.00     0.000 C 
BRANCH   3   4
ATOM      4  C   UNL     1     103.846 312.871 198.004  1.00  0.00     0.000 C 
BRANCH   4   5
ATOM      5  C   UNL     1     104.016 312.328 199.432  1.00  0.00     0.000 C 
BRANCH   5   6
ATOM      6  C   UNL     1     102.818 311.458 199.869  1.00  0.00     0.000 C 
BRANCH   6   7
ATOM      7  C   UNL     1     102.565 311.477 201.384  1.00  0.00     0.006 C 
BRANCH   7   8
ATOM      8  C   UNL     1     103.838 311.232 202.204  1.00  0.00     0.053 C 
BRANCH   8   9
ATOM      9  C   UNL     1     103.491 310.821 203.600  1.00  0.00     0.041 C 
ATOM     10  O   UNL     1     104.333 310.951 204.527  1.00  0.00    -0.550 OA
ATOM     11  O   UNL     1     102.222 310.333 203.886  1.00  0.00    -0.550 OA
ENDBRANCH   8   9
ENDBRANCH   7   8
ENDBRANCH   6   7
ENDBRANCH   5   6
ENDBRANCH   4   5
ENDBRANCH   3   4
ENDBRANCH   2   3
ENDBRANCH   1   2
BRANCH   1  12
ATOM     12  C   UNL     1     104.441 311.382 193.258  1.00  0.00     0.000 C 
BRANCH  12  13
ATOM     13  C   UNL     1     105.879 311.928 193.178  1.00  0.00    -0.000 C 
BRANCH  13  14
ATOM     14  C   UNL     1     106.021 313.043 192.120  1.00  0.00    -0.000 C 
BRANCH  14  15
ATOM     15  C   UNL     1     105.451 314.396 192.577  1.00  0.00    -0.000 C 
BRANCH  15  16
ATOM     16  C   UNL     1     104.079 314.704 191.959  1.00  0.00    -0.000 C 
BRANCH  16  17
ATOM     17  C   UNL     1     103.860 313.984 190.620  1.00  0.00    -0.000 C 
BRANCH  17  18
ATOM     18  C   UNL     1     103.975 314.933 189.415  1.00  0.00    -0.000 C 
BRANCH  18  19
ATOM     19  C   UNL     1     102.857 314.715 188.384  1.00  0.00    -0.003 C 
ATOM     20  C   UNL     1     101.732 315.742 188.507  1.00  0.00     0.004 C 
ENDBRANCH  18  19
ENDBRANCH  17  18
ENDBRANCH  16  17
ENDBRANCH  15  16
ENDBRANCH  14  15
ENDBRANCH  13  14
ENDBRANCH  12  13
ENDBRANCH   1  12
TORSDOF 16
ENDMDL
MODEL 5
REMARK VINA RESULT:    -5.789     20.242     22.494
REMARK INTER + INTRA:         -12.253
REMARK INTER:                 -10.657
REMARK INTRA:                  -1.597
REMARK UNBOUND:                -1.049
REMARK SMILES CCCCCCCCCCCCCCCCCC(=O)[O-]
REMARK SMILES IDX 10 1 11 2 12 3 13 4 14 5 15 6 16 7 17 8 18 9 19 10 20 11
REMARK SMILES IDX 9 12 8 13 7 14 6 15 5 16 4 17 3 18 2 19 1 20
REMARK H PARENT
REMARK Flexibility Score: inf
ROOT
ATOM      1  C   UNL     1     103.466 311.714 194.573  1.00  0.00     0.000 C 
ENDROOT
BRANCH   1   2
ATOM      2  C   UNL     1     104.391 312.024 195.758  1.00  0.00     0.000 C 
BRANCH   2   3
ATOM      3  C   UNL     1     103.956 311.255 197.011  1.00  0.00     0.000 C 
BRANCH   3   4
ATOM      4  C   UNL     1     103.891 312.182 198.231  1.00  0.00     0.000 C 
BRANCH   4   5
ATOM      5  C   UNL     1     103.267 311.463 199.438  1.00  0.00     0.000 C 
BRANCH   5   6
ATOM      6  C   UNL     1     104.061 311.713 200.738  1.00  0.00     0.000 C 
BRANCH   6   7
ATOM      7  C   UNL     1     103.263 311.406 202.014  1.00  0.00     0.006 C 
BRANCH   7   8
ATOM      8  C   UNL     1     104.143 310.886 203.157  1.00  0.00     0.053 C 
BRANCH   8   9
ATOM      9  C   UNL     1     104.328 311.943 204.199  1.00  0.00     0.041 C 
ATOM     10  O   UNL     1     105.232 311.826 205.067  1.00  0.00    -0.550 OA
ATOM     11  O   UNL     1     103.530 313.080 204.184  1.00  0.00    -0.550 OA
ENDBRANCH   8   9
ENDBRANCH   7   8
ENDBRANCH   6   7
ENDBRANCH   5   6
ENDBRANCH   4   5
ENDBRANCH   3   4
ENDBRANCH   2   3
ENDBRANCH   1   2
BRANCH   1  12
ATOM     12  C   UNL     1     104.236 311.461 193.268  1.00  0.00     0.000 C 
BRANCH  12  13
ATOM     13  C   UNL     1     105.607 312.162 193.243  1.00  0.00    -0.000 C 
BRANCH  13  14
ATOM     14  C   UNL     1     105.668 313.285 192.186  1.00  0.00    -0.000 C 
BRANCH  14  15
ATOM     15  C   UNL     1     104.337 313.502 191.446  1.00  0.00    -0.000 C 
BRANCH  15  16
ATOM     16  C   UNL     1     103.866 314.964 191.482  1.00  0.00    -0.000 C 
BRANCH  16  17
ATOM     17  C   UNL     1     104.244 315.673 192.792  1.00  0.00    -0.000 C 
BRANCH  17  18
ATOM     18  C   UNL     1     103.070 315.738 193.785  1.00  0.00    -0.000 C 
BRANCH  18  19
ATOM     19  C   UNL     1     103.470 315.290 195.199  1.00  0.00    -0.003 C 
ATOM     20  C   UNL     1     102.264 315.062 196.109  1.00  0.00     0.004 C 
ENDBRANCH  18  19
ENDBRANCH  17  18
ENDBRANCH  16  17
ENDBRANCH  15  16
ENDBRANCH  14  15
ENDBRANCH  13  14
ENDBRANCH  12  13
ENDBRANCH   1  12
TORSDOF 16
ENDMDL
MODEL 6
REMARK VINA RESULT:    -5.775      4.809     10.968
REMARK INTER + INTRA:         -12.226
REMARK INTER:                 -11.578
REMARK INTRA:                  -0.648
REMARK UNBOUND:                -1.049
REMARK SMILES CCCCCCCCCCCCCCCCCC(=O)[O-]
REMARK SMILES IDX 10 1 11 2 12 3 13 4 14 5 15 6 16 7 17 8 18 9 19 10 20 11
REMARK SMILES IDX 9 12 8 13 7 14 6 15 5 16 4 17 3 18 2 19 1 20
REMARK H PARENT
REMARK Flexibility Score: inf
ROOT
ATOM      1  C   UNL     1      89.117 326.192 200.306  1.00  0.00     0.000 C 
ENDROOT
BRANCH   1   2
ATOM      2  C   UNL     1      90.558 326.248 200.832  1.00  0.00     0.000 C 
BRANCH   2   3
ATOM      3  C   UNL     1      90.590 326.697 202.298  1.00  0.00     0.000 C 
BRANCH   3   4
ATOM      4  C   UNL     1      89.187 326.659 202.916  1.00  0.00     0.000 C 
BRANCH   4   5
ATOM      5  C   UNL     1      89.190 327.268 204.327  1.00  0.00     0.000 C 
BRANCH   5   6
ATOM      6  C   UNL     1      89.531 326.222 205.410  1.00  0.00     0.000 C 
BRANCH   6   7
ATOM      7  C   UNL     1      88.824 326.473 206.752  1.00  0.00     0.006 C 
BRANCH   7   8
ATOM      8  C   UNL     1      87.348 326.055 206.734  1.00  0.00     0.053 C 
BRANCH   8   9
ATOM      9  C   UNL     1      87.214 324.623 206.323  1.00  0.00     0.041 C 
ATOM     10  O   UNL     1      87.953 323.744 206.837  1.00  0.00    -0.550 OA
ATOM     11  O   UNL     1      86.243 324.253 205.401  1.00  0.00    -0.550 OA
ENDBRANCH   8   9
ENDBRANCH   7   8
ENDBRANCH   6   7
ENDBRANCH   5   6
ENDBRANCH   4   5
ENDBRANCH   3   4
ENDBRANCH   2   3
ENDBRANCH   1   2
BRANCH   1  12
ATOM     12  C   UNL     1      88.996 326.680 198.854  1.00  0.00     0.000 C 
BRANCH  12  13
ATOM     13  C   UNL     1      88.579 325.558 197.884  1.00  0.00    -0.000 C 
BRANCH  13  14
ATOM     14  C   UNL     1      87.900 326.110 196.613  1.00  0.00    -0.000 C 
BRANCH  14  15
ATOM     15  C   UNL     1      88.884 326.377 195.461  1.00  0.00    -0.000 C 
BRANCH  15  16
ATOM     16  C   UNL     1      88.180 326.592 194.113  1.00  0.00    -0.000 C 
BRANCH  16  17
ATOM     17  C   UNL     1      88.168 325.325 193.244  1.00  0.00    -0.000 C 
BRANCH  17  18
ATOM     18  C   UNL     1      86.748 324.774 193.027  1.00  0.00    -0.000 C 
BRANCH  18  19
ATOM     19  C   UNL     1      86.734 323.511 192.152  1.00  0.00    -0.003 C 
ATOM     20  C   UNL     1      87.657 323.623 190.939  1.00  0.00     0.004 C 
ENDBRANCH  18  19
ENDBRANCH  17  18
ENDBRANCH  16  17
ENDBRANCH  15  16
ENDBRANCH  14  15
ENDBRANCH  13  14
ENDBRANCH  12  13
ENDBRANCH   1  12
TORSDOF 16
ENDMDL
MODEL 7
REMARK VINA RESULT:    -5.771      4.923     11.233
REMARK INTER + INTRA:         -12.218
REMARK INTER:                 -11.423
REMARK INTRA:                  -0.795
REMARK UNBOUND:                -1.049
REMARK SMILES CCCCCCCCCCCCCCCCCC(=O)[O-]
REMARK SMILES IDX 10 1 11 2 12 3 13 4 14 5 15 6 16 7 17 8 18 9 19 10 20 11
REMARK SMILES IDX 9 12 8 13 7 14 6 15 5 16 4 17 3 18 2 19 1 20
REMARK H PARENT
REMARK Flexibility Score: inf
ROOT
ATOM      1  C   UNL     1      88.905 326.134 195.790  1.00  0.00     0.000 C 
ENDROOT
BRANCH   1   2
ATOM      2  C   UNL     1      88.060 326.124 197.071  1.00  0.00     0.000 C 
BRANCH   2   3
ATOM      3  C   UNL     1      88.883 326.594 198.276  1.00  0.00     0.000 C 
BRANCH   3   4
ATOM      4  C   UNL     1      88.899 325.531 199.381  1.00  0.00     0.000 C 
BRANCH   4   5
ATOM      5  C   UNL     1      88.991 326.180 200.771  1.00  0.00     0.000 C 
BRANCH   5   6
ATOM      6  C   UNL     1      90.448 326.495 201.170  1.00  0.00     0.000 C 
BRANCH   6   7
ATOM      7  C   UNL     1      90.616 326.843 202.658  1.00  0.00     0.006 C 
BRANCH   7   8
ATOM      8  C   UNL     1      89.284 327.152 203.352  1.00  0.00     0.053 C 
BRANCH   8   9
ATOM      9  C   UNL     1      89.359 326.807 204.806  1.00  0.00     0.041 C 
ATOM     10  O   UNL     1      90.120 327.453 205.572  1.00  0.00    -0.550 OA
ATOM     11  O   UNL     1      88.554 325.799 205.323  1.00  0.00    -0.550 OA
ENDBRANCH   8   9
ENDBRANCH   7   8
ENDBRANCH   6   7
ENDBRANCH   5   6
ENDBRANCH   4   5
ENDBRANCH   3   4
ENDBRANCH   2   3
ENDBRANCH   1   2
BRANCH   1  12
ATOM     12  C   UNL     1      88.091 326.517 194.544  1.00  0.00     0.000 C 
BRANCH  12  13
ATOM     13  C   UNL     1      86.579 326.289 194.731  1.00  0.00    -0.000 C 
BRANCH  13  14
ATOM     14  C   UNL     1      85.986 325.384 193.630  1.00  0.00    -0.000 C 
BRANCH  14  15
ATOM     15  C   UNL     1      86.828 324.128 193.351  1.00  0.00    -0.000 C 
BRANCH  15  16
ATOM     16  C   UNL     1      87.411 324.104 191.930  1.00  0.00    -0.000 C 
BRANCH  16  17
ATOM     17  C   UNL     1      86.749 323.041 191.039  1.00  0.00    -0.000 C 
BRANCH  17  18
ATOM     18  C   UNL     1      87.543 322.779 189.748  1.00  0.00    -0.000 C 
BRANCH  18  19
ATOM     19  C   UNL     1      88.859 323.569 189.695  1.00  0.00    -0.003 C 
ATOM     20  C   UNL     1      89.866 322.974 188.711  1.00  0.00     0.004 C 
ENDBRANCH  18  19
ENDBRANCH  17  18
ENDBRANCH  16  17
ENDBRANCH  15  16
ENDBRANCH  14  15
ENDBRANCH  13  14
ENDBRANCH  12  13
ENDBRANCH   1  12
TORSDOF 16
ENDMDL
MODEL 8
REMARK VINA RESULT:    -5.767      1.624      3.321
REMARK INTER + INTRA:         -12.211
REMARK INTER:                 -10.932
REMARK INTRA:                  -1.279
REMARK UNBOUND:                -1.049
REMARK SMILES CCCCCCCCCCCCCCCCCC(=O)[O-]
REMARK SMILES IDX 10 1 11 2 12 3 13 4 14 5 15 6 16 7 17 8 18 9 19 10 20 11
REMARK SMILES IDX 9 12 8 13 7 14 6 15 5 16 4 17 3 18 2 19 1 20
REMARK H PARENT
REMARK Flexibility Score: inf
ROOT
ATOM      1  C   UNL     1      88.936 326.496 201.644  1.00  0.00     0.000 C 
ENDROOT
BRANCH   1   2
ATOM      2  C   UNL     1      89.805 326.112 200.438  1.00  0.00     0.000 C 
BRANCH   2   3
ATOM      3  C   UNL     1      89.240 326.706 199.143  1.00  0.00     0.000 C 
BRANCH   3   4
ATOM      4  C   UNL     1      88.881 325.602 198.141  1.00  0.00     0.000 C 
BRANCH   4   5
ATOM      5  C   UNL     1      88.070 326.166 196.964  1.00  0.00     0.000 C 
BRANCH   5   6
ATOM      6  C   UNL     1      88.907 326.255 195.670  1.00  0.00     0.000 C 
BRANCH   6   7
ATOM      7  C   UNL     1      88.070 326.549 194.415  1.00  0.00     0.006 C 
BRANCH   7   8
ATOM      8  C   UNL     1      88.184 325.450 193.352  1.00  0.00     0.053 C 
BRANCH   8   9
ATOM      9  C   UNL     1      87.729 324.136 193.904  1.00  0.00     0.041 C 
ATOM     10  O   UNL     1      86.512 323.947 194.166  1.00  0.00    -0.550 OA
ATOM     11  O   UNL     1      88.642 323.107 194.090  1.00  0.00    -0.550 OA
ENDBRANCH   8   9
ENDBRANCH   7   8
ENDBRANCH   6   7
ENDBRANCH   5   6
ENDBRANCH   4   5
ENDBRANCH   3   4
ENDBRANCH   2   3
ENDBRANCH   1   2
BRANCH   1  12
ATOM     12  C   UNL     1      89.738 326.580 202.952  1.00  0.00     0.000 C 
BRANCH  12  13
ATOM     13  C   UNL     1      88.919 327.174 204.113  1.00  0.00    -0.000 C 
BRANCH  13  14
ATOM     14  C   UNL     1      89.732 327.244 205.423  1.00  0.00    -0.000 C 
BRANCH  14  15
ATOM     15  C   UNL     1      89.085 326.471 206.586  1.00  0.00    -0.000 C 
BRANCH  15  16
ATOM     16  C   UNL     1      87.634 326.060 206.293  1.00  0.00    -0.000 C 
BRANCH  16  17
ATOM     17  C   UNL     1      87.416 324.543 206.409  1.00  0.00    -0.000 C 
BRANCH  17  18
ATOM     18  C   UNL     1      86.520 323.991 205.287  1.00  0.00    -0.000 C 
BRANCH  18  19
ATOM     19  C   UNL     1      87.290 323.761 203.977  1.00  0.00    -0.003 C 
ATOM     20  C   UNL     1      86.402 323.888 202.740  1.00  0.00     0.004 C 
ENDBRANCH  18  19
ENDBRANCH  17  18
ENDBRANCH  16  17
ENDBRANCH  15  16
ENDBRANCH  14  15
ENDBRANCH  13  14
ENDBRANCH  12  13
ENDBRANCH   1  12
TORSDOF 16
ENDMDL
MODEL 9
REMARK VINA RESULT:    -5.756      5.345     10.801
REMARK INTER + INTRA:         -12.190
REMARK INTER:                 -10.937
REMARK INTRA:                  -1.252
REMARK UNBOUND:                -1.049
REMARK SMILES CCCCCCCCCCCCCCCCCC(=O)[O-]
REMARK SMILES IDX 10 1 11 2 12 3 13 4 14 5 15 6 16 7 17 8 18 9 19 10 20 11
REMARK SMILES IDX 9 12 8 13 7 14 6 15 5 16 4 17 3 18 2 19 1 20
REMARK H PARENT
REMARK Flexibility Score: inf
ROOT
ATOM      1  C   UNL     1      88.935 324.937 198.580  1.00  0.00     0.000 C 
ENDROOT
BRANCH   1   2
ATOM      2  C   UNL     1      89.030 326.411 198.999  1.00  0.00     0.000 C 
BRANCH   2   3
ATOM      3  C   UNL     1      89.730 326.551 200.356  1.00  0.00     0.000 C 
BRANCH   3   4
ATOM      4  C   UNL     1      88.912 325.885 201.469  1.00  0.00     0.000 C 
BRANCH   4   5
ATOM      5  C   UNL     1      88.991 326.696 202.773  1.00  0.00     0.000 C 
BRANCH   5   6
ATOM      6  C   UNL     1      90.441 327.089 203.125  1.00  0.00     0.000 C 
BRANCH   6   7
ATOM      7  C   UNL     1      90.669 327.311 204.629  1.00  0.00     0.006 C 
BRANCH   7   8
ATOM      8  C   UNL     1      89.362 327.473 205.413  1.00  0.00     0.053 C 
BRANCH   8   9
ATOM      9  C   UNL     1      89.299 326.487 206.537  1.00  0.00     0.041 C 
ATOM     10  O   UNL     1      88.209 326.265 207.125  1.00  0.00    -0.550 OA
ATOM     11  O   UNL     1      90.437 325.782 206.906  1.00  0.00    -0.550 OA
ENDBRANCH   8   9
ENDBRANCH   7   8
ENDBRANCH   6   7
ENDBRANCH   5   6
ENDBRANCH   4   5
ENDBRANCH   3   4
ENDBRANCH   2   3
ENDBRANCH   1   2
BRANCH   1  12
ATOM     12  C   UNL     1      88.458 324.762 197.130  1.00  0.00     0.000 C 
BRANCH  12  13
ATOM     13  C   UNL     1      88.000 326.087 196.492  1.00  0.00    -0.000 C 
BRANCH  13  14
ATOM     14  C   UNL     1      88.804 326.430 195.220  1.00  0.00    -0.000 C 
BRANCH  14  15
ATOM     15  C   UNL     1      87.919 326.696 193.990  1.00  0.00    -0.000 C 
BRANCH  15  16
ATOM     16  C   UNL     1      86.492 326.148 194.153  1.00  0.00    -0.000 C 
BRANCH  16  17
ATOM     17  C   UNL     1      86.226 324.923 193.265  1.00  0.00    -0.000 C 
BRANCH  17  18
ATOM     18  C   UNL     1      87.027 323.688 193.710  1.00  0.00    -0.000 C 
BRANCH  18  19
ATOM     19  C   UNL     1      88.049 323.237 192.654  1.00  0.00    -0.003 C 
ATOM     20  C   UNL     1      88.021 324.105 191.397  1.00  0.00     0.004 C 
ENDBRANCH  18  19
ENDBRANCH  17  18
ENDBRANCH  16  17
ENDBRANCH  15  16
ENDBRANCH  14  15
ENDBRANCH  13  14
ENDBRANCH  12  13
ENDBRANCH   1  12
TORSDOF 16
ENDMDL
