MODEL 1
REMARK VINA RESULT:    -3.860      0.000      0.000
REMARK INTER + INTRA:          -7.894
REMARK INTER:                  -7.018
REMARK INTRA:                  -0.875
REMARK UNBOUND:                -0.875
REMARK SMILES CCCCCCCCCCCCCCCC(=O)[O-]
REMARK SMILES IDX 9 1 10 2 11 3 12 4 13 5 14 6 15 7 16 8 17 9 18 10 8 11 7 12
REMARK SMILES IDX 6 13 5 14 4 15 3 16 2 17 1 18
REMARK H PARENT
REMARK Flexibility Score: inf
ROOT
ATOM      1  C   UNL     1       4.962   2.992   8.324  1.00  0.00     0.000 C 
ENDROOT
BRANCH   1   2
ATOM      2  C   UNL     1       3.803   2.032   8.015  1.00  0.00     0.000 C 
BRANCH   2   3
ATOM      3  C   UNL     1       2.726   2.105   9.103  1.00  0.00     0.000 C 
BRANCH   3   4
ATOM      4  C   UNL     1       3.003   3.259  10.077  1.00  0.00     0.000 C 
BRANCH   4   5
ATOM      5  C   UNL     1       1.936   4.365  10.014  1.00  0.00     0.000 C 
BRANCH   5   6
ATOM      6  C   UNL     1       0.516   3.839   9.719  1.00  0.00     0.006 C 
BRANCH   6   7
ATOM      7  C   UNL     1      -0.532   4.960   9.736  1.00  0.00     0.053 C 
BRANCH   7   8
ATOM      8  C   UNL     1      -1.650   4.646   8.792  1.00  0.00     0.041 C 
ATOM      9  O   UNL     1      -2.065   5.522   7.988  1.00  0.00    -0.550 OA
ATOM     10  O   UNL     1      -2.200   3.372   8.765  1.00  0.00    -0.550 OA
ENDBRANCH   7   8
ENDBRANCH   6   7
ENDBRANCH   5   6
ENDBRANCH   4   5
ENDBRANCH   3   4
ENDBRANCH   2   3
ENDBRANCH   1   2
BRANCH   1  11
ATOM     11  C   UNL     1       6.266   2.256   8.671  1.00  0.00     0.000 C 
BRANCH  11  12
ATOM     12  C   UNL     1       6.921   2.786   9.956  1.00  0.00    -0.000 C 
BRANCH  12  13
ATOM     13  C   UNL     1       7.520   4.180   9.732  1.00  0.00    -0.000 C 
BRANCH  13  14
ATOM     14  C   UNL     1       9.051   4.146   9.849  1.00  0.00    -0.000 C 
BRANCH  14  15
ATOM     15  C   UNL     1       9.692   5.524   9.615  1.00  0.00    -0.000 C 
BRANCH  15  16
ATOM     16  C   UNL     1       8.868   6.404   8.661  1.00  0.00    -0.000 C 
BRANCH  16  17
ATOM     17  C   UNL     1       9.752   7.304   7.782  1.00  0.00    -0.003 C 
ATOM     18  C   UNL     1      11.233   6.935   7.861  1.00  0.00     0.004 C 
ENDBRANCH  16  17
ENDBRANCH  15  16
ENDBRANCH  14  15
ENDBRANCH  13  14
ENDBRANCH  12  13
ENDBRANCH  11  12
ENDBRANCH   1  11
TORSDOF 14
ENDMDL
MODEL 2
REMARK VINA RESULT:    -3.568      5.667      7.300
REMARK INTER + INTRA:          -7.363
REMARK INTER:                  -6.532
REMARK INTRA:                  -0.831
REMARK UNBOUND:                -0.875
REMARK SMILES CCCCCCCCCCCCCCCC(=O)[O-]
REMARK SMILES IDX 9 1 10 2 11 3 12 4 13 5 14 6 15 7 16 8 17 9 18 10 8 11 7 12
REMARK SMILES IDX 6 13 5 14 4 15 3 16 2 17 1 18
REMARK H PARENT
REMARK Flexibility Score: inf
ROOT
ATOM      1  C   UNL     1       5.337  11.614   7.601  1.00  0.00     0.000 C 
ENDROOT
BRANCH   1   2
ATOM      2  C   UNL     1       5.064  13.073   7.999  1.00  0.00     0.000 C 
BRANCH   2   3
ATOM      3  C   UNL     1       4.040  13.716   7.057  1.00  0.00     0.000 C 
BRANCH   3   4
ATOM      4  C   UNL     1       2.618  13.597   7.622  1.00  0.00     0.000 C 
BRANCH   4   5
ATOM      5  C   UNL     1       2.597  13.247   9.120  1.00  0.00     0.000 C 
BRANCH   5   6
ATOM      6  C   UNL     1       1.505  12.225   9.500  1.00  0.00     0.006 C 
BRANCH   6   7
ATOM      7  C   UNL     1       2.083  10.825   9.746  1.00  0.00     0.053 C 
BRANCH   7   8
ATOM      8  C   UNL     1       1.148   9.775   9.235  1.00  0.00     0.041 C 
ATOM      9  O   UNL     1       1.291   9.309   8.074  1.00  0.00    -0.550 OA
ATOM     10  O   UNL     1       0.147   9.275  10.058  1.00  0.00    -0.550 OA
ENDBRANCH   7   8
ENDBRANCH   6   7
ENDBRANCH   5   6
ENDBRANCH   4   5
ENDBRANCH   3   4
ENDBRANCH   2   3
ENDBRANCH   1   2
BRANCH   1  11
ATOM     11  C   UNL     1       6.739  11.140   8.015  1.00  0.00     0.000 C 
BRANCH  11  12
ATOM     12  C   UNL     1       6.794  10.654   9.471  1.00  0.00    -0.000 C 
BRANCH  12  13
ATOM     13  C   UNL     1       7.541   9.319   9.578  1.00  0.00    -0.000 C 
BRANCH  13  14
ATOM     14  C   UNL     1       8.343   9.034   8.299  1.00  0.00    -0.000 C 
BRANCH  14  15
ATOM     15  C   UNL     1       9.018   7.653   8.321  1.00  0.00    -0.000 C 
BRANCH  15  16
ATOM     16  C   UNL     1      10.473   7.716   8.815  1.00  0.00    -0.000 C 
BRANCH  16  17
ATOM     17  C   UNL     1      11.295   6.492   8.380  1.00  0.00    -0.003 C 
ATOM     18  C   UNL     1      12.799   6.697   8.559  1.00  0.00     0.004 C 
ENDBRANCH  16  17
ENDBRANCH  15  16
ENDBRANCH  14  15
ENDBRANCH  13  14
ENDBRANCH  12  13
ENDBRANCH  11  12
ENDBRANCH   1  11
TORSDOF 14
ENDMDL
MODEL 3
REMARK VINA RESULT:    -3.499      4.519      8.773
REMARK INTER + INTRA:          -7.238
REMARK INTER:                  -6.190
REMARK INTRA:                  -1.048
REMARK UNBOUND:                -0.875
REMARK SMILES CCCCCCCCCCCCCCCC(=O)[O-]
REMARK SMILES IDX 9 1 10 2 11 3 12 4 13 5 14 6 15 7 16 8 17 9 18 10 8 11 7 12
REMARK SMILES IDX 6 13 5 14 4 15 3 16 2 17 1 18
REMARK H PARENT
REMARK Flexibility Score: inf
ROOT
ATOM      1  C   UNL     1       4.115   2.343   8.070  1.00  0.00     0.000 C 
ENDROOT
BRANCH   1   2
ATOM      2  C   UNL     1       5.553   1.811   8.176  1.00  0.00     0.000 C 
BRANCH   2   3
ATOM      3  C   UNL     1       6.130   2.066   9.573  1.00  0.00     0.000 C 
BRANCH   3   4
ATOM      4  C   UNL     1       6.303   3.569   9.833  1.00  0.00     0.000 C 
BRANCH   4   5
ATOM      5  C   UNL     1       7.510   4.169   9.093  1.00  0.00     0.000 C 
BRANCH   5   6
ATOM      6  C   UNL     1       8.234   5.276   9.888  1.00  0.00     0.006 C 
BRANCH   6   7
ATOM      7  C   UNL     1       9.029   6.220   8.975  1.00  0.00     0.053 C 
BRANCH   7   8
ATOM      8  C   UNL     1      10.490   5.905   9.040  1.00  0.00     0.041 C 
ATOM      9  O   UNL     1      10.915   5.033   9.842  1.00  0.00    -0.550 OA
ATOM     10  O   UNL     1      11.377   6.540   8.182  1.00  0.00    -0.550 OA
ENDBRANCH   7   8
ENDBRANCH   6   7
ENDBRANCH   5   6
ENDBRANCH   4   5
ENDBRANCH   3   4
ENDBRANCH   2   3
ENDBRANCH   1   2
BRANCH   1  11
ATOM     11  C   UNL     1       3.139   1.602   8.997  1.00  0.00     0.000 C 
BRANCH  11  12
ATOM     12  C   UNL     1       2.374   2.550   9.932  1.00  0.00    -0.000 C 
BRANCH  12  13
ATOM     13  C   UNL     1       2.378   3.983   9.384  1.00  0.00    -0.000 C 
BRANCH  13  14
ATOM     14  C   UNL     1       1.219   4.800   9.973  1.00  0.00    -0.000 C 
BRANCH  14  15
ATOM     15  C   UNL     1      -0.093   4.000  10.041  1.00  0.00    -0.000 C 
BRANCH  15  16
ATOM     16  C   UNL     1      -0.831   3.960   8.693  1.00  0.00    -0.000 C 
BRANCH  16  17
ATOM     17  C   UNL     1      -2.247   4.550   8.781  1.00  0.00    -0.003 C 
ATOM     18  C   UNL     1      -2.256   5.990   9.294  1.00  0.00     0.004 C 
ENDBRANCH  16  17
ENDBRANCH  15  16
ENDBRANCH  14  15
ENDBRANCH  13  14
ENDBRANCH  12  13
ENDBRANCH  11  12
ENDBRANCH   1  11
TORSDOF 14
ENDMDL
MODEL 4
REMARK VINA RESULT:    -3.439      3.989      8.662
REMARK INTER + INTRA:          -7.128
REMARK INTER:                  -6.487
REMARK INTRA:                  -0.641
REMARK UNBOUND:                -0.875
REMARK SMILES CCCCCCCCCCCCCCCC(=O)[O-]
REMARK SMILES IDX 9 1 10 2 11 3 12 4 13 5 14 6 15 7 16 8 17 9 18 10 8 11 7 12
REMARK SMILES IDX 6 13 5 14 4 15 3 16 2 17 1 18
REMARK H PARENT
REMARK Flexibility Score: inf
ROOT
ATOM      1  C   UNL     1       4.967   3.317   9.162  1.00  0.00     0.000 C 
ENDROOT
BRANCH   1   2
ATOM      2  C   UNL     1       6.293   2.633   8.794  1.00  0.00     0.000 C 
BRANCH   2   3
ATOM      3  C   UNL     1       7.222   2.549  10.011  1.00  0.00     0.000 C 
BRANCH   3   4
ATOM      4  C   UNL     1       8.475   3.411   9.809  1.00  0.00     0.000 C 
BRANCH   4   5
ATOM      5  C   UNL     1       8.177   4.919   9.849  1.00  0.00     0.000 C 
BRANCH   5   6
ATOM      6  C   UNL     1       9.347   5.794   9.351  1.00  0.00     0.006 C 
BRANCH   6   7
ATOM      7  C   UNL     1       8.922   6.739   8.219  1.00  0.00     0.053 C 
BRANCH   7   8
ATOM      8  C   UNL     1       9.032   8.165   8.658  1.00  0.00     0.041 C 
ATOM      9  O   UNL     1       9.889   8.499   9.519  1.00  0.00    -0.550 OA
ATOM     10  O   UNL     1       8.223   9.135   8.083  1.00  0.00    -0.550 OA
ENDBRANCH   7   8
ENDBRANCH   6   7
ENDBRANCH   5   6
ENDBRANCH   4   5
ENDBRANCH   3   4
ENDBRANCH   2   3
ENDBRANCH   1   2
BRANCH   1  11
ATOM     11  C   UNL     1       3.756   2.673   8.468  1.00  0.00     0.000 C 
BRANCH  11  12
ATOM     12  C   UNL     1       2.926   1.796   9.417  1.00  0.00    -0.000 C 
BRANCH  12  13
ATOM     13  C   UNL     1       1.537   2.403   9.653  1.00  0.00    -0.000 C 
BRANCH  13  14
ATOM     14  C   UNL     1       1.582   3.935   9.552  1.00  0.00    -0.000 C 
BRANCH  14  15
ATOM     15  C   UNL     1       0.203   4.582   9.756  1.00  0.00    -0.000 C 
BRANCH  15  16
ATOM     16  C   UNL     1      -0.953   3.594   9.523  1.00  0.00    -0.000 C 
BRANCH  16  17
ATOM     17  C   UNL     1      -2.061   4.185   8.637  1.00  0.00    -0.003 C 
ATOM     18  C   UNL     1      -2.364   5.646   8.966  1.00  0.00     0.004 C 
ENDBRANCH  16  17
ENDBRANCH  15  16
ENDBRANCH  14  15
ENDBRANCH  13  14
ENDBRANCH  12  13
ENDBRANCH  11  12
ENDBRANCH   1  11
TORSDOF 14
ENDMDL
MODEL 5
REMARK VINA RESULT:    -3.422      1.122      1.852
REMARK INTER + INTRA:          -7.099
REMARK INTER:                  -6.393
REMARK INTRA:                  -0.706
REMARK UNBOUND:                -0.875
REMARK SMILES CCCCCCCCCCCCCCCC(=O)[O-]
REMARK SMILES IDX 9 1 10 2 11 3 12 4 13 5 14 6 15 7 16 8 17 9 18 10 8 11 7 12
REMARK SMILES IDX 6 13 5 14 4 15 3 16 2 17 1 18
REMARK H PARENT
REMARK Flexibility Score: inf
ROOT
ATOM      1  C   UNL     1       5.833   2.640   8.664  1.00  0.00     0.000 C 
ENDROOT
BRANCH   1   2
ATOM      2  C   UNL     1       5.155   1.275   8.858  1.00  0.00     0.000 C 
BRANCH   2   3
ATOM      3  C   UNL     1       4.202   1.303  10.059  1.00  0.00     0.000 C 
BRANCH   3   4
ATOM      4  C   UNL     1       2.796   1.749   9.637  1.00  0.00     0.000 C 
BRANCH   4   5
ATOM      5  C   UNL     1       2.452   3.171  10.112  1.00  0.00     0.000 C 
BRANCH   5   6
ATOM      6  C   UNL     1       1.358   3.857   9.267  1.00  0.00     0.006 C 
BRANCH   6   7
ATOM      7  C   UNL     1       0.051   4.042  10.049  1.00  0.00     0.053 C 
BRANCH   7   8
ATOM      8  C   UNL     1      -1.124   3.994   9.125  1.00  0.00     0.041 C 
ATOM      9  O   UNL     1      -1.706   2.901   8.896  1.00  0.00    -0.550 OA
ATOM     10  O   UNL     1      -1.607   5.163   8.554  1.00  0.00    -0.550 OA
ENDBRANCH   7   8
ENDBRANCH   6   7
ENDBRANCH   5   6
ENDBRANCH   4   5
ENDBRANCH   3   4
ENDBRANCH   2   3
ENDBRANCH   1   2
BRANCH   1  11
ATOM     11  C   UNL     1       7.055   2.830   9.578  1.00  0.00     0.000 C 
BRANCH  11  12
ATOM     12  C   UNL     1       7.493   4.298   9.682  1.00  0.00    -0.000 C 
BRANCH  12  13
ATOM     13  C   UNL     1       8.958   4.404  10.125  1.00  0.00    -0.000 C 
BRANCH  13  14
ATOM     14  C   UNL     1       9.742   5.355   9.209  1.00  0.00    -0.000 C 
BRANCH  14  15
ATOM     15  C   UNL     1       8.844   6.411   8.546  1.00  0.00    -0.000 C 
BRANCH  15  16
ATOM     16  C   UNL     1       9.640   7.617   8.019  1.00  0.00    -0.000 C 
BRANCH  16  17
ATOM     17  C   UNL     1       8.802   8.905   7.985  1.00  0.00    -0.003 C 
ATOM     18  C   UNL     1       7.866   9.032   9.187  1.00  0.00     0.004 C 
ENDBRANCH  16  17
ENDBRANCH  15  16
ENDBRANCH  14  15
ENDBRANCH  13  14
ENDBRANCH  12  13
ENDBRANCH  11  12
ENDBRANCH   1  11
TORSDOF 14
ENDMDL
MODEL 6
REMARK VINA RESULT:    -3.357      1.652      3.201
REMARK INTER + INTRA:          -6.980
REMARK INTER:                  -6.550
REMARK INTRA:                  -0.430
REMARK UNBOUND:                -0.875
REMARK SMILES CCCCCCCCCCCCCCCC(=O)[O-]
REMARK SMILES IDX 9 1 10 2 11 3 12 4 13 5 14 6 15 7 16 8 17 9 18 10 8 11 7 12
REMARK SMILES IDX 6 13 5 14 4 15 3 16 2 17 1 18
REMARK H PARENT
REMARK Flexibility Score: inf
ROOT
ATOM      1  C   UNL     1       2.493   4.227   9.755  1.00  0.00     0.000 C 
ENDROOT
BRANCH   1   2
ATOM      2  C   UNL     1       0.961   4.216   9.639  1.00  0.00     0.000 C 
BRANCH   2   3
ATOM      3  C   UNL     1       0.388   2.861  10.071  1.00  0.00     0.000 C 
BRANCH   3   4
ATOM      4  C   UNL     1      -0.997   2.626   9.455  1.00  0.00     0.000 C 
BRANCH   4   5
ATOM      5  C   UNL     1      -1.597   3.895   8.826  1.00  0.00     0.000 C 
BRANCH   5   6
ATOM      6  C   UNL     1      -2.070   4.935   9.863  1.00  0.00     0.006 C 
BRANCH   6   7
ATOM      7  C   UNL     1      -2.569   6.227   9.202  1.00  0.00     0.053 C 
BRANCH   7   8
ATOM      8  C   UNL     1      -1.800   7.406   9.709  1.00  0.00     0.041 C 
ATOM      9  O   UNL     1      -0.541   7.384   9.718  1.00  0.00    -0.550 OA
ATOM     10  O   UNL     1      -2.471   8.547  10.125  1.00  0.00    -0.550 OA
ENDBRANCH   7   8
ENDBRANCH   6   7
ENDBRANCH   5   6
ENDBRANCH   4   5
ENDBRANCH   3   4
ENDBRANCH   2   3
ENDBRANCH   1   2
BRANCH   1  11
ATOM     11  C   UNL     1       3.158   3.129   8.909  1.00  0.00     0.000 C 
BRANCH  11  12
ATOM     12  C   UNL     1       4.379   2.507   9.602  1.00  0.00    -0.000 C 
BRANCH  12  13
ATOM     13  C   UNL     1       5.541   2.332   8.616  1.00  0.00    -0.000 C 
BRANCH  13  14
ATOM     14  C   UNL     1       6.892   2.546   9.314  1.00  0.00    -0.000 C 
BRANCH  14  15
ATOM     15  C   UNL     1       7.041   3.963   9.892  1.00  0.00    -0.000 C 
BRANCH  15  16
ATOM     16  C   UNL     1       8.496   4.460   9.869  1.00  0.00    -0.000 C 
BRANCH  16  17
ATOM     17  C   UNL     1       8.592   5.994   9.848  1.00  0.00    -0.003 C 
ATOM     18  C   UNL     1       8.883   6.547   8.453  1.00  0.00     0.004 C 
ENDBRANCH  16  17
ENDBRANCH  15  16
ENDBRANCH  14  15
ENDBRANCH  13  14
ENDBRANCH  12  13
ENDBRANCH  11  12
ENDBRANCH   1  11
TORSDOF 14
ENDMDL
MODEL 7
REMARK VINA RESULT:    -2.931      4.541      8.988
REMARK INTER + INTRA:          -6.204
REMARK INTER:                  -5.410
REMARK INTRA:                  -0.795
REMARK UNBOUND:                -0.875
REMARK SMILES CCCCCCCCCCCCCCCC(=O)[O-]
REMARK SMILES IDX 9 1 10 2 11 3 12 4 13 5 14 6 15 7 16 8 17 9 18 10 8 11 7 12
REMARK SMILES IDX 6 13 5 14 4 15 3 16 2 17 1 18
REMARK H PARENT
REMARK Flexibility Score: inf
ROOT
ATOM      1  C   UNL     1       5.552   1.985   9.398  1.00  0.00     0.000 C 
ENDROOT
BRANCH   1   2
ATOM      2  C   UNL     1       7.033   1.978   8.988  1.00  0.00     0.000 C 
BRANCH   2   3
ATOM      3  C   UNL     1       7.918   2.503  10.124  1.00  0.00     0.000 C 
BRANCH   3   4
ATOM      4  C   UNL     1       8.656   3.781   9.703  1.00  0.00     0.000 C 
BRANCH   4   5
ATOM      5  C   UNL     1       7.794   5.046   9.851  1.00  0.00     0.000 C 
BRANCH   5   6
ATOM      6  C   UNL     1       8.618   6.340  10.011  1.00  0.00     0.006 C 
BRANCH   6   7
ATOM      7  C   UNL     1      10.129   6.071   9.996  1.00  0.00     0.053 C 
BRANCH   7   8
ATOM      8  C   UNL     1      10.744   6.605   8.740  1.00  0.00     0.041 C 
ATOM      9  O   UNL     1      10.256   7.622   8.179  1.00  0.00    -0.550 OA
ATOM     10  O   UNL     1      11.884   6.011   8.217  1.00  0.00    -0.550 OA
ENDBRANCH   7   8
ENDBRANCH   6   7
ENDBRANCH   5   6
ENDBRANCH   4   5
ENDBRANCH   3   4
ENDBRANCH   2   3
ENDBRANCH   1   2
BRANCH   1  11
ATOM     11  C   UNL     1       4.787   3.192   8.833  1.00  0.00     0.000 C 
BRANCH  11  12
ATOM     12  C   UNL     1       3.291   2.904   8.633  1.00  0.00    -0.000 C 
BRANCH  12  13
ATOM     13  C   UNL     1       2.620   2.536   9.963  1.00  0.00    -0.000 C 
BRANCH  13  14
ATOM     14  C   UNL     1       1.226   3.170  10.069  1.00  0.00    -0.000 C 
BRANCH  14  15
ATOM     15  C   UNL     1       0.102   2.122  10.124  1.00  0.00    -0.000 C 
BRANCH  15  16
ATOM     16  C   UNL     1      -1.219   2.640   9.531  1.00  0.00    -0.000 C 
BRANCH  16  17
ATOM     17  C   UNL     1      -1.019   3.879   8.645  1.00  0.00    -0.003 C 
ATOM     18  C   UNL     1      -2.097   4.940   8.864  1.00  0.00     0.004 C 
ENDBRANCH  16  17
ENDBRANCH  15  16
ENDBRANCH  14  15
ENDBRANCH  13  14
ENDBRANCH  12  13
ENDBRANCH  11  12
ENDBRANCH   1  11
TORSDOF 14
ENDMDL
MODEL 8
REMARK VINA RESULT:    -2.720      3.769      8.305
REMARK INTER + INTRA:          -5.822
REMARK INTER:                  -5.342
REMARK INTRA:                  -0.480
REMARK UNBOUND:                -0.875
REMARK SMILES CCCCCCCCCCCCCCCC(=O)[O-]
REMARK SMILES IDX 9 1 10 2 11 3 12 4 13 5 14 6 15 7 16 8 17 9 18 10 8 11 7 12
REMARK SMILES IDX 6 13 5 14 4 15 3 16 2 17 1 18
REMARK H PARENT
REMARK Flexibility Score: inf
ROOT
ATOM      1  C   UNL     1       6.285   3.137   8.838  1.00  0.00     0.000 C 
ENDROOT
BRANCH   1   2
ATOM      2  C   UNL     1       7.573   3.377   9.640  1.00  0.00     0.000 C 
BRANCH   2   3
ATOM      3  C   UNL     1       7.778   4.871   9.914  1.00  0.00     0.000 C 
BRANCH   3   4
ATOM      4  C   UNL     1       8.932   5.434   9.074  1.00  0.00     0.000 C 
BRANCH   4   5
ATOM      5  C   UNL     1       9.228   6.913   9.375  1.00  0.00     0.000 C 
BRANCH   5   6
ATOM      6  C   UNL     1       8.055   7.858   9.041  1.00  0.00     0.006 C 
BRANCH   6   7
ATOM      7  C   UNL     1       8.526   9.292   8.766  1.00  0.00     0.053 C 
BRANCH   7   8
ATOM      8  C   UNL     1       7.410  10.263   8.992  1.00  0.00     0.041 C 
ATOM      9  O   UNL     1       7.160  11.151   8.135  1.00  0.00    -0.550 OA
ATOM     10  O   UNL     1       6.616  10.157  10.125  1.00  0.00    -0.550 OA
ENDBRANCH   7   8
ENDBRANCH   6   7
ENDBRANCH   5   6
ENDBRANCH   4   5
ENDBRANCH   3   4
ENDBRANCH   2   3
ENDBRANCH   1   2
BRANCH   1  11
ATOM     11  C   UNL     1       5.760   1.699   8.977  1.00  0.00     0.000 C 
BRANCH  11  12
ATOM     12  C   UNL     1       4.450   1.622   9.777  1.00  0.00    -0.000 C 
BRANCH  12  13
ATOM     13  C   UNL     1       3.461   2.700   9.316  1.00  0.00    -0.000 C 
BRANCH  13  14
ATOM     14  C   UNL     1       2.150   2.619  10.112  1.00  0.00    -0.000 C 
BRANCH  14  15
ATOM     15  C   UNL     1       1.231   3.826   9.862  1.00  0.00    -0.000 C 
BRANCH  15  16
ATOM     16  C   UNL     1      -0.217   3.412   9.552  1.00  0.00    -0.000 C 
BRANCH  16  17
ATOM     17  C   UNL     1      -1.201   4.586   9.666  1.00  0.00    -0.003 C 
ATOM     18  C   UNL     1      -2.008   4.806   8.387  1.00  0.00     0.004 C 
ENDBRANCH  16  17
ENDBRANCH  15  16
ENDBRANCH  14  15
ENDBRANCH  13  14
ENDBRANCH  12  13
ENDBRANCH  11  12
ENDBRANCH   1  11
TORSDOF 14
ENDMDL
