MODEL 1
REMARK VINA RESULT:    -3.661      0.000      0.000
REMARK INTER + INTRA:          -6.654
REMARK INTER:                  -5.159
REMARK INTRA:                  -1.495
REMARK UNBOUND:                -1.495
REMARK SMILES OCC1=C[C@@H](O)[C@@H]2C=CO[C@@H](O[C@@H]3O[C@@H](CO)[C@H](O)[C@H](O)[C@H]3O)[C@H]12
REMARK SMILES IDX 12 1 11 2 8 3 9 4 7 5 10 6 24 7 5 8 3 9 4 10 6 11 2 13 1 14
REMARK SMILES IDX 13 16 22 17 14 18 20 19 15 20 18 21 23 22 21 24 16 26 17 27
REMARK SMILES IDX 19 29
REMARK H PARENT 6 12 1 15 23 23 21 25 17 28 19 30
REMARK Flexibility Score: inf
ROOT
ATOM      1  O   UNL     1     -24.819  51.782  42.141  1.00  0.00    -0.310 OA
ENDROOT
BRANCH   1   2
ATOM      2  C   UNL     1     -25.164  53.139  42.341  1.00  0.00     0.316 C 
ATOM      3  C   UNL     1     -24.561  55.924  42.556  1.00  0.00     0.018 C 
ATOM      4  C   UNL     1     -24.508  55.313  41.374  1.00  0.00     0.186 C 
ATOM      5  C   UNL     1     -24.630  55.151  43.850  1.00  0.00     0.061 C 
ATOM      6  O   UNL     1     -24.615  53.925  41.283  1.00  0.00    -0.472 OA
ATOM      7  C   UNL     1     -24.598  53.612  43.699  1.00  0.00     0.096 C 
ATOM      8  C   UNL     1     -25.912  55.452  44.644  1.00  0.00     0.145 C 
ATOM      9  C   UNL     1     -25.480  53.159  44.826  1.00  0.00    -0.036 C 
ATOM     10  C   UNL     1     -26.213  54.156  45.312  1.00  0.00     0.007 C 
BRANCH   8  11
ATOM     11  O   UNL     1     -25.695  56.448  45.605  1.00  0.00    -0.388 OA
ATOM     12  H   UNL     1     -24.823  56.867  45.379  1.00  0.00     0.211 HD
ENDBRANCH   8  11
BRANCH   9  13
ATOM     13  C   UNL     1     -25.690  51.723  45.224  1.00  0.00     0.187 C 
BRANCH  13  14
ATOM     14  O   UNL     1     -26.769  51.162  44.529  1.00  0.00    -0.392 OA
ATOM     15  H   UNL     1     -26.626  50.178  44.527  1.00  0.00     0.211 HD
ENDBRANCH  13  14
ENDBRANCH   9  13
ENDBRANCH   1   2
BRANCH   1  16
ATOM     16  C   UNL     1     -25.598  51.197  41.110  1.00  0.00     0.286 C 
ATOM     17  C   UNL     1     -24.656  50.626  40.014  1.00  0.00     0.202 C 
ATOM     18  O   UNL     1     -26.479  50.226  41.670  1.00  0.00    -0.341 OA
ATOM     19  C   UNL     1     -25.281  49.354  39.416  1.00  0.00     0.179 C 
ATOM     20  C   UNL     1     -25.832  48.981  41.878  1.00  0.00     0.178 C 
ATOM     21  C   UNL     1     -25.507  48.293  40.521  1.00  0.00     0.177 C 
BRANCH  17  22
ATOM     22  O   UNL     1     -24.461  51.593  39.011  1.00  0.00    -0.385 OA
ATOM     23  H   UNL     1     -25.314  51.666  38.510  1.00  0.00     0.211 HD
ENDBRANCH  17  22
BRANCH  19  24
ATOM     24  O   UNL     1     -24.514  48.836  38.354  1.00  0.00    -0.387 OA
ATOM     25  H   UNL     1     -24.126  49.601  37.854  1.00  0.00     0.211 HD
ENDBRANCH  19  24
BRANCH  20  26
ATOM     26  C   UNL     1     -26.722  48.087  42.759  1.00  0.00     0.191 C 
BRANCH  26  27
ATOM     27  O   UNL     1     -26.487  48.321  44.122  1.00  0.00    -0.394 OA
ATOM     28  H   UNL     1     -25.586  47.954  44.321  1.00  0.00     0.210 HD
ENDBRANCH  26  27
ENDBRANCH  20  26
BRANCH  21  29
ATOM     29  O   UNL     1     -24.357  47.494  40.665  1.00  0.00    -0.387 OA
ATOM     30  H   UNL     1     -24.616  46.563  40.428  1.00  0.00     0.211 HD
ENDBRANCH  21  29
ENDBRANCH   1  16
TORSDOF 10
ENDMDL
MODEL 2
REMARK VINA RESULT:    -3.628      2.634      6.965
REMARK INTER + INTRA:          -6.608
REMARK INTER:                  -5.812
REMARK INTRA:                  -0.796
REMARK UNBOUND:                -1.495
REMARK SMILES OCC1=C[C@@H](O)[C@@H]2C=CO[C@@H](O[C@@H]3O[C@@H](CO)[C@H](O)[C@H](O)[C@H]3O)[C@H]12
REMARK SMILES IDX 12 1 11 2 8 3 9 4 7 5 10 6 24 7 5 8 3 9 4 10 6 11 2 13 1 14
REMARK SMILES IDX 13 16 22 17 14 18 20 19 15 20 18 21 23 22 21 24 16 26 17 27
REMARK SMILES IDX 19 29
REMARK H PARENT 6 12 1 15 23 23 21 25 17 28 19 30
REMARK Flexibility Score: inf
ROOT
ATOM      1  O   UNL     1     -24.637  53.375  45.582  1.00  0.00    -0.310 OA
ENDROOT
BRANCH   1   2
ATOM      2  C   UNL     1     -24.544  53.343  44.171  1.00  0.00     0.316 C 
ATOM      3  C   UNL     1     -25.298  54.168  41.540  1.00  0.00     0.018 C 
ATOM      4  C   UNL     1     -24.619  54.992  42.336  1.00  0.00     0.186 C 
ATOM      5  C   UNL     1     -25.960  52.919  42.068  1.00  0.00     0.061 C 
ATOM      6  O   UNL     1     -24.409  54.677  43.678  1.00  0.00    -0.472 OA
ATOM      7  C   UNL     1     -25.820  52.693  43.591  1.00  0.00     0.096 C 
ATOM      8  C   UNL     1     -25.402  51.641  41.418  1.00  0.00     0.145 C 
ATOM      9  C   UNL     1     -25.742  51.197  43.690  1.00  0.00    -0.036 C 
ATOM     10  C   UNL     1     -25.484  50.636  42.513  1.00  0.00     0.007 C 
BRANCH   8  11
ATOM     11  O   UNL     1     -26.190  51.235  40.333  1.00  0.00    -0.388 OA
ATOM     12  H   UNL     1     -27.070  50.973  40.712  1.00  0.00     0.211 HD
ENDBRANCH   8  11
BRANCH   9  13
ATOM     13  C   UNL     1     -25.733  50.424  44.980  1.00  0.00     0.187 C 
BRANCH  13  14
ATOM     14  O   UNL     1     -26.141  49.099  44.776  1.00  0.00    -0.392 OA
ATOM     15  H   UNL     1     -25.339  48.597  44.472  1.00  0.00     0.211 HD
ENDBRANCH  13  14
ENDBRANCH   9  13
ENDBRANCH   1   2
BRANCH   1  16
ATOM     16  C   UNL     1     -24.874  54.692  46.055  1.00  0.00     0.286 C 
ATOM     17  C   UNL     1     -26.368  54.833  46.455  1.00  0.00     0.202 C 
ATOM     18  O   UNL     1     -23.967  54.989  47.113  1.00  0.00    -0.341 OA
ATOM     19  C   UNL     1     -26.487  55.782  47.660  1.00  0.00     0.179 C 
ATOM     20  C   UNL     1     -24.414  54.469  48.356  1.00  0.00     0.178 C 
ATOM     21  C   UNL     1     -25.669  55.239  48.858  1.00  0.00     0.177 C 
BRANCH  17  22
ATOM     22  O   UNL     1     -27.103  55.334  45.365  1.00  0.00    -0.385 OA
ATOM     23  H   UNL     1     -28.057  55.127  45.540  1.00  0.00     0.211 HD
ENDBRANCH  17  22
BRANCH  19  24
ATOM     24  O   UNL     1     -27.828  56.021  48.018  1.00  0.00    -0.387 OA
ATOM     25  H   UNL     1     -27.955  55.716  48.954  1.00  0.00     0.211 HD
ENDBRANCH  19  24
BRANCH  20  26
ATOM     26  C   UNL     1     -23.267  54.542  49.379  1.00  0.00     0.191 C 
BRANCH  26  27
ATOM     27  O   UNL     1     -23.235  55.789  50.020  1.00  0.00    -0.394 OA
ATOM     28  H   UNL     1     -22.895  55.626  50.939  1.00  0.00     0.210 HD
ENDBRANCH  26  27
ENDBRANCH  20  26
BRANCH  21  29
ATOM     29  O   UNL     1     -26.467  54.378  49.635  1.00  0.00    -0.387 OA
ATOM     30  H   UNL     1     -26.127  53.455  49.491  1.00  0.00     0.211 HD
ENDBRANCH  21  29
ENDBRANCH   1  16
TORSDOF 10
ENDMDL
MODEL 3
REMARK VINA RESULT:    -3.567      1.869      3.930
REMARK INTER + INTRA:          -6.522
REMARK INTER:                  -5.123
REMARK INTRA:                  -1.399
REMARK UNBOUND:                -1.495
REMARK SMILES OCC1=C[C@@H](O)[C@@H]2C=CO[C@@H](O[C@@H]3O[C@@H](CO)[C@H](O)[C@H](O)[C@H]3O)[C@H]12
REMARK SMILES IDX 12 1 11 2 8 3 9 4 7 5 10 6 24 7 5 8 3 9 4 10 6 11 2 13 1 14
REMARK SMILES IDX 13 16 22 17 14 18 20 19 15 20 18 21 23 22 21 24 16 26 17 27
REMARK SMILES IDX 19 29
REMARK H PARENT 6 12 1 15 23 23 21 25 17 28 19 30
REMARK Flexibility Score: inf
ROOT
ATOM      1  O   UNL     1     -26.131  52.042  44.077  1.00  0.00    -0.310 OA
ENDROOT
BRANCH   1   2
ATOM      2  C   UNL     1     -25.514  53.143  44.714  1.00  0.00     0.316 C 
ATOM      3  C   UNL     1     -25.543  55.544  46.265  1.00  0.00     0.018 C 
ATOM      4  C   UNL     1     -25.796  54.369  46.838  1.00  0.00     0.186 C 
ATOM      5  C   UNL     1     -25.538  55.713  44.766  1.00  0.00     0.061 C 
ATOM      6  O   UNL     1     -25.969  53.220  46.065  1.00  0.00    -0.472 OA
ATOM      7  C   UNL     1     -25.881  54.440  43.958  1.00  0.00     0.096 C 
ATOM      8  C   UNL     1     -24.170  56.173  44.233  1.00  0.00     0.145 C 
ATOM      9  C   UNL     1     -25.029  54.596  42.732  1.00  0.00    -0.036 C 
ATOM     10  C   UNL     1     -24.084  55.515  42.900  1.00  0.00     0.007 C 
BRANCH   8  11
ATOM     11  O   UNL     1     -24.122  57.565  44.085  1.00  0.00    -0.388 OA
ATOM     12  H   UNL     1     -25.065  57.870  44.016  1.00  0.00     0.211 HD
ENDBRANCH   8  11
BRANCH   9  13
ATOM     13  C   UNL     1     -25.078  53.686  41.535  1.00  0.00     0.187 C 
BRANCH  13  14
ATOM     14  O   UNL     1     -26.370  53.179  41.342  1.00  0.00    -0.392 OA
ATOM     15  H   UNL     1     -26.436  52.923  40.383  1.00  0.00     0.211 HD
ENDBRANCH  13  14
ENDBRANCH   9  13
ENDBRANCH   1   2
BRANCH   1  16
ATOM     16  C   UNL     1     -25.238  50.945  43.959  1.00  0.00     0.286 C 
ATOM     17  C   UNL     1     -25.580  49.885  45.042  1.00  0.00     0.202 C 
ATOM     18  O   UNL     1     -25.277  50.438  42.628  1.00  0.00    -0.341 OA
ATOM     19  C   UNL     1     -25.312  48.478  44.481  1.00  0.00     0.179 C 
ATOM     20  C   UNL     1     -26.373  49.558  42.429  1.00  0.00     0.178 C 
ATOM     21  C   UNL     1     -26.166  48.230  43.213  1.00  0.00     0.177 C 
BRANCH  17  22
ATOM     22  O   UNL     1     -24.796  50.112  46.187  1.00  0.00    -0.385 OA
ATOM     23  H   UNL     1     -23.910  49.700  46.017  1.00  0.00     0.211 HD
ENDBRANCH  17  22
BRANCH  19  24
ATOM     24  O   UNL     1     -25.522  47.474  45.446  1.00  0.00    -0.387 OA
ATOM     25  H   UNL     1     -25.738  47.917  46.308  1.00  0.00     0.211 HD
ENDBRANCH  19  24
BRANCH  20  26
ATOM     26  C   UNL     1     -26.547  49.297  40.922  1.00  0.00     0.191 C 
BRANCH  26  27
ATOM     27  O   UNL     1     -27.123  50.402  40.278  1.00  0.00    -0.394 OA
ATOM     28  H   UNL     1     -26.563  50.586  39.478  1.00  0.00     0.210 HD
ENDBRANCH  26  27
ENDBRANCH  20  26
BRANCH  21  29
ATOM     29  O   UNL     1     -27.419  47.698  43.571  1.00  0.00    -0.387 OA
ATOM     30  H   UNL     1     -27.508  46.823  43.108  1.00  0.00     0.211 HD
ENDBRANCH  21  29
ENDBRANCH   1  16
TORSDOF 10
ENDMDL
MODEL 4
REMARK VINA RESULT:    -3.494      2.778      7.053
REMARK INTER + INTRA:          -6.420
REMARK INTER:                  -5.018
REMARK INTRA:                  -1.402
REMARK UNBOUND:                -1.495
REMARK SMILES OCC1=C[C@@H](O)[C@@H]2C=CO[C@@H](O[C@@H]3O[C@@H](CO)[C@H](O)[C@H](O)[C@H]3O)[C@H]12
REMARK SMILES IDX 12 1 11 2 8 3 9 4 7 5 10 6 24 7 5 8 3 9 4 10 6 11 2 13 1 14
REMARK SMILES IDX 13 16 22 17 14 18 20 19 15 20 18 21 23 22 21 24 16 26 17 27
REMARK SMILES IDX 19 29
REMARK H PARENT 6 12 1 15 23 23 21 25 17 28 19 30
REMARK Flexibility Score: inf
ROOT
ATOM      1  O   UNL     1     -24.595  55.073  44.836  1.00  0.00    -0.310 OA
ENDROOT
BRANCH   1   2
ATOM      2  C   UNL     1     -24.276  54.256  43.727  1.00  0.00     0.316 C 
ATOM      3  C   UNL     1     -23.854  53.781  40.940  1.00  0.00     0.018 C 
ATOM      4  C   UNL     1     -22.980  54.500  41.641  1.00  0.00     0.186 C 
ATOM      5  C   UNL     1     -25.226  53.453  41.477  1.00  0.00     0.061 C 
ATOM      6  O   UNL     1     -23.264  54.896  42.948  1.00  0.00    -0.472 OA
ATOM      7  C   UNL     1     -25.545  54.041  42.872  1.00  0.00     0.096 C 
ATOM      8  C   UNL     1     -25.453  51.938  41.617  1.00  0.00     0.145 C 
ATOM      9  C   UNL     1     -26.417  52.979  43.478  1.00  0.00    -0.036 C 
ATOM     10  C   UNL     1     -26.337  51.833  42.810  1.00  0.00     0.007 C 
BRANCH   8  11
ATOM     11  O   UNL     1     -26.103  51.414  40.491  1.00  0.00    -0.388 OA
ATOM     12  H   UNL     1     -26.538  52.183  40.039  1.00  0.00     0.211 HD
ENDBRANCH   8  11
BRANCH   9  13
ATOM     13  C   UNL     1     -27.126  53.106  44.799  1.00  0.00     0.187 C 
BRANCH  13  14
ATOM     14  O   UNL     1     -27.310  54.453  45.142  1.00  0.00    -0.392 OA
ATOM     15  H   UNL     1     -26.453  54.916  44.949  1.00  0.00     0.211 HD
ENDBRANCH  13  14
ENDBRANCH   9  13
ENDBRANCH   1   2
BRANCH   1  16
ATOM     16  C   UNL     1     -23.966  54.608  46.020  1.00  0.00     0.286 C 
ATOM     17  C   UNL     1     -22.809  55.572  46.400  1.00  0.00     0.202 C 
ATOM     18  O   UNL     1     -24.940  54.448  47.048  1.00  0.00    -0.341 OA
ATOM     19  C   UNL     1     -22.694  55.653  47.932  1.00  0.00     0.179 C 
ATOM     20  C   UNL     1     -25.233  55.677  47.695  1.00  0.00     0.178 C 
ATOM     21  C   UNL     1     -24.023  56.156  48.548  1.00  0.00     0.177 C 
BRANCH  17  22
ATOM     22  O   UNL     1     -21.605  55.106  45.843  1.00  0.00    -0.385 OA
ATOM     23  H   UNL     1     -21.798  54.223  45.433  1.00  0.00     0.211 HD
ENDBRANCH  17  22
BRANCH  19  24
ATOM     24  O   UNL     1     -21.604  56.447  48.341  1.00  0.00    -0.387 OA
ATOM     25  H   UNL     1     -21.812  57.391  48.116  1.00  0.00     0.211 HD
ENDBRANCH  19  24
BRANCH  20  26
ATOM     26  C   UNL     1     -26.494  55.508  48.560  1.00  0.00     0.191 C 
BRANCH  26  27
ATOM     27  O   UNL     1     -27.651  55.857  47.847  1.00  0.00    -0.394 OA
ATOM     28  H   UNL     1     -27.407  56.633  47.276  1.00  0.00     0.210 HD
ENDBRANCH  26  27
ENDBRANCH  20  26
BRANCH  21  29
ATOM     29  O   UNL     1     -24.023  57.562  48.613  1.00  0.00    -0.387 OA
ATOM     30  H   UNL     1     -23.433  57.888  47.882  1.00  0.00     0.211 HD
ENDBRANCH  21  29
ENDBRANCH   1  16
TORSDOF 10
ENDMDL
MODEL 5
REMARK VINA RESULT:    -3.484      7.486     10.559
REMARK INTER + INTRA:          -6.405
REMARK INTER:                  -4.908
REMARK INTRA:                  -1.497
REMARK UNBOUND:                -1.495
REMARK SMILES OCC1=C[C@@H](O)[C@@H]2C=CO[C@@H](O[C@@H]3O[C@@H](CO)[C@H](O)[C@H](O)[C@H]3O)[C@H]12
REMARK SMILES IDX 12 1 11 2 8 3 9 4 7 5 10 6 24 7 5 8 3 9 4 10 6 11 2 13 1 14
REMARK SMILES IDX 13 16 22 17 14 18 20 19 15 20 18 21 23 22 21 24 16 26 17 27
REMARK SMILES IDX 19 29
REMARK H PARENT 6 12 1 15 23 23 21 25 17 28 19 30
REMARK Flexibility Score: inf
ROOT
ATOM      1  O   UNL     1     -27.984  49.974  34.469  1.00  0.00    -0.310 OA
ENDROOT
BRANCH   1   2
ATOM      2  C   UNL     1     -28.116  48.617  34.095  1.00  0.00     0.316 C 
ATOM      3  C   UNL     1     -29.488  46.111  34.009  1.00  0.00     0.018 C 
ATOM      4  C   UNL     1     -29.934  47.148  33.303  1.00  0.00     0.186 C 
ATOM      5  C   UNL     1     -28.458  46.275  35.099  1.00  0.00     0.061 C 
ATOM      6  O   UNL     1     -29.389  48.420  33.479  1.00  0.00    -0.472 OA
ATOM      7  C   UNL     1     -27.994  47.728  35.354  1.00  0.00     0.096 C 
ATOM      8  C   UNL     1     -27.169  45.485  34.811  1.00  0.00     0.145 C 
ATOM      9  C   UNL     1     -26.554  47.545  35.735  1.00  0.00    -0.036 C 
ATOM     10  C   UNL     1     -26.105  46.338  35.409  1.00  0.00     0.007 C 
BRANCH   8  11
ATOM     11  O   UNL     1     -27.188  44.232  35.437  1.00  0.00    -0.388 OA
ATOM     12  H   UNL     1     -28.130  44.074  35.712  1.00  0.00     0.211 HD
ENDBRANCH   8  11
BRANCH   9  13
ATOM     13  C   UNL     1     -25.651  48.647  36.221  1.00  0.00     0.187 C 
BRANCH  13  14
ATOM     14  O   UNL     1     -24.967  49.243  35.154  1.00  0.00    -0.392 OA
ATOM     15  H   UNL     1     -25.063  48.632  34.376  1.00  0.00     0.211 HD
ENDBRANCH  13  14
ENDBRANCH   9  13
ENDBRANCH   1   2
BRANCH   1  16
ATOM     16  C   UNL     1     -27.642  50.787  33.358  1.00  0.00     0.286 C 
ATOM     17  C   UNL     1     -28.726  51.884  33.171  1.00  0.00     0.202 C 
ATOM     18  O   UNL     1     -26.326  51.305  33.532  1.00  0.00    -0.341 OA
ATOM     19  C   UNL     1     -28.064  53.173  32.654  1.00  0.00     0.179 C 
ATOM     20  C   UNL     1     -26.316  52.453  34.366  1.00  0.00     0.178 C 
ATOM     21  C   UNL     1     -26.985  53.662  33.651  1.00  0.00     0.177 C 
BRANCH  17  22
ATOM     22  O   UNL     1     -29.699  51.435  32.259  1.00  0.00    -0.385 OA
ATOM     23  H   UNL     1     -29.260  51.383  31.370  1.00  0.00     0.211 HD
ENDBRANCH  17  22
BRANCH  19  24
ATOM     24  O   UNL     1     -29.008  54.181  32.381  1.00  0.00    -0.387 OA
ATOM     25  H   UNL     1     -28.548  55.059  32.446  1.00  0.00     0.211 HD
ENDBRANCH  19  24
BRANCH  20  26
ATOM     26  C   UNL     1     -24.866  52.774  34.769  1.00  0.00     0.191 C 
BRANCH  26  27
ATOM     27  O   UNL     1     -24.528  52.161  35.984  1.00  0.00    -0.394 OA
ATOM     28  H   UNL     1     -24.365  51.202  35.782  1.00  0.00     0.210 HD
ENDBRANCH  26  27
ENDBRANCH  20  26
BRANCH  21  29
ATOM     29  O   UNL     1     -27.565  54.511  34.612  1.00  0.00    -0.387 OA
ATOM     30  H   UNL     1     -27.923  55.301  34.126  1.00  0.00     0.211 HD
ENDBRANCH  21  29
ENDBRANCH   1  16
TORSDOF 10
ENDMDL
MODEL 6
REMARK VINA RESULT:    -3.465      1.803      3.742
REMARK INTER + INTRA:          -6.379
REMARK INTER:                  -5.071
REMARK INTRA:                  -1.308
REMARK UNBOUND:                -1.495
REMARK SMILES OCC1=C[C@@H](O)[C@@H]2C=CO[C@@H](O[C@@H]3O[C@@H](CO)[C@H](O)[C@H](O)[C@H]3O)[C@H]12
REMARK SMILES IDX 12 1 11 2 8 3 9 4 7 5 10 6 24 7 5 8 3 9 4 10 6 11 2 13 1 14
REMARK SMILES IDX 13 16 22 17 14 18 20 19 15 20 18 21 23 22 21 24 16 26 17 27
REMARK SMILES IDX 19 29
REMARK H PARENT 6 12 1 15 23 23 21 25 17 28 19 30
REMARK Flexibility Score: inf
ROOT
ATOM      1  O   UNL     1     -23.965  53.145  42.839  1.00  0.00    -0.310 OA
ENDROOT
BRANCH   1   2
ATOM      2  C   UNL     1     -24.259  53.745  44.085  1.00  0.00     0.316 C 
ATOM      3  C   UNL     1     -26.010  54.451  46.232  1.00  0.00     0.018 C 
ATOM      4  C   UNL     1     -25.631  53.186  46.060  1.00  0.00     0.186 C 
ATOM      5  C   UNL     1     -25.803  55.496  45.163  1.00  0.00     0.061 C 
ATOM      6  O   UNL     1     -24.934  52.798  44.915  1.00  0.00    -0.472 OA
ATOM      7  C   UNL     1     -25.158  54.981  43.855  1.00  0.00     0.096 C 
ATOM      8  C   UNL     1     -24.895  56.644  45.635  1.00  0.00     0.145 C 
ATOM      9  C   UNL     1     -24.335  56.158  43.416  1.00  0.00    -0.036 C 
ATOM     10  C   UNL     1     -24.171  57.040  44.396  1.00  0.00     0.007 C 
BRANCH   8  11
ATOM     11  O   UNL     1     -25.647  57.724  46.117  1.00  0.00    -0.388 OA
ATOM     12  H   UNL     1     -26.170  57.376  46.886  1.00  0.00     0.211 HD
ENDBRANCH   8  11
BRANCH   9  13
ATOM     13  C   UNL     1     -23.596  56.244  42.109  1.00  0.00     0.187 C 
BRANCH  13  14
ATOM     14  O   UNL     1     -24.293  55.577  41.092  1.00  0.00    -0.392 OA
ATOM     15  H   UNL     1     -24.363  56.212  40.331  1.00  0.00     0.211 HD
ENDBRANCH  13  14
ENDBRANCH   9  13
ENDBRANCH   1   2
BRANCH   1  16
ATOM     16  C   UNL     1     -24.518  51.842  42.748  1.00  0.00     0.286 C 
ATOM     17  C   UNL     1     -25.770  51.878  41.828  1.00  0.00     0.202 C 
ATOM     18  O   UNL     1     -23.516  50.926  42.316  1.00  0.00    -0.341 OA
ATOM     19  C   UNL     1     -25.868  50.556  41.047  1.00  0.00     0.179 C 
ATOM     20  C   UNL     1     -23.352  50.947  40.906  1.00  0.00     0.178 C 
ATOM     21  C   UNL     1     -24.593  50.336  40.195  1.00  0.00     0.177 C 
BRANCH  17  22
ATOM     22  O   UNL     1     -26.923  52.071  42.609  1.00  0.00    -0.385 OA
ATOM     23  H   UNL     1     -26.843  51.474  43.397  1.00  0.00     0.211 HD
ENDBRANCH  17  22
BRANCH  19  24
ATOM     24  O   UNL     1     -27.032  50.493  40.258  1.00  0.00    -0.387 OA
ATOM     25  H   UNL     1     -26.787  50.097  39.381  1.00  0.00     0.211 HD
ENDBRANCH  19  24
BRANCH  20  26
ATOM     26  C   UNL     1     -22.065  50.190  40.533  1.00  0.00     0.191 C 
BRANCH  26  27
ATOM     27  O   UNL     1     -22.246  49.420  39.374  1.00  0.00    -0.394 OA
ATOM     28  H   UNL     1     -23.212  49.469  39.150  1.00  0.00     0.210 HD
ENDBRANCH  26  27
ENDBRANCH  20  26
BRANCH  21  29
ATOM     29  O   UNL     1     -24.750  50.934  38.931  1.00  0.00    -0.387 OA
ATOM     30  H   UNL     1     -25.060  51.866  39.084  1.00  0.00     0.211 HD
ENDBRANCH  21  29
ENDBRANCH   1  16
TORSDOF 10
ENDMDL
MODEL 7
REMARK VINA RESULT:    -3.457      3.149      7.841
REMARK INTER + INTRA:          -6.367
REMARK INTER:                  -5.268
REMARK INTRA:                  -1.099
REMARK UNBOUND:                -1.495
REMARK SMILES OCC1=C[C@@H](O)[C@@H]2C=CO[C@@H](O[C@@H]3O[C@@H](CO)[C@H](O)[C@H](O)[C@H]3O)[C@H]12
REMARK SMILES IDX 12 1 11 2 8 3 9 4 7 5 10 6 24 7 5 8 3 9 4 10 6 11 2 13 1 14
REMARK SMILES IDX 13 16 22 17 14 18 20 19 15 20 18 21 23 22 21 24 16 26 17 27
REMARK SMILES IDX 19 29
REMARK H PARENT 6 12 1 15 23 23 21 25 17 28 19 30
REMARK Flexibility Score: inf
ROOT
ATOM      1  O   UNL     1     -25.898  55.588  45.905  1.00  0.00    -0.310 OA
ENDROOT
BRANCH   1   2
ATOM      2  C   UNL     1     -26.255  54.834  44.763  1.00  0.00     0.316 C 
ATOM      3  C   UNL     1     -26.455  52.410  43.261  1.00  0.00     0.018 C 
ATOM      4  C   UNL     1     -27.234  52.612  44.322  1.00  0.00     0.186 C 
ATOM      5  C   UNL     1     -25.248  53.273  42.985  1.00  0.00     0.061 C 
ATOM      6  O   UNL     1     -27.020  53.699  45.169  1.00  0.00    -0.472 OA
ATOM      7  C   UNL     1     -24.971  54.373  44.036  1.00  0.00     0.096 C 
ATOM      8  C   UNL     1     -25.355  54.016  41.643  1.00  0.00     0.145 C 
ATOM      9  C   UNL     1     -24.409  55.485  43.199  1.00  0.00    -0.036 C 
ATOM     10  C   UNL     1     -24.649  55.300  41.905  1.00  0.00     0.007 C 
BRANCH   8  11
ATOM     11  O   UNL     1     -24.708  53.313  40.617  1.00  0.00    -0.388 OA
ATOM     12  H   UNL     1     -23.809  53.725  40.525  1.00  0.00     0.211 HD
ENDBRANCH   8  11
BRANCH   9  13
ATOM     13  C   UNL     1     -23.839  56.765  43.748  1.00  0.00     0.187 C 
BRANCH  13  14
ATOM     14  O   UNL     1     -23.227  56.550  44.990  1.00  0.00    -0.392 OA
ATOM     15  H   UNL     1     -22.483  57.205  45.059  1.00  0.00     0.211 HD
ENDBRANCH  13  14
ENDBRANCH   9  13
ENDBRANCH   1   2
BRANCH   1  16
ATOM     16  C   UNL     1     -26.311  54.945  47.100  1.00  0.00     0.286 C 
ATOM     17  C   UNL     1     -25.085  54.264  47.767  1.00  0.00     0.202 C 
ATOM     18  O   UNL     1     -26.974  55.884  47.943  1.00  0.00    -0.341 OA
ATOM     19  C   UNL     1     -25.233  54.329  49.297  1.00  0.00     0.179 C 
ATOM     20  C   UNL     1     -26.055  56.666  48.690  1.00  0.00     0.178 C 
ATOM     21  C   UNL     1     -25.339  55.801  49.767  1.00  0.00     0.177 C 
BRANCH  17  22
ATOM     22  O   UNL     1     -24.999  52.926  47.341  1.00  0.00    -0.385 OA
ATOM     23  H   UNL     1     -25.738  52.780  46.694  1.00  0.00     0.211 HD
ENDBRANCH  17  22
BRANCH  19  24
ATOM     24  O   UNL     1     -24.193  53.650  49.960  1.00  0.00    -0.387 OA
ATOM     25  H   UNL     1     -24.603  53.014  50.603  1.00  0.00     0.211 HD
ENDBRANCH  19  24
BRANCH  20  26
ATOM     26  C   UNL     1     -26.799  57.851  49.329  1.00  0.00     0.191 C 
BRANCH  26  27
ATOM     27  O   UNL     1     -27.330  58.706  48.351  1.00  0.00    -0.394 OA
ATOM     28  H   UNL     1     -27.652  59.516  48.827  1.00  0.00     0.210 HD
ENDBRANCH  26  27
ENDBRANCH  20  26
BRANCH  21  29
ATOM     29  O   UNL     1     -24.055  56.323  50.009  1.00  0.00    -0.387 OA
ATOM     30  H   UNL     1     -24.169  57.125  50.585  1.00  0.00     0.211 HD
ENDBRANCH  21  29
ENDBRANCH   1  16
TORSDOF 10
ENDMDL
MODEL 8
REMARK VINA RESULT:    -3.421      7.317      8.950
REMARK INTER + INTRA:          -6.317
REMARK INTER:                  -4.795
REMARK INTRA:                  -1.522
REMARK UNBOUND:                -1.495
REMARK SMILES OCC1=C[C@@H](O)[C@@H]2C=CO[C@@H](O[C@@H]3O[C@@H](CO)[C@H](O)[C@H](O)[C@H]3O)[C@H]12
REMARK SMILES IDX 12 1 11 2 8 3 9 4 7 5 10 6 24 7 5 8 3 9 4 10 6 11 2 13 1 14
REMARK SMILES IDX 13 16 22 17 14 18 20 19 15 20 18 21 23 22 21 24 16 26 17 27
REMARK SMILES IDX 19 29
REMARK H PARENT 6 12 1 15 23 23 21 25 17 28 19 30
REMARK Flexibility Score: inf
ROOT
ATOM      1  O   UNL     1     -26.688  53.628  33.420  1.00  0.00    -0.310 OA
ENDROOT
BRANCH   1   2
ATOM      2  C   UNL     1     -26.913  54.859  34.079  1.00  0.00     0.316 C 
ATOM      3  C   UNL     1     -27.208  57.701  34.154  1.00  0.00     0.018 C 
ATOM      4  C   UNL     1     -28.153  56.941  33.605  1.00  0.00     0.186 C 
ATOM      5  C   UNL     1     -25.835  57.160  34.471  1.00  0.00     0.061 C 
ATOM      6  O   UNL     1     -27.940  55.578  33.394  1.00  0.00    -0.472 OA
ATOM      7  C   UNL     1     -25.605  55.681  34.082  1.00  0.00     0.096 C 
ATOM      8  C   UNL     1     -25.508  57.238  35.972  1.00  0.00     0.145 C 
ATOM      9  C   UNL     1     -24.682  55.203  35.165  1.00  0.00    -0.036 C 
ATOM     10  C   UNL     1     -24.660  56.036  36.200  1.00  0.00     0.007 C 
BRANCH   8  11
ATOM     11  O   UNL     1     -24.788  58.399  36.278  1.00  0.00    -0.388 OA
ATOM     12  H   UNL     1     -24.186  58.161  37.032  1.00  0.00     0.211 HD
ENDBRANCH   8  11
BRANCH   9  13
ATOM     13  C   UNL     1     -24.028  53.848  35.194  1.00  0.00     0.187 C 
BRANCH  13  14
ATOM     14  O   UNL     1     -24.846  52.908  35.835  1.00  0.00    -0.392 OA
ATOM     15  H   UNL     1     -24.352  52.601  36.640  1.00  0.00     0.211 HD
ENDBRANCH  13  14
ENDBRANCH   9  13
ENDBRANCH   1   2
BRANCH   1  16
ATOM     16  C   UNL     1     -27.665  52.664  33.778  1.00  0.00     0.286 C 
ATOM     17  C   UNL     1     -28.491  52.278  32.520  1.00  0.00     0.202 C 
ATOM     18  O   UNL     1     -27.032  51.554  34.410  1.00  0.00    -0.341 OA
ATOM     19  C   UNL     1     -28.886  50.793  32.604  1.00  0.00     0.179 C 
ATOM     20  C   UNL     1     -26.490  50.645  33.465  1.00  0.00     0.178 C 
ATOM     21  C   UNL     1     -27.622  49.903  32.699  1.00  0.00     0.177 C 
BRANCH  17  22
ATOM     22  O   UNL     1     -29.640  53.085  32.444  1.00  0.00    -0.385 OA
ATOM     23  H   UNL     1     -29.700  53.584  33.300  1.00  0.00     0.211 HD
ENDBRANCH  17  22
BRANCH  19  24
ATOM     24  O   UNL     1     -29.711  50.403  31.532  1.00  0.00    -0.387 OA
ATOM     25  H   UNL     1     -29.343  49.563  31.151  1.00  0.00     0.211 HD
ENDBRANCH  19  24
BRANCH  20  26
ATOM     26  C   UNL     1     -25.561  49.654  34.189  1.00  0.00     0.191 C 
BRANCH  26  27
ATOM     27  O   UNL     1     -25.406  49.996  35.541  1.00  0.00    -0.394 OA
ATOM     28  H   UNL     1     -25.382  50.989  35.580  1.00  0.00     0.210 HD
ENDBRANCH  26  27
ENDBRANCH  20  26
BRANCH  21  29
ATOM     29  O   UNL     1     -27.171  49.566  31.409  1.00  0.00    -0.387 OA
ATOM     30  H   UNL     1     -26.473  48.867  31.517  1.00  0.00     0.211 HD
ENDBRANCH  21  29
ENDBRANCH   1  16
TORSDOF 10
ENDMDL
MODEL 9
REMARK VINA RESULT:    -3.410      2.347      7.137
REMARK INTER + INTRA:          -6.301
REMARK INTER:                  -4.800
REMARK INTRA:                  -1.501
REMARK UNBOUND:                -1.495
REMARK SMILES OCC1=C[C@@H](O)[C@@H]2C=CO[C@@H](O[C@@H]3O[C@@H](CO)[C@H](O)[C@H](O)[C@H]3O)[C@H]12
REMARK SMILES IDX 12 1 11 2 8 3 9 4 7 5 10 6 24 7 5 8 3 9 4 10 6 11 2 13 1 14
REMARK SMILES IDX 13 16 22 17 14 18 20 19 15 20 18 21 23 22 21 24 16 26 17 27
REMARK SMILES IDX 19 29
REMARK H PARENT 6 12 1 15 23 23 21 25 17 28 19 30
REMARK Flexibility Score: inf
ROOT
ATOM      1  O   UNL     1     -25.690  49.210  42.926  1.00  0.00    -0.310 OA
ENDROOT
BRANCH   1   2
ATOM      2  C   UNL     1     -26.779  48.308  42.952  1.00  0.00     0.316 C 
ATOM      3  C   UNL     1     -27.941  45.710  43.221  1.00  0.00     0.018 C 
ATOM      4  C   UNL     1     -27.437  46.336  44.283  1.00  0.00     0.186 C 
ATOM      5  C   UNL     1     -27.658  46.177  41.814  1.00  0.00     0.061 C 
ATOM      6  O   UNL     1     -26.704  47.514  44.136  1.00  0.00    -0.472 OA
ATOM      7  C   UNL     1     -26.719  47.401  41.703  1.00  0.00     0.096 C 
ATOM      8  C   UNL     1     -28.938  46.580  41.063  1.00  0.00     0.145 C 
ATOM      9  C   UNL     1     -27.265  48.118  40.502  1.00  0.00    -0.036 C 
ATOM     10  C   UNL     1     -28.481  47.689  40.180  1.00  0.00     0.007 C 
BRANCH   8  11
ATOM     11  O   UNL     1     -29.430  45.522  40.287  1.00  0.00    -0.388 OA
ATOM     12  H   UNL     1     -30.032  45.001  40.881  1.00  0.00     0.211 HD
ENDBRANCH   8  11
BRANCH   9  13
ATOM     13  C   UNL     1     -26.630  49.323  39.863  1.00  0.00     0.187 C 
BRANCH  13  14
ATOM     14  O   UNL     1     -27.152  50.508  40.397  1.00  0.00    -0.392 OA
ATOM     15  H   UNL     1     -28.109  50.333  40.599  1.00  0.00     0.211 HD
ENDBRANCH  13  14
ENDBRANCH   9  13
ENDBRANCH   1   2
BRANCH   1  16
ATOM     16  C   UNL     1     -25.946  50.354  43.725  1.00  0.00     0.286 C 
ATOM     17  C   UNL     1     -24.867  50.454  44.838  1.00  0.00     0.202 C 
ATOM     18  O   UNL     1     -26.021  51.510  42.894  1.00  0.00    -0.341 OA
ATOM     19  C   UNL     1     -24.567  51.935  45.126  1.00  0.00     0.179 C 
ATOM     20  C   UNL     1     -24.735  52.023  42.583  1.00  0.00     0.178 C 
ATOM     21  C   UNL     1     -24.068  52.645  43.843  1.00  0.00     0.177 C 
BRANCH  17  22
ATOM     22  O   UNL     1     -25.330  49.814  46.002  1.00  0.00    -0.385 OA
ATOM     23  H   UNL     1     -24.606  49.880  46.677  1.00  0.00     0.211 HD
ENDBRANCH  17  22
BRANCH  19  24
ATOM     24  O   UNL     1     -23.658  52.095  46.190  1.00  0.00    -0.387 OA
ATOM     25  H   UNL     1     -22.955  51.399  46.100  1.00  0.00     0.211 HD
ENDBRANCH  19  24
BRANCH  20  26
ATOM     26  C   UNL     1     -24.861  53.056  41.450  1.00  0.00     0.191 C 
BRANCH  26  27
ATOM     27  O   UNL     1     -26.204  53.279  41.112  1.00  0.00    -0.394 OA
ATOM     28  H   UNL     1     -26.203  53.930  40.361  1.00  0.00     0.210 HD
ENDBRANCH  26  27
ENDBRANCH  20  26
BRANCH  21  29
ATOM     29  O   UNL     1     -22.669  52.525  43.739  1.00  0.00    -0.387 OA
ATOM     30  H   UNL     1     -22.380  51.869  44.428  1.00  0.00     0.211 HD
ENDBRANCH  21  29
ENDBRANCH   1  16
TORSDOF 10
ENDMDL
