MODEL 1
REMARK VINA RESULT:    -4.486      0.000      0.000
REMARK INTER + INTRA:         -10.100
REMARK INTER:                  -8.419
REMARK INTRA:                  -1.680
REMARK UNBOUND:                -1.680
REMARK SMILES O=C([O-])CCCCCCCCCCCCCCC(=O)[O-]
REMARK SMILES IDX 10 1 9 2 8 3 7 4 6 5 5 6 4 7 2 8 1 9 3 10 11 11 12 12 13 13
REMARK SMILES IDX 14 14 15 15 16 16 17 17 18 18 19 19 20 20
REMARK H PARENT
REMARK Flexibility Score: inf
ROOT
ATOM      1  C   UNL     1      13.387  16.261  24.607  1.00  0.00     0.000 C 
ENDROOT
BRANCH   1   2
ATOM      2  C   UNL     1      12.701  14.946  24.217  1.00  0.00     0.000 C 
BRANCH   2   3
ATOM      3  C   UNL     1      11.173  15.087  24.262  1.00  0.00     0.000 C 
BRANCH   3   4
ATOM      4  C   UNL     1      10.532  15.067  22.866  1.00  0.00     0.000 C 
BRANCH   4   5
ATOM      5  C   UNL     1       9.688  13.804  22.621  1.00  0.00     0.000 C 
BRANCH   5   6
ATOM      6  C   UNL     1       8.227  14.129  22.269  1.00  0.00     0.006 C 
BRANCH   6   7
ATOM      7  C   UNL     1       7.223  13.381  23.157  1.00  0.00     0.053 C 
BRANCH   7   8
ATOM      8  C   UNL     1       6.683  12.184  22.441  1.00  0.00     0.041 C 
ATOM      9  O   UNL     1       5.901  11.392  23.030  1.00  0.00    -0.550 OA
ATOM     10  O   UNL     1       7.078  11.917  21.135  1.00  0.00    -0.550 OA
ENDBRANCH   7   8
ENDBRANCH   6   7
ENDBRANCH   5   6
ENDBRANCH   4   5
ENDBRANCH   3   4
ENDBRANCH   2   3
ENDBRANCH   1   2
BRANCH   1  11
ATOM     11  C   UNL     1      12.681  16.916  25.803  1.00  0.00     0.000 C 
BRANCH  11  12
ATOM     12  C   UNL     1      12.634  18.449  25.699  1.00  0.00     0.000 C 
BRANCH  12  13
ATOM     13  C   UNL     1      11.442  18.949  24.865  1.00  0.00     0.000 C 
BRANCH  13  14
ATOM     14  C   UNL     1      11.863  19.428  23.465  1.00  0.00     0.000 C 
BRANCH  14  15
ATOM     15  C   UNL     1      11.562  18.386  22.372  1.00  0.00     0.000 C 
BRANCH  15  16
ATOM     16  C   UNL     1      12.772  18.118  21.463  1.00  0.00     0.006 C 
BRANCH  16  17
ATOM     17  C   UNL     1      14.051  18.798  21.964  1.00  0.00     0.053 C 
BRANCH  17  18
ATOM     18  C   UNL     1      14.778  19.444  20.826  1.00  0.00     0.041 C 
ATOM     19  O   UNL     1      15.714  18.833  20.243  1.00  0.00    -0.550 OA
ATOM     20  O   UNL     1      14.454  20.738  20.438  1.00  0.00    -0.550 OA
ENDBRANCH  17  18
ENDBRANCH  16  17
ENDBRANCH  15  16
ENDBRANCH  14  15
ENDBRANCH  13  14
ENDBRANCH  12  13
ENDBRANCH  11  12
ENDBRANCH   1  11
TORSDOF 15
ENDMDL
MODEL 2
REMARK VINA RESULT:    -4.426      1.140      7.835
REMARK INTER + INTRA:          -9.987
REMARK INTER:                  -8.616
REMARK INTRA:                  -1.371
REMARK UNBOUND:                -1.680
REMARK SMILES O=C([O-])CCCCCCCCCCCCCCC(=O)[O-]
REMARK SMILES IDX 10 1 9 2 8 3 7 4 6 5 5 6 4 7 2 8 1 9 3 10 11 11 12 12 13 13
REMARK SMILES IDX 14 14 15 15 16 16 17 17 18 18 19 19 20 20
REMARK H PARENT
REMARK Flexibility Score: inf
ROOT
ATOM      1  C   UNL     1      13.490  16.192  24.525  1.00  0.00     0.000 C 
ENDROOT
BRANCH   1   2
ATOM      2  C   UNL     1      12.837  16.606  25.849  1.00  0.00     0.000 C 
BRANCH   2   3
ATOM      3  C   UNL     1      12.556  18.116  25.876  1.00  0.00     0.000 C 
BRANCH   3   4
ATOM      4  C   UNL     1      13.200  18.862  24.697  1.00  0.00     0.000 C 
BRANCH   4   5
ATOM      5  C   UNL     1      12.170  19.628  23.849  1.00  0.00     0.000 C 
BRANCH   5   6
ATOM      6  C   UNL     1      12.615  19.791  22.386  1.00  0.00     0.006 C 
BRANCH   6   7
ATOM      7  C   UNL     1      14.088  20.199  22.256  1.00  0.00     0.053 C 
BRANCH   7   8
ATOM      8  C   UNL     1      14.831  19.214  21.410  1.00  0.00     0.041 C 
ATOM      9  O   UNL     1      14.454  18.013  21.356  1.00  0.00    -0.550 OA
ATOM     10  O   UNL     1      15.968  19.611  20.716  1.00  0.00    -0.550 OA
ENDBRANCH   7   8
ENDBRANCH   6   7
ENDBRANCH   5   6
ENDBRANCH   4   5
ENDBRANCH   3   4
ENDBRANCH   2   3
ENDBRANCH   1   2
BRANCH   1  11
ATOM     11  C   UNL     1      12.876  14.888  23.994  1.00  0.00     0.000 C 
BRANCH  11  12
ATOM     12  C   UNL     1      11.342  14.873  24.085  1.00  0.00     0.000 C 
BRANCH  12  13
ATOM     13  C   UNL     1      10.673  15.665  22.948  1.00  0.00     0.000 C 
BRANCH  13  14
ATOM     14  C   UNL     1       9.570  14.861  22.240  1.00  0.00     0.000 C 
BRANCH  14  15
ATOM     15  C   UNL     1      10.047  13.461  21.811  1.00  0.00     0.000 C 
BRANCH  15  16
ATOM     16  C   UNL     1       9.143  12.339  22.348  1.00  0.00     0.006 C 
BRANCH  16  17
ATOM     17  C   UNL     1       7.723  12.397  21.773  1.00  0.00     0.053 C 
BRANCH  17  18
ATOM     18  C   UNL     1       6.714  12.450  22.878  1.00  0.00     0.041 C 
ATOM     19  O   UNL     1       5.970  11.459  23.105  1.00  0.00    -0.550 OA
ATOM     20  O   UNL     1       6.564  13.610  23.628  1.00  0.00    -0.550 OA
ENDBRANCH  17  18
ENDBRANCH  16  17
ENDBRANCH  15  16
ENDBRANCH  14  15
ENDBRANCH  13  14
ENDBRANCH  12  13
ENDBRANCH  11  12
ENDBRANCH   1  11
TORSDOF 15
ENDMDL
MODEL 3
REMARK VINA RESULT:    -4.412      2.565      7.403
REMARK INTER + INTRA:          -9.960
REMARK INTER:                  -8.127
REMARK INTRA:                  -1.834
REMARK UNBOUND:                -1.680
REMARK SMILES O=C([O-])CCCCCCCCCCCCCCC(=O)[O-]
REMARK SMILES IDX 10 1 9 2 8 3 7 4 6 5 5 6 4 7 2 8 1 9 3 10 11 11 12 12 13 13
REMARK SMILES IDX 14 14 15 15 16 16 17 17 18 18 19 19 20 20
REMARK H PARENT
REMARK Flexibility Score: inf
ROOT
ATOM      1  C   UNL     1       9.172  14.712  22.629  1.00  0.00     0.000 C 
ENDROOT
BRANCH   1   2
ATOM      2  C   UNL     1      10.365  13.805  22.304  1.00  0.00     0.000 C 
BRANCH   2   3
ATOM      3  C   UNL     1      11.451  13.915  23.383  1.00  0.00     0.000 C 
BRANCH   3   4
ATOM      4  C   UNL     1      11.112  14.952  24.466  1.00  0.00     0.000 C 
BRANCH   4   5
ATOM      5  C   UNL     1      12.329  15.801  24.872  1.00  0.00     0.000 C 
BRANCH   5   6
ATOM      6  C   UNL     1      12.011  17.304  24.919  1.00  0.00     0.006 C 
BRANCH   6   7
ATOM      7  C   UNL     1      11.027  17.736  23.823  1.00  0.00     0.053 C 
BRANCH   7   8
ATOM      8  C   UNL     1      11.766  18.123  22.581  1.00  0.00     0.041 C 
ATOM      9  O   UNL     1      11.530  17.534  21.493  1.00  0.00    -0.550 OA
ATOM     10  O   UNL     1      12.749  19.104  22.633  1.00  0.00    -0.550 OA
ENDBRANCH   7   8
ENDBRANCH   6   7
ENDBRANCH   5   6
ENDBRANCH   4   5
ENDBRANCH   3   4
ENDBRANCH   2   3
ENDBRANCH   1   2
BRANCH   1  11
ATOM     11  C   UNL     1       7.864  14.118  22.084  1.00  0.00     0.000 C 
BRANCH  11  12
ATOM     12  C   UNL     1       6.949  13.579  23.195  1.00  0.00     0.000 C 
BRANCH  12  13
ATOM     13  C   UNL     1       6.574  12.101  22.988  1.00  0.00     0.000 C 
BRANCH  13  14
ATOM     14  C   UNL     1       6.857  11.617  21.556  1.00  0.00     0.000 C 
BRANCH  14  15
ATOM     15  C   UNL     1       7.761  10.370  21.524  1.00  0.00     0.000 C 
BRANCH  15  16
ATOM     16  C   UNL     1       9.053  10.598  20.724  1.00  0.00     0.006 C 
BRANCH  16  17
ATOM     17  C   UNL     1       8.887  11.644  19.616  1.00  0.00     0.053 C 
BRANCH  17  18
ATOM     18  C   UNL     1      10.187  11.867  18.909  1.00  0.00     0.041 C 
ATOM     19  O   UNL     1      11.270  11.849  19.553  1.00  0.00    -0.550 OA
ATOM     20  O   UNL     1      10.201  12.140  17.547  1.00  0.00    -0.550 OA
ENDBRANCH  17  18
ENDBRANCH  16  17
ENDBRANCH  15  16
ENDBRANCH  14  15
ENDBRANCH  13  14
ENDBRANCH  12  13
ENDBRANCH  11  12
ENDBRANCH   1  11
TORSDOF 15
ENDMDL
MODEL 4
REMARK VINA RESULT:    -4.401      1.676      2.452
REMARK INTER + INTRA:          -9.941
REMARK INTER:                  -8.824
REMARK INTRA:                  -1.117
REMARK UNBOUND:                -1.680
REMARK SMILES O=C([O-])CCCCCCCCCCCCCCC(=O)[O-]
REMARK SMILES IDX 10 1 9 2 8 3 7 4 6 5 5 6 4 7 2 8 1 9 3 10 11 11 12 12 13 13
REMARK SMILES IDX 14 14 15 15 16 16 17 17 18 18 19 19 20 20
REMARK H PARENT
REMARK Flexibility Score: inf
ROOT
ATOM      1  C   UNL     1      11.450  15.114  24.469  1.00  0.00     0.000 C 
ENDROOT
BRANCH   1   2
ATOM      2  C   UNL     1      10.840  15.207  23.065  1.00  0.00     0.000 C 
BRANCH   2   3
ATOM      3  C   UNL     1       9.874  14.043  22.806  1.00  0.00     0.000 C 
BRANCH   3   4
ATOM      4  C   UNL     1       8.548  14.498  22.175  1.00  0.00     0.000 C 
BRANCH   4   5
ATOM      5  C   UNL     1       7.618  13.320  21.839  1.00  0.00     0.000 C 
BRANCH   5   6
ATOM      6  C   UNL     1       6.752  12.891  23.034  1.00  0.00     0.006 C 
BRANCH   6   7
ATOM      7  C   UNL     1       6.452  11.386  23.039  1.00  0.00     0.053 C 
BRANCH   7   8
ATOM      8  C   UNL     1       7.672  10.609  22.657  1.00  0.00     0.041 C 
ATOM      9  O   UNL     1       8.631  10.496  23.466  1.00  0.00    -0.550 OA
ATOM     10  O   UNL     1       7.770  10.047  21.389  1.00  0.00    -0.550 OA
ENDBRANCH   7   8
ENDBRANCH   6   7
ENDBRANCH   5   6
ENDBRANCH   4   5
ENDBRANCH   3   4
ENDBRANCH   2   3
ENDBRANCH   1   2
BRANCH   1  11
ATOM     11  C   UNL     1      12.709  15.986  24.581  1.00  0.00     0.000 C 
BRANCH  11  12
ATOM     12  C   UNL     1      12.522  17.182  25.528  1.00  0.00     0.000 C 
BRANCH  12  13
ATOM     13  C   UNL     1      13.217  18.456  25.018  1.00  0.00     0.000 C 
BRANCH  13  14
ATOM     14  C   UNL     1      14.428  18.148  24.121  1.00  0.00     0.000 C 
BRANCH  14  15
ATOM     15  C   UNL     1      14.797  19.328  23.205  1.00  0.00     0.000 C 
BRANCH  15  16
ATOM     16  C   UNL     1      14.781  18.947  21.715  1.00  0.00     0.006 C 
BRANCH  16  17
ATOM     17  C   UNL     1      13.848  17.768  21.416  1.00  0.00     0.053 C 
BRANCH  17  18
ATOM     18  C   UNL     1      12.511  18.262  20.960  1.00  0.00     0.041 C 
ATOM     19  O   UNL     1      11.552  18.338  21.773  1.00  0.00    -0.550 OA
ATOM     20  O   UNL     1      12.311  18.596  19.626  1.00  0.00    -0.550 OA
ENDBRANCH  17  18
ENDBRANCH  16  17
ENDBRANCH  15  16
ENDBRANCH  14  15
ENDBRANCH  13  14
ENDBRANCH  12  13
ENDBRANCH  11  12
ENDBRANCH   1  11
TORSDOF 15
ENDMDL
MODEL 5
REMARK VINA RESULT:    -4.374      1.436      8.031
REMARK INTER + INTRA:          -9.889
REMARK INTER:                  -8.488
REMARK INTRA:                  -1.401
REMARK UNBOUND:                -1.680
REMARK SMILES O=C([O-])CCCCCCCCCCCCCCC(=O)[O-]
REMARK SMILES IDX 10 1 9 2 8 3 7 4 6 5 5 6 4 7 2 8 1 9 3 10 11 11 12 12 13 13
REMARK SMILES IDX 14 14 15 15 16 16 17 17 18 18 19 19 20 20
REMARK H PARENT
REMARK Flexibility Score: inf
ROOT
ATOM      1  C   UNL     1      12.699  16.464  25.381  1.00  0.00     0.000 C 
ENDROOT
BRANCH   1   2
ATOM      2  C   UNL     1      12.899  17.778  24.617  1.00  0.00     0.000 C 
BRANCH   2   3
ATOM      3  C   UNL     1      14.004  17.638  23.560  1.00  0.00     0.000 C 
BRANCH   3   4
ATOM      4  C   UNL     1      13.452  17.349  22.156  1.00  0.00     0.000 C 
BRANCH   4   5
ATOM      5  C   UNL     1      12.033  17.909  21.952  1.00  0.00     0.000 C 
BRANCH   5   6
ATOM      6  C   UNL     1      11.890  18.687  20.633  1.00  0.00     0.006 C 
BRANCH   6   7
ATOM      7  C   UNL     1      11.693  20.193  20.852  1.00  0.00     0.053 C 
BRANCH   7   8
ATOM      8  C   UNL     1      12.832  20.760  21.639  1.00  0.00     0.041 C 
ATOM      9  O   UNL     1      12.623  21.295  22.760  1.00  0.00    -0.550 OA
ATOM     10  O   UNL     1      14.119  20.739  21.115  1.00  0.00    -0.550 OA
ENDBRANCH   7   8
ENDBRANCH   6   7
ENDBRANCH   5   6
ENDBRANCH   4   5
ENDBRANCH   3   4
ENDBRANCH   2   3
ENDBRANCH   1   2
BRANCH   1  11
ATOM     11  C   UNL     1      11.476  15.701  24.851  1.00  0.00     0.000 C 
BRANCH  11  12
ATOM     12  C   UNL     1      11.859  14.443  24.056  1.00  0.00     0.000 C 
BRANCH  12  13
ATOM     13  C   UNL     1      11.214  14.407  22.659  1.00  0.00     0.000 C 
BRANCH  13  14
ATOM     14  C   UNL     1       9.678  14.437  22.718  1.00  0.00     0.000 C 
BRANCH  14  15
ATOM     15  C   UNL     1       9.039  13.217  22.029  1.00  0.00     0.000 C 
BRANCH  15  16
ATOM     16  C   UNL     1       7.512  13.344  21.901  1.00  0.00     0.006 C 
BRANCH  16  17
ATOM     17  C   UNL     1       6.763  12.659  23.050  1.00  0.00     0.053 C 
BRANCH  17  18
ATOM     18  C   UNL     1       6.204  11.345  22.601  1.00  0.00     0.041 C 
ATOM     19  O   UNL     1       6.970  10.451  22.153  1.00  0.00    -0.550 OA
ATOM     20  O   UNL     1       4.833  11.125  22.633  1.00  0.00    -0.550 OA
ENDBRANCH  17  18
ENDBRANCH  16  17
ENDBRANCH  15  16
ENDBRANCH  14  15
ENDBRANCH  13  14
ENDBRANCH  12  13
ENDBRANCH  11  12
ENDBRANCH   1  11
TORSDOF 15
ENDMDL
MODEL 6
REMARK VINA RESULT:    -4.333      2.286      8.072
REMARK INTER + INTRA:          -9.813
REMARK INTER:                  -8.679
REMARK INTRA:                  -1.134
REMARK UNBOUND:                -1.680
REMARK SMILES O=C([O-])CCCCCCCCCCCCCCC(=O)[O-]
REMARK SMILES IDX 10 1 9 2 8 3 7 4 6 5 5 6 4 7 2 8 1 9 3 10 11 11 12 12 13 13
REMARK SMILES IDX 14 14 15 15 16 16 17 17 18 18 19 19 20 20
REMARK H PARENT
REMARK Flexibility Score: inf
ROOT
ATOM      1  C   UNL     1      10.687  14.950  22.621  1.00  0.00     0.000 C 
ENDROOT
BRANCH   1   2
ATOM      2  C   UNL     1      11.704  14.863  23.766  1.00  0.00     0.000 C 
BRANCH   2   3
ATOM      3  C   UNL     1      11.416  15.922  24.840  1.00  0.00     0.000 C 
BRANCH   3   4
ATOM      4  C   UNL     1      12.691  16.425  25.537  1.00  0.00     0.000 C 
BRANCH   4   5
ATOM      5  C   UNL     1      12.599  17.908  25.937  1.00  0.00     0.000 C 
BRANCH   5   6
ATOM      6  C   UNL     1      13.220  18.842  24.887  1.00  0.00     0.006 C 
BRANCH   6   7
ATOM      7  C   UNL     1      14.358  18.178  24.100  1.00  0.00     0.053 C 
BRANCH   7   8
ATOM      8  C   UNL     1      14.093  18.258  22.630  1.00  0.00     0.041 C 
ATOM      9  O   UNL     1      13.884  17.209  21.965  1.00  0.00    -0.550 OA
ATOM     10  O   UNL     1      14.122  19.489  21.984  1.00  0.00    -0.550 OA
ENDBRANCH   7   8
ENDBRANCH   6   7
ENDBRANCH   5   6
ENDBRANCH   4   5
ENDBRANCH   3   4
ENDBRANCH   2   3
ENDBRANCH   1   2
BRANCH   1  11
ATOM     11  C   UNL     1       9.591  13.886  22.778  1.00  0.00     0.000 C 
BRANCH  11  12
ATOM     12  C   UNL     1       8.221  14.364  22.272  1.00  0.00     0.000 C 
BRANCH  12  13
ATOM     13  C   UNL     1       7.049  13.663  22.981  1.00  0.00     0.000 C 
BRANCH  13  14
ATOM     14  C   UNL     1       7.162  12.131  22.929  1.00  0.00     0.000 C 
BRANCH  14  15
ATOM     15  C   UNL     1       6.956  11.574  21.508  1.00  0.00     0.000 C 
BRANCH  15  16
ATOM     16  C   UNL     1       8.163  10.763  21.011  1.00  0.00     0.006 C 
BRANCH  16  17
ATOM     17  C   UNL     1       8.848  11.405  19.798  1.00  0.00     0.053 C 
BRANCH  17  18
ATOM     18  C   UNL     1       9.455  10.353  18.924  1.00  0.00     0.041 C 
ATOM     19  O   UNL     1      10.617   9.926  19.159  1.00  0.00    -0.550 OA
ATOM     20  O   UNL     1       8.757   9.875  17.822  1.00  0.00    -0.550 OA
ENDBRANCH  17  18
ENDBRANCH  16  17
ENDBRANCH  15  16
ENDBRANCH  14  15
ENDBRANCH  13  14
ENDBRANCH  12  13
ENDBRANCH  11  12
ENDBRANCH   1  11
TORSDOF 15
ENDMDL
MODEL 7
REMARK VINA RESULT:    -4.318      1.678      2.344
REMARK INTER + INTRA:          -9.784
REMARK INTER:                  -7.686
REMARK INTRA:                  -2.098
REMARK UNBOUND:                -1.680
REMARK SMILES O=C([O-])CCCCCCCCCCCCCCC(=O)[O-]
REMARK SMILES IDX 10 1 9 2 8 3 7 4 6 5 5 6 4 7 2 8 1 9 3 10 11 11 12 12 13 13
REMARK SMILES IDX 14 14 15 15 16 16 17 17 18 18 19 19 20 20
REMARK H PARENT
REMARK Flexibility Score: inf
ROOT
ATOM      1  C   UNL     1      11.551  15.395  24.615  1.00  0.00     0.000 C 
ENDROOT
BRANCH   1   2
ATOM      2  C   UNL     1      12.994  14.893  24.480  1.00  0.00     0.000 C 
BRANCH   2   3
ATOM      3  C   UNL     1      13.126  13.900  23.316  1.00  0.00     0.000 C 
BRANCH   3   4
ATOM      4  C   UNL     1      12.038  14.090  22.246  1.00  0.00     0.000 C 
BRANCH   4   5
ATOM      5  C   UNL     1      11.377  12.763  21.834  1.00  0.00     0.000 C 
BRANCH   5   6
ATOM      6  C   UNL     1       9.998  12.564  22.484  1.00  0.00     0.006 C 
BRANCH   6   7
ATOM      7  C   UNL     1       9.081  13.782  22.314  1.00  0.00     0.053 C 
BRANCH   7   8
ATOM      8  C   UNL     1       7.647  13.357  22.288  1.00  0.00     0.041 C 
ATOM      9  O   UNL     1       7.190  12.731  21.295  1.00  0.00    -0.550 OA
ATOM     10  O   UNL     1       6.802  13.692  23.340  1.00  0.00    -0.550 OA
ENDBRANCH   7   8
ENDBRANCH   6   7
ENDBRANCH   5   6
ENDBRANCH   4   5
ENDBRANCH   3   4
ENDBRANCH   2   3
ENDBRANCH   1   2
BRANCH   1  11
ATOM     11  C   UNL     1      11.514  16.918  24.805  1.00  0.00     0.000 C 
BRANCH  11  12
ATOM     12  C   UNL     1      12.655  17.434  25.697  1.00  0.00     0.000 C 
BRANCH  12  13
ATOM     13  C   UNL     1      13.527  18.487  24.993  1.00  0.00     0.000 C 
BRANCH  13  14
ATOM     14  C   UNL     1      13.051  18.784  23.561  1.00  0.00     0.000 C 
BRANCH  14  15
ATOM     15  C   UNL     1      13.969  18.158  22.494  1.00  0.00     0.000 C 
BRANCH  15  16
ATOM     16  C   UNL     1      13.186  17.374  21.429  1.00  0.00     0.006 C 
BRANCH  16  17
ATOM     17  C   UNL     1      11.768  17.917  21.217  1.00  0.00     0.053 C 
BRANCH  17  18
ATOM     18  C   UNL     1      11.779  19.030  20.217  1.00  0.00     0.041 C 
ATOM     19  O   UNL     1      11.243  20.136  20.494  1.00  0.00    -0.550 OA
ATOM     20  O   UNL     1      12.341  18.833  18.962  1.00  0.00    -0.550 OA
ENDBRANCH  17  18
ENDBRANCH  16  17
ENDBRANCH  15  16
ENDBRANCH  14  15
ENDBRANCH  13  14
ENDBRANCH  12  13
ENDBRANCH  11  12
ENDBRANCH   1  11
TORSDOF 15
ENDMDL
MODEL 8
REMARK VINA RESULT:    -4.310      1.621      3.145
REMARK INTER + INTRA:          -9.769
REMARK INTER:                  -8.308
REMARK INTRA:                  -1.461
REMARK UNBOUND:                -1.680
REMARK SMILES O=C([O-])CCCCCCCCCCCCCCC(=O)[O-]
REMARK SMILES IDX 10 1 9 2 8 3 7 4 6 5 5 6 4 7 2 8 1 9 3 10 11 11 12 12 13 13
REMARK SMILES IDX 14 14 15 15 16 16 17 17 18 18 19 19 20 20
REMARK H PARENT
REMARK Flexibility Score: inf
ROOT
ATOM      1  C   UNL     1      10.513  15.361  22.600  1.00  0.00     0.000 C 
ENDROOT
BRANCH   1   2
ATOM      2  C   UNL     1       9.618  14.154  22.298  1.00  0.00     0.000 C 
BRANCH   2   3
ATOM      3  C   UNL     1      10.426  13.015  21.659  1.00  0.00     0.000 C 
BRANCH   3   4
ATOM      4  C   UNL     1       9.605  11.727  21.486  1.00  0.00     0.000 C 
BRANCH   4   5
ATOM      5  C   UNL     1       9.659  10.820  22.729  1.00  0.00     0.000 C 
BRANCH   5   6
ATOM      6  C   UNL     1       8.265  10.370  23.192  1.00  0.00     0.006 C 
BRANCH   6   7
ATOM      7  C   UNL     1       7.181  10.612  22.133  1.00  0.00     0.053 C 
BRANCH   7   8
ATOM      8  C   UNL     1       6.080  11.456  22.695  1.00  0.00     0.041 C 
ATOM      9  O   UNL     1       6.342  12.567  23.228  1.00  0.00    -0.550 OA
ATOM     10  O   UNL     1       4.769  10.995  22.671  1.00  0.00    -0.550 OA
ENDBRANCH   7   8
ENDBRANCH   6   7
ENDBRANCH   5   6
ENDBRANCH   4   5
ENDBRANCH   3   4
ENDBRANCH   2   3
ENDBRANCH   1   2
BRANCH   1  11
ATOM     11  C   UNL     1      11.990  15.029  22.341  1.00  0.00     0.000 C 
BRANCH  11  12
ATOM     12  C   UNL     1      12.849  15.111  23.613  1.00  0.00     0.000 C 
BRANCH  12  13
ATOM     13  C   UNL     1      12.015  15.400  24.873  1.00  0.00     0.000 C 
BRANCH  13  14
ATOM     14  C   UNL     1      12.548  16.603  25.669  1.00  0.00     0.000 C 
BRANCH  14  15
ATOM     15  C   UNL     1      12.238  17.946  24.983  1.00  0.00     0.000 C 
BRANCH  15  16
ATOM     16  C   UNL     1      13.465  18.868  24.908  1.00  0.00     0.006 C 
BRANCH  16  17
ATOM     17  C   UNL     1      14.425  18.484  23.774  1.00  0.00     0.053 C 
BRANCH  17  18
ATOM     18  C   UNL     1      13.987  19.108  22.486  1.00  0.00     0.041 C 
ATOM     19  O   UNL     1      14.328  20.288  22.205  1.00  0.00    -0.550 OA
ATOM     20  O   UNL     1      13.166  18.403  21.615  1.00  0.00    -0.550 OA
ENDBRANCH  17  18
ENDBRANCH  16  17
ENDBRANCH  15  16
ENDBRANCH  14  15
ENDBRANCH  13  14
ENDBRANCH  12  13
ENDBRANCH  11  12
ENDBRANCH   1  11
TORSDOF 15
ENDMDL
MODEL 9
REMARK VINA RESULT:    -4.277      1.329      7.674
REMARK INTER + INTRA:          -9.708
REMARK INTER:                  -8.396
REMARK INTRA:                  -1.312
REMARK UNBOUND:                -1.680
REMARK SMILES O=C([O-])CCCCCCCCCCCCCCC(=O)[O-]
REMARK SMILES IDX 10 1 9 2 8 3 7 4 6 5 5 6 4 7 2 8 1 9 3 10 11 11 12 12 13 13
REMARK SMILES IDX 14 14 15 15 16 16 17 17 18 18 19 19 20 20
REMARK H PARENT
REMARK Flexibility Score: inf
ROOT
ATOM      1  C   UNL     1      12.762  16.681  25.319  1.00  0.00     0.000 C 
ENDROOT
BRANCH   1   2
ATOM      2  C   UNL     1      12.497  17.977  26.095  1.00  0.00     0.000 C 
BRANCH   2   3
ATOM      3  C   UNL     1      11.714  18.983  25.238  1.00  0.00     0.000 C 
BRANCH   3   4
ATOM      4  C   UNL     1      12.512  19.477  24.021  1.00  0.00     0.000 C 
BRANCH   4   5
ATOM      5  C   UNL     1      11.829  19.131  22.686  1.00  0.00     0.000 C 
BRANCH   5   6
ATOM      6  C   UNL     1      12.838  18.879  21.555  1.00  0.00     0.006 C 
BRANCH   6   7
ATOM      7  C   UNL     1      13.616  17.569  21.735  1.00  0.00     0.053 C 
BRANCH   7   8
ATOM      8  C   UNL     1      14.054  17.035  20.408  1.00  0.00     0.041 C 
ATOM      9  O   UNL     1      14.417  15.834  20.296  1.00  0.00    -0.550 OA
ATOM     10  O   UNL     1      14.107  17.876  19.302  1.00  0.00    -0.550 OA
ENDBRANCH   7   8
ENDBRANCH   6   7
ENDBRANCH   5   6
ENDBRANCH   4   5
ENDBRANCH   3   4
ENDBRANCH   2   3
ENDBRANCH   1   2
BRANCH   1  11
ATOM     11  C   UNL     1      11.455  16.094  24.767  1.00  0.00     0.000 C 
BRANCH  11  12
ATOM     12  C   UNL     1      11.668  14.768  24.019  1.00  0.00     0.000 C 
BRANCH  12  13
ATOM     13  C   UNL     1      11.306  14.865  22.527  1.00  0.00     0.000 C 
BRANCH  13  14
ATOM     14  C   UNL     1      10.266  13.815  22.103  1.00  0.00     0.000 C 
BRANCH  14  15
ATOM     15  C   UNL     1       8.823  14.262  22.407  1.00  0.00     0.000 C 
BRANCH  15  16
ATOM     16  C   UNL     1       7.777  13.242  21.929  1.00  0.00     0.006 C 
BRANCH  16  17
ATOM     17  C   UNL     1       6.828  12.799  23.050  1.00  0.00     0.053 C 
BRANCH  17  18
ATOM     18  C   UNL     1       6.574  11.326  22.967  1.00  0.00     0.041 C 
ATOM     19  O   UNL     1       5.393  10.889  22.915  1.00  0.00    -0.550 OA
ATOM     20  O   UNL     1       7.638  10.434  22.992  1.00  0.00    -0.550 OA
ENDBRANCH  17  18
ENDBRANCH  16  17
ENDBRANCH  15  16
ENDBRANCH  14  15
ENDBRANCH  13  14
ENDBRANCH  12  13
ENDBRANCH  11  12
ENDBRANCH   1  11
TORSDOF 15
ENDMDL
