MODEL 1
REMARK VINA RESULT:    87.643      0.000      0.000
REMARK INTER + INTRA:          92.766
REMARK INTER:                  92.766
REMARK INTRA:                   0.000
REMARK UNBOUND:                 0.000
REMARK SMILES CC1(C)[C@H](O)CC[C@]2(C)[C@H]1CC[C@]1(C)[C@H]2C=CC2=C(O)C(=O)C(=O)[C@]21C
REMARK SMILES IDX 1 1 2 2 10 3 11 4 12 5 13 6 15 7 8 8 7 9 6 10 4 11 9 12
REMARK SMILES IDX 16 13 17 14 18 15 19 16 21 17 22 18 23 19 24 20 25 21 26 22
REMARK SMILES IDX 14 23 3 24 5 25 20 27
REMARK H PARENT 5 26 20 28
REMARK Flexibility Score: inf
ROOT
ATOM      1  C   UNL     1      20.196   7.877  17.280  1.00  0.00     0.014 C 
ATOM      2  C   UNL     1      21.064   8.845  18.137  1.00  0.00    -0.006 C 
ATOM      3  C   UNL     1      20.211  10.125  18.573  1.00  0.00     0.004 C 
ATOM      4  C   UNL     1      21.065  11.382  18.875  1.00  0.00     0.005 C 
ATOM      5  C   UNL     1      20.200  12.634  18.725  1.00  0.00     0.009 C 
ATOM      6  C   UNL     1      18.971  12.668  19.692  1.00  0.00    -0.009 C 
ATOM      7  C   UNL     1      18.753  11.289  20.466  1.00  0.00     0.025 C 
ATOM      8  C   UNL     1      19.170   9.898  19.755  1.00  0.00    -0.022 C 
ATOM      9  C   UNL     1      19.827   9.015  20.878  1.00  0.00     0.010 C 
ATOM     10  C   UNL     1      20.549   7.758  20.393  1.00  0.00     0.033 C 
ATOM     11  C   UNL     1      21.640   8.115  19.381  1.00  0.00     0.120 C 
ATOM     12  C   UNL     1      17.914   9.127  19.205  1.00  0.00     0.012 C 
ATOM     13  C   UNL     1      17.414  11.230  21.207  1.00  0.00    -0.022 C 
ATOM     14  C   UNL     1      16.390  12.064  20.971  1.00  0.00     0.005 C 
ATOM     15  C   UNL     1      16.526  13.138  19.976  1.00  0.00     0.012 C 
ATOM     16  C   UNL     1      15.901  14.319  20.016  1.00  0.00     0.171 C 
ATOM     17  C   UNL     1      16.520  15.226  19.077  1.00  0.00     0.264 C 
ATOM     18  O   UNL     1      16.191  16.423  18.870  1.00  0.00    -0.282 OA
ATOM     19  C   UNL     1      17.620  14.521  18.454  1.00  0.00     0.217 C 
ATOM     20  O   UNL     1      18.399  15.011  17.596  1.00  0.00    -0.289 OA
ATOM     21  C   UNL     1      17.637  13.096  18.949  1.00  0.00     0.069 C 
ATOM     22  C   UNL     1      17.176  12.175  17.794  1.00  0.00     0.026 C 
ATOM     23  C   UNL     1      19.320  13.755  20.773  1.00  0.00     0.013 C 
ATOM     24  C   UNL     1      22.256   9.234  17.216  1.00  0.00     0.014 C 
ENDROOT
BRANCH  11  25
ATOM     25  O   UNL     1      22.319   6.947  18.992  1.00  0.00    -0.393 OA
ATOM     26  H   UNL     1      23.146   7.235  18.522  1.00  0.00     0.210 HD
ENDBRANCH  11  25
BRANCH  16  27
ATOM     27  O   UNL     1      14.866  14.675  20.881  1.00  0.00    -0.504 OA
ATOM     28  H   UNL     1      14.942  15.453  21.523  1.00  0.00     0.293 HD
ENDBRANCH  16  27
TORSDOF 2
ENDMDL
MODEL 2
REMARK VINA RESULT:    90.437      2.337      3.350
REMARK INTER + INTRA:          95.724
REMARK INTER:                  95.724
REMARK INTRA:                   0.000
REMARK UNBOUND:                 0.000
REMARK SMILES CC1(C)[C@H](O)CC[C@]2(C)[C@H]1CC[C@]1(C)[C@H]2C=CC2=C(O)C(=O)C(=O)[C@]21C
REMARK SMILES IDX 1 1 2 2 10 3 11 4 12 5 13 6 15 7 8 8 7 9 6 10 4 11 9 12
REMARK SMILES IDX 16 13 17 14 18 15 19 16 21 17 22 18 23 19 24 20 25 21 26 22
REMARK SMILES IDX 14 23 3 24 5 25 20 27
REMARK H PARENT 5 26 20 28
REMARK Flexibility Score: inf
ROOT
ATOM      1  C   UNL     1      15.664   8.505  21.261  1.00  0.00     0.014 C 
ATOM      2  C   UNL     1      16.783   8.446  20.179  1.00  0.00    -0.006 C 
ATOM      3  C   UNL     1      17.280   9.919  19.807  1.00  0.00     0.004 C 
ATOM      4  C   UNL     1      17.901  10.039  18.393  1.00  0.00     0.005 C 
ATOM      5  C   UNL     1      17.820  11.491  17.923  1.00  0.00     0.009 C 
ATOM      6  C   UNL     1      18.585  12.494  18.848  1.00  0.00    -0.009 C 
ATOM      7  C   UNL     1      19.092  11.823  20.205  1.00  0.00     0.025 C 
ATOM      8  C   UNL     1      18.243  10.617  20.866  1.00  0.00    -0.022 C 
ATOM      9  C   UNL     1      19.299   9.576  21.389  1.00  0.00     0.010 C 
ATOM     10  C   UNL     1      18.738   8.219  21.812  1.00  0.00     0.033 C 
ATOM     11  C   UNL     1      17.969   7.566  20.660  1.00  0.00     0.120 C 
ATOM     12  C   UNL     1      17.396  11.108  22.097  1.00  0.00     0.012 C 
ATOM     13  C   UNL     1      19.605  12.849  21.220  1.00  0.00    -0.022 C 
ATOM     14  C   UNL     1      19.351  14.165  21.147  1.00  0.00     0.005 C 
ATOM     15  C   UNL     1      18.568  14.706  20.027  1.00  0.00     0.012 C 
ATOM     16  C   UNL     1      18.699  15.931  19.507  1.00  0.00     0.171 C 
ATOM     17  C   UNL     1      18.017  15.992  18.234  1.00  0.00     0.264 C 
ATOM     18  O   UNL     1      17.953  16.990  17.470  1.00  0.00    -0.282 OA
ATOM     19  C   UNL     1      17.464  14.679  17.976  1.00  0.00     0.217 C 
ATOM     20  O   UNL     1      16.821  14.357  16.944  1.00  0.00    -0.289 OA
ATOM     21  C   UNL     1      17.726  13.790  19.166  1.00  0.00     0.069 C 
ATOM     22  C   UNL     1      16.385  13.554  19.901  1.00  0.00     0.026 C 
ATOM     23  C   UNL     1      19.863  12.920  18.038  1.00  0.00     0.013 C 
ATOM     24  C   UNL     1      16.124   7.736  18.962  1.00  0.00     0.014 C 
ENDROOT
BRANCH  11  25
ATOM     25  O   UNL     1      17.509   6.300  21.062  1.00  0.00    -0.393 OA
ATOM     26  H   UNL     1      17.385   5.761  20.237  1.00  0.00     0.210 HD
ENDBRANCH  11  25
BRANCH  16  27
ATOM     27  O   UNL     1      19.443  16.980  20.046  1.00  0.00    -0.504 OA
ATOM     28  H   UNL     1      19.131  17.505  20.853  1.00  0.00     0.293 HD
ENDBRANCH  16  27
TORSDOF 2
ENDMDL
