MODEL 1
REMARK VINA RESULT:    -5.614      0.000      0.000
REMARK INTER + INTRA:          -7.319
REMARK INTER:                  -7.911
REMARK INTRA:                   0.592
REMARK UNBOUND:                 0.592
REMARK SMILES CC1=CCC(=C(C)C)C(=O)CC(C)=CCC1
REMARK SMILES IDX 12 1 14 2 13 3 15 4 16 5 2 6 1 7 3 8 11 10 9 11 10 12 5 13
REMARK SMILES IDX 6 14 7 15 8 16 4 17
REMARK H PARENT
REMARK Flexibility Score: 60.00
ROOT
ATOM      1  C   UNL     1      -6.135 -14.358  28.818  1.00  0.00    -0.070 C 
ATOM      2  C   UNL     1      -5.734 -14.751  27.589  1.00  0.00    -0.027 C 
ATOM      3  C   UNL     1      -7.186 -15.183  29.516  1.00  0.00     0.039 C 
ENDROOT
BRANCH   2   4
ATOM      4  C   UNL     1      -4.768 -14.006  26.693  1.00  0.00     0.032 C 
BRANCH   4   5
ATOM      5  C   UNL     1      -3.340 -13.860  27.260  1.00  0.00     0.034 C 
BRANCH   5   6
ATOM      6  C   UNL     1      -2.916 -12.414  27.446  1.00  0.00    -0.077 C 
ATOM      7  C   UNL     1      -3.000 -11.500  26.249  1.00  0.00     0.039 C 
ATOM      8  C   UNL     1      -2.403 -11.909  28.595  1.00  0.00    -0.023 CG0
ATOM      9  G   UNL     1      -2.243 -12.630  29.918  1.00  0.00     0.000 G0
ENDBRANCH   5   6
ENDBRANCH   4   5
ENDBRANCH   2   4
BRANCH   1  10
ATOM     10  C   UNL     1      -5.651 -13.085  29.481  1.00  0.00     0.111 C 
BRANCH  10  11
ATOM     11  C   UNL     1      -4.634 -13.370  30.556  1.00  0.00     0.163 C 
ATOM     12  O   UNL     1      -4.813 -14.379  31.289  1.00  0.00    -0.294 OA
BRANCH  11  13
ATOM     13  C   UNL     1      -3.470 -12.472  30.815  1.00  0.00    -0.002 C 
ATOM     14  C   UNL     1      -3.545 -11.484  31.758  1.00  0.00    -0.069 C 
ATOM     15  C   UNL     1      -4.743 -11.366  32.676  1.00  0.00     0.039 C 
ATOM     16  C   UNL     1      -2.446 -10.460  31.934  1.00  0.00     0.039 C 
BRANCH  13  17
ATOM     17  C   UNL     1      -2.248 -12.642  29.927  1.00  0.00     0.066 CG0
ATOM     18  G   UNL     1      -2.390 -11.914  28.605  1.00  0.00     0.000 G0
ENDBRANCH  13  17
ENDBRANCH  11  13
ENDBRANCH  10  11
ENDBRANCH   1  10
TORSDOF 0
ENDMDL
MODEL 2
REMARK VINA RESULT:    -5.497      1.942      3.999
REMARK INTER + INTRA:          -7.155
REMARK INTER:                  -7.741
REMARK INTRA:                   0.587
REMARK UNBOUND:                 0.592
REMARK SMILES CC1=CCC(=C(C)C)C(=O)CC(C)=CCC1
REMARK SMILES IDX 12 1 14 2 13 3 15 4 16 5 2 6 1 7 3 8 11 10 9 11 10 12 5 13
REMARK SMILES IDX 6 14 7 15 8 16 4 17
REMARK H PARENT
REMARK Flexibility Score: 60.00
ROOT
ATOM      1  C   UNL     1      -0.671 -13.100  30.738  1.00  0.00    -0.070 C 
ATOM      2  C   UNL     1      -0.566 -13.158  29.391  1.00  0.00    -0.027 C 
ATOM      3  C   UNL     1       0.471 -12.489  31.509  1.00  0.00     0.039 C 
ENDROOT
BRANCH   2   4
ATOM      4  C   UNL     1      -1.555 -13.817  28.455  1.00  0.00     0.032 C 
BRANCH   4   5
ATOM      5  C   UNL     1      -2.530 -12.848  27.757  1.00  0.00     0.034 C 
BRANCH   5   6
ATOM      6  C   UNL     1      -3.938 -13.402  27.634  1.00  0.00    -0.077 C 
ATOM      7  C   UNL     1      -4.258 -14.246  26.425  1.00  0.00     0.039 C 
ATOM      8  C   UNL     1      -4.945 -13.133  28.503  1.00  0.00    -0.023 CG0
ATOM      9  G   UNL     1      -4.854 -12.331  29.786  1.00  0.00     0.000 G0
ENDBRANCH   5   6
ENDBRANCH   4   5
ENDBRANCH   2   4
BRANCH   1  10
ATOM     10  C   UNL     1      -1.831 -13.699  31.506  1.00  0.00     0.111 C 
BRANCH  10  11
ATOM     11  C   UNL     1      -3.019 -12.773  31.531  1.00  0.00     0.163 C 
ATOM     12  O   UNL     1      -2.888 -11.655  32.099  1.00  0.00    -0.294 OA
BRANCH  11  13
ATOM     13  C   UNL     1      -4.346 -13.158  30.966  1.00  0.00    -0.002 C 
ATOM     14  C   UNL     1      -5.015 -14.255  31.435  1.00  0.00    -0.069 C 
ATOM     15  C   UNL     1      -4.516 -15.020  32.642  1.00  0.00     0.039 C 
ATOM     16  C   UNL     1      -6.280 -14.762  30.780  1.00  0.00     0.039 C 
BRANCH  13  17
ATOM     17  C   UNL     1      -4.867 -12.342  29.794  1.00  0.00     0.066 CG0
ATOM     18  G   UNL     1      -4.925 -13.147  28.511  1.00  0.00     0.000 G0
ENDBRANCH  13  17
ENDBRANCH  11  13
ENDBRANCH  10  11
ENDBRANCH   1  10
TORSDOF 0
ENDMDL
MODEL 3
REMARK VINA RESULT:    -5.306      1.828      4.320
REMARK INTER + INTRA:          -6.885
REMARK INTER:                  -7.148
REMARK INTRA:                   0.263
REMARK UNBOUND:                 0.592
REMARK SMILES CC1=CCC(=C(C)C)C(=O)CC(C)=CCC1
REMARK SMILES IDX 12 1 14 2 13 3 15 4 16 5 2 6 1 7 3 8 11 10 9 11 10 12 5 13
REMARK SMILES IDX 6 14 7 15 8 16 4 17
REMARK H PARENT
REMARK Flexibility Score: 60.00
ROOT
ATOM      1  C   UNL     1      -3.621 -11.446  27.549  1.00  0.00    -0.070 C 
ATOM      2  C   UNL     1      -2.993 -10.404  28.138  1.00  0.00    -0.027 C 
ATOM      3  C   UNL     1      -3.338 -11.710  26.093  1.00  0.00     0.039 C 
ENDROOT
BRANCH   2   4
ATOM      4  C   UNL     1      -3.217  -9.921  29.555  1.00  0.00     0.032 C 
BRANCH   4   5
ATOM      5  C   UNL     1      -2.582 -10.805  30.648  1.00  0.00     0.034 C 
BRANCH   5   6
ATOM      6  C   UNL     1      -3.538 -11.135  31.779  1.00  0.00    -0.077 C 
ATOM      7  C   UNL     1      -4.044  -9.994  32.627  1.00  0.00     0.039 C 
ATOM      8  C   UNL     1      -3.913 -12.393  32.122  1.00  0.00    -0.023 CG0
ATOM      9  G   UNL     1      -3.548 -13.681  31.410  1.00  0.00     0.000 G0
ENDBRANCH   5   6
ENDBRANCH   4   5
ENDBRANCH   2   4
BRANCH   1  10
ATOM     10  C   UNL     1      -4.657 -12.296  28.256  1.00  0.00     0.111 C 
BRANCH  10  11
ATOM     11  C   UNL     1      -4.036 -13.503  28.908  1.00  0.00     0.163 C 
ATOM     12  O   UNL     1      -3.157 -14.139  28.266  1.00  0.00    -0.294 OA
BRANCH  11  13
ATOM     13  C   UNL     1      -4.466 -14.000  30.249  1.00  0.00    -0.002 C 
ATOM     14  C   UNL     1      -5.675 -14.619  30.411  1.00  0.00    -0.069 C 
ATOM     15  C   UNL     1      -6.544 -14.964  29.221  1.00  0.00     0.039 C 
ATOM     16  C   UNL     1      -6.208 -14.989  31.777  1.00  0.00     0.039 C 
BRANCH  13  17
ATOM     17  C   UNL     1      -3.553 -13.702  31.427  1.00  0.00     0.066 CG0
ATOM     18  G   UNL     1      -3.908 -12.400  32.118  1.00  0.00     0.000 G0
ENDBRANCH  13  17
ENDBRANCH  11  13
ENDBRANCH  10  11
ENDBRANCH   1  10
TORSDOF 0
ENDMDL
MODEL 4
REMARK VINA RESULT:    -5.209      1.992      3.552
REMARK INTER + INTRA:          -6.749
REMARK INTER:                  -7.220
REMARK INTRA:                   0.472
REMARK UNBOUND:                 0.592
REMARK SMILES CC1=CCC(=C(C)C)C(=O)CC(C)=CCC1
REMARK SMILES IDX 12 1 14 2 13 3 15 4 16 5 2 6 1 7 3 8 11 10 9 11 10 12 5 13
REMARK SMILES IDX 6 14 7 15 8 16 4 17
REMARK H PARENT
REMARK Flexibility Score: 60.00
ROOT
ATOM      1  C   UNL     1      -4.280 -10.601  31.726  1.00  0.00    -0.070 C 
ATOM      2  C   UNL     1      -4.923 -10.166  30.620  1.00  0.00    -0.027 C 
ATOM      3  C   UNL     1      -4.946 -10.385  33.061  1.00  0.00     0.039 C 
ENDROOT
BRANCH   2   4
ATOM      4  C   UNL     1      -4.379 -10.202  29.208  1.00  0.00     0.032 C 
BRANCH   4   5
ATOM      5  C   UNL     1      -4.761 -11.458  28.399  1.00  0.00     0.034 C 
BRANCH   5   6
ATOM      6  C   UNL     1      -3.622 -11.990  27.548  1.00  0.00    -0.077 C 
ATOM      7  C   UNL     1      -3.358 -11.313  26.226  1.00  0.00     0.039 C 
ATOM      8  C   UNL     1      -2.872 -13.075  27.864  1.00  0.00    -0.023 CG0
ATOM      9  G   UNL     1      -2.945 -13.896  29.136  1.00  0.00     0.000 G0
ENDBRANCH   5   6
ENDBRANCH   4   5
ENDBRANCH   2   4
BRANCH   1  10
ATOM     10  C   UNL     1      -2.891 -11.204  31.695  1.00  0.00     0.111 C 
BRANCH  10  11
ATOM     11  C   UNL     1      -2.932 -12.680  31.393  1.00  0.00     0.163 C 
ATOM     12  O   UNL     1      -3.615 -13.421  32.151  1.00  0.00    -0.294 OA
BRANCH  11  13
ATOM     13  C   UNL     1      -2.151 -13.291  30.277  1.00  0.00    -0.002 C 
ATOM     14  C   UNL     1      -0.785 -13.220  30.258  1.00  0.00    -0.069 C 
ATOM     15  C   UNL     1      -0.013 -12.663  31.434  1.00  0.00     0.039 C 
ATOM     16  C   UNL     1       0.024 -13.687  29.068  1.00  0.00     0.039 C 
BRANCH  13  17
ATOM     17  C   UNL     1      -2.939 -13.904  29.131  1.00  0.00     0.066 CG0
ATOM     18  G   UNL     1      -2.866 -13.067  27.869  1.00  0.00     0.000 G0
ENDBRANCH  13  17
ENDBRANCH  11  13
ENDBRANCH  10  11
ENDBRANCH   1  10
TORSDOF 0
ENDMDL
MODEL 5
REMARK VINA RESULT:    -5.179      1.785      3.814
REMARK INTER + INTRA:          -6.706
REMARK INTER:                  -7.847
REMARK INTRA:                   1.141
REMARK UNBOUND:                 0.592
REMARK SMILES CC1=CCC(=C(C)C)C(=O)CC(C)=CCC1
REMARK SMILES IDX 12 1 14 2 13 3 15 4 16 5 2 6 1 7 3 8 11 10 9 11 10 12 5 13
REMARK SMILES IDX 6 14 7 15 8 16 4 17
REMARK H PARENT
REMARK Flexibility Score: 60.00
ROOT
ATOM      1  C   UNL     1      -5.422 -13.633  29.162  1.00  0.00    -0.070 C 
ATOM      2  C   UNL     1      -5.401 -14.329  30.320  1.00  0.00    -0.027 C 
ATOM      3  C   UNL     1      -5.581 -14.405  27.877  1.00  0.00     0.039 C 
ENDROOT
BRANCH   2   4
ATOM      4  C   UNL     1      -5.154 -13.749  31.696  1.00  0.00     0.032 C 
BRANCH   4   5
ATOM      5  C   UNL     1      -3.778 -13.078  31.879  1.00  0.00     0.034 C 
BRANCH   5   6
ATOM      6  C   UNL     1      -3.867 -11.574  32.063  1.00  0.00    -0.077 C 
ATOM      7  C   UNL     1      -4.846 -11.048  33.083  1.00  0.00     0.039 C 
ATOM      8  C   UNL     1      -3.176 -10.670  31.324  1.00  0.00    -0.023 CG0
ATOM      9  G   UNL     1      -2.133 -10.963  30.264  1.00  0.00     0.000 G0
ENDBRANCH   5   6
ENDBRANCH   4   5
ENDBRANCH   2   4
BRANCH   1  10
ATOM     10  C   UNL     1      -5.201 -12.136  29.089  1.00  0.00     0.111 C 
BRANCH  10  11
ATOM     11  C   UNL     1      -3.848 -11.800  28.518  1.00  0.00     0.163 C 
ATOM     12  O   UNL     1      -3.794 -11.352  27.342  1.00  0.00    -0.294 OA
BRANCH  11  13
ATOM     13  C   UNL     1      -2.580 -12.038  29.271  1.00  0.00    -0.002 C 
ATOM     14  C   UNL     1      -1.899 -13.217  29.141  1.00  0.00    -0.069 C 
ATOM     15  C   UNL     1      -2.315 -14.253  28.119  1.00  0.00     0.039 C 
ATOM     16  C   UNL     1      -0.704 -13.550  30.006  1.00  0.00     0.039 C 
BRANCH  13  17
ATOM     17  C   UNL     1      -2.139 -10.960  30.249  1.00  0.00     0.066 CG0
ATOM     18  G   UNL     1      -3.186 -10.681  31.310  1.00  0.00     0.000 G0
ENDBRANCH  13  17
ENDBRANCH  11  13
ENDBRANCH  10  11
ENDBRANCH   1  10
TORSDOF 0
ENDMDL
MODEL 6
REMARK VINA RESULT:    -5.171      1.609      3.041
REMARK INTER + INTRA:          -6.695
REMARK INTER:                  -7.119
REMARK INTRA:                   0.424
REMARK UNBOUND:                 0.592
REMARK SMILES CC1=CCC(=C(C)C)C(=O)CC(C)=CCC1
REMARK SMILES IDX 12 1 14 2 13 3 15 4 16 5 2 6 1 7 3 8 11 10 9 11 10 12 5 13
REMARK SMILES IDX 6 14 7 15 8 16 4 17
REMARK H PARENT
REMARK Flexibility Score: 60.00
ROOT
ATOM      1  C   UNL     1      -4.748 -13.553  31.273  1.00  0.00    -0.070 C 
ATOM      2  C   UNL     1      -5.526 -14.350  30.507  1.00  0.00    -0.027 C 
ATOM      3  C   UNL     1      -4.117 -14.154  32.503  1.00  0.00     0.039 C 
ENDROOT
BRANCH   2   4
ATOM      4  C   UNL     1      -6.320 -13.910  29.295  1.00  0.00     0.032 C 
BRANCH   4   5
ATOM      5  C   UNL     1      -5.587 -12.923  28.364  1.00  0.00     0.034 C 
BRANCH   5   6
ATOM      6  C   UNL     1      -4.449 -13.565  27.591  1.00  0.00    -0.077 C 
ATOM      7  C   UNL     1      -4.762 -14.789  26.767  1.00  0.00     0.039 C 
ATOM      8  C   UNL     1      -3.158 -13.152  27.647  1.00  0.00    -0.023 CG0
ATOM      9  G   UNL     1      -2.615 -11.946  28.388  1.00  0.00     0.000 G0
ENDBRANCH   5   6
ENDBRANCH   4   5
ENDBRANCH   2   4
BRANCH   1  10
ATOM     10  C   UNL     1      -4.559 -12.073  31.006  1.00  0.00     0.111 C 
BRANCH  10  11
ATOM     11  C   UNL     1      -3.101 -11.710  30.900  1.00  0.00     0.163 C 
ATOM     12  O   UNL     1      -2.634 -10.881  31.728  1.00  0.00    -0.294 OA
BRANCH  11  13
ATOM     13  C   UNL     1      -2.219 -12.246  29.822  1.00  0.00    -0.002 C 
ATOM     14  C   UNL     1      -1.062 -12.909  30.129  1.00  0.00    -0.069 C 
ATOM     15  C   UNL     1      -0.717 -13.260  31.560  1.00  0.00     0.039 C 
ATOM     16  C   UNL     1      -0.071 -13.324  29.065  1.00  0.00     0.039 C 
BRANCH  13  17
ATOM     17  C   UNL     1      -2.611 -11.941  28.385  1.00  0.00     0.066 CG0
ATOM     18  G   UNL     1      -3.161 -13.157  27.666  1.00  0.00     0.000 G0
ENDBRANCH  13  17
ENDBRANCH  11  13
ENDBRANCH  10  11
ENDBRANCH   1  10
TORSDOF 0
ENDMDL
MODEL 7
REMARK VINA RESULT:    -5.052      1.735      3.908
REMARK INTER + INTRA:          -6.526
REMARK INTER:                  -7.396
REMARK INTRA:                   0.870
REMARK UNBOUND:                 0.592
REMARK SMILES CC1=CCC(=C(C)C)C(=O)CC(C)=CCC1
REMARK SMILES IDX 12 1 14 2 13 3 15 4 16 5 2 6 1 7 3 8 11 10 9 11 10 12 5 13
REMARK SMILES IDX 6 14 7 15 8 16 4 17
REMARK H PARENT
REMARK Flexibility Score: 60.00
ROOT
ATOM      1  C   UNL     1      -3.401 -13.082  31.600  1.00  0.00    -0.070 C 
ATOM      2  C   UNL     1      -2.161 -13.605  31.727  1.00  0.00    -0.027 C 
ATOM      3  C   UNL     1      -4.579 -14.009  31.761  1.00  0.00     0.039 C 
ENDROOT
BRANCH   2   4
ATOM      4  C   UNL     1      -0.861 -12.862  31.506  1.00  0.00     0.032 C 
BRANCH   4   5
ATOM      5  C   UNL     1      -0.709 -12.226  30.108  1.00  0.00     0.034 C 
BRANCH   5   6
ATOM      6  C   UNL     1      -0.959 -13.205  28.976  1.00  0.00    -0.077 C 
ATOM      7  C   UNL     1      -0.027 -14.384  28.848  1.00  0.00     0.039 C 
ATOM      8  C   UNL     1      -1.922 -13.054  28.032  1.00  0.00    -0.023 CG0
ATOM      9  G   UNL     1      -2.976 -11.966  27.969  1.00  0.00     0.000 G0
ENDBRANCH   5   6
ENDBRANCH   4   5
ENDBRANCH   2   4
BRANCH   1  10
ATOM     10  C   UNL     1      -3.658 -11.639  31.214  1.00  0.00     0.111 C 
BRANCH  10  11
ATOM     11  C   UNL     1      -4.520 -11.539  29.982  1.00  0.00     0.163 C 
ATOM     12  O   UNL     1      -5.545 -10.807  30.033  1.00  0.00    -0.294 OA
BRANCH  11  13
ATOM     13  C   UNL     1      -4.236 -12.317  28.740  1.00  0.00    -0.002 C 
ATOM     14  C   UNL     1      -5.039 -13.361  28.369  1.00  0.00    -0.069 C 
ATOM     15  C   UNL     1      -6.324 -13.662  29.110  1.00  0.00     0.039 C 
ATOM     16  C   UNL     1      -4.690 -14.266  27.209  1.00  0.00     0.039 C 
BRANCH  13  17
ATOM     17  C   UNL     1      -2.974 -11.962  27.970  1.00  0.00     0.066 CG0
ATOM     18  G   UNL     1      -1.931 -13.059  28.035  1.00  0.00     0.000 G0
ENDBRANCH  13  17
ENDBRANCH  11  13
ENDBRANCH  10  11
ENDBRANCH   1  10
TORSDOF 0
ENDMDL
MODEL 8
REMARK VINA RESULT:    -5.029      2.073      5.063
REMARK INTER + INTRA:          -6.495
REMARK INTER:                  -6.772
REMARK INTRA:                   0.277
REMARK UNBOUND:                 0.592
REMARK SMILES CC1=CCC(=C(C)C)C(=O)CC(C)=CCC1
REMARK SMILES IDX 12 1 14 2 13 3 15 4 16 5 2 6 1 7 3 8 11 10 9 11 10 12 5 13
REMARK SMILES IDX 6 14 7 15 8 16 4 17
REMARK H PARENT
REMARK Flexibility Score: 60.00
ROOT
ATOM      1  C   UNL     1      -1.399 -13.326  29.242  1.00  0.00    -0.070 C 
ATOM      2  C   UNL     1      -1.145 -13.625  30.536  1.00  0.00    -0.027 C 
ATOM      3  C   UNL     1      -0.984 -14.325  28.192  1.00  0.00     0.039 C 
ENDROOT
BRANCH   2   4
ATOM      4  C   UNL     1      -1.395 -12.715  31.719  1.00  0.00     0.032 C 
BRANCH   4   5
ATOM      5  C   UNL     1      -2.869 -12.306  31.921  1.00  0.00     0.034 C 
BRANCH   5   6
ATOM      6  C   UNL     1      -3.834 -13.472  31.807  1.00  0.00    -0.077 C 
ATOM      7  C   UNL     1      -3.725 -14.575  32.830  1.00  0.00     0.039 C 
ATOM      8  C   UNL     1      -4.739 -13.622  30.808  1.00  0.00    -0.023 CG0
ATOM      9  G   UNL     1      -5.035 -12.642  29.690  1.00  0.00     0.000 G0
ENDBRANCH   5   6
ENDBRANCH   4   5
ENDBRANCH   2   4
BRANCH   1  10
ATOM     10  C   UNL     1      -1.991 -12.004  28.796  1.00  0.00     0.111 C 
BRANCH  10  11
ATOM     11  C   UNL     1      -3.209 -12.204  27.932  1.00  0.00     0.163 C 
ATOM     12  O   UNL     1      -3.250 -11.613  26.820  1.00  0.00    -0.294 OA
BRANCH  11  13
ATOM     13  C   UNL     1      -4.379 -13.019  28.374  1.00  0.00    -0.002 C 
ATOM     14  C   UNL     1      -4.879 -14.014  27.578  1.00  0.00    -0.069 C 
ATOM     15  C   UNL     1      -4.175 -14.426  26.304  1.00  0.00     0.039 C 
ATOM     16  C   UNL     1      -6.155 -14.749  27.923  1.00  0.00     0.039 C 
BRANCH  13  17
ATOM     17  C   UNL     1      -5.039 -12.635  29.688  1.00  0.00     0.066 CG0
ATOM     18  G   UNL     1      -4.726 -13.617  30.800  1.00  0.00     0.000 G0
ENDBRANCH  13  17
ENDBRANCH  11  13
ENDBRANCH  10  11
ENDBRANCH   1  10
TORSDOF 0
ENDMDL
MODEL 9
REMARK VINA RESULT:    -4.846      1.761      3.148
REMARK INTER + INTRA:          -6.237
REMARK INTER:                  -6.558
REMARK INTRA:                   0.321
REMARK UNBOUND:                 0.592
REMARK SMILES CC1=CCC(=C(C)C)C(=O)CC(C)=CCC1
REMARK SMILES IDX 12 1 14 2 13 3 15 4 16 5 2 6 1 7 3 8 11 10 9 11 10 12 5 13
REMARK SMILES IDX 6 14 7 15 8 16 4 17
REMARK H PARENT
REMARK Flexibility Score: 60.00
ROOT
ATOM      1  C   UNL     1      -1.725 -12.743  30.562  1.00  0.00    -0.070 C 
ATOM      2  C   UNL     1      -1.304 -12.857  29.283  1.00  0.00    -0.027 C 
ATOM      3  C   UNL     1      -1.227 -11.570  31.367  1.00  0.00     0.039 C 
ENDROOT
BRANCH   2   4
ATOM      4  C   UNL     1      -1.612 -14.008  28.350  1.00  0.00     0.032 C 
BRANCH   4   5
ATOM      5  C   UNL     1      -3.036 -13.998  27.757  1.00  0.00     0.034 C 
BRANCH   5   6
ATOM      6  C   UNL     1      -3.578 -12.599  27.529  1.00  0.00    -0.077 C 
ATOM      7  C   UNL     1      -2.992 -11.795  26.395  1.00  0.00     0.039 C 
ATOM      8  C   UNL     1      -4.503 -11.998  28.319  1.00  0.00    -0.023 CG0
ATOM      9  G   UNL     1      -5.237 -12.613  29.494  1.00  0.00     0.000 G0
ENDBRANCH   5   6
ENDBRANCH   4   5
ENDBRANCH   2   4
BRANCH   1  10
ATOM     10  C   UNL     1      -2.591 -13.781  31.247  1.00  0.00     0.111 C 
BRANCH  10  11
ATOM     11  C   UNL     1      -3.926 -13.212  31.650  1.00  0.00     0.163 C 
ATOM     12  O   UNL     1      -4.482 -13.677  32.682  1.00  0.00    -0.294 OA
BRANCH  11  13
ATOM     13  C   UNL     1      -4.631 -12.173  30.843  1.00  0.00    -0.002 C 
ATOM     14  C   UNL     1      -4.801 -10.906  31.328  1.00  0.00    -0.069 C 
ATOM     15  C   UNL     1      -4.148 -10.469  32.622  1.00  0.00     0.039 C 
ATOM     16  C   UNL     1      -5.644  -9.879  30.606  1.00  0.00     0.039 C 
BRANCH  13  17
ATOM     17  C   UNL     1      -5.228 -12.611  29.514  1.00  0.00     0.066 CG0
ATOM     18  G   UNL     1      -4.508 -11.997  28.329  1.00  0.00     0.000 G0
ENDBRANCH  13  17
ENDBRANCH  11  13
ENDBRANCH  10  11
ENDBRANCH   1  10
TORSDOF 0
ENDMDL
