MODEL 1
REMARK VINA RESULT:    -3.394      0.000      0.000
REMARK INTER + INTRA:          -6.401
REMARK INTER:                  -5.180
REMARK INTRA:                  -1.221
REMARK UNBOUND:                -1.221
REMARK SMILES CCCCCCCCCCC(=O)[O-]
REMARK SMILES IDX 7 1 8 2 9 3 10 4 11 5 12 6 13 7 6 8 5 9 4 10 3 11 2 12 1 13
REMARK H PARENT
REMARK Flexibility Score: inf
ROOT
ATOM      1  C   UNL     1     164.335 155.405 166.413  1.00  0.00     0.000 C 
ENDROOT
BRANCH   1   2
ATOM      2  C   UNL     1     163.206 156.442 166.454  1.00  0.00     0.000 C 
BRANCH   2   3
ATOM      3  C   UNL     1     163.252 157.356 165.224  1.00  0.00     0.006 C 
BRANCH   3   4
ATOM      4  C   UNL     1     161.858 157.892 164.885  1.00  0.00     0.053 C 
BRANCH   4   5
ATOM      5  C   UNL     1     161.756 159.344 165.232  1.00  0.00     0.041 C 
ATOM      6  O   UNL     1     162.798 160.024 165.421  1.00  0.00    -0.550 OA
ATOM      7  O   UNL     1     160.509 159.933 165.395  1.00  0.00    -0.550 OA
ENDBRANCH   4   5
ENDBRANCH   3   4
ENDBRANCH   2   3
ENDBRANCH   1   2
BRANCH   1   8
ATOM      8  C   UNL     1     165.066 155.443 165.062  1.00  0.00     0.000 C 
BRANCH   8   9
ATOM      9  C   UNL     1     165.263 154.044 164.454  1.00  0.00    -0.000 C 
BRANCH   9  10
ATOM     10  C   UNL     1     164.362 153.796 163.234  1.00  0.00    -0.000 C 
BRANCH  10  11
ATOM     11  C   UNL     1     162.988 153.264 163.666  1.00  0.00    -0.000 C 
BRANCH  11  12
ATOM     12  C   UNL     1     161.874 154.311 163.514  1.00  0.00    -0.003 C 
ATOM     13  C   UNL     1     162.085 155.228 162.308  1.00  0.00     0.004 C 
ENDBRANCH  11  12
ENDBRANCH  10  11
ENDBRANCH   9  10
ENDBRANCH   8   9
ENDBRANCH   1   8
TORSDOF 9
ENDMDL
MODEL 2
REMARK VINA RESULT:    -3.359     10.299     12.198
REMARK INTER + INTRA:          -6.347
REMARK INTER:                  -5.016
REMARK INTRA:                  -1.331
REMARK UNBOUND:                -1.221
REMARK SMILES CCCCCCCCCCC(=O)[O-]
REMARK SMILES IDX 7 1 8 2 9 3 10 4 11 5 12 6 13 7 6 8 5 9 4 10 3 11 2 12 1 13
REMARK H PARENT
REMARK Flexibility Score: inf
ROOT
ATOM      1  C   UNL     1     152.479 158.624 160.222  1.00  0.00     0.000 C 
ENDROOT
BRANCH   1   2
ATOM      2  C   UNL     1     153.561 158.724 161.305  1.00  0.00     0.000 C 
BRANCH   2   3
ATOM      3  C   UNL     1     153.581 160.122 161.935  1.00  0.00     0.006 C 
BRANCH   3   4
ATOM      4  C   UNL     1     153.179 160.064 163.413  1.00  0.00     0.053 C 
BRANCH   4   5
ATOM      5  C   UNL     1     154.085 159.142 164.166  1.00  0.00     0.041 C 
ATOM      6  O   UNL     1     155.310 159.409 164.278  1.00  0.00    -0.550 OA
ATOM      7  O   UNL     1     153.585 157.963 164.703  1.00  0.00    -0.550 OA
ENDBRANCH   4   5
ENDBRANCH   3   4
ENDBRANCH   2   3
ENDBRANCH   1   2
BRANCH   1   8
ATOM      8  C   UNL     1     151.732 159.957 160.068  1.00  0.00     0.000 C 
BRANCH   8   9
ATOM      9  C   UNL     1     150.204 159.786 160.084  1.00  0.00    -0.000 C 
BRANCH   9  10
ATOM     10  C   UNL     1     149.761 158.486 160.773  1.00  0.00    -0.000 C 
BRANCH  10  11
ATOM     11  C   UNL     1     149.154 158.776 162.154  1.00  0.00    -0.000 C 
BRANCH  11  12
ATOM     12  C   UNL     1     150.012 158.227 163.304  1.00  0.00    -0.003 C 
ATOM     13  C   UNL     1     150.702 156.909 162.950  1.00  0.00     0.004 C 
ENDBRANCH  11  12
ENDBRANCH  10  11
ENDBRANCH   9  10
ENDBRANCH   8   9
ENDBRANCH   1   8
TORSDOF 9
ENDMDL
MODEL 3
REMARK VINA RESULT:    -3.282     12.198     14.589
REMARK INTER + INTRA:          -6.230
REMARK INTER:                  -5.030
REMARK INTRA:                  -1.200
REMARK UNBOUND:                -1.221
REMARK SMILES CCCCCCCCCCC(=O)[O-]
REMARK SMILES IDX 7 1 8 2 9 3 10 4 11 5 12 6 13 7 6 8 5 9 4 10 3 11 2 12 1 13
REMARK H PARENT
REMARK Flexibility Score: inf
ROOT
ATOM      1  C   UNL     1     160.136 156.843 150.459  1.00  0.00     0.000 C 
ENDROOT
BRANCH   1   2
ATOM      2  C   UNL     1     159.491 155.514 150.045  1.00  0.00     0.000 C 
BRANCH   2   3
ATOM      3  C   UNL     1     159.361 154.568 151.245  1.00  0.00     0.006 C 
BRANCH   3   4
ATOM      4  C   UNL     1     159.724 155.284 152.550  1.00  0.00     0.053 C 
BRANCH   4   5
ATOM      5  C   UNL     1     160.665 154.450 153.361  1.00  0.00     0.041 C 
ATOM      6  O   UNL     1     161.014 154.825 154.511  1.00  0.00    -0.550 OA
ATOM      7  O   UNL     1     161.195 153.283 152.828  1.00  0.00    -0.550 OA
ENDBRANCH   4   5
ENDBRANCH   3   4
ENDBRANCH   2   3
ENDBRANCH   1   2
BRANCH   1   8
ATOM      8  C   UNL     1     159.360 158.034 149.878  1.00  0.00     0.000 C 
BRANCH   8   9
ATOM      9  C   UNL     1     158.496 158.749 150.930  1.00  0.00    -0.000 C 
BRANCH   9  10
ATOM     10  C   UNL     1     157.003 158.411 150.800  1.00  0.00    -0.000 C 
BRANCH  10  11
ATOM     11  C   UNL     1     156.648 157.169 151.630  1.00  0.00    -0.000 C 
BRANCH  11  12
ATOM     12  C   UNL     1     155.768 156.174 150.859  1.00  0.00    -0.003 C 
ATOM     13  C   UNL     1     155.632 154.828 151.571  1.00  0.00     0.004 C 
ENDBRANCH  11  12
ENDBRANCH  10  11
ENDBRANCH   9  10
ENDBRANCH   8   9
ENDBRANCH   1   8
TORSDOF 9
ENDMDL
MODEL 4
REMARK VINA RESULT:    -3.266     12.919     14.679
REMARK INTER + INTRA:          -6.206
REMARK INTER:                  -5.472
REMARK INTRA:                  -0.733
REMARK UNBOUND:                -1.221
REMARK SMILES CCCCCCCCCCC(=O)[O-]
REMARK SMILES IDX 7 1 8 2 9 3 10 4 11 5 12 6 13 7 6 8 5 9 4 10 3 11 2 12 1 13
REMARK H PARENT
REMARK Flexibility Score: inf
ROOT
ATOM      1  C   UNL     1     156.870 158.263 150.802  1.00  0.00     0.000 C 
ENDROOT
BRANCH   1   2
ATOM      2  C   UNL     1     156.616 156.764 150.594  1.00  0.00     0.000 C 
BRANCH   2   3
ATOM      3  C   UNL     1     156.988 155.964 151.848  1.00  0.00     0.006 C 
BRANCH   3   4
ATOM      4  C   UNL     1     158.098 154.953 151.546  1.00  0.00     0.053 C 
BRANCH   4   5
ATOM      5  C   UNL     1     159.090 154.914 152.665  1.00  0.00     0.041 C 
ATOM      6  O   UNL     1     158.699 154.970 153.861  1.00  0.00    -0.550 OA
ATOM      7  O   UNL     1     160.450 154.863 152.387  1.00  0.00    -0.550 OA
ENDBRANCH   4   5
ENDBRANCH   3   4
ENDBRANCH   2   3
ENDBRANCH   1   2
BRANCH   1   8
ATOM      8  C   UNL     1     158.279 158.508 151.362  1.00  0.00     0.000 C 
BRANCH   8   9
ATOM      9  C   UNL     1     159.309 158.818 150.262  1.00  0.00    -0.000 C 
BRANCH   9  10
ATOM     10  C   UNL     1     160.364 157.712 150.110  1.00  0.00    -0.000 C 
BRANCH  10  11
ATOM     11  C   UNL     1     161.554 157.956 151.050  1.00  0.00    -0.000 C 
BRANCH  11  12
ATOM     12  C   UNL     1     162.746 158.611 150.337  1.00  0.00    -0.003 C 
ATOM     13  C   UNL     1     163.757 159.217 151.311  1.00  0.00     0.004 C 
ENDBRANCH  11  12
ENDBRANCH  10  11
ENDBRANCH   9  10
ENDBRANCH   8   9
ENDBRANCH   1   8
TORSDOF 9
ENDMDL
MODEL 5
REMARK VINA RESULT:    -3.249     11.770     14.135
REMARK INTER + INTRA:          -6.180
REMARK INTER:                  -4.808
REMARK INTRA:                  -1.372
REMARK UNBOUND:                -1.221
REMARK SMILES CCCCCCCCCCC(=O)[O-]
REMARK SMILES IDX 7 1 8 2 9 3 10 4 11 5 12 6 13 7 6 8 5 9 4 10 3 11 2 12 1 13
REMARK H PARENT
REMARK Flexibility Score: inf
ROOT
ATOM      1  C   UNL     1     159.893 156.063 151.736  1.00  0.00     0.000 C 
ENDROOT
BRANCH   1   2
ATOM      2  C   UNL     1     159.412 154.649 151.387  1.00  0.00     0.000 C 
BRANCH   2   3
ATOM      3  C   UNL     1     158.206 154.251 152.246  1.00  0.00     0.006 C 
BRANCH   3   4
ATOM      4  C   UNL     1     158.011 155.231 153.407  1.00  0.00     0.053 C 
BRANCH   4   5
ATOM      5  C   UNL     1     158.335 154.571 154.710  1.00  0.00     0.041 C 
ATOM      6  O   UNL     1     159.527 154.281 154.994  1.00  0.00    -0.550 OA
ATOM      7  O   UNL     1     157.316 154.231 155.590  1.00  0.00    -0.550 OA
ENDBRANCH   4   5
ENDBRANCH   3   4
ENDBRANCH   2   3
ENDBRANCH   1   2
BRANCH   1   8
ATOM      8  C   UNL     1     160.224 156.860 150.465  1.00  0.00     0.000 C 
BRANCH   8   9
ATOM      9  C   UNL     1     159.008 157.619 149.907  1.00  0.00    -0.000 C 
BRANCH   9  10
ATOM     10  C   UNL     1     158.281 158.443 150.980  1.00  0.00    -0.000 C 
BRANCH  10  11
ATOM     11  C   UNL     1     156.800 158.044 151.068  1.00  0.00    -0.000 C 
BRANCH  11  12
ATOM     12  C   UNL     1     156.459 156.840 150.177  1.00  0.00    -0.003 C 
ATOM     13  C   UNL     1     155.338 155.975 150.755  1.00  0.00     0.004 C 
ENDBRANCH  11  12
ENDBRANCH  10  11
ENDBRANCH   9  10
ENDBRANCH   8   9
ENDBRANCH   1   8
TORSDOF 9
ENDMDL
MODEL 6
REMARK VINA RESULT:    -3.229      3.098      5.133
REMARK INTER + INTRA:          -6.148
REMARK INTER:                  -5.400
REMARK INTRA:                  -0.748
REMARK UNBOUND:                -1.221
REMARK SMILES CCCCCCCCCCC(=O)[O-]
REMARK SMILES IDX 7 1 8 2 9 3 10 4 11 5 12 6 13 7 6 8 5 9 4 10 3 11 2 12 1 13
REMARK H PARENT
REMARK Flexibility Score: inf
ROOT
ATOM      1  C   UNL     1     164.107 155.804 165.827  1.00  0.00     0.000 C 
ENDROOT
BRANCH   1   2
ATOM      2  C   UNL     1     163.677 154.896 164.668  1.00  0.00     0.000 C 
BRANCH   2   3
ATOM      3  C   UNL     1     162.149 154.843 164.548  1.00  0.00     0.006 C 
BRANCH   3   4
ATOM      4  C   UNL     1     161.723 154.098 163.279  1.00  0.00     0.053 C 
BRANCH   4   5
ATOM      5  C   UNL     1     160.536 153.230 163.554  1.00  0.00     0.041 C 
ATOM      6  O   UNL     1     160.578 151.999 163.292  1.00  0.00    -0.550 OA
ATOM      7  O   UNL     1     159.368 153.789 164.054  1.00  0.00    -0.550 OA
ENDBRANCH   4   5
ENDBRANCH   3   4
ENDBRANCH   2   3
ENDBRANCH   1   2
BRANCH   1   8
ATOM      8  C   UNL     1     162.888 156.291 166.624  1.00  0.00     0.000 C 
BRANCH   8   9
ATOM      9  C   UNL     1     162.823 157.823 166.733  1.00  0.00    -0.000 C 
BRANCH   9  10
ATOM     10  C   UNL     1     162.642 158.507 165.369  1.00  0.00    -0.000 C 
BRANCH  10  11
ATOM     11  C   UNL     1     161.676 159.697 165.476  1.00  0.00    -0.000 C 
BRANCH  11  12
ATOM     12  C   UNL     1     160.290 159.386 164.894  1.00  0.00    -0.003 C 
ATOM     13  C   UNL     1     160.186 157.967 164.335  1.00  0.00     0.004 C 
ENDBRANCH  11  12
ENDBRANCH  10  11
ENDBRANCH   9  10
ENDBRANCH   8   9
ENDBRANCH   1   8
TORSDOF 9
ENDMDL
MODEL 7
REMARK VINA RESULT:    -3.149      3.208      5.568
REMARK INTER + INTRA:          -6.026
REMARK INTER:                  -5.337
REMARK INTRA:                  -0.689
REMARK UNBOUND:                -1.221
REMARK SMILES CCCCCCCCCCC(=O)[O-]
REMARK SMILES IDX 7 1 8 2 9 3 10 4 11 5 12 6 13 7 6 8 5 9 4 10 3 11 2 12 1 13
REMARK H PARENT
REMARK Flexibility Score: inf
ROOT
ATOM      1  C   UNL     1     162.451 156.427 166.545  1.00  0.00     0.000 C 
ENDROOT
BRANCH   1   2
ATOM      2  C   UNL     1     162.040 155.986 165.135  1.00  0.00     0.000 C 
BRANCH   2   3
ATOM      3  C   UNL     1     162.933 154.845 164.633  1.00  0.00     0.006 C 
BRANCH   3   4
ATOM      4  C   UNL     1     164.394 155.077 165.030  1.00  0.00     0.053 C 
BRANCH   4   5
ATOM      5  C   UNL     1     165.297 154.167 164.258  1.00  0.00     0.041 C 
ATOM      6  O   UNL     1     164.983 152.960 164.085  1.00  0.00    -0.550 OA
ATOM      7  O   UNL     1     166.510 154.639 163.774  1.00  0.00    -0.550 OA
ENDBRANCH   4   5
ENDBRANCH   3   4
ENDBRANCH   2   3
ENDBRANCH   1   2
BRANCH   1   8
ATOM      8  C   UNL     1     162.815 157.919 166.569  1.00  0.00     0.000 C 
BRANCH   8   9
ATOM      9  C   UNL     1     162.350 158.663 165.307  1.00  0.00    -0.000 C 
BRANCH   9  10
ATOM     10  C   UNL     1     161.770 160.052 165.617  1.00  0.00    -0.000 C 
BRANCH  10  11
ATOM     11  C   UNL     1     160.238 160.044 165.498  1.00  0.00    -0.000 C 
BRANCH  11  12
ATOM     12  C   UNL     1     159.720 158.901 164.614  1.00  0.00    -0.003 C 
ATOM     13  C   UNL     1     158.564 159.329 163.708  1.00  0.00     0.004 C 
ENDBRANCH  11  12
ENDBRANCH  10  11
ENDBRANCH   9  10
ENDBRANCH   8   9
ENDBRANCH   1   8
TORSDOF 9
ENDMDL
MODEL 8
REMARK VINA RESULT:    -3.147      1.374      2.997
REMARK INTER + INTRA:          -6.023
REMARK INTER:                  -4.736
REMARK INTRA:                  -1.287
REMARK UNBOUND:                -1.221
REMARK SMILES CCCCCCCCCCC(=O)[O-]
REMARK SMILES IDX 7 1 8 2 9 3 10 4 11 5 12 6 13 7 6 8 5 9 4 10 3 11 2 12 1 13
REMARK H PARENT
REMARK Flexibility Score: inf
ROOT
ATOM      1  C   UNL     1     161.942 154.868 162.710  1.00  0.00     0.000 C 
ENDROOT
BRANCH   1   2
ATOM      2  C   UNL     1     161.411 154.657 164.134  1.00  0.00     0.000 C 
BRANCH   2   3
ATOM      3  C   UNL     1     161.388 155.977 164.913  1.00  0.00     0.006 C 
BRANCH   3   4
ATOM      4  C   UNL     1     162.201 157.056 164.190  1.00  0.00     0.053 C 
BRANCH   4   5
ATOM      5  C   UNL     1     162.803 158.007 165.175  1.00  0.00     0.041 C 
ATOM      6  O   UNL     1     163.254 159.118 164.790  1.00  0.00    -0.550 OA
ATOM      7  O   UNL     1     162.911 157.647 166.512  1.00  0.00    -0.550 OA
ENDBRANCH   4   5
ENDBRANCH   3   4
ENDBRANCH   2   3
ENDBRANCH   1   2
BRANCH   1   8
ATOM      8  C   UNL     1     162.880 153.723 162.299  1.00  0.00     0.000 C 
BRANCH   8   9
ATOM      9  C   UNL     1     163.391 152.914 163.503  1.00  0.00    -0.000 C 
BRANCH   9  10
ATOM     10  C   UNL     1     164.924 152.894 163.596  1.00  0.00    -0.000 C 
BRANCH  10  11
ATOM     11  C   UNL     1     165.397 153.381 164.973  1.00  0.00    -0.000 C 
BRANCH  11  12
ATOM     12  C   UNL     1     164.950 154.819 165.276  1.00  0.00    -0.003 C 
ATOM     13  C   UNL     1     165.800 155.867 164.555  1.00  0.00     0.004 C 
ENDBRANCH  11  12
ENDBRANCH  10  11
ENDBRANCH   9  10
ENDBRANCH   8   9
ENDBRANCH   1   8
TORSDOF 9
ENDMDL
MODEL 9
REMARK VINA RESULT:    -3.128     13.004     14.764
REMARK INTER + INTRA:          -5.995
REMARK INTER:                  -4.874
REMARK INTRA:                  -1.120
REMARK UNBOUND:                -1.221
REMARK SMILES CCCCCCCCCCC(=O)[O-]
REMARK SMILES IDX 7 1 8 2 9 3 10 4 11 5 12 6 13 7 6 8 5 9 4 10 3 11 2 12 1 13
REMARK H PARENT
REMARK Flexibility Score: inf
ROOT
ATOM      1  C   UNL     1     156.151 155.221 150.400  1.00  0.00     0.000 C 
ENDROOT
BRANCH   1   2
ATOM      2  C   UNL     1     155.800 156.705 150.237  1.00  0.00     0.000 C 
BRANCH   2   3
ATOM      3  C   UNL     1     156.993 157.596 150.601  1.00  0.00     0.006 C 
BRANCH   3   4
ATOM      4  C   UNL     1     158.264 157.134 149.881  1.00  0.00     0.053 C 
BRANCH   4   5
ATOM      5  C   UNL     1     159.386 158.092 150.131  1.00  0.00     0.041 C 
ATOM      6  O   UNL     1     160.573 157.755 149.885  1.00  0.00    -0.550 OA
ATOM      7  O   UNL     1     159.124 159.339 150.683  1.00  0.00    -0.550 OA
ENDBRANCH   4   5
ENDBRANCH   3   4
ENDBRANCH   2   3
ENDBRANCH   1   2
BRANCH   1   8
ATOM      8  C   UNL     1     155.871 154.745 151.834  1.00  0.00     0.000 C 
BRANCH   8   9
ATOM      9  C   UNL     1     157.112 154.140 152.511  1.00  0.00    -0.000 C 
BRANCH   9  10
ATOM     10  C   UNL     1     157.869 155.158 153.378  1.00  0.00    -0.000 C 
BRANCH  10  11
ATOM     11  C   UNL     1     159.309 155.341 152.878  1.00  0.00    -0.000 C 
BRANCH  11  12
ATOM     12  C   UNL     1     159.676 154.355 151.759  1.00  0.00    -0.003 C 
ATOM     13  C   UNL     1     160.653 153.273 152.220  1.00  0.00     0.004 C 
ENDBRANCH  11  12
ENDBRANCH  10  11
ENDBRANCH   9  10
ENDBRANCH   8   9
ENDBRANCH   1   8
TORSDOF 9
ENDMDL
