MODEL 1
REMARK VINA RESULT:    -4.107      0.000      0.000
REMARK INTER + INTRA:          -8.374
REMARK INTER:                  -6.988
REMARK INTRA:                  -1.386
REMARK UNBOUND:                -1.386
REMARK SMILES CCCCCCCCCCCCCC(=O)[O-]
REMARK SMILES IDX 8 1 9 2 10 3 11 4 12 5 13 6 14 7 15 8 16 9 7 10 6 11 5 12
REMARK SMILES IDX 4 13 3 14 2 15 1 16
REMARK H PARENT
REMARK Flexibility Score: inf
ROOT
ATOM      1  C   UNL     1      26.349  56.478  25.243  1.00  0.00     0.000 C 
ENDROOT
BRANCH   1   2
ATOM      2  C   UNL     1      25.358  56.661  24.076  1.00  0.00     0.000 C 
BRANCH   2   3
ATOM      3  C   UNL     1      23.871  56.510  24.453  1.00  0.00     0.000 C 
BRANCH   3   4
ATOM      4  C   UNL     1      23.610  56.013  25.886  1.00  0.00     0.000 C 
BRANCH   4   5
ATOM      5  C   UNL     1      22.214  55.394  26.059  1.00  0.00     0.006 C 
BRANCH   5   6
ATOM      6  C   UNL     1      21.498  55.273  24.710  1.00  0.00     0.053 C 
BRANCH   6   7
ATOM      7  C   UNL     1      20.437  54.220  24.773  1.00  0.00     0.041 C 
ATOM      8  O   UNL     1      19.444  54.275  24.001  1.00  0.00    -0.550 OA
ATOM      9  O   UNL     1      20.520  53.205  25.717  1.00  0.00    -0.550 OA
ENDBRANCH   6   7
ENDBRANCH   5   6
ENDBRANCH   4   5
ENDBRANCH   3   4
ENDBRANCH   2   3
ENDBRANCH   1   2
BRANCH   1  10
ATOM     10  C   UNL     1      27.183  57.728  25.588  1.00  0.00     0.000 C 
BRANCH  10  11
ATOM     11  C   UNL     1      26.534  59.072  25.203  1.00  0.00    -0.000 C 
BRANCH  11  12
ATOM     12  C   UNL     1      26.609  60.169  26.282  1.00  0.00    -0.000 C 
BRANCH  12  13
ATOM     13  C   UNL     1      25.281  60.357  27.034  1.00  0.00    -0.000 C 
BRANCH  13  14
ATOM     14  C   UNL     1      24.084  59.761  26.274  1.00  0.00    -0.000 C 
BRANCH  14  15
ATOM     15  C   UNL     1      22.740  60.072  26.949  1.00  0.00    -0.003 C 
ATOM     16  C   UNL     1      22.377  59.001  27.973  1.00  0.00     0.004 C 
ENDBRANCH  14  15
ENDBRANCH  13  14
ENDBRANCH  12  13
ENDBRANCH  11  12
ENDBRANCH  10  11
ENDBRANCH   1  10
TORSDOF 12
ENDMDL
MODEL 2
REMARK VINA RESULT:    -4.001      8.322     10.658
REMARK INTER + INTRA:          -8.194
REMARK INTER:                  -6.329
REMARK INTRA:                  -1.866
REMARK UNBOUND:                -1.386
REMARK SMILES CCCCCCCCCCCCCC(=O)[O-]
REMARK SMILES IDX 8 1 9 2 10 3 11 4 12 5 13 6 14 7 15 8 16 9 7 10 6 11 5 12
REMARK SMILES IDX 4 13 3 14 2 15 1 16
REMARK H PARENT
REMARK Flexibility Score: inf
ROOT
ATOM      1  C   UNL     1      15.056  51.024  26.069  1.00  0.00     0.000 C 
ENDROOT
BRANCH   1   2
ATOM      2  C   UNL     1      16.383  50.969  26.851  1.00  0.00     0.000 C 
BRANCH   2   3
ATOM      3  C   UNL     1      17.196  52.278  26.848  1.00  0.00     0.000 C 
BRANCH   3   4
ATOM      4  C   UNL     1      18.678  52.125  27.233  1.00  0.00     0.000 C 
BRANCH   4   5
ATOM      5  C   UNL     1      18.882  51.289  28.505  1.00  0.00     0.006 C 
BRANCH   5   6
ATOM      6  C   UNL     1      18.451  52.071  29.750  1.00  0.00     0.053 C 
BRANCH   6   7
ATOM      7  C   UNL     1      17.631  51.207  30.655  1.00  0.00     0.041 C 
ATOM      8  O   UNL     1      17.488  51.516  31.867  1.00  0.00    -0.550 OA
ATOM      9  O   UNL     1      17.067  50.034  30.172  1.00  0.00    -0.550 OA
ENDBRANCH   6   7
ENDBRANCH   5   6
ENDBRANCH   4   5
ENDBRANCH   3   4
ENDBRANCH   2   3
ENDBRANCH   1   2
BRANCH   1  10
ATOM     10  C   UNL     1      14.889  52.258  25.159  1.00  0.00     0.000 C 
BRANCH  10  11
ATOM     11  C   UNL     1      13.834  53.278  25.630  1.00  0.00    -0.000 C 
BRANCH  11  12
ATOM     12  C   UNL     1      12.746  52.714  26.562  1.00  0.00    -0.000 C 
BRANCH  12  13
ATOM     13  C   UNL     1      12.809  53.306  27.980  1.00  0.00    -0.000 C 
BRANCH  13  14
ATOM     14  C   UNL     1      14.039  54.206  28.188  1.00  0.00    -0.000 C 
BRANCH  14  15
ATOM     15  C   UNL     1      14.916  53.747  29.363  1.00  0.00    -0.003 C 
ATOM     16  C   UNL     1      14.332  52.507  30.034  1.00  0.00     0.004 C 
ENDBRANCH  14  15
ENDBRANCH  13  14
ENDBRANCH  12  13
ENDBRANCH  11  12
ENDBRANCH  10  11
ENDBRANCH   1  10
TORSDOF 12
ENDMDL
MODEL 3
REMARK VINA RESULT:    -3.998     13.212     15.083
REMARK INTER + INTRA:          -8.189
REMARK INTER:                  -6.195
REMARK INTRA:                  -1.994
REMARK UNBOUND:                -1.386
REMARK SMILES CCCCCCCCCCCCCC(=O)[O-]
REMARK SMILES IDX 8 1 9 2 10 3 11 4 12 5 13 6 14 7 15 8 16 9 7 10 6 11 5 12
REMARK SMILES IDX 4 13 3 14 2 15 1 16
REMARK H PARENT
REMARK Flexibility Score: inf
ROOT
ATOM      1  C   UNL     1      22.209  50.643  40.137  1.00  0.00     0.000 C 
ENDROOT
BRANCH   1   2
ATOM      2  C   UNL     1      22.543  52.086  39.711  1.00  0.00     0.000 C 
BRANCH   2   3
ATOM      3  C   UNL     1      22.264  52.410  38.229  1.00  0.00     0.000 C 
BRANCH   3   4
ATOM      4  C   UNL     1      20.979  53.215  37.969  1.00  0.00     0.000 C 
BRANCH   4   5
ATOM      5  C   UNL     1      19.992  52.482  37.048  1.00  0.00     0.006 C 
BRANCH   5   6
ATOM      6  C   UNL     1      20.422  51.029  36.829  1.00  0.00     0.053 C 
BRANCH   6   7
ATOM      7  C   UNL     1      19.643  50.415  35.709  1.00  0.00     0.041 C 
ATOM      8  O   UNL     1      19.187  51.136  34.784  1.00  0.00    -0.550 OA
ATOM      9  O   UNL     1      19.376  49.052  35.714  1.00  0.00    -0.550 OA
ENDBRANCH   6   7
ENDBRANCH   5   6
ENDBRANCH   4   5
ENDBRANCH   3   4
ENDBRANCH   2   3
ENDBRANCH   1   2
BRANCH   1  10
ATOM     10  C   UNL     1      21.002  50.510  41.088  1.00  0.00     0.000 C 
BRANCH  10  11
ATOM     11  C   UNL     1      19.634  50.379  40.391  1.00  0.00    -0.000 C 
BRANCH  11  12
ATOM     12  C   UNL     1      18.716  51.610  40.511  1.00  0.00    -0.000 C 
BRANCH  12  13
ATOM     13  C   UNL     1      17.371  51.424  39.791  1.00  0.00    -0.000 C 
BRANCH  13  14
ATOM     14  C   UNL     1      17.408  50.285  38.758  1.00  0.00    -0.000 C 
BRANCH  14  15
ATOM     15  C   UNL     1      16.221  50.331  37.784  1.00  0.00    -0.003 C 
ATOM     16  C   UNL     1      16.315  51.542  36.860  1.00  0.00     0.004 C 
ENDBRANCH  14  15
ENDBRANCH  13  14
ENDBRANCH  12  13
ENDBRANCH  11  12
ENDBRANCH  10  11
ENDBRANCH   1  10
TORSDOF 12
ENDMDL
MODEL 4
REMARK VINA RESULT:    -3.994      9.179     10.701
REMARK INTER + INTRA:          -8.181
REMARK INTER:                  -6.282
REMARK INTRA:                  -1.899
REMARK UNBOUND:                -1.386
REMARK SMILES CCCCCCCCCCCCCC(=O)[O-]
REMARK SMILES IDX 8 1 9 2 10 3 11 4 12 5 13 6 14 7 15 8 16 9 7 10 6 11 5 12
REMARK SMILES IDX 4 13 3 14 2 15 1 16
REMARK H PARENT
REMARK Flexibility Score: inf
ROOT
ATOM      1  C   UNL     1      16.133  50.615  24.613  1.00  0.00     0.000 C 
ENDROOT
BRANCH   1   2
ATOM      2  C   UNL     1      15.889  50.471  26.128  1.00  0.00     0.000 C 
BRANCH   2   3
ATOM      3  C   UNL     1      17.165  50.367  26.987  1.00  0.00     0.000 C 
BRANCH   3   4
ATOM      4  C   UNL     1      17.686  51.702  27.545  1.00  0.00     0.000 C 
BRANCH   4   5
ATOM      5  C   UNL     1      16.562  52.610  28.067  1.00  0.00     0.006 C 
BRANCH   5   6
ATOM      6  C   UNL     1      16.271  52.329  29.545  1.00  0.00     0.053 C 
BRANCH   6   7
ATOM      7  C   UNL     1      15.340  53.359  30.101  1.00  0.00     0.041 C 
ATOM      8  O   UNL     1      14.149  53.055  30.373  1.00  0.00    -0.550 OA
ATOM      9  O   UNL     1      15.773  54.667  30.274  1.00  0.00    -0.550 OA
ENDBRANCH   6   7
ENDBRANCH   5   6
ENDBRANCH   4   5
ENDBRANCH   3   4
ENDBRANCH   2   3
ENDBRANCH   1   2
BRANCH   1  10
ATOM     10  C   UNL     1      15.475  51.850  23.964  1.00  0.00     0.000 C 
BRANCH  10  11
ATOM     11  C   UNL     1      15.970  53.209  24.498  1.00  0.00    -0.000 C 
BRANCH  11  12
ATOM     12  C   UNL     1      14.879  54.117  25.095  1.00  0.00    -0.000 C 
BRANCH  12  13
ATOM     13  C   UNL     1      13.483  53.831  24.517  1.00  0.00    -0.000 C 
BRANCH  13  14
ATOM     14  C   UNL     1      12.440  53.543  25.610  1.00  0.00    -0.000 C 
BRANCH  14  15
ATOM     15  C   UNL     1      13.080  53.235  26.972  1.00  0.00    -0.003 C 
ATOM     16  C   UNL     1      12.915  51.762  27.336  1.00  0.00     0.004 C 
ENDBRANCH  14  15
ENDBRANCH  13  14
ENDBRANCH  12  13
ENDBRANCH  11  12
ENDBRANCH  10  11
ENDBRANCH   1  10
TORSDOF 12
ENDMDL
MODEL 5
REMARK VINA RESULT:    -3.990      4.019      5.934
REMARK INTER + INTRA:          -8.175
REMARK INTER:                  -6.386
REMARK INTRA:                  -1.790
REMARK UNBOUND:                -1.386
REMARK SMILES CCCCCCCCCCCCCC(=O)[O-]
REMARK SMILES IDX 8 1 9 2 10 3 11 4 12 5 13 6 14 7 15 8 16 9 7 10 6 11 5 12
REMARK SMILES IDX 4 13 3 14 2 15 1 16
REMARK H PARENT
REMARK Flexibility Score: inf
ROOT
ATOM      1  C   UNL     1      23.080  56.458  24.731  1.00  0.00     0.000 C 
ENDROOT
BRANCH   1   2
ATOM      2  C   UNL     1      22.206  57.669  25.113  1.00  0.00     0.000 C 
BRANCH   2   3
ATOM      3  C   UNL     1      22.960  58.832  25.787  1.00  0.00     0.000 C 
BRANCH   3   4
ATOM      4  C   UNL     1      22.513  59.152  27.224  1.00  0.00     0.000 C 
BRANCH   4   5
ATOM      5  C   UNL     1      23.559  59.957  28.010  1.00  0.00     0.006 C 
BRANCH   5   6
ATOM      6  C   UNL     1      23.441  61.454  27.707  1.00  0.00     0.053 C 
BRANCH   6   7
ATOM      7  C   UNL     1      24.643  62.188  28.210  1.00  0.00     0.041 C 
ATOM      8  O   UNL     1      25.202  61.831  29.280  1.00  0.00    -0.550 OA
ATOM      9  O   UNL     1      25.118  63.298  27.523  1.00  0.00    -0.550 OA
ENDBRANCH   6   7
ENDBRANCH   5   6
ENDBRANCH   4   5
ENDBRANCH   3   4
ENDBRANCH   2   3
ENDBRANCH   1   2
BRANCH   1  10
ATOM     10  C   UNL     1      24.007  55.949  25.853  1.00  0.00     0.000 C 
BRANCH  10  11
ATOM     11  C   UNL     1      25.516  56.075  25.560  1.00  0.00    -0.000 C 
BRANCH  11  12
ATOM     12  C   UNL     1      25.871  56.803  24.250  1.00  0.00    -0.000 C 
BRANCH  12  13
ATOM     13  C   UNL     1      26.297  58.263  24.476  1.00  0.00    -0.000 C 
BRANCH  13  14
ATOM     14  C   UNL     1      26.922  58.487  25.864  1.00  0.00    -0.000 C 
BRANCH  14  15
ATOM     15  C   UNL     1      26.887  59.959  26.299  1.00  0.00    -0.003 C 
ATOM     16  C   UNL     1      26.253  60.836  25.222  1.00  0.00     0.004 C 
ENDBRANCH  14  15
ENDBRANCH  13  14
ENDBRANCH  12  13
ENDBRANCH  11  12
ENDBRANCH  10  11
ENDBRANCH   1  10
TORSDOF 12
ENDMDL
MODEL 6
REMARK VINA RESULT:    -3.988     12.981     14.703
REMARK INTER + INTRA:          -8.173
REMARK INTER:                  -6.079
REMARK INTRA:                  -2.094
REMARK UNBOUND:                -1.386
REMARK SMILES CCCCCCCCCCCCCC(=O)[O-]
REMARK SMILES IDX 8 1 9 2 10 3 11 4 12 5 13 6 14 7 15 8 16 9 7 10 6 11 5 12
REMARK SMILES IDX 4 13 3 14 2 15 1 16
REMARK H PARENT
REMARK Flexibility Score: inf
ROOT
ATOM      1  C   UNL     1      19.333  52.709  38.543  1.00  0.00     0.000 C 
ENDROOT
BRANCH   1   2
ATOM      2  C   UNL     1      18.717  51.744  37.512  1.00  0.00     0.000 C 
BRANCH   2   3
ATOM      3  C   UNL     1      18.374  50.342  38.055  1.00  0.00     0.000 C 
BRANCH   3   4
ATOM      4  C   UNL     1      19.380  49.237  37.688  1.00  0.00     0.000 C 
BRANCH   4   5
ATOM      5  C   UNL     1      19.911  49.365  36.252  1.00  0.00     0.006 C 
BRANCH   5   6
ATOM      6  C   UNL     1      21.423  49.126  36.203  1.00  0.00     0.053 C 
BRANCH   6   7
ATOM      7  C   UNL     1      21.829  48.610  34.859  1.00  0.00     0.041 C 
ATOM      8  O   UNL     1      22.899  47.960  34.726  1.00  0.00    -0.550 OA
ATOM      9  O   UNL     1      21.050  48.888  33.743  1.00  0.00    -0.550 OA
ENDBRANCH   6   7
ENDBRANCH   5   6
ENDBRANCH   4   5
ENDBRANCH   3   4
ENDBRANCH   2   3
ENDBRANCH   1   2
BRANCH   1  10
ATOM     10  C   UNL     1      20.671  53.347  38.116  1.00  0.00     0.000 C 
BRANCH  10  11
ATOM     11  C   UNL     1      21.771  52.346  37.711  1.00  0.00    -0.000 C 
BRANCH  11  12
ATOM     12  C   UNL     1      22.745  51.950  38.835  1.00  0.00    -0.000 C 
BRANCH  12  13
ATOM     13  C   UNL     1      22.340  50.647  39.545  1.00  0.00    -0.000 C 
BRANCH  13  14
ATOM     14  C   UNL     1      21.665  50.902  40.904  1.00  0.00    -0.000 C 
BRANCH  14  15
ATOM     15  C   UNL     1      20.410  50.041  41.112  1.00  0.00    -0.003 C 
ATOM     16  C   UNL     1      19.279  50.859  41.728  1.00  0.00     0.004 C 
ENDBRANCH  14  15
ENDBRANCH  13  14
ENDBRANCH  12  13
ENDBRANCH  11  12
ENDBRANCH  10  11
ENDBRANCH   1  10
TORSDOF 12
ENDMDL
MODEL 7
REMARK VINA RESULT:    -3.986      1.694      3.127
REMARK INTER + INTRA:          -8.168
REMARK INTER:                  -6.656
REMARK INTRA:                  -1.512
REMARK UNBOUND:                -1.386
REMARK SMILES CCCCCCCCCCCCCC(=O)[O-]
REMARK SMILES IDX 8 1 9 2 10 3 11 4 12 5 13 6 14 7 15 8 16 9 7 10 6 11 5 12
REMARK SMILES IDX 4 13 3 14 2 15 1 16
REMARK H PARENT
REMARK Flexibility Score: inf
ROOT
ATOM      1  C   UNL     1      26.988  60.387  26.370  1.00  0.00     0.000 C 
ENDROOT
BRANCH   1   2
ATOM      2  C   UNL     1      26.376  59.354  25.404  1.00  0.00     0.000 C 
BRANCH   2   3
ATOM      3  C   UNL     1      26.899  57.914  25.571  1.00  0.00     0.000 C 
BRANCH   3   4
ATOM      4  C   UNL     1      26.169  56.854  24.729  1.00  0.00     0.000 C 
BRANCH   4   5
ATOM      5  C   UNL     1      25.125  56.066  25.535  1.00  0.00     0.006 C 
BRANCH   5   6
ATOM      6  C   UNL     1      23.715  56.297  24.980  1.00  0.00     0.053 C 
BRANCH   6   7
ATOM      7  C   UNL     1      22.686  55.761  25.923  1.00  0.00     0.041 C 
ATOM      8  O   UNL     1      22.822  55.918  27.165  1.00  0.00    -0.550 OA
ATOM      9  O   UNL     1      21.601  55.044  25.435  1.00  0.00    -0.550 OA
ENDBRANCH   6   7
ENDBRANCH   5   6
ENDBRANCH   4   5
ENDBRANCH   3   4
ENDBRANCH   2   3
ENDBRANCH   1   2
BRANCH   1  10
ATOM     10  C   UNL     1      26.912  61.851  25.889  1.00  0.00     0.000 C 
BRANCH  10  11
ATOM     11  C   UNL     1      25.569  62.557  26.161  1.00  0.00    -0.000 C 
BRANCH  11  12
ATOM     12  C   UNL     1      25.092  62.520  27.624  1.00  0.00    -0.000 C 
BRANCH  12  13
ATOM     13  C   UNL     1      23.721  61.842  27.788  1.00  0.00    -0.000 C 
BRANCH  13  14
ATOM     14  C   UNL     1      23.839  60.365  28.197  1.00  0.00    -0.000 C 
BRANCH  14  15
ATOM     15  C   UNL     1      22.859  59.459  27.437  1.00  0.00    -0.003 C 
ATOM     16  C   UNL     1      22.827  59.809  25.952  1.00  0.00     0.004 C 
ENDBRANCH  14  15
ENDBRANCH  13  14
ENDBRANCH  12  13
ENDBRANCH  11  12
ENDBRANCH  10  11
ENDBRANCH   1  10
TORSDOF 12
ENDMDL
MODEL 8
REMARK VINA RESULT:    -3.953     13.919     15.738
REMARK INTER + INTRA:          -8.113
REMARK INTER:                  -6.455
REMARK INTRA:                  -1.659
REMARK UNBOUND:                -1.386
REMARK SMILES CCCCCCCCCCCCCC(=O)[O-]
REMARK SMILES IDX 8 1 9 2 10 3 11 4 12 5 13 6 14 7 15 8 16 9 7 10 6 11 5 12
REMARK SMILES IDX 4 13 3 14 2 15 1 16
REMARK H PARENT
REMARK Flexibility Score: inf
ROOT
ATOM      1  C   UNL     1      17.622  51.090  35.843  1.00  0.00     0.000 C 
ENDROOT
BRANCH   1   2
ATOM      2  C   UNL     1      16.476  51.492  36.793  1.00  0.00     0.000 C 
BRANCH   2   3
ATOM      3  C   UNL     1      16.433  50.719  38.126  1.00  0.00     0.000 C 
BRANCH   3   4
ATOM      4  C   UNL     1      17.121  51.422  39.309  1.00  0.00     0.000 C 
BRANCH   4   5
ATOM      5  C   UNL     1      18.328  50.639  39.848  1.00  0.00     0.006 C 
BRANCH   5   6
ATOM      6  C   UNL     1      18.785  51.198  41.199  1.00  0.00     0.053 C 
BRANCH   6   7
ATOM      7  C   UNL     1      19.782  50.282  41.835  1.00  0.00     0.041 C 
ATOM      8  O   UNL     1      19.596  49.038  41.826  1.00  0.00    -0.550 OA
ATOM      9  O   UNL     1      20.894  50.807  42.483  1.00  0.00    -0.550 OA
ENDBRANCH   6   7
ENDBRANCH   5   6
ENDBRANCH   4   5
ENDBRANCH   3   4
ENDBRANCH   2   3
ENDBRANCH   1   2
BRANCH   1  10
ATOM     10  C   UNL     1      18.764  52.121  35.731  1.00  0.00     0.000 C 
BRANCH  10  11
ATOM     11  C   UNL     1      19.844  52.019  36.826  1.00  0.00    -0.000 C 
BRANCH  11  12
ATOM     12  C   UNL     1      20.202  53.345  37.519  1.00  0.00    -0.000 C 
BRANCH  12  13
ATOM     13  C   UNL     1      20.942  53.141  38.852  1.00  0.00    -0.000 C 
BRANCH  13  14
ATOM     14  C   UNL     1      22.410  52.730  38.654  1.00  0.00    -0.000 C 
BRANCH  14  15
ATOM     15  C   UNL     1      22.830  51.574  39.574  1.00  0.00    -0.003 C 
ATOM     16  C   UNL     1      22.278  50.243  39.071  1.00  0.00     0.004 C 
ENDBRANCH  14  15
ENDBRANCH  13  14
ENDBRANCH  12  13
ENDBRANCH  11  12
ENDBRANCH  10  11
ENDBRANCH   1  10
TORSDOF 12
ENDMDL
MODEL 9
REMARK VINA RESULT:    -3.873     14.417     16.183
REMARK INTER + INTRA:          -7.977
REMARK INTER:                  -6.070
REMARK INTRA:                  -1.907
REMARK UNBOUND:                -1.386
REMARK SMILES CCCCCCCCCCCCCC(=O)[O-]
REMARK SMILES IDX 8 1 9 2 10 3 11 4 12 5 13 6 14 7 15 8 16 9 7 10 6 11 5 12
REMARK SMILES IDX 4 13 3 14 2 15 1 16
REMARK H PARENT
REMARK Flexibility Score: inf
ROOT
ATOM      1  C   UNL     1      19.338  50.391  42.666  1.00  0.00     0.000 C 
ENDROOT
BRANCH   1   2
ATOM      2  C   UNL     1      19.499  49.395  41.501  1.00  0.00     0.000 C 
BRANCH   2   3
ATOM      3  C   UNL     1      18.719  49.756  40.221  1.00  0.00     0.000 C 
BRANCH   3   4
ATOM      4  C   UNL     1      18.253  51.220  40.134  1.00  0.00     0.000 C 
BRANCH   4   5
ATOM      5  C   UNL     1      18.433  51.821  38.731  1.00  0.00     0.006 C 
BRANCH   5   6
ATOM      6  C   UNL     1      17.301  51.382  37.797  1.00  0.00     0.053 C 
BRANCH   6   7
ATOM      7  C   UNL     1      17.772  51.358  36.378  1.00  0.00     0.041 C 
ATOM      8  O   UNL     1      18.967  51.062  36.112  1.00  0.00    -0.550 OA
ATOM      9  O   UNL     1      16.906  51.711  35.351  1.00  0.00    -0.550 OA
ENDBRANCH   6   7
ENDBRANCH   5   6
ENDBRANCH   4   5
ENDBRANCH   3   4
ENDBRANCH   2   3
ENDBRANCH   1   2
BRANCH   1  10
ATOM     10  C   UNL     1      20.597  51.223  42.986  1.00  0.00     0.000 C 
BRANCH  10  11
ATOM     11  C   UNL     1      20.495  52.721  42.634  1.00  0.00    -0.000 C 
BRANCH  11  12
ATOM     12  C   UNL     1      21.379  53.180  41.460  1.00  0.00    -0.000 C 
BRANCH  12  13
ATOM     13  C   UNL     1      22.456  52.149  41.084  1.00  0.00    -0.000 C 
BRANCH  13  14
ATOM     14  C   UNL     1      22.433  51.793  39.588  1.00  0.00    -0.000 C 
BRANCH  14  15
ATOM     15  C   UNL     1      22.487  50.278  39.340  1.00  0.00    -0.003 C 
ATOM     16  C   UNL     1      21.670  49.894  38.109  1.00  0.00     0.004 C 
ENDBRANCH  14  15
ENDBRANCH  13  14
ENDBRANCH  12  13
ENDBRANCH  11  12
ENDBRANCH  10  11
ENDBRANCH   1  10
TORSDOF 12
ENDMDL
