MODEL 1
REMARK VINA RESULT:    -4.683      0.000      0.000
REMARK INTER + INTRA:          -7.031
REMARK INTER:                  -6.326
REMARK INTRA:                  -0.705
REMARK UNBOUND:                -0.705
REMARK SMILES CCCCCCC=CC(=O)[O-]
REMARK SMILES IDX 5 1 6 2 7 3 8 4 9 5 10 6 11 7 4 8 3 9 2 10 1 11
REMARK H PARENT
REMARK Flexibility Score: inf
ROOT
ATOM      1  C   UNL     1      21.592  23.117   9.768  1.00  0.00     0.004 C 
ENDROOT
BRANCH   1   2
ATOM      2  C   UNL     1      20.286  23.121  10.581  1.00  0.00     0.027 C 
BRANCH   2   3
ATOM      3  C   UNL     1      19.189  23.900   9.909  1.00  0.00    -0.025 C 
ATOM      4  C   UNL     1      19.438  25.040   9.259  1.00  0.00     0.020 C 
BRANCH   4   5
ATOM      5  C   UNL     1      18.374  25.809   8.596  1.00  0.00     0.064 C 
ATOM      6  O   UNL     1      17.463  25.202   7.976  1.00  0.00    -0.545 OA
ATOM      7  O   UNL     1      18.359  27.198   8.643  1.00  0.00    -0.545 OA
ENDBRANCH   4   5
ENDBRANCH   2   3
ENDBRANCH   1   2
BRANCH   1   8
ATOM      8  C   UNL     1      21.683  21.985   8.727  1.00  0.00     0.000 C 
BRANCH   8   9
ATOM      9  C   UNL     1      21.713  22.508   7.282  1.00  0.00    -0.000 C 
BRANCH   9  10
ATOM     10  C   UNL     1      20.628  21.869   6.402  1.00  0.00    -0.003 C 
ATOM     11  C   UNL     1      19.361  22.720   6.315  1.00  0.00     0.004 C 
ENDBRANCH   9  10
ENDBRANCH   8   9
ENDBRANCH   1   8
TORSDOF 6
ENDMDL
MODEL 2
REMARK VINA RESULT:    -4.581      2.689      4.758
REMARK INTER + INTRA:          -6.894
REMARK INTER:                  -6.227
REMARK INTRA:                  -0.667
REMARK UNBOUND:                -0.705
REMARK SMILES CCCCCCC=CC(=O)[O-]
REMARK SMILES IDX 5 1 6 2 7 3 8 4 9 5 10 6 11 7 4 8 3 9 2 10 1 11
REMARK H PARENT
REMARK Flexibility Score: inf
ROOT
ATOM      1  C   UNL     1      17.348  24.286   7.209  1.00  0.00     0.004 C 
ENDROOT
BRANCH   1   2
ATOM      2  C   UNL     1      18.469  23.331   6.762  1.00  0.00     0.027 C 
BRANCH   2   3
ATOM      3  C   UNL     1      19.324  22.866   7.908  1.00  0.00    -0.025 C 
ATOM      4  C   UNL     1      20.471  23.478   8.218  1.00  0.00     0.020 C 
BRANCH   4   5
ATOM      5  C   UNL     1      21.314  23.034   9.339  1.00  0.00     0.064 C 
ATOM      6  O   UNL     1      22.246  22.216   9.128  1.00  0.00    -0.545 OA
ATOM      7  O   UNL     1      21.096  23.504  10.629  1.00  0.00    -0.545 OA
ENDBRANCH   4   5
ENDBRANCH   2   3
ENDBRANCH   1   2
BRANCH   1   8
ATOM      8  C   UNL     1      16.918  24.109   8.677  1.00  0.00     0.000 C 
BRANCH   8   9
ATOM      9  C   UNL     1      17.231  25.342   9.540  1.00  0.00    -0.000 C 
BRANCH   9  10
ATOM     10  C   UNL     1      17.819  26.501   8.719  1.00  0.00    -0.003 C 
ATOM     11  C   UNL     1      19.239  26.869   9.151  1.00  0.00     0.004 C 
ENDBRANCH   9  10
ENDBRANCH   8   9
ENDBRANCH   1   8
TORSDOF 6
ENDMDL
MODEL 3
REMARK VINA RESULT:    -4.537      1.662      2.981
REMARK INTER + INTRA:          -6.834
REMARK INTER:                  -6.379
REMARK INTRA:                  -0.456
REMARK UNBOUND:                -0.705
REMARK SMILES CCCCCCC=CC(=O)[O-]
REMARK SMILES IDX 5 1 6 2 7 3 8 4 9 5 10 6 11 7 4 8 3 9 2 10 1 11
REMARK H PARENT
REMARK Flexibility Score: inf
ROOT
ATOM      1  C   UNL     1      18.373  22.405   6.763  1.00  0.00     0.004 C 
ENDROOT
BRANCH   1   2
ATOM      2  C   UNL     1      17.236  23.437   6.672  1.00  0.00     0.027 C 
BRANCH   2   3
ATOM      3  C   UNL     1      17.468  24.633   7.553  1.00  0.00    -0.025 C 
ATOM      4  C   UNL     1      18.590  24.772   8.264  1.00  0.00     0.020 C 
BRANCH   4   5
ATOM      5  C   UNL     1      18.830  25.939   9.126  1.00  0.00     0.064 C 
ATOM      6  O   UNL     1      19.437  25.790  10.218  1.00  0.00    -0.545 OA
ATOM      7  O   UNL     1      18.394  27.205   8.754  1.00  0.00    -0.545 OA
ENDBRANCH   4   5
ENDBRANCH   2   3
ENDBRANCH   1   2
BRANCH   1   8
ATOM      8  C   UNL     1      19.320  22.402   5.548  1.00  0.00     0.000 C 
BRANCH   8   9
ATOM      9  C   UNL     1      20.722  21.871   5.890  1.00  0.00    -0.000 C 
BRANCH   9  10
ATOM     10  C   UNL     1      21.270  22.457   7.201  1.00  0.00    -0.003 C 
ATOM     11  C   UNL     1      22.117  21.456   7.986  1.00  0.00     0.004 C 
ENDBRANCH   9  10
ENDBRANCH   8   9
ENDBRANCH   1   8
TORSDOF 6
ENDMDL
MODEL 4
REMARK VINA RESULT:    -4.515      1.226      2.990
REMARK INTER + INTRA:          -6.805
REMARK INTER:                  -6.211
REMARK INTRA:                  -0.593
REMARK UNBOUND:                -0.705
REMARK SMILES CCCCCCC=CC(=O)[O-]
REMARK SMILES IDX 5 1 6 2 7 3 8 4 9 5 10 6 11 7 4 8 3 9 2 10 1 11
REMARK H PARENT
REMARK Flexibility Score: inf
ROOT
ATOM      1  C   UNL     1      19.604  21.998   6.773  1.00  0.00     0.004 C 
ENDROOT
BRANCH   1   2
ATOM      2  C   UNL     1      18.736  23.122   6.179  1.00  0.00     0.027 C 
BRANCH   2   3
ATOM      3  C   UNL     1      17.860  23.781   7.207  1.00  0.00    -0.025 C 
ATOM      4  C   UNL     1      18.356  24.642   8.101  1.00  0.00     0.020 C 
BRANCH   4   5
ATOM      5  C   UNL     1      17.508  25.295   9.109  1.00  0.00     0.064 C 
ATOM      6  O   UNL     1      17.269  26.527   9.016  1.00  0.00    -0.545 OA
ATOM      7  O   UNL     1      16.967  24.572  10.166  1.00  0.00    -0.545 OA
ENDBRANCH   4   5
ENDBRANCH   2   3
ENDBRANCH   1   2
BRANCH   1   8
ATOM      8  C   UNL     1      21.072  22.396   7.012  1.00  0.00     0.000 C 
BRANCH   8   9
ATOM      9  C   UNL     1      21.591  21.949   8.389  1.00  0.00    -0.000 C 
BRANCH   9  10
ATOM     10  C   UNL     1      21.692  23.114   9.386  1.00  0.00    -0.003 C 
ATOM     11  C   UNL     1      20.591  23.081  10.446  1.00  0.00     0.004 C 
ENDBRANCH   9  10
ENDBRANCH   8   9
ENDBRANCH   1   8
TORSDOF 6
ENDMDL
MODEL 5
REMARK VINA RESULT:    -4.478      2.799      4.960
REMARK INTER + INTRA:          -6.754
REMARK INTER:                  -6.205
REMARK INTRA:                  -0.549
REMARK UNBOUND:                -0.705
REMARK SMILES CCCCCCC=CC(=O)[O-]
REMARK SMILES IDX 5 1 6 2 7 3 8 4 9 5 10 6 11 7 4 8 3 9 2 10 1 11
REMARK H PARENT
REMARK Flexibility Score: inf
ROOT
ATOM      1  C   UNL     1      17.781  23.203   7.392  1.00  0.00     0.004 C 
ENDROOT
BRANCH   1   2
ATOM      2  C   UNL     1      18.899  23.076   6.342  1.00  0.00     0.027 C 
BRANCH   2   3
ATOM      3  C   UNL     1      20.225  22.711   6.950  1.00  0.00    -0.025 C 
ATOM      4  C   UNL     1      20.441  22.803   8.266  1.00  0.00     0.020 C 
BRANCH   4   5
ATOM      5  C   UNL     1      21.732  22.446   8.872  1.00  0.00     0.064 C 
ATOM      6  O   UNL     1      22.151  23.093   9.867  1.00  0.00    -0.545 OA
ATOM      7  O   UNL     1      22.499  21.405   8.362  1.00  0.00    -0.545 OA
ENDBRANCH   4   5
ENDBRANCH   2   3
ENDBRANCH   1   2
BRANCH   1   8
ATOM      8  C   UNL     1      17.235  24.633   7.561  1.00  0.00     0.000 C 
BRANCH   8   9
ATOM      9  C   UNL     1      17.249  25.104   9.025  1.00  0.00    -0.000 C 
BRANCH   9  10
ATOM     10  C   UNL     1      18.631  25.613   9.466  1.00  0.00    -0.003 C 
ATOM     11  C   UNL     1      19.038  26.905   8.759  1.00  0.00     0.004 C 
ENDBRANCH   9  10
ENDBRANCH   8   9
ENDBRANCH   1   8
TORSDOF 6
ENDMDL
MODEL 6
REMARK VINA RESULT:    -4.430      2.389      4.259
REMARK INTER + INTRA:          -6.689
REMARK INTER:                  -6.051
REMARK INTRA:                  -0.638
REMARK UNBOUND:                -0.705
REMARK SMILES CCCCCCC=CC(=O)[O-]
REMARK SMILES IDX 5 1 6 2 7 3 8 4 9 5 10 6 11 7 4 8 3 9 2 10 1 11
REMARK H PARENT
REMARK Flexibility Score: inf
ROOT
ATOM      1  C   UNL     1      19.251  22.415   5.670  1.00  0.00     0.004 C 
ENDROOT
BRANCH   1   2
ATOM      2  C   UNL     1      20.576  22.406   6.452  1.00  0.00     0.027 C 
BRANCH   2   3
ATOM      3  C   UNL     1      20.371  22.267   7.935  1.00  0.00    -0.025 C 
ATOM      4  C   UNL     1      20.736  23.230   8.785  1.00  0.00     0.020 C 
BRANCH   4   5
ATOM      5  C   UNL     1      20.539  23.106  10.237  1.00  0.00     0.064 C 
ATOM      6  O   UNL     1      21.339  23.675  11.024  1.00  0.00    -0.545 OA
ATOM      7  O   UNL     1      19.481  22.368  10.755  1.00  0.00    -0.545 OA
ENDBRANCH   4   5
ENDBRANCH   2   3
ENDBRANCH   1   2
BRANCH   1   8
ATOM      8  C   UNL     1      17.995  22.487   6.559  1.00  0.00     0.000 C 
BRANCH   8   9
ATOM      9  C   UNL     1      17.401  23.903   6.633  1.00  0.00    -0.000 C 
BRANCH   9  10
ATOM     10  C   UNL     1      17.182  24.374   8.080  1.00  0.00    -0.003 C 
ATOM     11  C   UNL     1      17.930  25.669   8.398  1.00  0.00     0.004 C 
ENDBRANCH   9  10
ENDBRANCH   8   9
ENDBRANCH   1   8
TORSDOF 6
ENDMDL
MODEL 7
REMARK VINA RESULT:    -4.427      2.583      4.504
REMARK INTER + INTRA:          -6.685
REMARK INTER:                  -6.200
REMARK INTRA:                  -0.485
REMARK UNBOUND:                -0.705
REMARK SMILES CCCCCCC=CC(=O)[O-]
REMARK SMILES IDX 5 1 6 2 7 3 8 4 9 5 10 6 11 7 4 8 3 9 2 10 1 11
REMARK H PARENT
REMARK Flexibility Score: inf
ROOT
ATOM      1  C   UNL     1      20.601  23.329  10.530  1.00  0.00     0.004 C 
ENDROOT
BRANCH   1   2
ATOM      2  C   UNL     1      21.788  23.092   9.579  1.00  0.00     0.027 C 
BRANCH   2   3
ATOM      3  C   UNL     1      21.363  22.977   8.142  1.00  0.00    -0.025 C 
ATOM      4  C   UNL     1      21.691  21.917   7.398  1.00  0.00     0.020 C 
BRANCH   4   5
ATOM      5  C   UNL     1      21.278  21.793   5.992  1.00  0.00     0.064 C 
ATOM      6  O   UNL     1      20.164  22.251   5.628  1.00  0.00    -0.545 OA
ATOM      7  O   UNL     1      22.100  21.174   5.057  1.00  0.00    -0.545 OA
ENDBRANCH   4   5
ENDBRANCH   2   3
ENDBRANCH   1   2
BRANCH   1   8
ATOM      8  C   UNL     1      19.221  23.186   9.862  1.00  0.00     0.000 C 
BRANCH   8   9
ATOM      9  C   UNL     1      18.407  24.490   9.896  1.00  0.00    -0.000 C 
BRANCH   9  10
ATOM     10  C   UNL     1      18.634  25.357   8.647  1.00  0.00    -0.003 C 
ATOM     11  C   UNL     1      19.099  26.773   8.988  1.00  0.00     0.004 C 
ENDBRANCH   9  10
ENDBRANCH   8   9
ENDBRANCH   1   8
TORSDOF 6
ENDMDL
MODEL 8
REMARK VINA RESULT:    -4.390      2.794      4.641
REMARK INTER + INTRA:          -6.635
REMARK INTER:                  -5.977
REMARK INTRA:                  -0.659
REMARK UNBOUND:                -0.705
REMARK SMILES CCCCCCC=CC(=O)[O-]
REMARK SMILES IDX 5 1 6 2 7 3 8 4 9 5 10 6 11 7 4 8 3 9 2 10 1 11
REMARK H PARENT
REMARK Flexibility Score: inf
ROOT
ATOM      1  C   UNL     1      18.500  25.328   8.399  1.00  0.00     0.004 C 
ENDROOT
BRANCH   1   2
ATOM      2  C   UNL     1      17.546  24.345   7.698  1.00  0.00     0.027 C 
BRANCH   2   3
ATOM      3  C   UNL     1      18.247  23.484   6.684  1.00  0.00    -0.025 C 
ATOM      4  C   UNL     1      19.499  23.057   6.875  1.00  0.00     0.020 C 
BRANCH   4   5
ATOM      5  C   UNL     1      20.194  22.212   5.892  1.00  0.00     0.064 C 
ATOM      6  O   UNL     1      21.376  21.841   6.116  1.00  0.00    -0.545 OA
ATOM      7  O   UNL     1      19.566  21.816   4.717  1.00  0.00    -0.545 OA
ENDBRANCH   4   5
ENDBRANCH   2   3
ENDBRANCH   1   2
BRANCH   1   8
ATOM      8  C   UNL     1      18.715  25.037   9.897  1.00  0.00     0.000 C 
BRANCH   8   9
ATOM      9  C   UNL     1      18.102  23.697  10.335  1.00  0.00    -0.000 C 
BRANCH   9  10
ATOM     10  C   UNL     1      19.168  22.627  10.620  1.00  0.00    -0.003 C 
ATOM     11  C   UNL     1      20.593  23.160  10.472  1.00  0.00     0.004 C 
ENDBRANCH   9  10
ENDBRANCH   8   9
ENDBRANCH   1   8
TORSDOF 6
ENDMDL
MODEL 9
REMARK VINA RESULT:    -4.348      1.323      1.693
REMARK INTER + INTRA:          -6.578
REMARK INTER:                  -5.862
REMARK INTRA:                  -0.716
REMARK UNBOUND:                -0.705
REMARK SMILES CCCCCCC=CC(=O)[O-]
REMARK SMILES IDX 5 1 6 2 7 3 8 4 9 5 10 6 11 7 4 8 3 9 2 10 1 11
REMARK H PARENT
REMARK Flexibility Score: inf
ROOT
ATOM      1  C   UNL     1      21.512  23.118   8.102  1.00  0.00     0.004 C 
ENDROOT
BRANCH   1   2
ATOM      2  C   UNL     1      21.282  23.084   9.623  1.00  0.00     0.027 C 
BRANCH   2   3
ATOM      3  C   UNL     1      19.884  23.482  10.006  1.00  0.00    -0.025 C 
ATOM      4  C   UNL     1      19.311  24.584   9.514  1.00  0.00     0.020 C 
BRANCH   4   5
ATOM      5  C   UNL     1      17.943  24.982   9.879  1.00  0.00     0.064 C 
ATOM      6  O   UNL     1      17.368  24.417  10.845  1.00  0.00    -0.545 OA
ATOM      7  O   UNL     1      17.273  25.974   9.171  1.00  0.00    -0.545 OA
ENDBRANCH   4   5
ENDBRANCH   2   3
ENDBRANCH   1   2
BRANCH   1   8
ATOM      8  C   UNL     1      21.112  21.820   7.375  1.00  0.00     0.000 C 
BRANCH   8   9
ATOM      9  C   UNL     1      20.411  22.084   6.032  1.00  0.00    -0.000 C 
BRANCH   9  10
ATOM     10  C   UNL     1      19.110  22.888   6.195  1.00  0.00    -0.003 C 
ATOM     11  C   UNL     1      18.035  22.120   6.963  1.00  0.00     0.004 C 
ENDBRANCH   9  10
ENDBRANCH   8   9
ENDBRANCH   1   8
TORSDOF 6
ENDMDL
