MODEL 1
REMARK VINA RESULT:    -4.297      0.000      0.000
REMARK INTER + INTRA:          -9.722
REMARK INTER:                  -7.311
REMARK INTRA:                  -2.411
REMARK UNBOUND:                -2.411
REMARK SMILES CCCCCCCCCCCCCC(=O)[O-]
REMARK SMILES IDX 8 1 9 2 10 3 11 4 12 5 13 6 14 7 15 8 16 9 7 10 6 11 5 12
REMARK SMILES IDX 4 13 3 14 2 15 1 16
REMARK H PARENT
REMARK Flexibility Score: inf
ROOT
ATOM      1  C   UNL     1     -24.208  59.727  28.589  1.00  0.00     0.000 C 
ENDROOT
BRANCH   1   2
ATOM      2  C   UNL     1     -25.311  59.460  29.623  1.00  0.00     0.000 C 
BRANCH   2   3
ATOM      3  C   UNL     1     -24.788  58.596  30.776  1.00  0.00     0.000 C 
BRANCH   3   4
ATOM      4  C   UNL     1     -25.391  59.043  32.113  1.00  0.00     0.000 C 
BRANCH   4   5
ATOM      5  C   UNL     1     -26.538  60.036  31.901  1.00  0.00     0.006 C 
BRANCH   5   6
ATOM      6  C   UNL     1     -26.390  61.249  32.826  1.00  0.00     0.053 C 
BRANCH   6   7
ATOM      7  C   UNL     1     -26.547  60.856  34.263  1.00  0.00     0.041 C 
ATOM      8  O   UNL     1     -25.560  60.905  35.046  1.00  0.00    -0.550 OA
ATOM      9  O   UNL     1     -27.773  60.399  34.731  1.00  0.00    -0.550 OA
ENDBRANCH   6   7
ENDBRANCH   5   6
ENDBRANCH   4   5
ENDBRANCH   3   4
ENDBRANCH   2   3
ENDBRANCH   1   2
BRANCH   1  10
ATOM     10  C   UNL     1     -23.855  61.220  28.465  1.00  0.00     0.000 C 
BRANCH  10  11
ATOM     11  C   UNL     1     -24.751  62.168  29.286  1.00  0.00    -0.000 C 
BRANCH  11  12
ATOM     12  C   UNL     1     -24.067  62.827  30.501  1.00  0.00    -0.000 C 
BRANCH  12  13
ATOM     13  C   UNL     1     -22.691  62.241  30.867  1.00  0.00    -0.000 C 
BRANCH  13  14
ATOM     14  C   UNL     1     -22.672  61.590  32.260  1.00  0.00    -0.000 C 
BRANCH  14  15
ATOM     15  C   UNL     1     -21.881  60.273  32.282  1.00  0.00    -0.003 C 
ATOM     16  C   UNL     1     -21.251  59.944  30.927  1.00  0.00     0.004 C 
ENDBRANCH  14  15
ENDBRANCH  13  14
ENDBRANCH  12  13
ENDBRANCH  11  12
ENDBRANCH  10  11
ENDBRANCH   1  10
TORSDOF 12
ENDMDL
MODEL 2
REMARK VINA RESULT:    -4.124      1.201      1.833
REMARK INTER + INTRA:          -9.428
REMARK INTER:                  -7.730
REMARK INTRA:                  -1.698
REMARK UNBOUND:                -2.411
REMARK SMILES CCCCCCCCCCCCCC(=O)[O-]
REMARK SMILES IDX 8 1 9 2 10 3 11 4 12 5 13 6 14 7 15 8 16 9 7 10 6 11 5 12
REMARK SMILES IDX 4 13 3 14 2 15 1 16
REMARK H PARENT
REMARK Flexibility Score: inf
ROOT
ATOM      1  C   UNL     1     -24.295  60.446  29.310  1.00  0.00     0.000 C 
ENDROOT
BRANCH   1   2
ATOM      2  C   UNL     1     -25.438  59.580  29.858  1.00  0.00     0.000 C 
BRANCH   2   3
ATOM      3  C   UNL     1     -25.130  59.098  31.280  1.00  0.00     0.000 C 
BRANCH   3   4
ATOM      4  C   UNL     1     -26.309  59.373  32.221  1.00  0.00     0.000 C 
BRANCH   4   5
ATOM      5  C   UNL     1     -26.997  60.699  31.875  1.00  0.00     0.006 C 
BRANCH   5   6
ATOM      6  C   UNL     1     -26.681  61.769  32.926  1.00  0.00     0.053 C 
BRANCH   6   7
ATOM      7  C   UNL     1     -26.946  61.263  34.311  1.00  0.00     0.041 C 
ATOM      8  O   UNL     1     -28.115  60.938  34.655  1.00  0.00    -0.550 OA
ATOM      9  O   UNL     1     -25.911  61.186  35.235  1.00  0.00    -0.550 OA
ENDBRANCH   6   7
ENDBRANCH   5   6
ENDBRANCH   4   5
ENDBRANCH   3   4
ENDBRANCH   2   3
ENDBRANCH   1   2
BRANCH   1  10
ATOM     10  C   UNL     1     -24.640  61.946  29.289  1.00  0.00     0.000 C 
BRANCH  10  11
ATOM     11  C   UNL     1     -24.073  62.758  30.469  1.00  0.00    -0.000 C 
BRANCH  11  12
ATOM     12  C   UNL     1     -23.075  62.000  31.367  1.00  0.00    -0.000 C 
BRANCH  12  13
ATOM     13  C   UNL     1     -21.597  62.374  31.152  1.00  0.00    -0.000 C 
BRANCH  13  14
ATOM     14  C   UNL     1     -20.754  61.197  30.631  1.00  0.00    -0.000 C 
BRANCH  14  15
ATOM     15  C   UNL     1     -20.038  61.526  29.313  1.00  0.00    -0.003 C 
ATOM     16  C   UNL     1     -21.001  61.618  28.128  1.00  0.00     0.004 C 
ENDBRANCH  14  15
ENDBRANCH  13  14
ENDBRANCH  12  13
ENDBRANCH  11  12
ENDBRANCH  10  11
ENDBRANCH   1  10
TORSDOF 12
ENDMDL
MODEL 3
REMARK VINA RESULT:    -4.092      1.444      2.374
REMARK INTER + INTRA:          -9.374
REMARK INTER:                  -7.514
REMARK INTRA:                  -1.860
REMARK UNBOUND:                -2.411
REMARK SMILES CCCCCCCCCCCCCC(=O)[O-]
REMARK SMILES IDX 8 1 9 2 10 3 11 4 12 5 13 6 14 7 15 8 16 9 7 10 6 11 5 12
REMARK SMILES IDX 4 13 3 14 2 15 1 16
REMARK H PARENT
REMARK Flexibility Score: inf
ROOT
ATOM      1  C   UNL     1     -23.667  60.653  28.786  1.00  0.00     0.000 C 
ENDROOT
BRANCH   1   2
ATOM      2  C   UNL     1     -24.949  61.375  29.225  1.00  0.00     0.000 C 
BRANCH   2   3
ATOM      3  C   UNL     1     -24.623  62.698  29.928  1.00  0.00     0.000 C 
BRANCH   3   4
ATOM      4  C   UNL     1     -25.554  62.928  31.124  1.00  0.00     0.000 C 
BRANCH   4   5
ATOM      5  C   UNL     1     -25.965  61.601  31.771  1.00  0.00     0.006 C 
BRANCH   5   6
ATOM      6  C   UNL     1     -27.017  61.827  32.862  1.00  0.00     0.053 C 
BRANCH   6   7
ATOM      7  C   UNL     1     -26.740  60.980  34.066  1.00  0.00     0.041 C 
ATOM      8  O   UNL     1     -25.554  60.694  34.382  1.00  0.00    -0.550 OA
ATOM      9  O   UNL     1     -27.793  60.474  34.819  1.00  0.00    -0.550 OA
ENDBRANCH   6   7
ENDBRANCH   5   6
ENDBRANCH   4   5
ENDBRANCH   3   4
ENDBRANCH   2   3
ENDBRANCH   1   2
BRANCH   1  10
ATOM     10  C   UNL     1     -22.610  61.612  28.210  1.00  0.00     0.000 C 
BRANCH  10  11
ATOM     11  C   UNL     1     -21.156  61.110  28.309  1.00  0.00    -0.000 C 
BRANCH  11  12
ATOM     12  C   UNL     1     -20.279  61.841  29.344  1.00  0.00    -0.000 C 
BRANCH  12  13
ATOM     13  C   UNL     1     -20.467  61.374  30.799  1.00  0.00    -0.000 C 
BRANCH  13  14
ATOM     14  C   UNL     1     -21.326  62.343  31.629  1.00  0.00    -0.000 C 
BRANCH  14  15
ATOM     15  C   UNL     1     -22.236  61.612  32.627  1.00  0.00    -0.003 C 
ATOM     16  C   UNL     1     -22.529  60.170  32.209  1.00  0.00     0.004 C 
ENDBRANCH  14  15
ENDBRANCH  13  14
ENDBRANCH  12  13
ENDBRANCH  11  12
ENDBRANCH  10  11
ENDBRANCH   1  10
TORSDOF 12
ENDMDL
MODEL 4
REMARK VINA RESULT:    -4.085      1.410      2.230
REMARK INTER + INTRA:          -9.361
REMARK INTER:                  -7.484
REMARK INTRA:                  -1.877
REMARK UNBOUND:                -2.411
REMARK SMILES CCCCCCCCCCCCCC(=O)[O-]
REMARK SMILES IDX 8 1 9 2 10 3 11 4 12 5 13 6 14 7 15 8 16 9 7 10 6 11 5 12
REMARK SMILES IDX 4 13 3 14 2 15 1 16
REMARK H PARENT
REMARK Flexibility Score: inf
ROOT
ATOM      1  C   UNL     1     -23.588  59.646  28.275  1.00  0.00     0.000 C 
ENDROOT
BRANCH   1   2
ATOM      2  C   UNL     1     -23.176  58.726  29.434  1.00  0.00     0.000 C 
BRANCH   2   3
ATOM      3  C   UNL     1     -24.345  58.497  30.397  1.00  0.00     0.000 C 
BRANCH   3   4
ATOM      4  C   UNL     1     -25.539  59.387  30.033  1.00  0.00     0.000 C 
BRANCH   4   5
ATOM      5  C   UNL     1     -26.205  59.962  31.288  1.00  0.00     0.006 C 
BRANCH   5   6
ATOM      6  C   UNL     1     -25.722  59.233  32.547  1.00  0.00     0.053 C 
BRANCH   6   7
ATOM      7  C   UNL     1     -25.836  60.107  33.757  1.00  0.00     0.041 C 
ATOM      8  O   UNL     1     -24.839  60.765  34.161  1.00  0.00    -0.550 OA
ATOM      9  O   UNL     1     -27.031  60.166  34.465  1.00  0.00    -0.550 OA
ENDBRANCH   6   7
ENDBRANCH   5   6
ENDBRANCH   4   5
ENDBRANCH   3   4
ENDBRANCH   2   3
ENDBRANCH   1   2
BRANCH   1  10
ATOM     10  C   UNL     1     -22.388  60.125  27.438  1.00  0.00     0.000 C 
BRANCH  10  11
ATOM     11  C   UNL     1     -21.922  61.563  27.738  1.00  0.00    -0.000 C 
BRANCH  11  12
ATOM     12  C   UNL     1     -20.579  61.674  28.487  1.00  0.00    -0.000 C 
BRANCH  12  13
ATOM     13  C   UNL     1     -20.620  61.229  29.960  1.00  0.00    -0.000 C 
BRANCH  13  14
ATOM     14  C   UNL     1     -21.253  62.284  30.883  1.00  0.00    -0.000 C 
BRANCH  14  15
ATOM     15  C   UNL     1     -22.643  61.868  31.385  1.00  0.00    -0.003 C 
ATOM     16  C   UNL     1     -23.773  62.614  30.673  1.00  0.00     0.004 C 
ENDBRANCH  14  15
ENDBRANCH  13  14
ENDBRANCH  12  13
ENDBRANCH  11  12
ENDBRANCH  10  11
ENDBRANCH   1  10
TORSDOF 12
ENDMDL
MODEL 5
REMARK VINA RESULT:    -4.011      1.611      3.672
REMARK INTER + INTRA:          -9.236
REMARK INTER:                  -7.635
REMARK INTRA:                  -1.601
REMARK UNBOUND:                -2.411
REMARK SMILES CCCCCCCCCCCCCC(=O)[O-]
REMARK SMILES IDX 8 1 9 2 10 3 11 4 12 5 13 6 14 7 15 8 16 9 7 10 6 11 5 12
REMARK SMILES IDX 4 13 3 14 2 15 1 16
REMARK H PARENT
REMARK Flexibility Score: inf
ROOT
ATOM      1  C   UNL     1     -20.452  61.297  31.088  1.00  0.00     0.000 C 
ENDROOT
BRANCH   1   2
ATOM      2  C   UNL     1     -21.429  62.446  31.383  1.00  0.00     0.000 C 
BRANCH   2   3
ATOM      3  C   UNL     1     -22.864  61.926  31.522  1.00  0.00     0.000 C 
BRANCH   3   4
ATOM      4  C   UNL     1     -23.838  62.778  30.700  1.00  0.00     0.000 C 
BRANCH   4   5
ATOM      5  C   UNL     1     -25.272  62.251  30.819  1.00  0.00     0.006 C 
BRANCH   5   6
ATOM      6  C   UNL     1     -25.356  61.125  31.855  1.00  0.00     0.053 C 
BRANCH   6   7
ATOM      7  C   UNL     1     -26.443  61.385  32.852  1.00  0.00     0.041 C 
ATOM      8  O   UNL     1     -26.210  61.283  34.087  1.00  0.00    -0.550 OA
ATOM      9  O   UNL     1     -27.725  61.701  32.420  1.00  0.00    -0.550 OA
ENDBRANCH   6   7
ENDBRANCH   5   6
ENDBRANCH   4   5
ENDBRANCH   3   4
ENDBRANCH   2   3
ENDBRANCH   1   2
BRANCH   1  10
ATOM     10  C   UNL     1     -20.657  60.683  29.692  1.00  0.00     0.000 C 
BRANCH  10  11
ATOM     11  C   UNL     1     -20.403  61.647  28.517  1.00  0.00    -0.000 C 
BRANCH  11  12
ATOM     12  C   UNL     1     -21.520  61.694  27.455  1.00  0.00    -0.000 C 
BRANCH  12  13
ATOM     13  C   UNL     1     -22.910  61.261  27.957  1.00  0.00    -0.000 C 
BRANCH  13  14
ATOM     14  C   UNL     1     -23.201  59.774  27.694  1.00  0.00    -0.000 C 
BRANCH  14  15
ATOM     15  C   UNL     1     -24.255  59.203  28.655  1.00  0.00    -0.003 C 
ATOM     16  C   UNL     1     -23.631  58.479  29.849  1.00  0.00     0.004 C 
ENDBRANCH  14  15
ENDBRANCH  13  14
ENDBRANCH  12  13
ENDBRANCH  11  12
ENDBRANCH  10  11
ENDBRANCH   1  10
TORSDOF 12
ENDMDL
MODEL 6
REMARK VINA RESULT:    -3.964      1.700      2.514
REMARK INTER + INTRA:          -9.156
REMARK INTER:                  -7.298
REMARK INTRA:                  -1.858
REMARK UNBOUND:                -2.411
REMARK SMILES CCCCCCCCCCCCCC(=O)[O-]
REMARK SMILES IDX 8 1 9 2 10 3 11 4 12 5 13 6 14 7 15 8 16 9 7 10 6 11 5 12
REMARK SMILES IDX 4 13 3 14 2 15 1 16
REMARK H PARENT
REMARK Flexibility Score: inf
ROOT
ATOM      1  C   UNL     1     -25.940  59.368  30.656  1.00  0.00     0.000 C 
ENDROOT
BRANCH   1   2
ATOM      2  C   UNL     1     -24.753  58.671  31.335  1.00  0.00     0.000 C 
BRANCH   2   3
ATOM      3  C   UNL     1     -24.896  58.701  32.861  1.00  0.00     0.000 C 
BRANCH   3   4
ATOM      4  C   UNL     1     -24.115  59.876  33.462  1.00  0.00     0.000 C 
BRANCH   4   5
ATOM      5  C   UNL     1     -25.042  60.819  34.238  1.00  0.00     0.006 C 
BRANCH   5   6
ATOM      6  C   UNL     1     -26.496  60.340  34.163  1.00  0.00     0.053 C 
BRANCH   6   7
ATOM      7  C   UNL     1     -27.420  61.464  33.807  1.00  0.00     0.041 C 
ATOM      8  O   UNL     1     -27.621  62.402  34.625  1.00  0.00    -0.550 OA
ATOM      9  O   UNL     1     -28.089  61.458  32.589  1.00  0.00    -0.550 OA
ENDBRANCH   6   7
ENDBRANCH   5   6
ENDBRANCH   4   5
ENDBRANCH   3   4
ENDBRANCH   2   3
ENDBRANCH   1   2
BRANCH   1  10
ATOM     10  C   UNL     1     -25.514  60.573  29.799  1.00  0.00     0.000 C 
BRANCH  10  11
ATOM     11  C   UNL     1     -25.165  61.845  30.597  1.00  0.00    -0.000 C 
BRANCH  11  12
ATOM     12  C   UNL     1     -23.785  62.457  30.284  1.00  0.00    -0.000 C 
BRANCH  12  13
ATOM     13  C   UNL     1     -22.735  61.457  29.766  1.00  0.00    -0.000 C 
BRANCH  13  14
ATOM     14  C   UNL     1     -22.413  61.651  28.274  1.00  0.00    -0.000 C 
BRANCH  14  15
ATOM     15  C   UNL     1     -22.437  60.330  27.492  1.00  0.00    -0.003 C 
ATOM     16  C   UNL     1     -22.361  59.105  28.404  1.00  0.00     0.004 C 
ENDBRANCH  14  15
ENDBRANCH  13  14
ENDBRANCH  12  13
ENDBRANCH  11  12
ENDBRANCH  10  11
ENDBRANCH   1  10
TORSDOF 12
ENDMDL
MODEL 7
REMARK VINA RESULT:    -3.942      1.514      3.650
REMARK INTER + INTRA:          -9.119
REMARK INTER:                  -7.656
REMARK INTRA:                  -1.462
REMARK UNBOUND:                -2.411
REMARK SMILES CCCCCCCCCCCCCC(=O)[O-]
REMARK SMILES IDX 8 1 9 2 10 3 11 4 12 5 13 6 14 7 15 8 16 9 7 10 6 11 5 12
REMARK SMILES IDX 4 13 3 14 2 15 1 16
REMARK H PARENT
REMARK Flexibility Score: inf
ROOT
ATOM      1  C   UNL     1     -21.312  62.433  31.924  1.00  0.00     0.000 C 
ENDROOT
BRANCH   1   2
ATOM      2  C   UNL     1     -21.180  62.015  33.396  1.00  0.00     0.000 C 
BRANCH   2   3
ATOM      3  C   UNL     1     -22.238  60.971  33.768  1.00  0.00     0.000 C 
BRANCH   3   4
ATOM      4  C   UNL     1     -22.876  61.296  35.124  1.00  0.00     0.000 C 
BRANCH   4   5
ATOM      5  C   UNL     1     -24.361  60.915  35.145  1.00  0.00     0.006 C 
BRANCH   5   6
ATOM      6  C   UNL     1     -24.807  60.384  33.778  1.00  0.00     0.053 C 
BRANCH   6   7
ATOM      7  C   UNL     1     -26.275  60.596  33.568  1.00  0.00     0.041 C 
ATOM      8  O   UNL     1     -27.097  60.292  34.475  1.00  0.00    -0.550 OA
ATOM      9  O   UNL     1     -26.742  61.092  32.357  1.00  0.00    -0.550 OA
ENDBRANCH   6   7
ENDBRANCH   5   6
ENDBRANCH   4   5
ENDBRANCH   3   4
ENDBRANCH   2   3
ENDBRANCH   1   2
BRANCH   1  10
ATOM     10  C   UNL     1     -22.516  61.778  31.223  1.00  0.00     0.000 C 
BRANCH  10  11
ATOM     11  C   UNL     1     -23.620  62.757  30.780  1.00  0.00    -0.000 C 
BRANCH  11  12
ATOM     12  C   UNL     1     -24.407  62.332  29.524  1.00  0.00    -0.000 C 
BRANCH  12  13
ATOM     13  C   UNL     1     -23.584  61.569  28.470  1.00  0.00    -0.000 C 
BRANCH  13  14
ATOM     14  C   UNL     1     -24.060  60.119  28.278  1.00  0.00    -0.000 C 
BRANCH  14  15
ATOM     15  C   UNL     1     -25.195  59.742  29.242  1.00  0.00    -0.003 C 
ATOM     16  C   UNL     1     -24.722  58.840  30.383  1.00  0.00     0.004 C 
ENDBRANCH  14  15
ENDBRANCH  13  14
ENDBRANCH  12  13
ENDBRANCH  11  12
ENDBRANCH  10  11
ENDBRANCH   1  10
TORSDOF 12
ENDMDL
MODEL 8
REMARK VINA RESULT:    -3.909      2.566      4.421
REMARK INTER + INTRA:          -9.062
REMARK INTER:                  -7.206
REMARK INTRA:                  -1.856
REMARK UNBOUND:                -2.411
REMARK SMILES CCCCCCCCCCCCCC(=O)[O-]
REMARK SMILES IDX 8 1 9 2 10 3 11 4 12 5 13 6 14 7 15 8 16 9 7 10 6 11 5 12
REMARK SMILES IDX 4 13 3 14 2 15 1 16
REMARK H PARENT
REMARK Flexibility Score: inf
ROOT
ATOM      1  C   UNL     1     -22.955  60.490  28.161  1.00  0.00     0.000 C 
ENDROOT
BRANCH   1   2
ATOM      2  C   UNL     1     -22.013  61.620  27.722  1.00  0.00     0.000 C 
BRANCH   2   3
ATOM      3  C   UNL     1     -20.706  61.589  28.522  1.00  0.00     0.000 C 
BRANCH   3   4
ATOM      4  C   UNL     1     -20.942  61.056  29.940  1.00  0.00     0.000 C 
BRANCH   4   5
ATOM      5  C   UNL     1     -20.873  62.183  30.976  1.00  0.00     0.006 C 
BRANCH   5   6
ATOM      6  C   UNL     1     -21.515  61.751  32.298  1.00  0.00     0.053 C 
BRANCH   6   7
ATOM      7  C   UNL     1     -20.571  61.938  33.446  1.00  0.00     0.041 C 
ATOM      8  O   UNL     1     -19.437  61.388  33.431  1.00  0.00    -0.550 OA
ATOM      9  O   UNL     1     -20.957  62.687  34.551  1.00  0.00    -0.550 OA
ENDBRANCH   6   7
ENDBRANCH   5   6
ENDBRANCH   4   5
ENDBRANCH   3   4
ENDBRANCH   2   3
ENDBRANCH   1   2
BRANCH   1  10
ATOM     10  C   UNL     1     -24.343  61.001  28.585  1.00  0.00     0.000 C 
BRANCH  10  11
ATOM     11  C   UNL     1     -24.357  62.425  29.175  1.00  0.00    -0.000 C 
BRANCH  11  12
ATOM     12  C   UNL     1     -24.614  62.503  30.693  1.00  0.00    -0.000 C 
BRANCH  12  13
ATOM     13  C   UNL     1     -25.678  61.524  31.221  1.00  0.00    -0.000 C 
BRANCH  13  14
ATOM     14  C   UNL     1     -25.096  60.473  32.182  1.00  0.00    -0.000 C 
BRANCH  14  15
ATOM     15  C   UNL     1     -25.255  59.041  31.651  1.00  0.00    -0.003 C 
ATOM     16  C   UNL     1     -23.924  58.424  31.217  1.00  0.00     0.004 C 
ENDBRANCH  14  15
ENDBRANCH  13  14
ENDBRANCH  12  13
ENDBRANCH  11  12
ENDBRANCH  10  11
ENDBRANCH   1  10
TORSDOF 12
ENDMDL
MODEL 9
REMARK VINA RESULT:    -3.878      2.313      4.602
REMARK INTER + INTRA:          -9.010
REMARK INTER:                  -6.851
REMARK INTRA:                  -2.159
REMARK UNBOUND:                -2.411
REMARK SMILES CCCCCCCCCCCCCC(=O)[O-]
REMARK SMILES IDX 8 1 9 2 10 3 11 4 12 5 13 6 14 7 15 8 16 9 7 10 6 11 5 12
REMARK SMILES IDX 4 13 3 14 2 15 1 16
REMARK H PARENT
REMARK Flexibility Score: inf
ROOT
ATOM      1  C   UNL     1     -23.625  61.527  28.539  1.00  0.00     0.000 C 
ENDROOT
BRANCH   1   2
ATOM      2  C   UNL     1     -24.628  62.326  29.384  1.00  0.00     0.000 C 
BRANCH   2   3
ATOM      3  C   UNL     1     -24.013  62.738  30.726  1.00  0.00     0.000 C 
BRANCH   3   4
ATOM      4  C   UNL     1     -22.667  62.038  30.951  1.00  0.00     0.000 C 
BRANCH   4   5
ATOM      5  C   UNL     1     -22.536  61.539  32.394  1.00  0.00     0.006 C 
BRANCH   5   6
ATOM      6  C   UNL     1     -21.585  60.341  32.473  1.00  0.00     0.053 C 
BRANCH   6   7
ATOM      7  C   UNL     1     -20.650  60.466  33.637  1.00  0.00     0.041 C 
ATOM      8  O   UNL     1     -20.605  59.564  34.516  1.00  0.00    -0.550 OA
ATOM      9  O   UNL     1     -19.854  61.598  33.773  1.00  0.00    -0.550 OA
ENDBRANCH   6   7
ENDBRANCH   5   6
ENDBRANCH   4   5
ENDBRANCH   3   4
ENDBRANCH   2   3
ENDBRANCH   1   2
BRANCH   1  10
ATOM     10  C   UNL     1     -24.128  60.115  28.193  1.00  0.00     0.000 C 
BRANCH  10  11
ATOM     11  C   UNL     1     -25.085  59.495  29.230  1.00  0.00    -0.000 C 
BRANCH  11  12
ATOM     12  C   UNL     1     -24.404  58.657  30.330  1.00  0.00    -0.000 C 
BRANCH  12  13
ATOM     13  C   UNL     1     -25.023  58.803  31.733  1.00  0.00    -0.000 C 
BRANCH  13  14
ATOM     14  C   UNL     1     -26.253  59.726  31.747  1.00  0.00    -0.000 C 
BRANCH  14  15
ATOM     15  C   UNL     1     -26.200  60.757  32.884  1.00  0.00    -0.003 C 
ATOM     16  C   UNL     1     -27.122  61.952  32.638  1.00  0.00     0.004 C 
ENDBRANCH  14  15
ENDBRANCH  13  14
ENDBRANCH  12  13
ENDBRANCH  11  12
ENDBRANCH  10  11
ENDBRANCH   1  10
TORSDOF 12
ENDMDL
