MODEL 1
REMARK VINA RESULT:    -2.929      0.000      0.000
REMARK INTER + INTRA:          -4.299
REMARK INTER:                  -3.956
REMARK INTRA:                  -0.342
REMARK UNBOUND:                -0.342
REMARK SMILES CCCCCCCC(=O)[O-]
REMARK SMILES IDX 5 1 6 2 7 3 8 4 9 5 10 6 4 7 3 8 2 9 1 10
REMARK H PARENT
REMARK Flexibility Score: inf
ROOT
ATOM      1  C   UNL     1      62.831 130.224  -6.884  1.00  0.00     0.000 C 
ENDROOT
BRANCH   1   2
ATOM      2  C   UNL     1      64.364 130.188  -6.764  1.00  0.00     0.006 C 
BRANCH   2   3
ATOM      3  C   UNL     1      64.847 129.330  -5.588  1.00  0.00     0.053 C 
BRANCH   3   4
ATOM      4  C   UNL     1      66.299 129.007  -5.740  1.00  0.00     0.041 C 
ATOM      5  O   UNL     1      66.814 128.070  -5.074  1.00  0.00    -0.550 OA
ATOM      6  O   UNL     1      67.075 129.708  -6.655  1.00  0.00    -0.550 OA
ENDBRANCH   3   4
ENDBRANCH   2   3
ENDBRANCH   1   2
BRANCH   1   7
ATOM      7  C   UNL     1      62.319 129.466  -8.122  1.00  0.00     0.000 C 
BRANCH   7   8
ATOM      8  C   UNL     1      61.211 128.457  -7.780  1.00  0.00    -0.000 C 
BRANCH   8   9
ATOM      9  C   UNL     1      61.356 127.875  -6.366  1.00  0.00    -0.003 C 
ATOM     10  C   UNL     1      60.030 127.929  -5.612  1.00  0.00     0.004 C 
ENDBRANCH   8   9
ENDBRANCH   7   8
ENDBRANCH   1   7
TORSDOF 6
ENDMDL
MODEL 2
REMARK VINA RESULT:    -2.537      3.101      4.966
REMARK INTER + INTRA:          -3.770
REMARK INTER:                  -3.454
REMARK INTRA:                  -0.316
REMARK UNBOUND:                -0.342
REMARK SMILES CCCCCCCC(=O)[O-]
REMARK SMILES IDX 5 1 6 2 7 3 8 4 9 5 10 6 4 7 3 8 2 9 1 10
REMARK H PARENT
REMARK Flexibility Score: inf
ROOT
ATOM      1  C   UNL     1      63.918 130.741  -8.107  1.00  0.00     0.000 C 
ENDROOT
BRANCH   1   2
ATOM      2  C   UNL     1      62.485 130.341  -7.721  1.00  0.00     0.006 C 
BRANCH   2   3
ATOM      3  C   UNL     1      62.443 129.183  -6.714  1.00  0.00     0.053 C 
BRANCH   3   4
ATOM      4  C   UNL     1      61.238 128.331  -6.951  1.00  0.00     0.041 C 
ATOM      5  O   UNL     1      60.925 127.986  -8.121  1.00  0.00    -0.550 OA
ATOM      6  O   UNL     1      60.485 127.875  -5.875  1.00  0.00    -0.550 OA
ENDBRANCH   3   4
ENDBRANCH   2   3
ENDBRANCH   1   2
BRANCH   1   7
ATOM      7  C   UNL     1      64.960 130.275  -7.074  1.00  0.00     0.000 C 
BRANCH   7   8
ATOM      8  C   UNL     1      66.319 129.947  -7.712  1.00  0.00    -0.000 C 
BRANCH   8   9
ATOM      9  C   UNL     1      67.085 128.857  -6.948  1.00  0.00    -0.003 C 
ATOM     10  C   UNL     1      66.478 128.624  -5.568  1.00  0.00     0.004 C 
ENDBRANCH   8   9
ENDBRANCH   7   8
ENDBRANCH   1   7
TORSDOF 6
ENDMDL
MODEL 3
REMARK VINA RESULT:    -2.140     21.355     22.306
REMARK INTER + INTRA:          -3.233
REMARK INTER:                  -2.983
REMARK INTRA:                  -0.250
REMARK UNBOUND:                -0.342
REMARK SMILES CCCCCCCC(=O)[O-]
REMARK SMILES IDX 5 1 6 2 7 3 8 4 9 5 10 6 4 7 3 8 2 9 1 10
REMARK H PARENT
REMARK Flexibility Score: inf
ROOT
ATOM      1  C   UNL     1      54.112 147.094  -1.506  1.00  0.00     0.000 C 
ENDROOT
BRANCH   1   2
ATOM      2  C   UNL     1      54.251 148.069  -2.687  1.00  0.00     0.006 C 
BRANCH   2   3
ATOM      3  C   UNL     1      52.991 148.125  -3.561  1.00  0.00     0.053 C 
BRANCH   3   4
ATOM      4  C   UNL     1      53.320 147.757  -4.973  1.00  0.00     0.041 C 
ATOM      5  O   UNL     1      54.431 148.081  -5.470  1.00  0.00    -0.550 OA
ATOM      6  O   UNL     1      52.420 147.013  -5.727  1.00  0.00    -0.550 OA
ENDBRANCH   3   4
ENDBRANCH   2   3
ENDBRANCH   1   2
BRANCH   1   7
ATOM      7  C   UNL     1      54.067 147.815  -0.148  1.00  0.00     0.000 C 
BRANCH   7   8
ATOM      8  C   UNL     1      52.896 147.348   0.731  1.00  0.00    -0.000 C 
BRANCH   8   9
ATOM      9  C   UNL     1      51.598 148.119   0.448  1.00  0.00    -0.003 C 
ATOM     10  C   UNL     1      50.599 147.948   1.588  1.00  0.00     0.004 C 
ENDBRANCH   8   9
ENDBRANCH   7   8
ENDBRANCH   1   7
TORSDOF 6
ENDMDL
MODEL 4
REMARK VINA RESULT:    -2.064     21.107     22.079
REMARK INTER + INTRA:          -3.130
REMARK INTER:                  -3.120
REMARK INTRA:                  -0.010
REMARK UNBOUND:                -0.342
REMARK SMILES CCCCCCCC(=O)[O-]
REMARK SMILES IDX 5 1 6 2 7 3 8 4 9 5 10 6 4 7 3 8 2 9 1 10
REMARK H PARENT
REMARK Flexibility Score: inf
ROOT
ATOM      1  C   UNL     1      54.994 147.360  -2.084  1.00  0.00     0.000 C 
ENDROOT
BRANCH   1   2
ATOM      2  C   UNL     1      54.763 148.043  -3.442  1.00  0.00     0.006 C 
BRANCH   2   3
ATOM      3  C   UNL     1      53.284 148.063  -3.851  1.00  0.00     0.053 C 
BRANCH   3   4
ATOM      4  C   UNL     1      53.146 147.821  -5.320  1.00  0.00     0.041 C 
ATOM      5  O   UNL     1      52.063 147.388  -5.793  1.00  0.00    -0.550 OA
ATOM      6  O   UNL     1      54.200 148.120  -6.176  1.00  0.00    -0.550 OA
ENDBRANCH   3   4
ENDBRANCH   2   3
ENDBRANCH   1   2
BRANCH   1   7
ATOM      7  C   UNL     1      54.340 148.125  -0.920  1.00  0.00     0.000 C 
BRANCH   7   8
ATOM      8  C   UNL     1      52.927 147.612  -0.597  1.00  0.00    -0.000 C 
BRANCH   8   9
ATOM      9  C   UNL     1      52.675 147.481   0.912  1.00  0.00    -0.003 C 
ATOM     10  C   UNL     1      53.805 148.120   1.715  1.00  0.00     0.004 C 
ENDBRANCH   8   9
ENDBRANCH   7   8
ENDBRANCH   1   7
TORSDOF 6
ENDMDL
MODEL 5
REMARK VINA RESULT:    -2.023     22.793     23.543
REMARK INTER + INTRA:          -3.075
REMARK INTER:                  -2.901
REMARK INTRA:                  -0.174
REMARK UNBOUND:                -0.342
REMARK SMILES CCCCCCCC(=O)[O-]
REMARK SMILES IDX 5 1 6 2 7 3 8 4 9 5 10 6 4 7 3 8 2 9 1 10
REMARK H PARENT
REMARK Flexibility Score: inf
ROOT
ATOM      1  C   UNL     1      50.136 148.072   0.670  1.00  0.00     0.000 C 
ENDROOT
BRANCH   1   2
ATOM      2  C   UNL     1      51.534 148.123   0.033  1.00  0.00     0.006 C 
BRANCH   2   3
ATOM      3  C   UNL     1      52.612 147.479   0.917  1.00  0.00     0.053 C 
BRANCH   3   4
ATOM      4  C   UNL     1      53.969 147.711   0.334  1.00  0.00     0.041 C 
ATOM      5  O   UNL     1      54.989 147.685   1.072  1.00  0.00    -0.550 OA
ATOM      6  O   UNL     1      54.115 147.906  -1.034  1.00  0.00    -0.550 OA
ENDBRANCH   3   4
ENDBRANCH   2   3
ENDBRANCH   1   2
BRANCH   1   7
ATOM      7  C   UNL     1      49.009 148.125  -0.377  1.00  0.00     0.000 C 
BRANCH   7   8
ATOM      8  C   UNL     1      47.717 147.452   0.114  1.00  0.00    -0.000 C 
BRANCH   8   9
ATOM      9  C   UNL     1      46.882 146.864  -1.034  1.00  0.00    -0.003 C 
ATOM     10  C   UNL     1      47.582 147.058  -2.376  1.00  0.00     0.004 C 
ENDBRANCH   8   9
ENDBRANCH   7   8
ENDBRANCH   1   7
TORSDOF 6
ENDMDL
MODEL 6
REMARK VINA RESULT:    -1.621     21.786     22.629
REMARK INTER + INTRA:          -2.532
REMARK INTER:                  -2.382
REMARK INTRA:                  -0.149
REMARK UNBOUND:                -0.342
REMARK SMILES CCCCCCCC(=O)[O-]
REMARK SMILES IDX 5 1 6 2 7 3 8 4 9 5 10 6 4 7 3 8 2 9 1 10
REMARK H PARENT
REMARK Flexibility Score: inf
ROOT
ATOM      1  C   UNL     1      53.122 148.027  -3.597  1.00  0.00     0.000 C 
ENDROOT
BRANCH   1   2
ATOM      2  C   UNL     1      52.386 147.146  -4.618  1.00  0.00     0.006 C 
BRANCH   2   3
ATOM      3  C   UNL     1      52.856 147.390  -6.059  1.00  0.00     0.053 C 
BRANCH   3   4
ATOM      4  C   UNL     1      51.729 147.911  -6.893  1.00  0.00     0.041 C 
ATOM      5  O   UNL     1      51.894 148.118  -8.124  1.00  0.00    -0.550 OA
ATOM      6  O   UNL     1      50.480 148.121  -6.321  1.00  0.00    -0.550 OA
ENDBRANCH   3   4
ENDBRANCH   2   3
ENDBRANCH   1   2
BRANCH   1   7
ATOM      7  C   UNL     1      52.468 147.989  -2.204  1.00  0.00     0.000 C 
BRANCH   7   8
ATOM      8  C   UNL     1      53.492 148.125  -1.067  1.00  0.00    -0.000 C 
BRANCH   8   9
ATOM      9  C   UNL     1      53.035 147.436   0.228  1.00  0.00    -0.003 C 
ATOM     10  C   UNL     1      51.690 147.984   0.696  1.00  0.00     0.004 C 
ENDBRANCH   8   9
ENDBRANCH   7   8
ENDBRANCH   1   7
TORSDOF 6
ENDMDL
MODEL 7
REMARK VINA RESULT:    -1.088     21.489     22.434
REMARK INTER + INTRA:          -1.813
REMARK INTER:                  -1.611
REMARK INTRA:                  -0.201
REMARK UNBOUND:                -0.342
REMARK SMILES CCCCCCCC(=O)[O-]
REMARK SMILES IDX 5 1 6 2 7 3 8 4 9 5 10 6 4 7 3 8 2 9 1 10
REMARK H PARENT
REMARK Flexibility Score: inf
ROOT
ATOM      1  C   UNL     1      54.463 146.871  -1.384  1.00  0.00     0.000 C 
ENDROOT
BRANCH   1   2
ATOM      2  C   UNL     1      53.906 147.998  -0.499  1.00  0.00     0.006 C 
BRANCH   2   3
ATOM      3  C   UNL     1      52.444 147.766  -0.094  1.00  0.00     0.053 C 
BRANCH   3   4
ATOM      4  C   UNL     1      52.274 147.968   1.378  1.00  0.00     0.041 C 
ATOM      5  O   UNL     1      53.281 148.118   2.119  1.00  0.00    -0.550 OA
ATOM      6  O   UNL     1      50.999 148.040   1.928  1.00  0.00    -0.550 OA
ENDBRANCH   3   4
ENDBRANCH   2   3
ENDBRANCH   1   2
BRANCH   1   7
ATOM      7  C   UNL     1      55.116 147.401  -2.673  1.00  0.00     0.000 C 
BRANCH   7   8
ATOM      8  C   UNL     1      54.115 148.125  -3.587  1.00  0.00    -0.000 C 
BRANCH   8   9
ATOM      9  C   UNL     1      54.362 147.843  -5.077  1.00  0.00    -0.003 C 
ATOM     10  C   UNL     1      53.056 147.879  -5.866  1.00  0.00     0.004 C 
ENDBRANCH   8   9
ENDBRANCH   7   8
ENDBRANCH   1   7
TORSDOF 6
ENDMDL
MODEL 8
REMARK VINA RESULT:    -0.936     21.392     22.381
REMARK INTER + INTRA:          -1.607
REMARK INTER:                  -1.335
REMARK INTRA:                  -0.272
REMARK UNBOUND:                -0.342
REMARK SMILES CCCCCCCC(=O)[O-]
REMARK SMILES IDX 5 1 6 2 7 3 8 4 9 5 10 6 4 7 3 8 2 9 1 10
REMARK H PARENT
REMARK Flexibility Score: inf
ROOT
ATOM      1  C   UNL     1      51.499 148.086  -1.011  1.00  0.00     0.000 C 
ENDROOT
BRANCH   1   2
ATOM      2  C   UNL     1      52.917 148.116  -1.604  1.00  0.00     0.006 C 
BRANCH   2   3
ATOM      3  C   UNL     1      52.918 148.123  -3.138  1.00  0.00     0.053 C 
BRANCH   3   4
ATOM      4  C   UNL     1      54.231 147.630  -3.660  1.00  0.00     0.041 C 
ATOM      5  O   UNL     1      54.405 147.481  -4.898  1.00  0.00    -0.550 OA
ATOM      6  O   UNL     1      55.279 147.381  -2.782  1.00  0.00    -0.550 OA
ENDBRANCH   3   4
ENDBRANCH   2   3
ENDBRANCH   1   2
BRANCH   1   7
ATOM      7  C   UNL     1      51.503 148.010   0.526  1.00  0.00     0.000 C 
BRANCH   7   8
ATOM      8  C   UNL     1      52.673 147.177   1.073  1.00  0.00    -0.000 C 
BRANCH   8   9
ATOM      9  C   UNL     1      53.610 147.991   1.978  1.00  0.00    -0.003 C 
ATOM     10  C   UNL     1      55.004 148.101   1.367  1.00  0.00     0.004 C 
ENDBRANCH   8   9
ENDBRANCH   7   8
ENDBRANCH   1   7
TORSDOF 6
ENDMDL
