MODEL 1
REMARK VINA RESULT:    -6.159      0.000      0.000
REMARK INTER + INTRA:         -10.374
REMARK INTER:                  -9.400
REMARK INTRA:                  -0.974
REMARK UNBOUND:                -0.974
REMARK SMILES CC(=O)CCC=C(C)CCC=C(C)CCC=C(C)C
REMARK SMILES IDX 10 1 11 2 12 3 13 4 14 5 15 6 16 7 18 8 17 9 19 10 9 11 7 12
REMARK SMILES IDX 6 13 8 14 5 15 4 16 2 17 3 18 1 19
REMARK H PARENT
REMARK Flexibility Score: inf
ROOT
ATOM      1  C   UNL     1      -3.352   0.272  12.217  1.00  0.00     0.032 C 
ENDROOT
BRANCH   1   2
ATOM      2  C   UNL     1      -3.562  -0.653  11.046  1.00  0.00    -0.028 C 
ATOM      3  C   UNL     1      -3.345  -0.314   9.754  1.00  0.00    -0.077 C 
ATOM      4  C   UNL     1      -2.823   1.049   9.362  1.00  0.00     0.039 C 
BRANCH   3   5
ATOM      5  C   UNL     1      -3.582  -1.343   8.668  1.00  0.00     0.034 C 
BRANCH   5   6
ATOM      6  C   UNL     1      -2.998  -2.711   9.045  1.00  0.00     0.032 C 
BRANCH   6   7
ATOM      7  C   UNL     1      -4.074  -3.771   9.113  1.00  0.00    -0.028 C 
ATOM      8  C   UNL     1      -3.842  -4.109  11.585  1.00  0.00     0.039 C 
ATOM      9  C   UNL     1      -4.482  -4.385  10.246  1.00  0.00    -0.080 C 
ATOM     10  C   UNL     1      -5.617  -5.371  10.156  1.00  0.00     0.039 C 
ENDBRANCH   6   7
ENDBRANCH   5   6
ENDBRANCH   3   5
ENDBRANCH   1   2
BRANCH   1  11
ATOM     11  C   UNL     1      -4.677   0.901  12.660  1.00  0.00     0.034 C 
BRANCH  11  12
ATOM     12  C   UNL     1      -4.520   1.596  13.995  1.00  0.00    -0.077 C 
ATOM     13  C   UNL     1      -5.538   2.352  14.466  1.00  0.00    -0.028 C 
ATOM     14  C   UNL     1      -3.225   1.442  14.756  1.00  0.00     0.039 C 
BRANCH  13  15
ATOM     15  C   UNL     1      -5.531   3.054  15.800  1.00  0.00     0.035 C 
BRANCH  15  16
ATOM     16  C   UNL     1      -6.866   2.852  16.524  1.00  0.00     0.079 C 
BRANCH  16  17
ATOM     17  C   UNL     1      -7.796   4.006  16.259  1.00  0.00     0.130 C 
ATOM     18  O   UNL     1      -8.801   3.826  15.588  1.00  0.00    -0.300 OA
ATOM     19  C   UNL     1      -7.513   5.378  16.796  1.00  0.00     0.087 C 
ENDBRANCH  16  17
ENDBRANCH  15  16
ENDBRANCH  13  15
ENDBRANCH  11  12
ENDBRANCH   1  11
TORSDOF 9
ENDMDL
MODEL 2
REMARK VINA RESULT:    -5.926      2.484      8.713
REMARK INTER + INTRA:         -10.017
REMARK INTER:                  -9.194
REMARK INTRA:                  -0.823
REMARK UNBOUND:                -0.974
REMARK SMILES CC(=O)CCC=C(C)CCC=C(C)CCC=C(C)C
REMARK SMILES IDX 10 1 11 2 12 3 13 4 14 5 15 6 16 7 18 8 17 9 19 10 9 11 7 12
REMARK SMILES IDX 6 13 8 14 5 15 4 16 2 17 3 18 1 19
REMARK H PARENT
REMARK Flexibility Score: inf
ROOT
ATOM      1  C   UNL     1      -3.938   0.426  11.975  1.00  0.00     0.032 C 
ENDROOT
BRANCH   1   2
ATOM      2  C   UNL     1      -4.983   1.257  12.676  1.00  0.00    -0.028 C 
ATOM      3  C   UNL     1      -4.822   1.819  13.896  1.00  0.00    -0.077 C 
ATOM      4  C   UNL     1      -3.531   1.692  14.671  1.00  0.00     0.039 C 
BRANCH   3   5
ATOM      5  C   UNL     1      -5.947   2.643  14.486  1.00  0.00     0.034 C 
BRANCH   5   6
ATOM      6  C   UNL     1      -5.854   2.720  16.015  1.00  0.00     0.032 C 
BRANCH   6   7
ATOM      7  C   UNL     1      -5.613   4.137  16.483  1.00  0.00    -0.028 C 
ATOM      8  C   UNL     1      -8.048   4.729  16.539  1.00  0.00     0.039 C 
ATOM      9  C   UNL     1      -6.585   5.038  16.749  1.00  0.00    -0.080 C 
ATOM     10  C   UNL     1      -6.182   6.391  17.276  1.00  0.00     0.039 C 
ENDBRANCH   6   7
ENDBRANCH   5   6
ENDBRANCH   3   5
ENDBRANCH   1   2
BRANCH   1  11
ATOM     11  C   UNL     1      -3.720   0.922  10.541  1.00  0.00     0.034 C 
BRANCH  11  12
ATOM     12  C   UNL     1      -3.289  -0.216   9.642  1.00  0.00    -0.077 C 
ATOM     13  C   UNL     1      -3.945  -1.397   9.716  1.00  0.00    -0.028 C 
ATOM     14  C   UNL     1      -2.127  -0.009   8.700  1.00  0.00     0.039 C 
BRANCH  13  15
ATOM     15  C   UNL     1      -3.651  -2.590   8.842  1.00  0.00     0.035 C 
BRANCH  15  16
ATOM     16  C   UNL     1      -3.162  -3.771   9.687  1.00  0.00     0.079 C 
BRANCH  16  17
ATOM     17  C   UNL     1      -4.292  -4.357  10.489  1.00  0.00     0.130 C 
ATOM     18  O   UNL     1      -4.252  -4.310  11.709  1.00  0.00    -0.300 OA
ATOM     19  C   UNL     1      -5.470  -5.005   9.823  1.00  0.00     0.087 C 
ENDBRANCH  16  17
ENDBRANCH  15  16
ENDBRANCH  13  15
ENDBRANCH  11  12
ENDBRANCH   1  11
TORSDOF 9
ENDMDL
MODEL 3
REMARK VINA RESULT:    -5.809      1.355      2.002
REMARK INTER + INTRA:          -9.839
REMARK INTER:                  -8.452
REMARK INTRA:                  -1.387
REMARK UNBOUND:                -0.974
REMARK SMILES CC(=O)CCC=C(C)CCC=C(C)CCC=C(C)C
REMARK SMILES IDX 10 1 11 2 12 3 13 4 14 5 15 6 16 7 18 8 17 9 19 10 9 11 7 12
REMARK SMILES IDX 6 13 8 14 5 15 4 16 2 17 3 18 1 19
REMARK H PARENT
REMARK Flexibility Score: inf
ROOT
ATOM      1  C   UNL     1      -5.135   1.037  12.665  1.00  0.00     0.032 C 
ENDROOT
BRANCH   1   2
ATOM      2  C   UNL     1      -4.392   0.456  11.489  1.00  0.00    -0.028 C 
ATOM      3  C   UNL     1      -3.901   1.183  10.458  1.00  0.00    -0.077 C 
ATOM      4  C   UNL     1      -4.026   2.688  10.411  1.00  0.00     0.039 C 
BRANCH   3   5
ATOM      5  C   UNL     1      -3.160   0.478   9.342  1.00  0.00     0.034 C 
BRANCH   5   6
ATOM      6  C   UNL     1      -3.921  -0.759   8.848  1.00  0.00     0.032 C 
BRANCH   6   7
ATOM      7  C   UNL     1      -2.979  -1.901   8.541  1.00  0.00    -0.028 C 
ATOM      8  C   UNL     1      -3.375  -3.059  10.727  1.00  0.00     0.039 C 
ATOM      9  C   UNL     1      -2.746  -2.951   9.359  1.00  0.00    -0.080 C 
ATOM     10  C   UNL     1      -1.830  -4.046   8.876  1.00  0.00     0.039 C 
ENDBRANCH   6   7
ENDBRANCH   5   6
ENDBRANCH   3   5
ENDBRANCH   1   2
BRANCH   1  11
ATOM     11  C   UNL     1      -4.208   1.188  13.876  1.00  0.00     0.034 C 
BRANCH  11  12
ATOM     12  C   UNL     1      -4.466   2.497  14.589  1.00  0.00    -0.077 C 
ATOM     13  C   UNL     1      -5.405   2.541  15.561  1.00  0.00    -0.028 C 
ATOM     14  C   UNL     1      -3.683   3.722  14.183  1.00  0.00     0.039 C 
BRANCH  13  15
ATOM     15  C   UNL     1      -5.725   3.764  16.383  1.00  0.00     0.035 C 
BRANCH  15  16
ATOM     16  C   UNL     1      -7.229   4.051  16.364  1.00  0.00     0.079 C 
BRANCH  16  17
ATOM     17  C   UNL     1      -7.665   4.522  15.002  1.00  0.00     0.130 C 
ATOM     18  O   UNL     1      -8.677   4.056  14.500  1.00  0.00    -0.300 OA
ATOM     19  C   UNL     1      -6.880   5.550  14.243  1.00  0.00     0.087 C 
ENDBRANCH  16  17
ENDBRANCH  15  16
ENDBRANCH  13  15
ENDBRANCH  11  12
ENDBRANCH   1  11
TORSDOF 9
ENDMDL
MODEL 4
REMARK VINA RESULT:    -5.775      5.675      9.107
REMARK INTER + INTRA:          -9.788
REMARK INTER:                  -8.446
REMARK INTRA:                  -1.342
REMARK UNBOUND:                -0.974
REMARK SMILES CC(=O)CCC=C(C)CCC=C(C)CCC=C(C)C
REMARK SMILES IDX 10 1 11 2 12 3 13 4 14 5 15 6 16 7 18 8 17 9 19 10 9 11 7 12
REMARK SMILES IDX 6 13 8 14 5 15 4 16 2 17 3 18 1 19
REMARK H PARENT
REMARK Flexibility Score: inf
ROOT
ATOM      1  C   UNL     1      -3.111   3.444  15.110  1.00  0.00     0.032 C 
ENDROOT
BRANCH   1   2
ATOM      2  C   UNL     1      -4.371   3.342  15.933  1.00  0.00    -0.028 C 
ATOM      3  C   UNL     1      -5.550   2.867  15.469  1.00  0.00    -0.077 C 
ATOM      4  C   UNL     1      -5.705   2.350  14.059  1.00  0.00     0.039 C 
BRANCH   3   5
ATOM      5  C   UNL     1      -6.741   2.804  16.404  1.00  0.00     0.034 C 
BRANCH   5   6
ATOM      6  C   UNL     1      -7.700   3.981  16.182  1.00  0.00     0.032 C 
BRANCH   6   7
ATOM      7  C   UNL     1      -7.285   5.190  16.988  1.00  0.00    -0.028 C 
ATOM      8  C   UNL     1      -6.334   6.409  15.016  1.00  0.00     0.039 C 
ATOM      9  C   UNL     1      -6.700   6.296  16.476  1.00  0.00    -0.080 C 
ATOM     10  C   UNL     1      -6.412   7.448  17.404  1.00  0.00     0.039 C 
ENDBRANCH   6   7
ENDBRANCH   5   6
ENDBRANCH   3   5
ENDBRANCH   1   2
BRANCH   1  11
ATOM     11  C   UNL     1      -1.875   3.520  16.013  1.00  0.00     0.034 C 
BRANCH  11  12
ATOM     12  C   UNL     1      -1.339   2.135  16.304  1.00  0.00    -0.077 C 
ATOM     13  C   UNL     1      -0.732   1.901  17.490  1.00  0.00    -0.028 C 
ATOM     14  C   UNL     1      -1.480   1.057  15.256  1.00  0.00     0.039 C 
BRANCH  13  15
ATOM     15  C   UNL     1      -0.201   0.559  17.925  1.00  0.00     0.035 C 
BRANCH  15  16
ATOM     16  C   UNL     1       1.328   0.529  17.844  1.00  0.00     0.079 C 
BRANCH  16  17
ATOM     17  C   UNL     1       1.939   0.935  19.158  1.00  0.00     0.130 C 
ATOM     18  O   UNL     1       2.849   1.750  19.172  1.00  0.00    -0.300 OA
ATOM     19  C   UNL     1       1.460   0.355  20.456  1.00  0.00     0.087 C 
ENDBRANCH  16  17
ENDBRANCH  15  16
ENDBRANCH  13  15
ENDBRANCH  11  12
ENDBRANCH   1  11
TORSDOF 9
ENDMDL
MODEL 5
REMARK VINA RESULT:    -5.748      3.113      8.512
REMARK INTER + INTRA:          -9.746
REMARK INTER:                  -8.235
REMARK INTRA:                  -1.511
REMARK UNBOUND:                -0.974
REMARK SMILES CC(=O)CCC=C(C)CCC=C(C)CCC=C(C)C
REMARK SMILES IDX 10 1 11 2 12 3 13 4 14 5 15 6 16 7 18 8 17 9 19 10 9 11 7 12
REMARK SMILES IDX 6 13 8 14 5 15 4 16 2 17 3 18 1 19
REMARK H PARENT
REMARK Flexibility Score: inf
ROOT
ATOM      1  C   UNL     1      -4.284   2.012  10.418  1.00  0.00     0.032 C 
ENDROOT
BRANCH   1   2
ATOM      2  C   UNL     1      -3.954   2.582  11.774  1.00  0.00    -0.028 C 
ATOM      3  C   UNL     1      -4.459   2.121  12.941  1.00  0.00    -0.077 C 
ATOM      4  C   UNL     1      -5.396   0.937  12.994  1.00  0.00     0.039 C 
BRANCH   3   5
ATOM      5  C   UNL     1      -4.037   2.775  14.240  1.00  0.00     0.034 C 
BRANCH   5   6
ATOM      6  C   UNL     1      -4.989   2.422  15.390  1.00  0.00     0.032 C 
BRANCH   6   7
ATOM      7  C   UNL     1      -5.420   3.656  16.149  1.00  0.00    -0.028 C 
ATOM      8  C   UNL     1      -7.574   3.903  14.895  1.00  0.00     0.039 C 
ATOM      9  C   UNL     1      -6.585   4.312  15.959  1.00  0.00    -0.080 C 
ATOM     10  C   UNL     1      -6.898   5.488  16.848  1.00  0.00     0.039 C 
ENDBRANCH   6   7
ENDBRANCH   5   6
ENDBRANCH   3   5
ENDBRANCH   1   2
BRANCH   1  11
ATOM     11  C   UNL     1      -3.132   1.148   9.895  1.00  0.00     0.034 C 
BRANCH  11  12
ATOM     12  C   UNL     1      -3.496  -0.320   9.948  1.00  0.00    -0.077 C 
ATOM     13  C   UNL     1      -3.040  -1.073  10.975  1.00  0.00    -0.028 C 
ATOM     14  C   UNL     1      -4.344  -0.907   8.845  1.00  0.00     0.039 C 
BRANCH  13  15
ATOM     15  C   UNL     1      -3.371  -2.531  11.175  1.00  0.00     0.035 C 
BRANCH  15  16
ATOM     16  C   UNL     1      -2.161  -3.411  10.846  1.00  0.00     0.079 C 
BRANCH  16  17
ATOM     17  C   UNL     1      -2.195  -3.845   9.405  1.00  0.00     0.130 C 
ATOM     18  O   UNL     1      -3.254  -4.201   8.909  1.00  0.00    -0.300 OA
ATOM     19  C   UNL     1      -0.954  -3.858   8.563  1.00  0.00     0.087 C 
ENDBRANCH  16  17
ENDBRANCH  15  16
ENDBRANCH  13  15
ENDBRANCH  11  12
ENDBRANCH   1  11
TORSDOF 9
ENDMDL
MODEL 6
REMARK VINA RESULT:    -5.747      2.953      8.349
REMARK INTER + INTRA:          -9.744
REMARK INTER:                  -8.533
REMARK INTRA:                  -1.211
REMARK UNBOUND:                -0.974
REMARK SMILES CC(=O)CCC=C(C)CCC=C(C)CCC=C(C)C
REMARK SMILES IDX 10 1 11 2 12 3 13 4 14 5 15 6 16 7 18 8 17 9 19 10 9 11 7 12
REMARK SMILES IDX 6 13 8 14 5 15 4 16 2 17 3 18 1 19
REMARK H PARENT
REMARK Flexibility Score: inf
ROOT
ATOM      1  C   UNL     1      -4.928   0.561  12.931  1.00  0.00     0.032 C 
ENDROOT
BRANCH   1   2
ATOM      2  C   UNL     1      -4.760   1.662  13.948  1.00  0.00    -0.028 C 
ATOM      3  C   UNL     1      -3.622   1.894  14.642  1.00  0.00    -0.077 C 
ATOM      4  C   UNL     1      -2.373   1.072  14.429  1.00  0.00     0.039 C 
BRANCH   3   5
ATOM      5  C   UNL     1      -3.578   3.044  15.627  1.00  0.00     0.034 C 
BRANCH   5   6
ATOM      6  C   UNL     1      -4.978   3.604  15.909  1.00  0.00     0.032 C 
BRANCH   6   7
ATOM      7  C   UNL     1      -5.254   4.842  15.087  1.00  0.00    -0.028 C 
ATOM      8  C   UNL     1      -7.653   4.253  14.665  1.00  0.00     0.039 C 
ATOM      9  C   UNL     1      -6.452   5.160  14.548  1.00  0.00    -0.080 C 
ATOM     10  C   UNL     1      -6.581   6.469  13.812  1.00  0.00     0.039 C 
ENDBRANCH   6   7
ENDBRANCH   5   6
ENDBRANCH   3   5
ENDBRANCH   1   2
BRANCH   1  11
ATOM     11  C   UNL     1      -4.455   1.019  11.548  1.00  0.00     0.034 C 
BRANCH  11  12
ATOM     12  C   UNL     1      -3.799  -0.122  10.801  1.00  0.00    -0.077 C 
ATOM     13  C   UNL     1      -3.166  -1.089  11.504  1.00  0.00    -0.028 C 
ATOM     14  C   UNL     1      -3.854  -0.140   9.292  1.00  0.00     0.039 C 
BRANCH  13  15
ATOM     15  C   UNL     1      -2.519  -2.304  10.889  1.00  0.00     0.035 C 
BRANCH  15  16
ATOM     16  C   UNL     1      -3.242  -3.582  11.325  1.00  0.00     0.079 C 
BRANCH  16  17
ATOM     17  C   UNL     1      -4.022  -4.169  10.180  1.00  0.00     0.130 C 
ATOM     18  O   UNL     1      -3.701  -3.900   9.032  1.00  0.00    -0.300 OA
ATOM     19  C   UNL     1      -5.194  -5.076  10.415  1.00  0.00     0.087 C 
ENDBRANCH  16  17
ENDBRANCH  15  16
ENDBRANCH  13  15
ENDBRANCH  11  12
ENDBRANCH   1  11
TORSDOF 9
ENDMDL
MODEL 7
REMARK VINA RESULT:    -5.702      1.332      1.834
REMARK INTER + INTRA:          -9.675
REMARK INTER:                  -8.162
REMARK INTRA:                  -1.513
REMARK UNBOUND:                -0.974
REMARK SMILES CC(=O)CCC=C(C)CCC=C(C)CCC=C(C)C
REMARK SMILES IDX 10 1 11 2 12 3 13 4 14 5 15 6 16 7 18 8 17 9 19 10 9 11 7 12
REMARK SMILES IDX 6 13 8 14 5 15 4 16 2 17 3 18 1 19
REMARK H PARENT
REMARK Flexibility Score: inf
ROOT
ATOM      1  C   UNL     1      -3.661   0.722  10.106  1.00  0.00     0.032 C 
ENDROOT
BRANCH   1   2
ATOM      2  C   UNL     1      -3.287  -0.343   9.107  1.00  0.00    -0.028 C 
ATOM      3  C   UNL     1      -2.016  -0.689   8.797  1.00  0.00    -0.077 C 
ATOM      4  C   UNL     1      -0.826  -0.046   9.469  1.00  0.00     0.039 C 
BRANCH   3   5
ATOM      5  C   UNL     1      -1.775  -1.788   7.783  1.00  0.00     0.034 C 
BRANCH   5   6
ATOM      6  C   UNL     1      -1.428  -3.120   8.461  1.00  0.00     0.032 C 
BRANCH   6   7
ATOM      7  C   UNL     1      -2.673  -3.857   8.899  1.00  0.00    -0.028 C 
ATOM      8  C   UNL     1      -2.354  -3.333  11.328  1.00  0.00     0.039 C 
ATOM      9  C   UNL     1      -3.116  -3.937  10.174  1.00  0.00    -0.080 C 
ATOM     10  C   UNL     1      -4.416  -4.652  10.437  1.00  0.00     0.039 C 
ENDBRANCH   6   7
ENDBRANCH   5   6
ENDBRANCH   3   5
ENDBRANCH   1   2
BRANCH   1  11
ATOM     11  C   UNL     1      -4.155   0.094  11.414  1.00  0.00     0.034 C 
BRANCH  11  12
ATOM     12  C   UNL     1      -3.941   1.040  12.576  1.00  0.00    -0.077 C 
ATOM     13  C   UNL     1      -4.990   1.354  13.369  1.00  0.00    -0.028 C 
ATOM     14  C   UNL     1      -2.566   1.620  12.807  1.00  0.00     0.039 C 
BRANCH  13  15
ATOM     15  C   UNL     1      -4.903   2.240  14.586  1.00  0.00     0.035 C 
BRANCH  15  16
ATOM     16  C   UNL     1      -5.696   3.533  14.373  1.00  0.00     0.079 C 
BRANCH  16  17
ATOM     17  C   UNL     1      -6.973   3.512  15.170  1.00  0.00     0.130 C 
ATOM     18  O   UNL     1      -7.982   4.017  14.701  1.00  0.00    -0.300 OA
ATOM     19  C   UNL     1      -7.034   2.888  16.532  1.00  0.00     0.087 C 
ENDBRANCH  16  17
ENDBRANCH  15  16
ENDBRANCH  13  15
ENDBRANCH  11  12
ENDBRANCH   1  11
TORSDOF 9
ENDMDL
MODEL 8
REMARK VINA RESULT:    -5.697      2.943      9.185
REMARK INTER + INTRA:          -9.669
REMARK INTER:                  -8.489
REMARK INTRA:                  -1.180
REMARK UNBOUND:                -0.974
REMARK SMILES CC(=O)CCC=C(C)CCC=C(C)CCC=C(C)C
REMARK SMILES IDX 10 1 11 2 12 3 13 4 14 5 15 6 16 7 18 8 17 9 19 10 9 11 7 12
REMARK SMILES IDX 6 13 8 14 5 15 4 16 2 17 3 18 1 19
REMARK H PARENT
REMARK Flexibility Score: inf
ROOT
ATOM      1  C   UNL     1      -4.286   2.311  13.251  1.00  0.00     0.032 C 
ENDROOT
BRANCH   1   2
ATOM      2  C   UNL     1      -5.443   2.334  14.217  1.00  0.00    -0.028 C 
ATOM      3  C   UNL     1      -5.380   2.830  15.474  1.00  0.00    -0.077 C 
ATOM      4  C   UNL     1      -4.121   3.456  16.025  1.00  0.00     0.039 C 
BRANCH   3   5
ATOM      5  C   UNL     1      -6.621   2.805  16.342  1.00  0.00     0.034 C 
BRANCH   5   6
ATOM      6  C   UNL     1      -7.568   3.966  16.013  1.00  0.00     0.032 C 
BRANCH   6   7
ATOM      7  C   UNL     1      -7.371   5.126  16.962  1.00  0.00    -0.028 C 
ATOM      8  C   UNL     1      -6.137   6.526  15.290  1.00  0.00     0.039 C 
ATOM      9  C   UNL     1      -6.758   6.288  16.645  1.00  0.00    -0.080 C 
ATOM     10  C   UNL     1      -6.704   7.376  17.686  1.00  0.00     0.039 C 
ENDBRANCH   6   7
ENDBRANCH   5   6
ENDBRANCH   3   5
ENDBRANCH   1   2
BRANCH   1  11
ATOM     11  C   UNL     1      -3.972   0.878  12.809  1.00  0.00     0.034 C 
BRANCH  11  12
ATOM     12  C   UNL     1      -3.930   0.780  11.299  1.00  0.00    -0.077 C 
ATOM     13  C   UNL     1      -3.440  -0.343  10.727  1.00  0.00    -0.028 C 
ATOM     14  C   UNL     1      -4.420   1.946  10.473  1.00  0.00     0.039 C 
BRANCH  13  15
ATOM     15  C   UNL     1      -3.390  -0.590   9.240  1.00  0.00     0.035 C 
BRANCH  15  16
ATOM     16  C   UNL     1      -4.336  -1.729   8.848  1.00  0.00     0.079 C 
BRANCH  16  17
ATOM     17  C   UNL     1      -3.654  -3.063   8.996  1.00  0.00     0.130 C 
ATOM     18  O   UNL     1      -2.570  -3.246   8.463  1.00  0.00    -0.300 OA
ATOM     19  C   UNL     1      -4.279  -4.178   9.782  1.00  0.00     0.087 C 
ENDBRANCH  16  17
ENDBRANCH  15  16
ENDBRANCH  13  15
ENDBRANCH  11  12
ENDBRANCH   1  11
TORSDOF 9
ENDMDL
MODEL 9
REMARK VINA RESULT:    -5.602      1.428      2.642
REMARK INTER + INTRA:          -9.523
REMARK INTER:                  -8.284
REMARK INTRA:                  -1.240
REMARK UNBOUND:                -0.974
REMARK SMILES CC(=O)CCC=C(C)CCC=C(C)CCC=C(C)C
REMARK SMILES IDX 10 1 11 2 12 3 13 4 14 5 15 6 16 7 18 8 17 9 19 10 9 11 7 12
REMARK SMILES IDX 6 13 8 14 5 15 4 16 2 17 3 18 1 19
REMARK H PARENT
REMARK Flexibility Score: inf
ROOT
ATOM      1  C   UNL     1      -3.445   0.414  11.846  1.00  0.00     0.032 C 
ENDROOT
BRANCH   1   2
ATOM      2  C   UNL     1      -3.643  -1.034  11.475  1.00  0.00    -0.028 C 
ATOM      3  C   UNL     1      -2.663  -1.967  11.482  1.00  0.00    -0.077 C 
ATOM      4  C   UNL     1      -1.251  -1.640  11.907  1.00  0.00     0.039 C 
BRANCH   3   5
ATOM      5  C   UNL     1      -2.997  -3.394  11.100  1.00  0.00     0.034 C 
BRANCH   5   6
ATOM      6  C   UNL     1      -3.334  -3.519   9.609  1.00  0.00     0.032 C 
BRANCH   6   7
ATOM      7  C   UNL     1      -2.088  -3.709   8.775  1.00  0.00    -0.028 C 
ATOM      8  C   UNL     1      -1.970  -1.308   8.069  1.00  0.00     0.039 C 
ATOM      9  C   UNL     1      -1.450  -2.724   8.104  1.00  0.00    -0.080 C 
ATOM     10  C   UNL     1      -0.176  -3.064   7.374  1.00  0.00     0.039 C 
ENDBRANCH   6   7
ENDBRANCH   5   6
ENDBRANCH   3   5
ENDBRANCH   1   2
BRANCH   1  11
ATOM     11  C   UNL     1      -4.753   1.033  12.349  1.00  0.00     0.034 C 
BRANCH  11  12
ATOM     12  C   UNL     1      -4.567   1.634  13.725  1.00  0.00    -0.077 C 
ATOM     13  C   UNL     1      -5.519   2.460  14.215  1.00  0.00    -0.028 C 
ATOM     14  C   UNL     1      -3.315   1.309  14.506  1.00  0.00     0.039 C 
BRANCH  13  15
ATOM     15  C   UNL     1      -5.482   3.082  15.588  1.00  0.00     0.035 C 
BRANCH  15  16
ATOM     16  C   UNL     1      -6.805   2.849  16.324  1.00  0.00     0.079 C 
BRANCH  16  17
ATOM     17  C   UNL     1      -7.740   4.010  16.120  1.00  0.00     0.130 C 
ATOM     18  O   UNL     1      -7.696   4.960  16.888  1.00  0.00    -0.300 OA
ATOM     19  C   UNL     1      -8.732   4.027  14.995  1.00  0.00     0.087 C 
ENDBRANCH  16  17
ENDBRANCH  15  16
ENDBRANCH  13  15
ENDBRANCH  11  12
ENDBRANCH   1  11
TORSDOF 9
ENDMDL
