MODEL 1
REMARK VINA RESULT:    -5.468      0.000      0.000
REMARK INTER + INTRA:         -10.706
REMARK INTER:                  -9.624
REMARK INTRA:                  -1.081
REMARK UNBOUND:                -1.081
REMARK SMILES CCCCCCCCCCCCCCC(=O)[O-]
REMARK SMILES IDX 9 1 10 2 11 3 12 4 13 5 14 6 15 7 16 8 17 9 8 10 7 11 6 12
REMARK SMILES IDX 5 13 4 14 3 15 2 16 1 17
REMARK H PARENT
REMARK Flexibility Score: inf
ROOT
ATOM      1  C   UNL     1      24.755 -11.028  15.743  1.00  0.00     0.000 C 
ENDROOT
BRANCH   1   2
ATOM      2  C   UNL     1      24.114 -12.413  15.892  1.00  0.00     0.000 C 
BRANCH   2   3
ATOM      3  C   UNL     1      23.181 -12.457  17.112  1.00  0.00     0.000 C 
BRANCH   3   4
ATOM      4  C   UNL     1      23.844 -13.095  18.344  1.00  0.00     0.000 C 
BRANCH   4   5
ATOM      5  C   UNL     1      22.978 -12.978  19.609  1.00  0.00     0.006 C 
BRANCH   5   6
ATOM      6  C   UNL     1      22.513 -11.537  19.861  1.00  0.00     0.053 C 
BRANCH   6   7
ATOM      7  C   UNL     1      23.217 -10.919  21.029  1.00  0.00     0.041 C 
ATOM      8  O   UNL     1      22.963 -11.308  22.200  1.00  0.00    -0.550 OA
ATOM      9  O   UNL     1      24.132  -9.893  20.829  1.00  0.00    -0.550 OA
ENDBRANCH   6   7
ENDBRANCH   5   6
ENDBRANCH   4   5
ENDBRANCH   3   4
ENDBRANCH   2   3
ENDBRANCH   1   2
BRANCH   1  10
ATOM     10  C   UNL     1      26.144 -11.130  15.099  1.00  0.00     0.000 C 
BRANCH  10  11
ATOM     11  C   UNL     1      27.248 -11.099  16.166  1.00  0.00    -0.000 C 
BRANCH  11  12
ATOM     12  C   UNL     1      26.751 -10.565  17.518  1.00  0.00    -0.000 C 
BRANCH  12  13
ATOM     13  C   UNL     1      27.795  -9.692  18.230  1.00  0.00    -0.000 C 
BRANCH  13  14
ATOM     14  C   UNL     1      28.760  -9.055  17.220  1.00  0.00    -0.000 C 
BRANCH  14  15
ATOM     15  C   UNL     1      28.421  -7.586  16.910  1.00  0.00    -0.000 C 
BRANCH  15  16
ATOM     16  C   UNL     1      28.576  -7.183  15.432  1.00  0.00    -0.003 C 
ATOM     17  C   UNL     1      30.035  -7.097  14.985  1.00  0.00     0.004 C 
ENDBRANCH  15  16
ENDBRANCH  14  15
ENDBRANCH  13  14
ENDBRANCH  12  13
ENDBRANCH  11  12
ENDBRANCH  10  11
ENDBRANCH   1  10
TORSDOF 13
ENDMDL
MODEL 2
REMARK VINA RESULT:    -5.460      1.183      2.156
REMARK INTER + INTRA:         -10.691
REMARK INTER:                  -9.653
REMARK INTRA:                  -1.038
REMARK UNBOUND:                -1.081
REMARK SMILES CCCCCCCCCCCCCCC(=O)[O-]
REMARK SMILES IDX 9 1 10 2 11 3 12 4 13 5 14 6 15 7 16 8 17 9 8 10 7 11 6 12
REMARK SMILES IDX 5 13 4 14 3 15 2 16 1 17
REMARK H PARENT
REMARK Flexibility Score: inf
ROOT
ATOM      1  C   UNL     1      24.051 -11.875  15.634  1.00  0.00     0.000 C 
ENDROOT
BRANCH   1   2
ATOM      2  C   UNL     1      23.366 -12.634  16.778  1.00  0.00     0.000 C 
BRANCH   2   3
ATOM      3  C   UNL     1      24.180 -12.521  18.076  1.00  0.00     0.000 C 
BRANCH   3   4
ATOM      4  C   UNL     1      23.759 -13.558  19.131  1.00  0.00     0.000 C 
BRANCH   4   5
ATOM      5  C   UNL     1      22.708 -13.011  20.112  1.00  0.00     0.006 C 
BRANCH   5   6
ATOM      6  C   UNL     1      22.573 -11.484  20.023  1.00  0.00     0.053 C 
BRANCH   6   7
ATOM      7  C   UNL     1      23.303 -10.793  21.133  1.00  0.00     0.041 C 
ATOM      8  O   UNL     1      24.119  -9.868  20.876  1.00  0.00    -0.550 OA
ATOM      9  O   UNL     1      23.108 -11.191  22.450  1.00  0.00    -0.550 OA
ENDBRANCH   6   7
ENDBRANCH   5   6
ENDBRANCH   4   5
ENDBRANCH   3   4
ENDBRANCH   2   3
ENDBRANCH   1   2
BRANCH   1  10
ATOM     10  C   UNL     1      25.469 -11.445  16.030  1.00  0.00     0.000 C 
BRANCH  10  11
ATOM     11  C   UNL     1      26.208 -10.820  14.837  1.00  0.00    -0.000 C 
BRANCH  11  12
ATOM     12  C   UNL     1      27.735 -10.934  14.960  1.00  0.00    -0.000 C 
BRANCH  12  13
ATOM     13  C   UNL     1      28.190 -11.310  16.379  1.00  0.00    -0.000 C 
BRANCH  13  14
ATOM     14  C   UNL     1      29.080 -10.212  16.979  1.00  0.00    -0.000 C 
BRANCH  14  15
ATOM     15  C   UNL     1      28.417  -8.823  16.955  1.00  0.00    -0.000 C 
BRANCH  15  16
ATOM     16  C   UNL     1      27.651  -8.448  18.237  1.00  0.00    -0.003 C 
ATOM     17  C   UNL     1      27.059  -9.660  18.957  1.00  0.00     0.004 C 
ENDBRANCH  15  16
ENDBRANCH  14  15
ENDBRANCH  13  14
ENDBRANCH  12  13
ENDBRANCH  11  12
ENDBRANCH  10  11
ENDBRANCH   1  10
TORSDOF 13
ENDMDL
MODEL 3
REMARK VINA RESULT:    -5.414      1.262      1.528
REMARK INTER + INTRA:         -10.609
REMARK INTER:                  -9.786
REMARK INTRA:                  -0.823
REMARK UNBOUND:                -1.081
REMARK SMILES CCCCCCCCCCCCCCC(=O)[O-]
REMARK SMILES IDX 9 1 10 2 11 3 12 4 13 5 14 6 15 7 16 8 17 9 8 10 7 11 6 12
REMARK SMILES IDX 5 13 4 14 3 15 2 16 1 17
REMARK H PARENT
REMARK Flexibility Score: inf
ROOT
ATOM      1  C   UNL     1      24.857 -10.977  15.756  1.00  0.00     0.000 C 
ENDROOT
BRANCH   1   2
ATOM      2  C   UNL     1      24.084 -12.252  16.115  1.00  0.00     0.000 C 
BRANCH   2   3
ATOM      3  C   UNL     1      24.227 -12.577  17.610  1.00  0.00     0.000 C 
BRANCH   3   4
ATOM      4  C   UNL     1      22.884 -12.535  18.358  1.00  0.00     0.000 C 
BRANCH   4   5
ATOM      5  C   UNL     1      23.032 -12.842  19.857  1.00  0.00     0.006 C 
BRANCH   5   6
ATOM      6  C   UNL     1      22.317 -11.804  20.734  1.00  0.00     0.053 C 
BRANCH   6   7
ATOM      7  C   UNL     1      23.263 -10.764  21.251  1.00  0.00     0.041 C 
ATOM      8  O   UNL     1      23.336 -10.534  22.488  1.00  0.00    -0.550 OA
ATOM      9  O   UNL     1      24.040 -10.027  20.367  1.00  0.00    -0.550 OA
ENDBRANCH   6   7
ENDBRANCH   5   6
ENDBRANCH   4   5
ENDBRANCH   3   4
ENDBRANCH   2   3
ENDBRANCH   1   2
BRANCH   1  10
ATOM     10  C   UNL     1      25.887 -11.249  14.652  1.00  0.00     0.000 C 
BRANCH  10  11
ATOM     11  C   UNL     1      27.318 -11.056  15.176  1.00  0.00    -0.000 C 
BRANCH  11  12
ATOM     12  C   UNL     1      27.495  -9.737  15.944  1.00  0.00    -0.000 C 
BRANCH  12  13
ATOM     13  C   UNL     1      27.879  -9.955  17.416  1.00  0.00    -0.000 C 
BRANCH  13  14
ATOM     14  C   UNL     1      28.545  -8.702  18.001  1.00  0.00    -0.000 C 
BRANCH  14  15
ATOM     15  C   UNL     1      29.817  -8.288  17.240  1.00  0.00    -0.000 C 
BRANCH  15  16
ATOM     16  C   UNL     1      31.079  -9.093  17.600  1.00  0.00    -0.003 C 
ATOM     17  C   UNL     1      31.888  -9.519  16.375  1.00  0.00     0.004 C 
ENDBRANCH  15  16
ENDBRANCH  14  15
ENDBRANCH  13  14
ENDBRANCH  12  13
ENDBRANCH  11  12
ENDBRANCH  10  11
ENDBRANCH   1  10
TORSDOF 13
ENDMDL
MODEL 4
REMARK VINA RESULT:    -5.391      2.756      6.484
REMARK INTER + INTRA:         -10.570
REMARK INTER:                  -9.472
REMARK INTRA:                  -1.098
REMARK UNBOUND:                -1.081
REMARK SMILES CCCCCCCCCCCCCCC(=O)[O-]
REMARK SMILES IDX 9 1 10 2 11 3 12 4 13 5 14 6 15 7 16 8 17 9 8 10 7 11 6 12
REMARK SMILES IDX 5 13 4 14 3 15 2 16 1 17
REMARK H PARENT
REMARK Flexibility Score: inf
ROOT
ATOM      1  C   UNL     1      25.565 -11.043  16.746  1.00  0.00     0.000 C 
ENDROOT
BRANCH   1   2
ATOM      2  C   UNL     1      26.965 -11.127  16.125  1.00  0.00     0.000 C 
BRANCH   2   3
ATOM      3  C   UNL     1      28.039 -10.688  17.132  1.00  0.00     0.000 C 
BRANCH   3   4
ATOM      4  C   UNL     1      27.447  -9.969  18.355  1.00  0.00     0.000 C 
BRANCH   4   5
ATOM      5  C   UNL     1      27.809  -8.474  18.394  1.00  0.00     0.006 C 
BRANCH   5   6
ATOM      6  C   UNL     1      28.545  -8.024  17.124  1.00  0.00     0.053 C 
BRANCH   6   7
ATOM      7  C   UNL     1      28.414  -6.549  16.897  1.00  0.00     0.041 C 
ATOM      8  O   UNL     1      29.043  -5.995  15.956  1.00  0.00    -0.550 OA
ATOM      9  O   UNL     1      27.623  -5.781  17.742  1.00  0.00    -0.550 OA
ENDBRANCH   6   7
ENDBRANCH   5   6
ENDBRANCH   4   5
ENDBRANCH   3   4
ENDBRANCH   2   3
ENDBRANCH   1   2
BRANCH   1  10
ATOM     10  C   UNL     1      24.495 -11.534  15.763  1.00  0.00     0.000 C 
BRANCH  10  11
ATOM     11  C   UNL     1      23.571 -12.567  16.426  1.00  0.00    -0.000 C 
BRANCH  11  12
ATOM     12  C   UNL     1      23.850 -12.734  17.927  1.00  0.00    -0.000 C 
BRANCH  12  13
ATOM     13  C   UNL     1      22.567 -12.722  18.773  1.00  0.00    -0.000 C 
BRANCH  13  14
ATOM     14  C   UNL     1      22.896 -12.793  20.271  1.00  0.00    -0.000 C 
BRANCH  14  15
ATOM     15  C   UNL     1      22.317 -11.611  21.069  1.00  0.00    -0.000 C 
BRANCH  15  16
ATOM     16  C   UNL     1      23.359 -10.594  21.569  1.00  0.00    -0.003 C 
ATOM     17  C   UNL     1      24.174  -9.966  20.439  1.00  0.00     0.004 C 
ENDBRANCH  15  16
ENDBRANCH  14  15
ENDBRANCH  13  14
ENDBRANCH  12  13
ENDBRANCH  11  12
ENDBRANCH  10  11
ENDBRANCH   1  10
TORSDOF 13
ENDMDL
MODEL 5
REMARK VINA RESULT:    -5.376      3.548      6.989
REMARK INTER + INTRA:         -10.544
REMARK INTER:                  -9.520
REMARK INTRA:                  -1.024
REMARK UNBOUND:                -1.081
REMARK SMILES CCCCCCCCCCCCCCC(=O)[O-]
REMARK SMILES IDX 9 1 10 2 11 3 12 4 13 5 14 6 15 7 16 8 17 9 8 10 7 11 6 12
REMARK SMILES IDX 5 13 4 14 3 15 2 16 1 17
REMARK H PARENT
REMARK Flexibility Score: inf
ROOT
ATOM      1  C   UNL     1      26.029 -11.035  16.793  1.00  0.00     0.000 C 
ENDROOT
BRANCH   1   2
ATOM      2  C   UNL     1      25.714 -10.003  17.884  1.00  0.00     0.000 C 
BRANCH   2   3
ATOM      3  C   UNL     1      27.006  -9.458  18.512  1.00  0.00     0.000 C 
BRANCH   3   4
ATOM      4  C   UNL     1      28.263 -10.185  18.008  1.00  0.00     0.000 C 
BRANCH   4   5
ATOM      5  C   UNL     1      29.229  -9.248  17.263  1.00  0.00     0.006 C 
BRANCH   5   6
ATOM      6  C   UNL     1      29.142  -9.419  15.740  1.00  0.00     0.053 C 
BRANCH   6   7
ATOM      7  C   UNL     1      30.259 -10.264  15.209  1.00  0.00     0.041 C 
ATOM      8  O   UNL     1      30.020 -11.178  14.375  1.00  0.00    -0.550 OA
ATOM      9  O   UNL     1      31.558 -10.065  15.657  1.00  0.00    -0.550 OA
ENDBRANCH   6   7
ENDBRANCH   5   6
ENDBRANCH   4   5
ENDBRANCH   3   4
ENDBRANCH   2   3
ENDBRANCH   1   2
BRANCH   1  10
ATOM     10  C   UNL     1      24.820 -11.251  15.874  1.00  0.00     0.000 C 
BRANCH  10  11
ATOM     11  C   UNL     1      24.137 -12.594  16.170  1.00  0.00    -0.000 C 
BRANCH  11  12
ATOM     12  C   UNL     1      22.967 -12.460  17.156  1.00  0.00    -0.000 C 
BRANCH  12  13
ATOM     13  C   UNL     1      23.394 -12.674  18.616  1.00  0.00    -0.000 C 
BRANCH  13  14
ATOM     14  C   UNL     1      22.295 -12.212  19.584  1.00  0.00    -0.000 C 
BRANCH  14  15
ATOM     15  C   UNL     1      22.719 -12.305  21.061  1.00  0.00    -0.000 C 
BRANCH  15  16
ATOM     16  C   UNL     1      22.877 -10.950  21.776  1.00  0.00    -0.003 C 
ATOM     17  C   UNL     1      23.907 -10.039  21.110  1.00  0.00     0.004 C 
ENDBRANCH  15  16
ENDBRANCH  14  15
ENDBRANCH  13  14
ENDBRANCH  12  13
ENDBRANCH  11  12
ENDBRANCH  10  11
ENDBRANCH   1  10
TORSDOF 13
ENDMDL
MODEL 6
REMARK VINA RESULT:    -5.364      2.978      7.160
REMARK INTER + INTRA:         -10.523
REMARK INTER:                  -9.653
REMARK INTRA:                  -0.870
REMARK UNBOUND:                -1.081
REMARK SMILES CCCCCCCCCCCCCCC(=O)[O-]
REMARK SMILES IDX 9 1 10 2 11 3 12 4 13 5 14 6 15 7 16 8 17 9 8 10 7 11 6 12
REMARK SMILES IDX 5 13 4 14 3 15 2 16 1 17
REMARK H PARENT
REMARK Flexibility Score: inf
ROOT
ATOM      1  C   UNL     1      27.230 -10.147  16.271  1.00  0.00     0.000 C 
ENDROOT
BRANCH   1   2
ATOM      2  C   UNL     1      27.688 -10.844  14.983  1.00  0.00     0.000 C 
BRANCH   2   3
ATOM      3  C   UNL     1      29.196 -11.133  15.022  1.00  0.00     0.000 C 
BRANCH   3   4
ATOM      4  C   UNL     1      29.826 -10.816  16.389  1.00  0.00     0.000 C 
BRANCH   4   5
ATOM      5  C   UNL     1      31.126 -10.003  16.267  1.00  0.00     0.006 C 
BRANCH   5   6
ATOM      6  C   UNL     1      31.345  -9.079  17.473  1.00  0.00     0.053 C 
BRANCH   6   7
ATOM      7  C   UNL     1      30.535  -7.823  17.369  1.00  0.00     0.041 C 
ATOM      8  O   UNL     1      30.980  -6.834  16.728  1.00  0.00    -0.550 OA
ATOM      9  O   UNL     1      29.303  -7.733  18.005  1.00  0.00    -0.550 OA
ENDBRANCH   6   7
ENDBRANCH   5   6
ENDBRANCH   4   5
ENDBRANCH   3   4
ENDBRANCH   2   3
ENDBRANCH   1   2
BRANCH   1  10
ATOM     10  C   UNL     1      25.988 -10.832  16.856  1.00  0.00     0.000 C 
BRANCH  10  11
ATOM     11  C   UNL     1      25.161 -11.507  15.752  1.00  0.00    -0.000 C 
BRANCH  11  12
ATOM     12  C   UNL     1      23.928 -12.242  16.300  1.00  0.00    -0.000 C 
BRANCH  12  13
ATOM     13  C   UNL     1      24.120 -12.725  17.746  1.00  0.00    -0.000 C 
BRANCH  13  14
ATOM     14  C   UNL     1      22.817 -12.593  18.547  1.00  0.00    -0.000 C 
BRANCH  14  15
ATOM     15  C   UNL     1      22.906 -11.542  19.669  1.00  0.00    -0.000 C 
BRANCH  15  16
ATOM     16  C   UNL     1      22.685 -12.092  21.090  1.00  0.00    -0.003 C 
ATOM     17  C   UNL     1      22.951 -11.056  22.181  1.00  0.00     0.004 C 
ENDBRANCH  15  16
ENDBRANCH  14  15
ENDBRANCH  13  14
ENDBRANCH  12  13
ENDBRANCH  11  12
ENDBRANCH  10  11
ENDBRANCH   1  10
TORSDOF 13
ENDMDL
MODEL 7
REMARK VINA RESULT:    -5.261      1.427      2.190
REMARK INTER + INTRA:         -10.341
REMARK INTER:                  -8.805
REMARK INTRA:                  -1.536
REMARK UNBOUND:                -1.081
REMARK SMILES CCCCCCCCCCCCCCC(=O)[O-]
REMARK SMILES IDX 9 1 10 2 11 3 12 4 13 5 14 6 15 7 16 8 17 9 8 10 7 11 6 12
REMARK SMILES IDX 5 13 4 14 3 15 2 16 1 17
REMARK H PARENT
REMARK Flexibility Score: inf
ROOT
ATOM      1  C   UNL     1      27.006 -10.383  16.723  1.00  0.00     0.000 C 
ENDROOT
BRANCH   1   2
ATOM      2  C   UNL     1      25.779 -11.155  17.226  1.00  0.00     0.000 C 
BRANCH   2   3
ATOM      3  C   UNL     1      24.844 -11.519  16.062  1.00  0.00     0.000 C 
BRANCH   3   4
ATOM      4  C   UNL     1      23.673 -12.414  16.499  1.00  0.00     0.000 C 
BRANCH   4   5
ATOM      5  C   UNL     1      23.800 -12.883  17.959  1.00  0.00     0.006 C 
BRANCH   5   6
ATOM      6  C   UNL     1      22.547 -12.556  18.782  1.00  0.00     0.053 C 
BRANCH   6   7
ATOM      7  C   UNL     1      22.884 -11.831  20.048  1.00  0.00     0.041 C 
ATOM      8  O   UNL     1      22.531 -12.302  21.162  1.00  0.00    -0.550 OA
ATOM      9  O   UNL     1      23.560 -10.618  19.998  1.00  0.00    -0.550 OA
ENDBRANCH   6   7
ENDBRANCH   5   6
ENDBRANCH   4   5
ENDBRANCH   3   4
ENDBRANCH   2   3
ENDBRANCH   1   2
BRANCH   1  10
ATOM     10  C   UNL     1      27.209 -10.593  15.217  1.00  0.00     0.000 C 
BRANCH  10  11
ATOM     11  C   UNL     1      28.647 -11.038  14.912  1.00  0.00    -0.000 C 
BRANCH  11  12
ATOM     12  C   UNL     1      29.593 -10.844  16.107  1.00  0.00    -0.000 C 
BRANCH  12  13
ATOM     13  C   UNL     1      30.905 -10.148  15.718  1.00  0.00    -0.000 C 
BRANCH  13  14
ATOM     14  C   UNL     1      30.939  -8.706  16.245  1.00  0.00    -0.000 C 
BRANCH  14  15
ATOM     15  C   UNL     1      30.142  -8.525  17.549  1.00  0.00    -0.000 C 
BRANCH  15  16
ATOM     16  C   UNL     1      29.036  -7.455  17.489  1.00  0.00    -0.003 C 
ATOM     17  C   UNL     1      28.645  -7.078  16.060  1.00  0.00     0.004 C 
ENDBRANCH  15  16
ENDBRANCH  14  15
ENDBRANCH  13  14
ENDBRANCH  12  13
ENDBRANCH  11  12
ENDBRANCH  10  11
ENDBRANCH   1  10
TORSDOF 13
ENDMDL
MODEL 8
REMARK VINA RESULT:    -5.256      3.856      7.422
REMARK INTER + INTRA:         -10.332
REMARK INTER:                  -9.654
REMARK INTRA:                  -0.678
REMARK UNBOUND:                -1.081
REMARK SMILES CCCCCCCCCCCCCCC(=O)[O-]
REMARK SMILES IDX 9 1 10 2 11 3 12 4 13 5 14 6 15 7 16 8 17 9 8 10 7 11 6 12
REMARK SMILES IDX 5 13 4 14 3 15 2 16 1 17
REMARK H PARENT
REMARK Flexibility Score: inf
ROOT
ATOM      1  C   UNL     1      26.373 -11.089  14.922  1.00  0.00     0.000 C 
ENDROOT
BRANCH   1   2
ATOM      2  C   UNL     1      27.353 -10.961  16.096  1.00  0.00     0.000 C 
BRANCH   2   3
ATOM      3  C   UNL     1      28.401  -9.872  15.818  1.00  0.00     0.000 C 
BRANCH   3   4
ATOM      4  C   UNL     1      28.536  -8.870  16.977  1.00  0.00     0.000 C 
BRANCH   4   5
ATOM      5  C   UNL     1      29.936  -8.237  17.052  1.00  0.00     0.006 C 
BRANCH   5   6
ATOM      6  C   UNL     1      30.975  -9.200  17.643  1.00  0.00     0.053 C 
BRANCH   6   7
ATOM      7  C   UNL     1      32.298  -9.088  16.951  1.00  0.00     0.041 C 
ATOM      8  O   UNL     1      32.348  -8.886  15.708  1.00  0.00    -0.550 OA
ATOM      9  O   UNL     1      33.477  -9.238  17.670  1.00  0.00    -0.550 OA
ENDBRANCH   6   7
ENDBRANCH   5   6
ENDBRANCH   4   5
ENDBRANCH   3   4
ENDBRANCH   2   3
ENDBRANCH   1   2
BRANCH   1  10
ATOM     10  C   UNL     1      24.930 -11.231  15.423  1.00  0.00     0.000 C 
BRANCH  10  11
ATOM     11  C   UNL     1      24.895 -11.818  16.842  1.00  0.00    -0.000 C 
BRANCH  11  12
ATOM     12  C   UNL     1      23.553 -12.487  17.174  1.00  0.00    -0.000 C 
BRANCH  12  13
ATOM     13  C   UNL     1      23.477 -12.976  18.628  1.00  0.00    -0.000 C 
BRANCH  13  14
ATOM     14  C   UNL     1      22.517 -12.106  19.452  1.00  0.00    -0.000 C 
BRANCH  14  15
ATOM     15  C   UNL     1      22.645 -12.342  20.968  1.00  0.00    -0.000 C 
BRANCH  15  16
ATOM     16  C   UNL     1      23.021 -11.094  21.788  1.00  0.00    -0.003 C 
ATOM     17  C   UNL     1      23.827 -10.072  20.987  1.00  0.00     0.004 C 
ENDBRANCH  15  16
ENDBRANCH  14  15
ENDBRANCH  13  14
ENDBRANCH  12  13
ENDBRANCH  11  12
ENDBRANCH  10  11
ENDBRANCH   1  10
TORSDOF 13
ENDMDL
MODEL 9
REMARK VINA RESULT:    -5.188      2.874      6.811
REMARK INTER + INTRA:         -10.211
REMARK INTER:                  -8.961
REMARK INTRA:                  -1.250
REMARK UNBOUND:                -1.081
REMARK SMILES CCCCCCCCCCCCCCC(=O)[O-]
REMARK SMILES IDX 9 1 10 2 11 3 12 4 13 5 14 6 15 7 16 8 17 9 8 10 7 11 6 12
REMARK SMILES IDX 5 13 4 14 3 15 2 16 1 17
REMARK H PARENT
REMARK Flexibility Score: inf
ROOT
ATOM      1  C   UNL     1      29.084 -11.035  15.049  1.00  0.00     0.000 C 
ENDROOT
BRANCH   1   2
ATOM      2  C   UNL     1      29.742 -11.173  16.428  1.00  0.00     0.000 C 
BRANCH   2   3
ATOM      3  C   UNL     1      31.009 -10.308  16.521  1.00  0.00     0.000 C 
BRANCH   3   4
ATOM      4  C   UNL     1      30.796  -9.032  17.352  1.00  0.00     0.000 C 
BRANCH   4   5
ATOM      5  C   UNL     1      29.910  -7.999  16.634  1.00  0.00     0.006 C 
BRANCH   5   6
ATOM      6  C   UNL     1      28.602  -7.732  17.393  1.00  0.00     0.053 C 
BRANCH   6   7
ATOM      7  C   UNL     1      28.546  -6.337  17.935  1.00  0.00     0.041 C 
ATOM      8  O   UNL     1      29.437  -5.930  18.728  1.00  0.00    -0.550 OA
ATOM      9  O   UNL     1      27.495  -5.497  17.592  1.00  0.00    -0.550 OA
ENDBRANCH   6   7
ENDBRANCH   5   6
ENDBRANCH   4   5
ENDBRANCH   3   4
ENDBRANCH   2   3
ENDBRANCH   1   2
BRANCH   1  10
ATOM     10  C   UNL     1      27.557 -10.958  15.173  1.00  0.00     0.000 C 
BRANCH  10  11
ATOM     11  C   UNL     1      27.116 -11.105  16.636  1.00  0.00    -0.000 C 
BRANCH  11  12
ATOM     12  C   UNL     1      25.603 -10.908  16.822  1.00  0.00    -0.000 C 
BRANCH  12  13
ATOM     13  C   UNL     1      24.781 -11.520  15.677  1.00  0.00    -0.000 C 
BRANCH  13  14
ATOM     14  C   UNL     1      23.678 -12.439  16.223  1.00  0.00    -0.000 C 
BRANCH  14  15
ATOM     15  C   UNL     1      23.831 -12.731  17.727  1.00  0.00    -0.000 C 
BRANCH  15  16
ATOM     16  C   UNL     1      22.565 -12.486  18.567  1.00  0.00    -0.003 C 
ATOM     17  C   UNL     1      22.855 -11.802  19.902  1.00  0.00     0.004 C 
ENDBRANCH  15  16
ENDBRANCH  14  15
ENDBRANCH  13  14
ENDBRANCH  12  13
ENDBRANCH  11  12
ENDBRANCH  10  11
ENDBRANCH   1  10
TORSDOF 13
ENDMDL
