MODEL 1
REMARK VINA RESULT:    -7.066      0.000      0.000
REMARK INTER + INTRA:         -12.156
REMARK INTER:                  -9.751
REMARK INTRA:                  -2.404
REMARK UNBOUND:                -2.404
REMARK SMILES CC[C@@H](CC[C@H](C)[C@@H]1CC[C@@H]2[C@@H]3CC=C4C[C@H](O)CC[C@]4(C)[C@@H]3CC[C@@]21C)C(C)C
REMARK SMILES IDX 5 1 4 2 3 3 2 4 1 5 28 6 29 7 30 8 6 9 7 10 8 11 9 12 26 13
REMARK SMILES IDX 10 14 11 15 25 16 27 17 12 18 24 19 23 20 13 21 21 22 14 23
REMARK SMILES IDX 15 24 20 25 22 26 16 27 19 28 17 29 18 30
REMARK H PARENT 18 31
REMARK Flexibility Score: inf
ROOT
ATOM      1  C   UNL     1       2.492  13.185  25.335  1.00  0.00     0.004 C 
ENDROOT
BRANCH   1   2
ATOM      2  C   UNL     1       2.766  11.911  24.527  1.00  0.00     0.004 C 
BRANCH   2   3
ATOM      3  C   UNL     1       4.283  11.630  24.227  1.00  0.00    -0.009 C 
BRANCH   3   4
ATOM      4  C   UNL     1       4.981  10.741  25.295  1.00  0.00     0.000 C 
ATOM      5  C   UNL     1       4.000   9.875  26.092  1.00  0.00     0.004 C 
ENDBRANCH   3   4
BRANCH   3   6
ATOM      6  C   UNL     1       5.056  12.975  23.990  1.00  0.00    -0.014 C 
ATOM      7  C   UNL     1       5.419  13.175  22.513  1.00  0.00     0.007 C 
ATOM      8  C   UNL     1       6.345  13.095  24.836  1.00  0.00     0.007 C 
ENDBRANCH   3   6
ENDBRANCH   2   3
ENDBRANCH   1   2
BRANCH   1   9
ATOM      9  C   UNL     1       2.018  13.032  26.819  1.00  0.00    -0.011 C 
ATOM     10  C   UNL     1       0.491  13.190  26.991  1.00  0.00     0.008 C 
BRANCH   9  11
ATOM     11  C   UNL     1       2.796  14.069  27.709  1.00  0.00    -0.002 C 
ATOM     12  C   UNL     1       3.755  14.909  26.874  1.00  0.00     0.005 C 
ATOM     13  C   UNL     1       3.689  13.640  28.927  1.00  0.00    -0.026 C 
ATOM     14  C   UNL     1       4.633  15.648  27.855  1.00  0.00     0.005 C 
ATOM     15  C   UNL     1       4.422  14.973  29.219  1.00  0.00    -0.001 C 
ATOM     16  C   UNL     1       4.688  12.475  28.581  1.00  0.00     0.007 C 
ATOM     17  C   UNL     1       2.839  13.251  30.167  1.00  0.00     0.012 C 
ATOM     18  C   UNL     1       5.702  14.869  30.109  1.00  0.00     0.000 C 
ATOM     19  C   UNL     1       6.159  12.900  28.517  1.00  0.00     0.005 C 
ATOM     20  C   UNL     1       6.590  13.592  29.828  1.00  0.00     0.003 C 
ATOM     21  C   UNL     1       6.487  16.219  30.102  1.00  0.00     0.031 C 
ATOM     22  C   UNL     1       8.133  13.881  29.937  1.00  0.00    -0.008 C 
ATOM     23  C   UNL     1       7.669  16.194  29.163  1.00  0.00    -0.027 C 
ATOM     24  C   UNL     1       8.456  15.104  29.087  1.00  0.00    -0.065 C 
ATOM     25  C   UNL     1       9.021  12.693  29.449  1.00  0.00     0.014 C 
ATOM     26  C   UNL     1       8.505  14.160  31.425  1.00  0.00     0.016 C 
ATOM     27  C   UNL     1       9.652  15.081  28.146  1.00  0.00     0.063 C 
ATOM     28  C   UNL     1      10.527  13.027  29.445  1.00  0.00     0.033 C 
ATOM     29  C   UNL     1      10.849  14.433  28.874  1.00  0.00     0.118 C 
BRANCH  29  30
ATOM     30  O   UNL     1      11.939  14.375  28.000  1.00  0.00    -0.393 OA
ATOM     31  H   UNL     1      11.910  13.490  27.556  1.00  0.00     0.210 HD
ENDBRANCH  29  30
ENDBRANCH   9  11
ENDBRANCH   1   9
TORSDOF 7
ENDMDL
MODEL 2
REMARK VINA RESULT:    -7.063      2.343      6.761
REMARK INTER + INTRA:         -12.151
REMARK INTER:                 -10.342
REMARK INTRA:                  -1.810
REMARK UNBOUND:                -2.404
REMARK SMILES CC[C@@H](CC[C@H](C)[C@@H]1CC[C@@H]2[C@@H]3CC=C4C[C@H](O)CC[C@]4(C)[C@@H]3CC[C@@]21C)C(C)C
REMARK SMILES IDX 5 1 4 2 3 3 2 4 1 5 28 6 29 7 30 8 6 9 7 10 8 11 9 12 26 13
REMARK SMILES IDX 10 14 11 15 25 16 27 17 12 18 24 19 23 20 13 21 21 22 14 23
REMARK SMILES IDX 15 24 20 25 22 26 16 27 19 28 17 29 18 30
REMARK H PARENT 18 31
REMARK Flexibility Score: inf
ROOT
ATOM      1  C   UNL     1       9.300  16.231  28.578  1.00  0.00     0.004 C 
ENDROOT
BRANCH   1   2
ATOM      2  C   UNL     1      10.647  15.529  28.793  1.00  0.00     0.004 C 
BRANCH   2   3
ATOM      3  C   UNL     1      10.882  14.259  27.899  1.00  0.00    -0.009 C 
BRANCH   3   4
ATOM      4  C   UNL     1       9.852  14.102  26.744  1.00  0.00     0.000 C 
ATOM      5  C   UNL     1       8.882  12.935  26.959  1.00  0.00     0.004 C 
ENDBRANCH   3   4
BRANCH   3   6
ATOM      6  C   UNL     1      10.967  12.968  28.788  1.00  0.00    -0.014 C 
ATOM      7  C   UNL     1      10.909  13.298  30.285  1.00  0.00     0.007 C 
ATOM      8  C   UNL     1      12.234  12.123  28.516  1.00  0.00     0.007 C 
ENDBRANCH   3   6
ENDBRANCH   2   3
ENDBRANCH   1   2
BRANCH   1   9
ATOM      9  C   UNL     1       8.614  16.911  29.810  1.00  0.00    -0.011 C 
ATOM     10  C   UNL     1       9.550  17.042  31.032  1.00  0.00     0.008 C 
BRANCH   9  11
ATOM     11  C   UNL     1       7.316  16.103  30.177  1.00  0.00    -0.002 C 
ATOM     12  C   UNL     1       7.535  14.602  30.030  1.00  0.00     0.005 C 
ATOM     13  C   UNL     1       5.946  16.323  29.443  1.00  0.00    -0.026 C 
ATOM     14  C   UNL     1       6.169  13.965  30.126  1.00  0.00     0.005 C 
ATOM     15  C   UNL     1       5.148  15.104  29.971  1.00  0.00    -0.001 C 
ATOM     16  C   UNL     1       6.075  16.316  27.876  1.00  0.00     0.007 C 
ATOM     17  C   UNL     1       5.237  17.625  29.906  1.00  0.00     0.012 C 
ATOM     18  C   UNL     1       3.861  14.730  29.169  1.00  0.00     0.000 C 
ATOM     19  C   UNL     1       5.474  15.081  27.196  1.00  0.00     0.005 C 
ATOM     20  C   UNL     1       3.996  14.894  27.603  1.00  0.00     0.003 C 
ATOM     21  C   UNL     1       3.309  13.343  29.631  1.00  0.00     0.031 C 
ATOM     22  C   UNL     1       3.235  13.774  26.800  1.00  0.00    -0.008 C 
ATOM     23  C   UNL     1       3.692  12.227  28.688  1.00  0.00    -0.027 C 
ATOM     24  C   UNL     1       3.649  12.416  27.355  1.00  0.00    -0.065 C 
ATOM     25  C   UNL     1       3.541  13.795  25.269  1.00  0.00     0.014 C 
ATOM     26  C   UNL     1       1.698  13.967  26.971  1.00  0.00     0.016 C 
ATOM     27  C   UNL     1       4.027  11.290  26.404  1.00  0.00     0.063 C 
ATOM     28  C   UNL     1       2.887  12.622  24.508  1.00  0.00     0.033 C 
ATOM     29  C   UNL     1       3.017  11.260  25.238  1.00  0.00     0.118 C 
BRANCH  29  30
ATOM     30  O   UNL     1       3.384  10.251  24.342  1.00  0.00    -0.393 OA
ATOM     31  H   UNL     1       2.604  10.085  23.754  1.00  0.00     0.210 HD
ENDBRANCH  29  30
ENDBRANCH   9  11
ENDBRANCH   1   9
TORSDOF 7
ENDMDL
MODEL 3
REMARK VINA RESULT:    -6.898      9.750     13.022
REMARK INTER + INTRA:         -11.923
REMARK INTER:                 -11.231
REMARK INTRA:                  -0.692
REMARK UNBOUND:                -2.404
REMARK SMILES CC[C@@H](CC[C@H](C)[C@@H]1CC[C@@H]2[C@@H]3CC=C4C[C@H](O)CC[C@]4(C)[C@@H]3CC[C@@]21C)C(C)C
REMARK SMILES IDX 5 1 4 2 3 3 2 4 1 5 28 6 29 7 30 8 6 9 7 10 8 11 9 12 26 13
REMARK SMILES IDX 10 14 11 15 25 16 27 17 12 18 24 19 23 20 13 21 21 22 14 23
REMARK SMILES IDX 15 24 20 25 22 26 16 27 19 28 17 29 18 30
REMARK H PARENT 18 31
REMARK Flexibility Score: inf
ROOT
ATOM      1  C   UNL     1      11.376  21.063  22.877  1.00  0.00     0.004 C 
ENDROOT
BRANCH   1   2
ATOM      2  C   UNL     1      12.827  21.541  22.751  1.00  0.00     0.004 C 
BRANCH   2   3
ATOM      3  C   UNL     1      13.782  20.562  21.977  1.00  0.00    -0.009 C 
BRANCH   3   4
ATOM      4  C   UNL     1      13.125  19.201  21.609  1.00  0.00     0.000 C 
ATOM      5  C   UNL     1      14.108  18.213  20.971  1.00  0.00     0.004 C 
ENDBRANCH   3   4
BRANCH   3   6
ATOM      6  C   UNL     1      15.127  20.369  22.763  1.00  0.00    -0.014 C 
ATOM      7  C   UNL     1      15.023  20.870  24.209  1.00  0.00     0.007 C 
ATOM      8  C   UNL     1      16.334  21.060  22.086  1.00  0.00     0.007 C 
ENDBRANCH   3   6
ENDBRANCH   2   3
ENDBRANCH   1   2
BRANCH   1   9
ATOM      9  C   UNL     1      10.276  22.121  23.227  1.00  0.00    -0.011 C 
ATOM     10  C   UNL     1       9.208  21.588  24.207  1.00  0.00     0.008 C 
BRANCH   9  11
ATOM     11  C   UNL     1       9.615  22.624  21.892  1.00  0.00    -0.002 C 
ATOM     12  C   UNL     1       8.198  23.133  22.130  1.00  0.00     0.005 C 
ATOM     13  C   UNL     1       9.440  21.703  20.633  1.00  0.00    -0.026 C 
ATOM     14  C   UNL     1       7.579  23.313  20.764  1.00  0.00     0.005 C 
ATOM     15  C   UNL     1       8.497  22.581  19.773  1.00  0.00    -0.001 C 
ATOM     16  C   UNL     1       8.805  20.305  20.972  1.00  0.00     0.007 C 
ATOM     17  C   UNL     1      10.776  21.501  19.866  1.00  0.00     0.012 C 
ATOM     18  C   UNL     1       7.759  21.852  18.606  1.00  0.00     0.000 C 
ATOM     19  C   UNL     1       7.369  20.122  20.470  1.00  0.00     0.005 C 
ATOM     20  C   UNL     1       7.280  20.386  18.951  1.00  0.00     0.003 C 
ATOM     21  C   UNL     1       6.650  22.769  17.998  1.00  0.00     0.031 C 
ATOM     22  C   UNL     1       5.890  20.025  18.306  1.00  0.00    -0.008 C 
ATOM     23  C   UNL     1       5.271  22.421  18.506  1.00  0.00    -0.027 C 
ATOM     24  C   UNL     1       4.900  21.134  18.643  1.00  0.00    -0.065 C 
ATOM     25  C   UNL     1       5.305  18.670  18.816  1.00  0.00     0.014 C 
ATOM     26  C   UNL     1       6.049  19.912  16.760  1.00  0.00     0.016 C 
ATOM     27  C   UNL     1       3.508  20.782  19.147  1.00  0.00     0.063 C 
ATOM     28  C   UNL     1       3.890  18.382  18.272  1.00  0.00     0.033 C 
ATOM     29  C   UNL     1       2.951  19.616  18.304  1.00  0.00     0.118 C 
BRANCH  29  30
ATOM     30  O   UNL     1       1.687  19.265  18.789  1.00  0.00    -0.393 OA
ATOM     31  H   UNL     1       1.022  19.796  18.283  1.00  0.00     0.210 HD
ENDBRANCH  29  30
ENDBRANCH   9  11
ENDBRANCH   1   9
TORSDOF 7
ENDMDL
MODEL 4
REMARK VINA RESULT:    -6.892      9.815     11.778
REMARK INTER + INTRA:         -11.914
REMARK INTER:                 -10.584
REMARK INTRA:                  -1.331
REMARK UNBOUND:                -2.404
REMARK SMILES CC[C@@H](CC[C@H](C)[C@@H]1CC[C@@H]2[C@@H]3CC=C4C[C@H](O)CC[C@]4(C)[C@@H]3CC[C@@]21C)C(C)C
REMARK SMILES IDX 5 1 4 2 3 3 2 4 1 5 28 6 29 7 30 8 6 9 7 10 8 11 9 12 26 13
REMARK SMILES IDX 10 14 11 15 25 16 27 17 12 18 24 19 23 20 13 21 21 22 14 23
REMARK SMILES IDX 15 24 20 25 22 26 16 27 19 28 17 29 18 30
REMARK H PARENT 18 31
REMARK Flexibility Score: inf
ROOT
ATOM      1  C   UNL     1       2.116  19.921  20.120  1.00  0.00     0.004 C 
ENDROOT
BRANCH   1   2
ATOM      2  C   UNL     1       0.609  19.638  20.117  1.00  0.00     0.004 C 
BRANCH   2   3
ATOM      3  C   UNL     1      -0.297  20.866  20.488  1.00  0.00    -0.009 C 
BRANCH   3   4
ATOM      4  C   UNL     1       0.498  22.114  20.968  1.00  0.00     0.000 C 
ATOM      5  C   UNL     1       0.552  22.242  22.494  1.00  0.00     0.004 C 
ENDBRANCH   3   4
BRANCH   3   6
ATOM      6  C   UNL     1      -1.402  20.444  21.521  1.00  0.00    -0.014 C 
ATOM      7  C   UNL     1      -1.584  18.922  21.574  1.00  0.00     0.007 C 
ATOM      8  C   UNL     1      -2.776  21.097  21.244  1.00  0.00     0.007 C 
ENDBRANCH   3   6
ENDBRANCH   2   3
ENDBRANCH   1   2
BRANCH   1   9
ATOM      9  C   UNL     1       2.860  19.991  18.744  1.00  0.00    -0.011 C 
ATOM     10  C   UNL     1       2.700  18.708  17.900  1.00  0.00     0.008 C 
BRANCH   9  11
ATOM     11  C   UNL     1       4.378  20.310  19.004  1.00  0.00    -0.002 C 
ATOM     12  C   UNL     1       4.846  19.737  20.337  1.00  0.00     0.005 C 
ATOM     13  C   UNL     1       4.941  21.775  19.044  1.00  0.00    -0.026 C 
ATOM     14  C   UNL     1       6.204  20.342  20.602  1.00  0.00     0.005 C 
ATOM     15  C   UNL     1       6.356  21.514  19.619  1.00  0.00    -0.001 C 
ATOM     16  C   UNL     1       4.096  22.738  19.957  1.00  0.00     0.007 C 
ATOM     17  C   UNL     1       5.081  22.387  17.624  1.00  0.00     0.012 C 
ATOM     18  C   UNL     1       7.102  22.762  20.191  1.00  0.00     0.000 C 
ATOM     19  C   UNL     1       4.793  23.153  21.258  1.00  0.00     0.005 C 
ATOM     20  C   UNL     1       6.174  23.780  20.965  1.00  0.00     0.003 C 
ATOM     21  C   UNL     1       8.381  22.326  20.975  1.00  0.00     0.031 C 
ATOM     22  C   UNL     1       6.877  24.421  22.219  1.00  0.00    -0.008 C 
ATOM     23  C   UNL     1       8.166  22.314  22.469  1.00  0.00    -0.027 C 
ATOM     24  C   UNL     1       7.471  23.301  23.065  1.00  0.00    -0.065 C 
ATOM     25  C   UNL     1       5.906  25.254  23.114  1.00  0.00     0.014 C 
ATOM     26  C   UNL     1       8.010  25.380  21.744  1.00  0.00     0.016 C 
ATOM     27  C   UNL     1       7.260  23.295  24.572  1.00  0.00     0.063 C 
ATOM     28  C   UNL     1       6.574  25.779  24.402  1.00  0.00     0.033 C 
ATOM     29  C   UNL     1       7.465  24.726  25.112  1.00  0.00     0.118 C 
BRANCH  29  30
ATOM     30  O   UNL     1       7.234  24.731  26.491  1.00  0.00    -0.393 OA
ATOM     31  H   UNL     1       6.253  24.696  26.624  1.00  0.00     0.210 HD
ENDBRANCH  29  30
ENDBRANCH   9  11
ENDBRANCH   1   9
TORSDOF 7
ENDMDL
MODEL 5
REMARK VINA RESULT:    -6.879      9.861     12.720
REMARK INTER + INTRA:         -11.897
REMARK INTER:                 -10.417
REMARK INTRA:                  -1.480
REMARK UNBOUND:                -2.404
REMARK SMILES CC[C@@H](CC[C@H](C)[C@@H]1CC[C@@H]2[C@@H]3CC=C4C[C@H](O)CC[C@]4(C)[C@@H]3CC[C@@]21C)C(C)C
REMARK SMILES IDX 5 1 4 2 3 3 2 4 1 5 28 6 29 7 30 8 6 9 7 10 8 11 9 12 26 13
REMARK SMILES IDX 10 14 11 15 25 16 27 17 12 18 24 19 23 20 13 21 21 22 14 23
REMARK SMILES IDX 15 24 20 25 22 26 16 27 19 28 17 29 18 30
REMARK H PARENT 18 31
REMARK Flexibility Score: inf
ROOT
ATOM      1  C   UNL     1      10.563  22.207  23.316  1.00  0.00     0.004 C 
ENDROOT
BRANCH   1   2
ATOM      2  C   UNL     1      11.989  22.225  22.753  1.00  0.00     0.004 C 
BRANCH   2   3
ATOM      3  C   UNL     1      12.369  20.982  21.872  1.00  0.00    -0.009 C 
BRANCH   3   4
ATOM      4  C   UNL     1      11.155  20.315  21.166  1.00  0.00     0.000 C 
ATOM      5  C   UNL     1      11.277  20.308  19.638  1.00  0.00     0.004 C 
ENDBRANCH   3   4
BRANCH   3   6
ATOM      6  C   UNL     1      13.200  19.946  22.710  1.00  0.00    -0.014 C 
ATOM      7  C   UNL     1      14.398  20.603  23.408  1.00  0.00     0.007 C 
ATOM      8  C   UNL     1      13.710  18.752  21.870  1.00  0.00     0.007 C 
ENDBRANCH   3   6
ENDBRANCH   2   3
ENDBRANCH   1   2
BRANCH   1   9
ATOM      9  C   UNL     1       9.850  23.577  23.572  1.00  0.00    -0.011 C 
ATOM     10  C   UNL     1       9.970  24.063  25.033  1.00  0.00     0.008 C 
BRANCH   9  11
ATOM     11  C   UNL     1       8.342  23.453  23.141  1.00  0.00    -0.002 C 
ATOM     12  C   UNL     1       7.802  22.053  23.409  1.00  0.00     0.005 C 
ATOM     13  C   UNL     1       7.855  23.734  21.675  1.00  0.00    -0.026 C 
ATOM     14  C   UNL     1       6.468  21.974  22.703  1.00  0.00     0.005 C 
ATOM     15  C   UNL     1       6.410  23.179  21.751  1.00  0.00    -0.001 C 
ATOM     16  C   UNL     1       8.717  23.000  20.584  1.00  0.00     0.007 C 
ATOM     17  C   UNL     1       7.793  25.253  21.361  1.00  0.00     0.012 C 
ATOM     18  C   UNL     1       5.710  22.905  20.382  1.00  0.00     0.000 C 
ATOM     19  C   UNL     1       7.999  21.841  19.883  1.00  0.00     0.005 C 
ATOM     20  C   UNL     1       6.663  22.313  19.269  1.00  0.00     0.003 C 
ATOM     21  C   UNL     1       4.385  22.104  20.592  1.00  0.00     0.031 C 
ATOM     22  C   UNL     1       5.953  21.247  18.355  1.00  0.00    -0.008 C 
ATOM     23  C   UNL     1       4.550  20.630  20.308  1.00  0.00    -0.027 C 
ATOM     24  C   UNL     1       5.275  20.217  19.251  1.00  0.00    -0.065 C 
ATOM     25  C   UNL     1       6.936  20.498  17.400  1.00  0.00     0.014 C 
ATOM     26  C   UNL     1       4.887  21.954  17.464  1.00  0.00     0.016 C 
ATOM     27  C   UNL     1       5.436  18.732  18.958  1.00  0.00     0.063 C 
ATOM     28  C   UNL     1       6.254  19.372  16.594  1.00  0.00     0.033 C 
ATOM     29  C   UNL     1       5.287  18.503  17.440  1.00  0.00     0.118 C 
BRANCH  29  30
ATOM     30  O   UNL     1       5.472  17.145  17.163  1.00  0.00    -0.393 OA
ATOM     31  H   UNL     1       5.945  17.086  16.295  1.00  0.00     0.210 HD
ENDBRANCH  29  30
ENDBRANCH   9  11
ENDBRANCH   1   9
TORSDOF 7
ENDMDL
MODEL 6
REMARK VINA RESULT:    -6.837      9.913     11.878
REMARK INTER + INTRA:         -11.839
REMARK INTER:                 -10.501
REMARK INTRA:                  -1.337
REMARK UNBOUND:                -2.404
REMARK SMILES CC[C@@H](CC[C@H](C)[C@@H]1CC[C@@H]2[C@@H]3CC=C4C[C@H](O)CC[C@]4(C)[C@@H]3CC[C@@]21C)C(C)C
REMARK SMILES IDX 5 1 4 2 3 3 2 4 1 5 28 6 29 7 30 8 6 9 7 10 8 11 9 12 26 13
REMARK SMILES IDX 10 14 11 15 25 16 27 17 12 18 24 19 23 20 13 21 21 22 14 23
REMARK SMILES IDX 15 24 20 25 22 26 16 27 19 28 17 29 18 30
REMARK H PARENT 18 31
REMARK Flexibility Score: inf
ROOT
ATOM      1  C   UNL     1       2.682  22.480  21.666  1.00  0.00     0.004 C 
ENDROOT
BRANCH   1   2
ATOM      2  C   UNL     1       1.288  22.963  21.248  1.00  0.00     0.004 C 
BRANCH   2   3
ATOM      3  C   UNL     1       0.307  23.265  22.438  1.00  0.00    -0.009 C 
BRANCH   3   4
ATOM      4  C   UNL     1       1.010  23.377  23.821  1.00  0.00     0.000 C 
ATOM      5  C   UNL     1       0.740  24.710  24.527  1.00  0.00     0.004 C 
ENDBRANCH   3   4
BRANCH   3   6
ATOM      6  C   UNL     1      -0.867  22.223  22.462  1.00  0.00    -0.014 C 
ATOM      7  C   UNL     1      -0.704  21.201  23.594  1.00  0.00     0.007 C 
ATOM      8  C   UNL     1      -1.032  21.460  21.127  1.00  0.00     0.007 C 
ENDBRANCH   3   6
ENDBRANCH   2   3
ENDBRANCH   1   2
BRANCH   1   9
ATOM      9  C   UNL     1       3.857  22.638  20.644  1.00  0.00    -0.011 C 
ATOM     10  C   UNL     1       4.001  21.432  19.689  1.00  0.00     0.008 C 
BRANCH   9  11
ATOM     11  C   UNL     1       5.190  22.889  21.440  1.00  0.00    -0.002 C 
ATOM     12  C   UNL     1       5.349  21.897  22.585  1.00  0.00     0.005 C 
ATOM     13  C   UNL     1       5.521  24.262  22.127  1.00  0.00    -0.026 C 
ATOM     14  C   UNL     1       6.491  22.409  23.431  1.00  0.00     0.005 C 
ATOM     15  C   UNL     1       6.747  23.856  22.983  1.00  0.00    -0.001 C 
ATOM     16  C   UNL     1       4.339  24.814  23.005  1.00  0.00     0.007 C 
ATOM     17  C   UNL     1       5.960  25.339  21.099  1.00  0.00     0.012 C 
ATOM     18  C   UNL     1       7.136  24.843  24.129  1.00  0.00     0.000 C 
ATOM     19  C   UNL     1       4.594  24.764  24.515  1.00  0.00     0.005 C 
ATOM     20  C   UNL     1       5.905  25.494  24.877  1.00  0.00     0.003 C 
ATOM     21  C   UNL     1       8.199  24.197  25.074  1.00  0.00     0.031 C 
ATOM     22  C   UNL     1       6.148  25.672  26.421  1.00  0.00    -0.008 C 
ATOM     23  C   UNL     1       7.588  23.652  26.343  1.00  0.00    -0.027 C 
ATOM     24  C   UNL     1       6.632  24.343  26.991  1.00  0.00    -0.065 C 
ATOM     25  C   UNL     1       4.868  26.106  27.203  1.00  0.00     0.014 C 
ATOM     26  C   UNL     1       7.230  26.770  26.653  1.00  0.00     0.016 C 
ATOM     27  C   UNL     1       6.021  23.799  28.274  1.00  0.00     0.063 C 
ATOM     28  C   UNL     1       5.083  26.162  28.730  1.00  0.00     0.033 C 
ATOM     29  C   UNL     1       5.878  24.953  29.288  1.00  0.00     0.118 C 
BRANCH  29  30
ATOM     30  O   UNL     1       5.282  24.464  30.455  1.00  0.00    -0.393 OA
ATOM     31  H   UNL     1       5.919  23.824  30.862  1.00  0.00     0.210 HD
ENDBRANCH  29  30
ENDBRANCH   9  11
ENDBRANCH   1   9
TORSDOF 7
ENDMDL
MODEL 7
REMARK VINA RESULT:    -6.725      2.432      5.021
REMARK INTER + INTRA:         -11.684
REMARK INTER:                  -9.782
REMARK INTRA:                  -1.902
REMARK UNBOUND:                -2.404
REMARK SMILES CC[C@@H](CC[C@H](C)[C@@H]1CC[C@@H]2[C@@H]3CC=C4C[C@H](O)CC[C@]4(C)[C@@H]3CC[C@@]21C)C(C)C
REMARK SMILES IDX 5 1 4 2 3 3 2 4 1 5 28 6 29 7 30 8 6 9 7 10 8 11 9 12 26 13
REMARK SMILES IDX 10 14 11 15 25 16 27 17 12 18 24 19 23 20 13 21 21 22 14 23
REMARK SMILES IDX 15 24 20 25 22 26 16 27 19 28 17 29 18 30
REMARK H PARENT 18 31
REMARK Flexibility Score: inf
ROOT
ATOM      1  C   UNL     1       2.788  13.077  25.005  1.00  0.00     0.004 C 
ENDROOT
BRANCH   1   2
ATOM      2  C   UNL     1       1.607  12.470  25.772  1.00  0.00     0.004 C 
BRANCH   2   3
ATOM      3  C   UNL     1       1.196  13.242  27.076  1.00  0.00    -0.009 C 
BRANCH   3   4
ATOM      4  C   UNL     1       1.878  14.631  27.227  1.00  0.00     0.000 C 
ATOM      5  C   UNL     1       2.835  14.704  28.422  1.00  0.00     0.004 C 
ENDBRANCH   3   4
BRANCH   3   6
ATOM      6  C   UNL     1       1.416  12.341  28.343  1.00  0.00    -0.014 C 
ATOM      7  C   UNL     1       1.729  10.888  27.965  1.00  0.00     0.007 C 
ATOM      8  C   UNL     1       0.213  12.351  29.314  1.00  0.00     0.007 C 
ENDBRANCH   3   6
ENDBRANCH   2   3
ENDBRANCH   1   2
BRANCH   1   9
ATOM      9  C   UNL     1       3.951  12.127  24.563  1.00  0.00    -0.011 C 
ATOM     10  C   UNL     1       3.589  10.630  24.671  1.00  0.00     0.008 C 
BRANCH   9  11
ATOM     11  C   UNL     1       5.230  12.461  25.415  1.00  0.00    -0.002 C 
ATOM     12  C   UNL     1       4.910  12.506  26.904  1.00  0.00     0.005 C 
ATOM     13  C   UNL     1       6.070  13.771  25.205  1.00  0.00    -0.026 C 
ATOM     14  C   UNL     1       6.121  13.107  27.578  1.00  0.00     0.005 C 
ATOM     15  C   UNL     1       6.976  13.726  26.461  1.00  0.00    -0.001 C 
ATOM     16  C   UNL     1       5.186  15.071  25.157  1.00  0.00     0.007 C 
ATOM     17  C   UNL     1       6.964  13.696  23.938  1.00  0.00     0.012 C 
ATOM     18  C   UNL     1       7.687  15.064  26.840  1.00  0.00     0.000 C 
ATOM     19  C   UNL     1       5.327  15.980  26.383  1.00  0.00     0.005 C 
ATOM     20  C   UNL     1       6.806  16.357  26.621  1.00  0.00     0.003 C 
ATOM     21  C   UNL     1       8.341  14.958  28.255  1.00  0.00     0.031 C 
ATOM     22  C   UNL     1       7.030  17.449  27.731  1.00  0.00    -0.008 C 
ATOM     23  C   UNL     1       7.502  15.608  29.329  1.00  0.00    -0.027 C 
ATOM     24  C   UNL     1       6.891  16.785  29.096  1.00  0.00    -0.065 C 
ATOM     25  C   UNL     1       6.011  18.630  27.652  1.00  0.00     0.014 C 
ATOM     26  C   UNL     1       8.458  18.055  27.582  1.00  0.00     0.016 C 
ATOM     27  C   UNL     1       6.051  17.445  30.180  1.00  0.00     0.063 C 
ATOM     28  C   UNL     1       6.160  19.635  28.814  1.00  0.00     0.033 C 
ATOM     29  C   UNL     1       6.354  18.958  30.196  1.00  0.00     0.118 C 
BRANCH  29  30
ATOM     30  O   UNL     1       5.556  19.574  31.165  1.00  0.00    -0.393 OA
ATOM     31  H   UNL     1       5.441  20.519  30.891  1.00  0.00     0.210 HD
ENDBRANCH  29  30
ENDBRANCH   9  11
ENDBRANCH   1   9
TORSDOF 7
ENDMDL
MODEL 8
REMARK VINA RESULT:    -6.722      9.793     13.168
REMARK INTER + INTRA:         -11.681
REMARK INTER:                 -10.129
REMARK INTRA:                  -1.552
REMARK UNBOUND:                -2.404
REMARK SMILES CC[C@@H](CC[C@H](C)[C@@H]1CC[C@@H]2[C@@H]3CC=C4C[C@H](O)CC[C@]4(C)[C@@H]3CC[C@@]21C)C(C)C
REMARK SMILES IDX 5 1 4 2 3 3 2 4 1 5 28 6 29 7 30 8 6 9 7 10 8 11 9 12 26 13
REMARK SMILES IDX 10 14 11 15 25 16 27 17 12 18 24 19 23 20 13 21 21 22 14 23
REMARK SMILES IDX 15 24 20 25 22 26 16 27 19 28 17 29 18 30
REMARK H PARENT 18 31
REMARK Flexibility Score: inf
ROOT
ATOM      1  C   UNL     1       8.239  22.472  24.357  1.00  0.00     0.004 C 
ENDROOT
BRANCH   1   2
ATOM      2  C   UNL     1       8.399  22.818  25.842  1.00  0.00     0.004 C 
BRANCH   2   3
ATOM      3  C   UNL     1       7.509  24.012  26.343  1.00  0.00    -0.009 C 
BRANCH   3   4
ATOM      4  C   UNL     1       7.080  24.995  25.216  1.00  0.00     0.000 C 
ATOM      5  C   UNL     1       5.576  24.952  24.922  1.00  0.00     0.004 C 
ENDBRANCH   3   4
BRANCH   3   6
ATOM      6  C   UNL     1       8.209  24.758  27.534  1.00  0.00    -0.014 C 
ATOM      7  C   UNL     1       7.462  26.040  27.925  1.00  0.00     0.007 C 
ATOM      8  C   UNL     1       9.686  25.115  27.246  1.00  0.00     0.007 C 
ENDBRANCH   3   6
ENDBRANCH   2   3
ENDBRANCH   1   2
BRANCH   1   9
ATOM      9  C   UNL     1       9.480  22.646  23.418  1.00  0.00    -0.011 C 
ATOM     10  C   UNL     1      10.474  23.719  23.915  1.00  0.00     0.008 C 
BRANCH   9  11
ATOM     11  C   UNL     1       8.975  22.975  21.966  1.00  0.00    -0.002 C 
ATOM     12  C   UNL     1       7.517  23.421  21.972  1.00  0.00     0.005 C 
ATOM     13  C   UNL     1       9.007  21.925  20.799  1.00  0.00    -0.026 C 
ATOM     14  C   UNL     1       7.072  23.428  20.528  1.00  0.00     0.005 C 
ATOM     15  C   UNL     1       8.143  22.656  19.741  1.00  0.00    -0.001 C 
ATOM     16  C   UNL     1       8.397  20.532  21.204  1.00  0.00     0.007 C 
ATOM     17  C   UNL     1      10.438  21.726  20.230  1.00  0.00     0.012 C 
ATOM     18  C   UNL     1       7.596  21.773  18.575  1.00  0.00     0.000 C 
ATOM     19  C   UNL     1       7.048  20.216  20.549  1.00  0.00     0.005 C 
ATOM     20  C   UNL     1       7.145  20.322  19.012  1.00  0.00     0.003 C 
ATOM     21  C   UNL     1       6.534  22.559  17.741  1.00  0.00     0.031 C 
ATOM     22  C   UNL     1       5.868  19.819  18.242  1.00  0.00    -0.008 C 
ATOM     23  C   UNL     1       5.118  22.182  18.108  1.00  0.00    -0.027 C 
ATOM     24  C   UNL     1       4.792  20.895  18.334  1.00  0.00    -0.065 C 
ATOM     25  C   UNL     1       5.284  18.489  18.816  1.00  0.00     0.014 C 
ATOM     26  C   UNL     1       6.230  19.562  16.748  1.00  0.00     0.016 C 
ATOM     27  C   UNL     1       3.364  20.514  18.696  1.00  0.00     0.063 C 
ATOM     28  C   UNL     1       3.965  18.065  18.135  1.00  0.00     0.033 C 
ATOM     29  C   UNL     1       2.975  19.239  17.919  1.00  0.00     0.118 C 
BRANCH  29  30
ATOM     30  O   UNL     1       1.676  18.864  18.278  1.00  0.00    -0.393 OA
ATOM     31  H   UNL     1       1.416  18.112  17.688  1.00  0.00     0.210 HD
ENDBRANCH  29  30
ENDBRANCH   9  11
ENDBRANCH   1   9
TORSDOF 7
ENDMDL
MODEL 9
REMARK VINA RESULT:    -6.581      2.833      6.917
REMARK INTER + INTRA:         -11.485
REMARK INTER:                  -8.936
REMARK INTRA:                  -2.550
REMARK UNBOUND:                -2.404
REMARK SMILES CC[C@@H](CC[C@H](C)[C@@H]1CC[C@@H]2[C@@H]3CC=C4C[C@H](O)CC[C@]4(C)[C@@H]3CC[C@@]21C)C(C)C
REMARK SMILES IDX 5 1 4 2 3 3 2 4 1 5 28 6 29 7 30 8 6 9 7 10 8 11 9 12 26 13
REMARK SMILES IDX 10 14 11 15 25 16 27 17 12 18 24 19 23 20 13 21 21 22 14 23
REMARK SMILES IDX 15 24 20 25 22 26 16 27 19 28 17 29 18 30
REMARK H PARENT 18 31
REMARK Flexibility Score: inf
ROOT
ATOM      1  C   UNL     1       8.399  17.683  28.651  1.00  0.00     0.004 C 
ENDROOT
BRANCH   1   2
ATOM      2  C   UNL     1       7.360  18.747  28.277  1.00  0.00     0.004 C 
BRANCH   2   3
ATOM      3  C   UNL     1       5.941  18.185  27.904  1.00  0.00    -0.009 C 
BRANCH   3   4
ATOM      4  C   UNL     1       5.650  18.171  26.376  1.00  0.00     0.000 C 
ATOM      5  C   UNL     1       5.862  16.795  25.737  1.00  0.00     0.004 C 
ENDBRANCH   3   4
BRANCH   3   6
ATOM      6  C   UNL     1       4.822  18.940  28.706  1.00  0.00    -0.014 C 
ATOM      7  C   UNL     1       5.043  18.852  30.221  1.00  0.00     0.007 C 
ATOM      8  C   UNL     1       3.396  18.435  28.384  1.00  0.00     0.007 C 
ENDBRANCH   3   6
ENDBRANCH   2   3
ENDBRANCH   1   2
BRANCH   1   9
ATOM      9  C   UNL     1       8.162  16.840  29.948  1.00  0.00    -0.011 C 
ATOM     10  C   UNL     1       9.289  16.999  30.993  1.00  0.00     0.008 C 
BRANCH   9  11
ATOM     11  C   UNL     1       7.974  15.332  29.545  1.00  0.00    -0.002 C 
ATOM     12  C   UNL     1       8.002  15.153  28.032  1.00  0.00     0.005 C 
ATOM     13  C   UNL     1       6.715  14.493  29.966  1.00  0.00    -0.026 C 
ATOM     14  C   UNL     1       7.532  13.742  27.765  1.00  0.00     0.005 C 
ATOM     15  C   UNL     1       6.905  13.240  29.075  1.00  0.00    -0.001 C 
ATOM     16  C   UNL     1       5.356  15.229  29.676  1.00  0.00     0.007 C 
ATOM     17  C   UNL     1       6.772  14.062  31.457  1.00  0.00     0.012 C 
ATOM     18  C   UNL     1       5.647  12.331  28.897  1.00  0.00     0.000 C 
ATOM     19  C   UNL     1       4.539  14.624  28.529  1.00  0.00     0.005 C 
ATOM     20  C   UNL     1       4.284  13.120  28.769  1.00  0.00     0.003 C 
ATOM     21  C   UNL     1       5.889  11.270  27.776  1.00  0.00     0.031 C 
ATOM     22  C   UNL     1       3.283  12.457  27.751  1.00  0.00    -0.008 C 
ATOM     23  C   UNL     1       5.252  11.661  26.464  1.00  0.00    -0.027 C 
ATOM     24  C   UNL     1       4.022  12.209  26.440  1.00  0.00    -0.065 C 
ATOM     25  C   UNL     1       2.031  13.341  27.451  1.00  0.00     0.014 C 
ATOM     26  C   UNL     1       2.771  11.105  28.332  1.00  0.00     0.016 C 
ATOM     27  C   UNL     1       3.375  12.597  25.119  1.00  0.00     0.063 C 
ATOM     28  C   UNL     1       1.116  12.740  26.362  1.00  0.00     0.033 C 
ATOM     29  C   UNL     1       1.892  12.173  25.144  1.00  0.00     0.118 C 
BRANCH  29  30
ATOM     30  O   UNL     1       1.285  12.562  23.946  1.00  0.00    -0.393 OA
ATOM     31  H   UNL     1       1.214  13.550  23.962  1.00  0.00     0.210 HD
ENDBRANCH  29  30
ENDBRANCH   9  11
ENDBRANCH   1   9
TORSDOF 7
ENDMDL
