MODEL 1
REMARK VINA RESULT:    -4.402      0.000      0.000
REMARK INTER + INTRA:          -7.742
REMARK INTER:                  -6.718
REMARK INTRA:                  -1.024
REMARK UNBOUND:                -1.024
REMARK SMILES CC(=O)CCC=C(C)CCC=C(C)CCC=C(C)C
REMARK SMILES IDX 10 1 11 2 12 3 13 4 14 5 15 6 16 7 18 8 17 9 19 10 9 11 7 12
REMARK SMILES IDX 6 13 8 14 5 15 4 16 2 17 3 18 1 19
REMARK H PARENT
REMARK Flexibility Score: inf
ROOT
ATOM      1  C   UNL     1       6.094   5.406  -5.712  1.00  0.00     0.032 C 
ENDROOT
BRANCH   1   2
ATOM      2  C   UNL     1       5.840   4.507  -6.898  1.00  0.00    -0.028 C 
ATOM      3  C   UNL     1       4.962   3.478  -6.910  1.00  0.00    -0.077 C 
ATOM      4  C   UNL     1       4.075   3.174  -5.726  1.00  0.00     0.039 C 
BRANCH   3   5
ATOM      5  C   UNL     1       4.874   2.608  -8.144  1.00  0.00     0.034 C 
BRANCH   5   6
ATOM      6  C   UNL     1       6.097   1.690  -8.259  1.00  0.00     0.032 C 
BRANCH   6   7
ATOM      7  C   UNL     1       6.091   0.649  -7.169  1.00  0.00    -0.028 C 
ATOM      8  C   UNL     1       8.472   1.083  -6.519  1.00  0.00     0.039 C 
ATOM      9  C   UNL     1       7.144   0.378  -6.365  1.00  0.00    -0.080 C 
ATOM     10  C   UNL     1       6.982  -0.673  -5.298  1.00  0.00     0.039 C 
ENDBRANCH   6   7
ENDBRANCH   5   6
ENDBRANCH   3   5
ENDBRANCH   1   2
BRANCH   1  11
ATOM     11  C   UNL     1       6.648   6.772  -6.138  1.00  0.00     0.034 C 
BRANCH  11  12
ATOM     12  C   UNL     1       6.312   7.852  -5.131  1.00  0.00    -0.077 C 
ATOM     13  C   UNL     1       5.994   7.498  -3.864  1.00  0.00    -0.028 C 
ATOM     14  C   UNL     1       6.392   9.297  -5.562  1.00  0.00     0.039 C 
BRANCH  13  15
ATOM     15  C   UNL     1       5.627   8.466  -2.764  1.00  0.00     0.035 C 
BRANCH  15  16
ATOM     16  C   UNL     1       6.521   8.284  -1.533  1.00  0.00     0.079 C 
BRANCH  16  17
ATOM     17  C   UNL     1       5.934   8.948  -0.315  1.00  0.00     0.130 C 
ATOM     18  O   UNL     1       4.903   9.595  -0.418  1.00  0.00    -0.300 OA
ATOM     19  C   UNL     1       6.594   8.832   1.027  1.00  0.00     0.087 C 
ENDBRANCH  16  17
ENDBRANCH  15  16
ENDBRANCH  13  15
ENDBRANCH  11  12
ENDBRANCH   1  11
TORSDOF 9
ENDMDL
MODEL 2
REMARK VINA RESULT:    -4.299      1.814      2.573
REMARK INTER + INTRA:          -7.585
REMARK INTER:                  -5.986
REMARK INTRA:                  -1.599
REMARK UNBOUND:                -1.024
REMARK SMILES CC(=O)CCC=C(C)CCC=C(C)CCC=C(C)C
REMARK SMILES IDX 10 1 11 2 12 3 13 4 14 5 15 6 16 7 18 8 17 9 19 10 9 11 7 12
REMARK SMILES IDX 6 13 8 14 5 15 4 16 2 17 3 18 1 19
REMARK H PARENT
REMARK Flexibility Score: inf
ROOT
ATOM      1  C   UNL     1       8.158   3.358  -7.169  1.00  0.00     0.032 C 
ENDROOT
BRANCH   1   2
ATOM      2  C   UNL     1       7.270   2.502  -8.039  1.00  0.00    -0.028 C 
ATOM      3  C   UNL     1       6.010   2.127  -7.719  1.00  0.00    -0.077 C 
ATOM      4  C   UNL     1       5.331   2.609  -6.458  1.00  0.00     0.039 C 
BRANCH   3   5
ATOM      5  C   UNL     1       5.267   1.196  -8.650  1.00  0.00     0.034 C 
BRANCH   5   6
ATOM      6  C   UNL     1       5.928  -0.188  -8.688  1.00  0.00     0.032 C 
BRANCH   6   7
ATOM      7  C   UNL     1       5.891  -0.837  -7.328  1.00  0.00    -0.028 C 
ATOM      8  C   UNL     1       8.388  -0.925  -7.125  1.00  0.00     0.039 C 
ATOM      9  C   UNL     1       6.988  -1.156  -6.604  1.00  0.00    -0.080 C 
ATOM     10  C   UNL     1       6.796  -1.777  -5.245  1.00  0.00     0.039 C 
ENDBRANCH   6   7
ENDBRANCH   5   6
ENDBRANCH   3   5
ENDBRANCH   1   2
BRANCH   1  11
ATOM     11  C   UNL     1       8.250   4.800  -7.689  1.00  0.00     0.034 C 
BRANCH  11  12
ATOM     12  C   UNL     1       7.337   5.732  -6.920  1.00  0.00    -0.077 C 
ATOM     13  C   UNL     1       7.730   6.190  -5.708  1.00  0.00    -0.028 C 
ATOM     14  C   UNL     1       6.037   6.162  -7.556  1.00  0.00     0.039 C 
BRANCH  13  15
ATOM     15  C   UNL     1       6.916   7.111  -4.829  1.00  0.00     0.035 C 
BRANCH  15  16
ATOM     16  C   UNL     1       6.677   6.500  -3.445  1.00  0.00     0.079 C 
BRANCH  16  17
ATOM     17  C   UNL     1       6.246   7.540  -2.444  1.00  0.00     0.130 C 
ATOM     18  O   UNL     1       6.450   7.354  -1.254  1.00  0.00    -0.300 OA
ATOM     19  C   UNL     1       5.566   8.803  -2.880  1.00  0.00     0.087 C 
ENDBRANCH  16  17
ENDBRANCH  15  16
ENDBRANCH  13  15
ENDBRANCH  11  12
ENDBRANCH   1  11
TORSDOF 9
ENDMDL
MODEL 3
REMARK VINA RESULT:    -4.287      3.220      8.374
REMARK INTER + INTRA:          -7.567
REMARK INTER:                  -6.487
REMARK INTRA:                  -1.080
REMARK UNBOUND:                -1.024
REMARK SMILES CC(=O)CCC=C(C)CCC=C(C)CCC=C(C)C
REMARK SMILES IDX 10 1 11 2 12 3 13 4 14 5 15 6 16 7 18 8 17 9 19 10 9 11 7 12
REMARK SMILES IDX 6 13 8 14 5 15 4 16 2 17 3 18 1 19
REMARK H PARENT
REMARK Flexibility Score: inf
ROOT
ATOM      1  C   UNL     1       6.471   6.144  -6.736  1.00  0.00     0.032 C 
ENDROOT
BRANCH   1   2
ATOM      2  C   UNL     1       6.665   6.768  -5.376  1.00  0.00    -0.028 C 
ATOM      3  C   UNL     1       7.844   6.825  -4.716  1.00  0.00    -0.077 C 
ATOM      4  C   UNL     1       9.128   6.322  -5.334  1.00  0.00     0.039 C 
BRANCH   3   5
ATOM      5  C   UNL     1       7.874   7.406  -3.320  1.00  0.00     0.034 C 
BRANCH   5   6
ATOM      6  C   UNL     1       6.606   7.033  -2.543  1.00  0.00     0.032 C 
BRANCH   6   7
ATOM      7  C   UNL     1       6.515   7.814  -1.257  1.00  0.00    -0.028 C 
ATOM      8  C   UNL     1       5.071   9.602  -2.257  1.00  0.00     0.039 C 
ATOM      9  C   UNL     1       5.813   8.960  -1.107  1.00  0.00    -0.080 C 
ATOM     10  C   UNL     1       5.791   9.618   0.248  1.00  0.00     0.039 C 
ENDBRANCH   6   7
ENDBRANCH   5   6
ENDBRANCH   3   5
ENDBRANCH   1   2
BRANCH   1  11
ATOM     11  C   UNL     1       5.640   4.855  -6.662  1.00  0.00     0.034 C 
BRANCH  11  12
ATOM     12  C   UNL     1       6.431   3.651  -7.130  1.00  0.00    -0.077 C 
ATOM     13  C   UNL     1       5.863   2.424  -7.069  1.00  0.00    -0.028 C 
ATOM     14  C   UNL     1       7.812   3.868  -7.699  1.00  0.00     0.039 C 
BRANCH  13  15
ATOM     15  C   UNL     1       6.540   1.140  -7.489  1.00  0.00     0.035 C 
BRANCH  15  16
ATOM     16  C   UNL     1       7.011   0.332  -6.275  1.00  0.00     0.079 C 
BRANCH  16  17
ATOM     17  C   UNL     1       6.359  -1.026  -6.224  1.00  0.00     0.130 C 
ATOM     18  O   UNL     1       5.504  -1.317  -7.047  1.00  0.00    -0.300 OA
ATOM     19  C   UNL     1       6.739  -2.031  -5.177  1.00  0.00     0.087 C 
ENDBRANCH  16  17
ENDBRANCH  15  16
ENDBRANCH  13  15
ENDBRANCH  11  12
ENDBRANCH   1  11
TORSDOF 9
ENDMDL
MODEL 4
REMARK VINA RESULT:    -4.248      1.754      3.844
REMARK INTER + INTRA:          -7.507
REMARK INTER:                  -5.580
REMARK INTRA:                  -1.928
REMARK UNBOUND:                -1.024
REMARK SMILES CC(=O)CCC=C(C)CCC=C(C)CCC=C(C)C
REMARK SMILES IDX 10 1 11 2 12 3 13 4 14 5 15 6 16 7 18 8 17 9 19 10 9 11 7 12
REMARK SMILES IDX 6 13 8 14 5 15 4 16 2 17 3 18 1 19
REMARK H PARENT
REMARK Flexibility Score: inf
ROOT
ATOM      1  C   UNL     1       9.680   3.169  -7.139  1.00  0.00     0.032 C 
ENDROOT
BRANCH   1   2
ATOM      2  C   UNL     1       9.008   2.040  -6.395  1.00  0.00    -0.028 C 
ATOM      3  C   UNL     1       8.579   0.891  -6.965  1.00  0.00    -0.077 C 
ATOM      4  C   UNL     1       8.808   0.593  -8.428  1.00  0.00     0.039 C 
BRANCH   3   5
ATOM      5  C   UNL     1       7.846  -0.119  -6.110  1.00  0.00     0.034 C 
BRANCH   5   6
ATOM      6  C   UNL     1       6.349  -0.137  -6.442  1.00  0.00     0.032 C 
BRANCH   6   7
ATOM      7  C   UNL     1       5.642   1.030  -5.800  1.00  0.00    -0.028 C 
ATOM      8  C   UNL     1       5.394   2.276  -7.960  1.00  0.00     0.039 C 
ATOM      9  C   UNL     1       5.189   2.113  -6.472  1.00  0.00    -0.080 C 
ATOM     10  C   UNL     1       4.475   3.190  -5.699  1.00  0.00     0.039 C 
ENDBRANCH   6   7
ENDBRANCH   5   6
ENDBRANCH   3   5
ENDBRANCH   1   2
BRANCH   1  11
ATOM     11  C   UNL     1       8.660   4.160  -7.718  1.00  0.00     0.034 C 
BRANCH  11  12
ATOM     12  C   UNL     1       8.366   5.289  -6.753  1.00  0.00    -0.077 C 
ATOM     13  C   UNL     1       7.086   5.693  -6.578  1.00  0.00    -0.028 C 
ATOM     14  C   UNL     1       9.511   5.895  -5.976  1.00  0.00     0.039 C 
BRANCH  13  15
ATOM     15  C   UNL     1       6.653   6.812  -5.659  1.00  0.00     0.035 C 
BRANCH  15  16
ATOM     16  C   UNL     1       6.310   6.288  -4.261  1.00  0.00     0.079 C 
BRANCH  16  17
ATOM     17  C   UNL     1       6.035   7.413  -3.297  1.00  0.00     0.130 C 
ATOM     18  O   UNL     1       5.333   8.350  -3.647  1.00  0.00    -0.300 OA
ATOM     19  C   UNL     1       6.611   7.409  -1.912  1.00  0.00     0.087 C 
ENDBRANCH  16  17
ENDBRANCH  15  16
ENDBRANCH  13  15
ENDBRANCH  11  12
ENDBRANCH   1  11
TORSDOF 9
ENDMDL
MODEL 5
REMARK VINA RESULT:    -4.208      1.179      1.782
REMARK INTER + INTRA:          -7.446
REMARK INTER:                  -6.212
REMARK INTRA:                  -1.235
REMARK UNBOUND:                -1.024
REMARK SMILES CC(=O)CCC=C(C)CCC=C(C)CCC=C(C)C
REMARK SMILES IDX 10 1 11 2 12 3 13 4 14 5 15 6 16 7 18 8 17 9 19 10 9 11 7 12
REMARK SMILES IDX 6 13 8 14 5 15 4 16 2 17 3 18 1 19
REMARK H PARENT
REMARK Flexibility Score: inf
ROOT
ATOM      1  C   UNL     1       6.072   5.546  -7.057  1.00  0.00     0.032 C 
ENDROOT
BRANCH   1   2
ATOM      2  C   UNL     1       5.867   4.249  -7.801  1.00  0.00    -0.028 C 
ATOM      3  C   UNL     1       5.077   3.236  -7.378  1.00  0.00    -0.077 C 
ATOM      4  C   UNL     1       4.244   3.346  -6.122  1.00  0.00     0.039 C 
BRANCH   3   5
ATOM      5  C   UNL     1       5.032   1.959  -8.186  1.00  0.00     0.034 C 
BRANCH   5   6
ATOM      6  C   UNL     1       6.403   1.272  -8.206  1.00  0.00     0.032 C 
BRANCH   6   7
ATOM      7  C   UNL     1       6.754   0.734  -6.842  1.00  0.00    -0.028 C 
ATOM      8  C   UNL     1       5.709  -1.502  -7.278  1.00  0.00     0.039 C 
ATOM      9  C   UNL     1       6.466  -0.517  -6.418  1.00  0.00    -0.080 C 
ATOM     10  C   UNL     1       6.905  -0.925  -5.035  1.00  0.00     0.039 C 
ENDBRANCH   6   7
ENDBRANCH   5   6
ENDBRANCH   3   5
ENDBRANCH   1   2
BRANCH   1  11
ATOM     11  C   UNL     1       7.440   5.597  -6.362  1.00  0.00     0.034 C 
BRANCH  11  12
ATOM     12  C   UNL     1       7.539   6.766  -5.404  1.00  0.00    -0.077 C 
ATOM     13  C   UNL     1       6.476   7.592  -5.257  1.00  0.00    -0.028 C 
ATOM     14  C   UNL     1       8.806   6.942  -4.603  1.00  0.00     0.039 C 
BRANCH  13  15
ATOM     15  C   UNL     1       6.441   8.799  -4.349  1.00  0.00     0.035 C 
BRANCH  15  16
ATOM     16  C   UNL     1       5.248   8.743  -3.389  1.00  0.00     0.079 C 
BRANCH  16  17
ATOM     17  C   UNL     1       5.693   8.616  -1.955  1.00  0.00     0.130 C 
ATOM     18  O   UNL     1       5.242   9.378  -1.113  1.00  0.00    -0.300 OA
ATOM     19  C   UNL     1       6.685   7.572  -1.539  1.00  0.00     0.087 C 
ENDBRANCH  16  17
ENDBRANCH  15  16
ENDBRANCH  13  15
ENDBRANCH  11  12
ENDBRANCH   1  11
TORSDOF 9
ENDMDL
MODEL 6
REMARK VINA RESULT:    -4.183      3.034      7.984
REMARK INTER + INTRA:          -7.408
REMARK INTER:                  -6.031
REMARK INTRA:                  -1.377
REMARK UNBOUND:                -1.024
REMARK SMILES CC(=O)CCC=C(C)CCC=C(C)CCC=C(C)C
REMARK SMILES IDX 10 1 11 2 12 3 13 4 14 5 15 6 16 7 18 8 17 9 19 10 9 11 7 12
REMARK SMILES IDX 6 13 8 14 5 15 4 16 2 17 3 18 1 19
REMARK H PARENT
REMARK Flexibility Score: inf
ROOT
ATOM      1  C   UNL     1       6.247   6.740  -3.711  1.00  0.00     0.032 C 
ENDROOT
BRANCH   1   2
ATOM      2  C   UNL     1       5.996   7.868  -2.741  1.00  0.00    -0.028 C 
ATOM      3  C   UNL     1       5.390   9.036  -3.058  1.00  0.00    -0.077 C 
ATOM      4  C   UNL     1       4.825   9.291  -4.436  1.00  0.00     0.039 C 
BRANCH   3   5
ATOM      5  C   UNL     1       5.281  10.113  -2.002  1.00  0.00     0.034 C 
BRANCH   5   6
ATOM      6  C   UNL     1       5.446   9.523  -0.596  1.00  0.00     0.032 C 
BRANCH   6   7
ATOM      7  C   UNL     1       6.804   9.855  -0.031  1.00  0.00    -0.028 C 
ATOM      8  C   UNL     1       7.258   7.499   0.692  1.00  0.00     0.039 C 
ATOM      9  C   UNL     1       7.639   8.952   0.533  1.00  0.00    -0.080 C 
ATOM     10  C   UNL     1       8.979   9.427   1.030  1.00  0.00     0.039 C 
ENDBRANCH   6   7
ENDBRANCH   5   6
ENDBRANCH   3   5
ENDBRANCH   1   2
BRANCH   1  11
ATOM     11  C   UNL     1       7.639   6.834  -4.351  1.00  0.00     0.034 C 
BRANCH  11  12
ATOM     12  C   UNL     1       7.663   6.215  -5.734  1.00  0.00    -0.077 C 
ATOM     13  C   UNL     1       6.541   6.246  -6.491  1.00  0.00    -0.028 C 
ATOM     14  C   UNL     1       8.957   5.629  -6.243  1.00  0.00     0.039 C 
BRANCH  13  15
ATOM     15  C   UNL     1       6.420   5.658  -7.877  1.00  0.00     0.035 C 
BRANCH  15  16
ATOM     16  C   UNL     1       5.285   4.632  -7.954  1.00  0.00     0.079 C 
BRANCH  16  17
ATOM     17  C   UNL     1       5.475   3.516  -6.959  1.00  0.00     0.130 C 
ATOM     18  O   UNL     1       6.459   2.796  -7.040  1.00  0.00    -0.300 OA
ATOM     19  C   UNL     1       4.477   3.270  -5.867  1.00  0.00     0.087 C 
ENDBRANCH  16  17
ENDBRANCH  15  16
ENDBRANCH  13  15
ENDBRANCH  11  12
ENDBRANCH   1  11
TORSDOF 9
ENDMDL
MODEL 7
REMARK VINA RESULT:    -4.129      2.961      8.627
REMARK INTER + INTRA:          -7.325
REMARK INTER:                  -6.482
REMARK INTRA:                  -0.843
REMARK UNBOUND:                -1.024
REMARK SMILES CC(=O)CCC=C(C)CCC=C(C)CCC=C(C)C
REMARK SMILES IDX 10 1 11 2 12 3 13 4 14 5 15 6 16 7 18 8 17 9 19 10 9 11 7 12
REMARK SMILES IDX 6 13 8 14 5 15 4 16 2 17 3 18 1 19
REMARK H PARENT
REMARK Flexibility Score: inf
ROOT
ATOM      1  C   UNL     1       6.841   5.945  -5.541  1.00  0.00     0.032 C 
ENDROOT
BRANCH   1   2
ATOM      2  C   UNL     1       6.373   7.317  -5.123  1.00  0.00    -0.028 C 
ATOM      3  C   UNL     1       6.230   7.724  -3.841  1.00  0.00    -0.077 C 
ATOM      4  C   UNL     1       6.610   6.839  -2.677  1.00  0.00     0.039 C 
BRANCH   3   5
ATOM      5  C   UNL     1       5.670   9.103  -3.570  1.00  0.00     0.034 C 
BRANCH   5   6
ATOM      6  C   UNL     1       6.292   9.711  -2.307  1.00  0.00     0.032 C 
BRANCH   6   7
ATOM      7  C   UNL     1       5.231  10.026  -1.284  1.00  0.00    -0.028 C 
ATOM      8  C   UNL     1       6.507   8.978   0.600  1.00  0.00     0.039 C 
ATOM      9  C   UNL     1       5.322   9.721   0.030  1.00  0.00    -0.080 C 
ATOM     10  C   UNL     1       4.192  10.125   0.941  1.00  0.00     0.039 C 
ENDBRANCH   6   7
ENDBRANCH   5   6
ENDBRANCH   3   5
ENDBRANCH   1   2
BRANCH   1  11
ATOM     11  C   UNL     1       6.664   5.714  -7.048  1.00  0.00     0.034 C 
BRANCH  11  12
ATOM     12  C   UNL     1       6.077   4.349  -7.341  1.00  0.00    -0.077 C 
ATOM     13  C   UNL     1       6.851   3.249  -7.183  1.00  0.00    -0.028 C 
ATOM     14  C   UNL     1       4.627   4.255  -7.752  1.00  0.00     0.039 C 
BRANCH  13  15
ATOM     15  C   UNL     1       6.401   1.832  -7.450  1.00  0.00     0.035 C 
BRANCH  15  16
ATOM     16  C   UNL     1       5.942   1.138  -6.163  1.00  0.00     0.079 C 
BRANCH  16  17
ATOM     17  C   UNL     1       6.373  -0.306  -6.127  1.00  0.00     0.130 C 
ATOM     18  O   UNL     1       7.239  -0.658  -5.340  1.00  0.00    -0.300 OA
ATOM     19  C   UNL     1       5.760  -1.323  -7.042  1.00  0.00     0.087 C 
ENDBRANCH  16  17
ENDBRANCH  15  16
ENDBRANCH  13  15
ENDBRANCH  11  12
ENDBRANCH   1  11
TORSDOF 9
ENDMDL
MODEL 8
REMARK VINA RESULT:    -3.959      4.987      7.103
REMARK INTER + INTRA:          -7.065
REMARK INTER:                  -5.024
REMARK INTRA:                  -2.042
REMARK UNBOUND:                -1.024
REMARK SMILES CC(=O)CCC=C(C)CCC=C(C)CCC=C(C)C
REMARK SMILES IDX 10 1 11 2 12 3 13 4 14 5 15 6 16 7 18 8 17 9 19 10 9 11 7 12
REMARK SMILES IDX 6 13 8 14 5 15 4 16 2 17 3 18 1 19
REMARK H PARENT
REMARK Flexibility Score: inf
ROOT
ATOM      1  C   UNL     1       6.576  -1.602  -6.312  1.00  0.00     0.032 C 
ENDROOT
BRANCH   1   2
ATOM      2  C   UNL     1       5.603  -1.079  -7.341  1.00  0.00    -0.028 C 
ATOM      3  C   UNL     1       5.778  -1.164  -8.680  1.00  0.00    -0.077 C 
ATOM      4  C   UNL     1       6.963  -1.881  -9.284  1.00  0.00     0.039 C 
BRANCH   3   5
ATOM      5  C   UNL     1       4.759  -0.520  -9.593  1.00  0.00     0.034 C 
BRANCH   5   6
ATOM      6  C   UNL     1       5.123   0.942  -9.879  1.00  0.00     0.032 C 
BRANCH   6   7
ATOM      7  C   UNL     1       5.041   1.771  -8.622  1.00  0.00    -0.028 C 
ATOM      8  C   UNL     1       4.059   3.752  -9.801  1.00  0.00     0.039 C 
ATOM      9  C   UNL     1       4.546   3.028  -8.568  1.00  0.00    -0.080 C 
ATOM     10  C   UNL     1       4.501   3.725  -7.233  1.00  0.00     0.039 C 
ENDBRANCH   6   7
ENDBRANCH   5   6
ENDBRANCH   3   5
ENDBRANCH   1   2
BRANCH   1  11
ATOM     11  C   UNL     1       7.287  -0.464  -5.567  1.00  0.00     0.034 C 
BRANCH  11  12
ATOM     12  C   UNL     1       8.179   0.339  -6.491  1.00  0.00    -0.077 C 
ATOM     13  C   UNL     1       7.834   1.611  -6.801  1.00  0.00    -0.028 C 
ATOM     14  C   UNL     1       9.455  -0.291  -6.996  1.00  0.00     0.039 C 
BRANCH  13  15
ATOM     15  C   UNL     1       8.622   2.518  -7.717  1.00  0.00     0.035 C 
BRANCH  15  16
ATOM     16  C   UNL     1       8.366   3.995  -7.399  1.00  0.00     0.079 C 
BRANCH  16  17
ATOM     17  C   UNL     1       7.770   4.723  -8.575  1.00  0.00     0.130 C 
ATOM     18  O   UNL     1       7.776   4.196  -9.678  1.00  0.00    -0.300 OA
ATOM     19  C   UNL     1       7.168   6.088  -8.422  1.00  0.00     0.087 C 
ENDBRANCH  16  17
ENDBRANCH  15  16
ENDBRANCH  13  15
ENDBRANCH  11  12
ENDBRANCH   1  11
TORSDOF 9
ENDMDL
MODEL 9
REMARK VINA RESULT:    -3.868     19.530     21.630
REMARK INTER + INTRA:          -6.926
REMARK INTER:                  -4.830
REMARK INTRA:                  -2.096
REMARK UNBOUND:                -1.024
REMARK SMILES CC(=O)CCC=C(C)CCC=C(C)CCC=C(C)C
REMARK SMILES IDX 10 1 11 2 12 3 13 4 14 5 15 6 16 7 18 8 17 9 19 10 9 11 7 12
REMARK SMILES IDX 6 13 8 14 5 15 4 16 2 17 3 18 1 19
REMARK H PARENT
REMARK Flexibility Score: inf
ROOT
ATOM      1  C   UNL     1      -4.889  -4.256   8.821  1.00  0.00     0.032 C 
ENDROOT
BRANCH   1   2
ATOM      2  C   UNL     1      -5.667  -4.481   7.547  1.00  0.00    -0.028 C 
ATOM      3  C   UNL     1      -6.958  -4.125   7.361  1.00  0.00    -0.077 C 
ATOM      4  C   UNL     1      -7.740  -3.380   8.418  1.00  0.00     0.039 C 
BRANCH   3   5
ATOM      5  C   UNL     1      -7.636  -4.490   6.059  1.00  0.00     0.034 C 
BRANCH   5   6
ATOM      6  C   UNL     1      -8.986  -5.171   6.314  1.00  0.00     0.032 C 
BRANCH   6   7
ATOM      7  C   UNL     1      -8.827  -6.669   6.378  1.00  0.00    -0.028 C 
ATOM      8  C   UNL     1      -9.221  -6.766   8.851  1.00  0.00     0.039 C 
ATOM      9  C   UNL     1      -8.950  -7.403   7.508  1.00  0.00    -0.080 C 
ATOM     10  C   UNL     1      -8.792  -8.898   7.414  1.00  0.00     0.039 C 
ENDBRANCH   6   7
ENDBRANCH   5   6
ENDBRANCH   3   5
ENDBRANCH   1   2
BRANCH   1  11
ATOM     11  C   UNL     1      -5.116  -5.383   9.837  1.00  0.00     0.034 C 
BRANCH  11  12
ATOM     12  C   UNL     1      -4.603  -6.713   9.322  1.00  0.00    -0.077 C 
ATOM     13  C   UNL     1      -3.275  -6.876   9.122  1.00  0.00    -0.028 C 
ATOM     14  C   UNL     1      -5.591  -7.832   9.096  1.00  0.00     0.039 C 
BRANCH  13  15
ATOM     15  C   UNL     1      -2.630  -8.140   8.602  1.00  0.00     0.035 C 
BRANCH  15  16
ATOM     16  C   UNL     1      -1.883  -7.888   7.288  1.00  0.00     0.079 C 
BRANCH  16  17
ATOM     17  C   UNL     1      -2.812  -7.929   6.103  1.00  0.00     0.130 C 
ATOM     18  O   UNL     1      -2.719  -7.076   5.233  1.00  0.00    -0.300 OA
ATOM     19  C   UNL     1      -3.855  -8.998   5.970  1.00  0.00     0.087 C 
ENDBRANCH  16  17
ENDBRANCH  15  16
ENDBRANCH  13  15
ENDBRANCH  11  12
ENDBRANCH   1  11
TORSDOF 9
ENDMDL
