MODEL 1
REMARK VINA RESULT:    -5.298      0.000      0.000
REMARK INTER + INTRA:          -6.354
REMARK INTER:                  -6.228
REMARK INTRA:                  -0.126
REMARK UNBOUND:                -0.126
REMARK SMILES O=C([O-])C=Cc1ccc(O)c(O)c1
REMARK SMILES IDX 6 1 13 2 7 3 11 4 8 5 9 6 5 7 4 8 2 9 1 10 3 11 12 12 10 14
REMARK H PARENT 12 13 10 15
REMARK Flexibility Score: inf
ROOT
ATOM      1  C   UNL     1      26.200 -27.165  39.935  1.00  0.00    -0.022 A 
ATOM      2  C   UNL     1      26.647 -27.811  38.770  1.00  0.00     0.058 A 
ATOM      3  C   UNL     1      25.732 -27.948  41.010  1.00  0.00     0.012 A 
ATOM      4  C   UNL     1      26.606 -29.208  38.665  1.00  0.00     0.157 A 
ATOM      5  C   UNL     1      25.692 -29.341  40.905  1.00  0.00     0.051 A 
ATOM      6  C   UNL     1      26.125 -29.975  39.733  1.00  0.00     0.157 A 
ENDROOT
BRANCH   1   7
ATOM      7  C   UNL     1      26.274 -25.684  40.000  1.00  0.00     0.010 C 
ATOM      8  C   UNL     1      27.422 -24.992  39.975  1.00  0.00     0.025 C 
BRANCH   8   9
ATOM      9  C   UNL     1      27.456 -23.523  40.053  1.00  0.00     0.064 C 
ATOM     10  O   UNL     1      28.000 -22.933  41.025  1.00  0.00    -0.545 OA
ATOM     11  O   UNL     1      26.875 -22.772  39.040  1.00  0.00    -0.545 OA
ENDBRANCH   8   9
ENDBRANCH   1   7
BRANCH   4  12
ATOM     12  O   UNL     1      27.042 -29.843  37.503  1.00  0.00    -0.504 OA
ATOM     13  H   UNL     1      27.689 -29.393  36.864  1.00  0.00     0.293 HD
ENDBRANCH   4  12
BRANCH   6  14
ATOM     14  O   UNL     1      26.085 -31.364  39.625  1.00  0.00    -0.504 OA
ATOM     15  H   UNL     1      25.705 -31.941  40.366  1.00  0.00     0.293 HD
ENDBRANCH   6  14
TORSDOF 4
ENDMDL
MODEL 2
REMARK VINA RESULT:    -5.100     10.893     12.196
REMARK INTER + INTRA:          -6.121
REMARK INTER:                  -5.991
REMARK INTRA:                  -0.130
REMARK UNBOUND:                -0.126
REMARK SMILES O=C([O-])C=Cc1ccc(O)c(O)c1
REMARK SMILES IDX 6 1 13 2 7 3 11 4 8 5 9 6 5 7 4 8 2 9 1 10 3 11 12 12 10 14
REMARK H PARENT 12 13 10 15
REMARK Flexibility Score: inf
ROOT
ATOM      1  C   UNL     1      25.771 -26.804  28.320  1.00  0.00    -0.022 A 
ATOM      2  C   UNL     1      25.279 -27.734  29.250  1.00  0.00     0.058 A 
ATOM      3  C   UNL     1      27.154 -26.779  28.049  1.00  0.00     0.012 A 
ATOM      4  C   UNL     1      26.148 -28.609  29.918  1.00  0.00     0.157 A 
ATOM      5  C   UNL     1      28.020 -27.652  28.715  1.00  0.00     0.051 A 
ATOM      6  C   UNL     1      27.522 -28.565  29.652  1.00  0.00     0.157 A 
ENDROOT
BRANCH   1   7
ATOM      7  C   UNL     1      24.808 -25.908  27.633  1.00  0.00     0.010 C 
ATOM      8  C   UNL     1      24.412 -26.071  26.362  1.00  0.00     0.025 C 
BRANCH   8   9
ATOM      9  C   UNL     1      23.463 -25.154  25.711  1.00  0.00     0.064 C 
ATOM     10  O   UNL     1      23.684 -23.914  25.660  1.00  0.00    -0.545 OA
ATOM     11  O   UNL     1      22.303 -25.662  25.143  1.00  0.00    -0.545 OA
ENDBRANCH   8   9
ENDBRANCH   1   7
BRANCH   4  12
ATOM     12  O   UNL     1      25.654 -29.524  30.846  1.00  0.00    -0.504 OA
ATOM     13  H   UNL     1      26.184 -30.346  31.114  1.00  0.00     0.293 HD
ENDBRANCH   4  12
BRANCH   6  14
ATOM     14  O   UNL     1      28.383 -29.435  30.318  1.00  0.00    -0.504 OA
ATOM     15  H   UNL     1      28.972 -29.117  31.079  1.00  0.00     0.293 HD
ENDBRANCH   6  14
TORSDOF 4
ENDMDL
MODEL 3
REMARK VINA RESULT:    -5.073      1.385      2.092
REMARK INTER + INTRA:          -6.089
REMARK INTER:                  -5.953
REMARK INTRA:                  -0.135
REMARK UNBOUND:                -0.126
REMARK SMILES O=C([O-])C=Cc1ccc(O)c(O)c1
REMARK SMILES IDX 6 1 13 2 7 3 11 4 8 5 9 6 5 7 4 8 2 9 1 10 3 11 12 12 10 14
REMARK H PARENT 12 13 10 15
REMARK Flexibility Score: inf
ROOT
ATOM      1  C   UNL     1      26.106 -27.749  39.513  1.00  0.00    -0.022 A 
ATOM      2  C   UNL     1      24.937 -28.352  40.004  1.00  0.00     0.058 A 
ATOM      3  C   UNL     1      26.847 -28.413  38.515  1.00  0.00     0.012 A 
ATOM      4  C   UNL     1      24.523 -29.605  39.529  1.00  0.00     0.157 A 
ATOM      5  C   UNL     1      26.434 -29.662  38.041  1.00  0.00     0.051 A 
ATOM      6  C   UNL     1      25.275 -30.262  38.548  1.00  0.00     0.157 A 
ENDROOT
BRANCH   1   7
ATOM      7  C   UNL     1      26.496 -26.418  40.042  1.00  0.00     0.010 C 
ATOM      8  C   UNL     1      27.220 -25.524  39.352  1.00  0.00     0.025 C 
BRANCH   8   9
ATOM      9  C   UNL     1      27.597 -24.217  39.915  1.00  0.00     0.064 C 
ATOM     10  O   UNL     1      28.453 -24.125  40.835  1.00  0.00    -0.545 OA
ATOM     11  O   UNL     1      26.997 -23.065  39.425  1.00  0.00    -0.545 OA
ENDBRANCH   8   9
ENDBRANCH   1   7
BRANCH   4  12
ATOM     12  O   UNL     1      23.366 -30.202  40.027  1.00  0.00    -0.504 OA
ATOM     13  H   UNL     1      23.379 -31.136  40.422  1.00  0.00     0.293 HD
ENDBRANCH   4  12
BRANCH   6  14
ATOM     14  O   UNL     1      24.861 -31.508  38.078  1.00  0.00    -0.504 OA
ATOM     15  H   UNL     1      25.077 -32.361  38.580  1.00  0.00     0.293 HD
ENDBRANCH   6  14
TORSDOF 4
ENDMDL
MODEL 4
REMARK VINA RESULT:    -5.011      1.371      6.064
REMARK INTER + INTRA:          -6.015
REMARK INTER:                  -5.878
REMARK INTRA:                  -0.137
REMARK UNBOUND:                -0.126
REMARK SMILES O=C([O-])C=Cc1ccc(O)c(O)c1
REMARK SMILES IDX 6 1 13 2 7 3 11 4 8 5 9 6 5 7 4 8 2 9 1 10 3 11 12 12 10 14
REMARK H PARENT 12 13 10 15
REMARK Flexibility Score: inf
ROOT
ATOM      1  C   UNL     1      26.692 -26.109  39.006  1.00  0.00    -0.022 A 
ATOM      2  C   UNL     1      27.356 -25.326  39.963  1.00  0.00     0.058 A 
ATOM      3  C   UNL     1      26.120 -25.474  37.885  1.00  0.00     0.012 A 
ATOM      4  C   UNL     1      27.430 -23.933  39.823  1.00  0.00     0.157 A 
ATOM      5  C   UNL     1      26.194 -24.085  37.745  1.00  0.00     0.051 A 
ATOM      6  C   UNL     1      26.846 -23.311  38.713  1.00  0.00     0.157 A 
ENDROOT
BRANCH   1   7
ATOM      7  C   UNL     1      26.650 -27.581  39.196  1.00  0.00     0.010 C 
ATOM      8  C   UNL     1      25.713 -28.376  38.660  1.00  0.00     0.025 C 
BRANCH   8   9
ATOM      9  C   UNL     1      25.698 -29.831  38.880  1.00  0.00     0.064 C 
ATOM     10  O   UNL     1      26.114 -30.333  39.959  1.00  0.00    -0.545 OA
ATOM     11  O   UNL     1      25.218 -30.668  37.882  1.00  0.00    -0.545 OA
ENDBRANCH   8   9
ENDBRANCH   1   7
BRANCH   4  12
ATOM     12  O   UNL     1      28.084 -23.160  40.781  1.00  0.00    -0.504 OA
ATOM     13  H   UNL     1      27.735 -23.085  41.730  1.00  0.00     0.293 HD
ENDBRANCH   4  12
BRANCH   6  14
ATOM     14  O   UNL     1      26.921 -21.926  38.576  1.00  0.00    -0.504 OA
ATOM     15  H   UNL     1      27.277 -21.496  37.731  1.00  0.00     0.293 HD
ENDBRANCH   6  14
TORSDOF 4
ENDMDL
MODEL 5
REMARK VINA RESULT:    -5.006     14.837     15.481
REMARK INTER + INTRA:          -6.010
REMARK INTER:                  -5.882
REMARK INTRA:                  -0.128
REMARK UNBOUND:                -0.126
REMARK SMILES O=C([O-])C=Cc1ccc(O)c(O)c1
REMARK SMILES IDX 6 1 13 2 7 3 11 4 8 5 9 6 5 7 4 8 2 9 1 10 3 11 12 12 10 14
REMARK H PARENT 12 13 10 15
REMARK Flexibility Score: inf
ROOT
ATOM      1  C   UNL     1      22.644 -23.087  25.431  1.00  0.00    -0.022 A 
ATOM      2  C   UNL     1      23.401 -23.220  24.256  1.00  0.00     0.058 A 
ATOM      3  C   UNL     1      22.300 -24.246  26.154  1.00  0.00     0.012 A 
ATOM      4  C   UNL     1      23.789 -24.486  23.793  1.00  0.00     0.157 A 
ATOM      5  C   UNL     1      22.687 -25.508  25.693  1.00  0.00     0.051 A 
ATOM      6  C   UNL     1      23.429 -25.632  24.512  1.00  0.00     0.157 A 
ENDROOT
BRANCH   1   7
ATOM      7  C   UNL     1      22.268 -21.724  25.883  1.00  0.00     0.010 C 
ATOM      8  C   UNL     1      23.153 -20.796  26.274  1.00  0.00     0.025 C 
BRANCH   8   9
ATOM      9  C   UNL     1      22.740 -19.458  26.728  1.00  0.00     0.064 C 
ATOM     10  O   UNL     1      21.639 -19.278  27.314  1.00  0.00    -0.545 OA
ATOM     11  O   UNL     1      23.578 -18.373  26.505  1.00  0.00    -0.545 OA
ENDBRANCH   8   9
ENDBRANCH   1   7
BRANCH   4  12
ATOM     12  O   UNL     1      24.533 -24.612  22.621  1.00  0.00    -0.504 OA
ATOM     13  H   UNL     1      24.818 -25.519  22.269  1.00  0.00     0.293 HD
ENDBRANCH   4  12
BRANCH   6  14
ATOM     14  O   UNL     1      23.816 -26.889  24.049  1.00  0.00    -0.504 OA
ATOM     15  H   UNL     1      23.198 -27.456  23.480  1.00  0.00     0.293 HD
ENDBRANCH   6  14
TORSDOF 4
ENDMDL
MODEL 6
REMARK VINA RESULT:    -4.936     10.055     11.210
REMARK INTER + INTRA:          -5.928
REMARK INTER:                  -5.798
REMARK INTRA:                  -0.130
REMARK UNBOUND:                -0.126
REMARK SMILES O=C([O-])C=Cc1ccc(O)c(O)c1
REMARK SMILES IDX 6 1 13 2 7 3 11 4 8 5 9 6 5 7 4 8 2 9 1 10 3 11 12 12 10 14
REMARK H PARENT 12 13 10 15
REMARK Flexibility Score: inf
ROOT
ATOM      1  C   UNL     1      27.340 -26.950  29.112  1.00  0.00    -0.022 A 
ATOM      2  C   UNL     1      28.118 -28.120  29.124  1.00  0.00     0.058 A 
ATOM      3  C   UNL     1      26.550 -26.647  30.239  1.00  0.00     0.012 A 
ATOM      4  C   UNL     1      28.091 -28.986  30.226  1.00  0.00     0.157 A 
ATOM      5  C   UNL     1      26.524 -27.511  31.337  1.00  0.00     0.051 A 
ATOM      6  C   UNL     1      27.291 -28.683  31.334  1.00  0.00     0.157 A 
ENDROOT
BRANCH   1   7
ATOM      7  C   UNL     1      27.411 -26.061  27.925  1.00  0.00     0.010 C 
ATOM      8  C   UNL     1      28.526 -25.865  27.206  1.00  0.00     0.025 C 
BRANCH   8   9
ATOM      9  C   UNL     1      28.560 -24.966  26.041  1.00  0.00     0.064 C 
ATOM     10  O   UNL     1      28.898 -25.385  24.902  1.00  0.00    -0.545 OA
ATOM     11  O   UNL     1      28.216 -23.630  26.200  1.00  0.00    -0.545 OA
ENDBRANCH   8   9
ENDBRANCH   1   7
BRANCH   4  12
ATOM     12  O   UNL     1      28.859 -30.150  30.228  1.00  0.00    -0.504 OA
ATOM     13  H   UNL     1      29.814 -30.156  29.887  1.00  0.00     0.293 HD
ENDBRANCH   4  12
BRANCH   6  14
ATOM     14  O   UNL     1      27.267 -29.547  32.427  1.00  0.00    -0.504 OA
ATOM     15  H   UNL     1      28.120 -29.919  32.826  1.00  0.00     0.293 HD
ENDBRANCH   6  14
TORSDOF 4
ENDMDL
MODEL 7
REMARK VINA RESULT:    -4.905      6.085      7.895
REMARK INTER + INTRA:          -5.891
REMARK INTER:                  -5.761
REMARK INTRA:                  -0.130
REMARK UNBOUND:                -0.126
REMARK SMILES O=C([O-])C=Cc1ccc(O)c(O)c1
REMARK SMILES IDX 6 1 13 2 7 3 11 4 8 5 9 6 5 7 4 8 2 9 1 10 3 11 12 12 10 14
REMARK H PARENT 12 13 10 15
REMARK Flexibility Score: inf
ROOT
ATOM      1  C   UNL     1      27.010 -28.033  33.041  1.00  0.00    -0.022 A 
ATOM      2  C   UNL     1      27.794 -29.048  32.468  1.00  0.00     0.058 A 
ATOM      3  C   UNL     1      26.496 -27.019  32.208  1.00  0.00     0.012 A 
ATOM      4  C   UNL     1      28.085 -29.041  31.096  1.00  0.00     0.157 A 
ATOM      5  C   UNL     1      26.785 -27.013  30.840  1.00  0.00     0.051 A 
ATOM      6  C   UNL     1      27.581 -28.020  30.281  1.00  0.00     0.157 A 
ENDROOT
BRANCH   1   7
ATOM      7  C   UNL     1      26.724 -28.092  34.496  1.00  0.00     0.010 C 
ATOM      8  C   UNL     1      27.521 -28.695  35.390  1.00  0.00     0.025 C 
BRANCH   8   9
ATOM      9  C   UNL     1      27.197 -28.743  36.825  1.00  0.00     0.064 C 
ATOM     10  O   UNL     1      26.848 -29.818  37.380  1.00  0.00    -0.545 OA
ATOM     11  O   UNL     1      27.276 -27.581  37.581  1.00  0.00    -0.545 OA
ENDBRANCH   8   9
ENDBRANCH   1   7
BRANCH   4  12
ATOM     12  O   UNL     1      28.871 -30.046  30.536  1.00  0.00    -0.504 OA
ATOM     13  H   UNL     1      28.644 -31.027  30.656  1.00  0.00     0.293 HD
ENDBRANCH   4  12
BRANCH   6  14
ATOM     14  O   UNL     1      27.872 -28.016  28.918  1.00  0.00    -0.504 OA
ATOM     15  H   UNL     1      27.158 -28.203  28.224  1.00  0.00     0.293 HD
ENDBRANCH   6  14
TORSDOF 4
ENDMDL
MODEL 8
REMARK VINA RESULT:    -4.876      1.564      5.920
REMARK INTER + INTRA:          -5.858
REMARK INTER:                  -5.729
REMARK INTRA:                  -0.128
REMARK UNBOUND:                -0.126
REMARK SMILES O=C([O-])C=Cc1ccc(O)c(O)c1
REMARK SMILES IDX 6 1 13 2 7 3 11 4 8 5 9 6 5 7 4 8 2 9 1 10 3 11 12 12 10 14
REMARK H PARENT 12 13 10 15
REMARK Flexibility Score: inf
ROOT
ATOM      1  C   UNL     1      26.852 -26.151  38.985  1.00  0.00    -0.022 A 
ATOM      2  C   UNL     1      26.550 -25.542  37.756  1.00  0.00     0.058 A 
ATOM      3  C   UNL     1      27.159 -25.334  40.092  1.00  0.00     0.012 A 
ATOM      4  C   UNL     1      26.576 -24.146  37.622  1.00  0.00     0.157 A 
ATOM      5  C   UNL     1      27.185 -23.943  39.958  1.00  0.00     0.051 A 
ATOM      6  C   UNL     1      26.897 -23.345  38.725  1.00  0.00     0.157 A 
ENDROOT
BRANCH   1   7
ATOM      7  C   UNL     1      26.800 -27.631  39.077  1.00  0.00     0.010 C 
ATOM      8  C   UNL     1      25.786 -28.373  38.608  1.00  0.00     0.025 C 
BRANCH   8   9
ATOM      9  C   UNL     1      25.765 -29.840  38.728  1.00  0.00     0.064 C 
ATOM     10  O   UNL     1      25.356 -30.567  37.784  1.00  0.00    -0.545 OA
ATOM     11  O   UNL     1      26.202 -30.435  39.904  1.00  0.00    -0.545 OA
ENDBRANCH   8   9
ENDBRANCH   1   7
BRANCH   4  12
ATOM     12  O   UNL     1      26.284 -23.548  36.397  1.00  0.00    -0.504 OA
ATOM     13  H   UNL     1      26.809 -22.750  36.058  1.00  0.00     0.293 HD
ENDBRANCH   4  12
BRANCH   6  14
ATOM     14  O   UNL     1      26.923 -21.959  38.588  1.00  0.00    -0.504 OA
ATOM     15  H   UNL     1      26.085 -21.432  38.370  1.00  0.00     0.293 HD
ENDBRANCH   6  14
TORSDOF 4
ENDMDL
MODEL 9
REMARK VINA RESULT:    -4.874      4.585      6.351
REMARK INTER + INTRA:          -5.855
REMARK INTER:                  -5.719
REMARK INTRA:                  -0.137
REMARK UNBOUND:                -0.126
REMARK SMILES O=C([O-])C=Cc1ccc(O)c(O)c1
REMARK SMILES IDX 6 1 13 2 7 3 11 4 8 5 9 6 5 7 4 8 2 9 1 10 3 11 12 12 10 14
REMARK H PARENT 12 13 10 15
REMARK Flexibility Score: inf
ROOT
ATOM      1  C   UNL     1      27.043 -28.864  34.937  1.00  0.00    -0.022 A 
ATOM      2  C   UNL     1      26.122 -29.111  33.906  1.00  0.00     0.058 A 
ATOM      3  C   UNL     1      28.417 -28.818  34.625  1.00  0.00     0.012 A 
ATOM      4  C   UNL     1      26.560 -29.333  32.592  1.00  0.00     0.157 A 
ATOM      5  C   UNL     1      28.853 -29.039  33.315  1.00  0.00     0.051 A 
ATOM      6  C   UNL     1      27.928 -29.299  32.297  1.00  0.00     0.157 A 
ENDROOT
BRANCH   1   7
ATOM      7  C   UNL     1      26.528 -28.626  36.308  1.00  0.00     0.010 C 
ATOM      8  C   UNL     1      27.291 -28.672  37.410  1.00  0.00     0.025 C 
BRANCH   8   9
ATOM      9  C   UNL     1      26.742 -28.442  38.756  1.00  0.00     0.064 C 
ATOM     10  O   UNL     1      26.968 -27.371  39.380  1.00  0.00    -0.545 OA
ATOM     11  O   UNL     1      25.961 -29.423  39.351  1.00  0.00    -0.545 OA
ENDBRANCH   8   9
ENDBRANCH   1   7
BRANCH   4  12
ATOM     12  O   UNL     1      25.640 -29.585  31.574  1.00  0.00    -0.504 OA
ATOM     13  H   UNL     1      24.698 -29.899  31.777  1.00  0.00     0.293 HD
ENDBRANCH   4  12
BRANCH   6  14
ATOM     14  O   UNL     1      28.359 -29.520  30.990  1.00  0.00    -0.504 OA
ATOM     15  H   UNL     1      28.885 -28.820  30.481  1.00  0.00     0.293 HD
ENDBRANCH   6  14
TORSDOF 4
ENDMDL
