MODEL 1
REMARK VINA RESULT:    -7.056      0.000      0.000
REMARK INTER + INTRA:         -12.001
REMARK INTER:                 -10.975
REMARK INTRA:                  -1.026
REMARK UNBOUND:                -1.026
REMARK SMILES COc1cc(CNC(=O)CCCCC=CC(C)C)ccc1O
REMARK SMILES IDX 11 1 12 2 13 3 14 4 15 5 16 6 17 7 18 8 10 9 8 10 9 11 7 12
REMARK SMILES IDX 6 14 5 15 4 16 19 17 3 18 20 19 21 20 2 21 1 22 22 23
REMARK H PARENT 7 13 22 24
REMARK Flexibility Score: inf
ROOT
ATOM      1  C   UNL     1     -60.652 -41.014 -34.417  1.00  0.00     0.010 C 
ENDROOT
BRANCH   1   2
ATOM      2  C   UNL     1     -62.182 -40.865 -34.457  1.00  0.00     0.005 C 
BRANCH   2   3
ATOM      3  C   UNL     1     -62.851 -42.155 -34.945  1.00  0.00     0.027 C 
BRANCH   3   4
ATOM      4  C   UNL     1     -62.809 -42.257 -36.445  1.00  0.00    -0.031 C 
ATOM      5  C   UNL     1     -63.649 -41.558 -37.224  1.00  0.00    -0.028 C 
BRANCH   5   6
ATOM      6  C   UNL     1     -63.589 -41.656 -38.729  1.00  0.00     0.005 C 
ATOM      7  C   UNL     1     -62.142 -41.846 -39.194  1.00  0.00     0.012 C 
ATOM      8  C   UNL     1     -64.200 -40.408 -39.377  1.00  0.00     0.012 C 
ENDBRANCH   5   6
ENDBRANCH   3   4
ENDBRANCH   2   3
ENDBRANCH   1   2
BRANCH   1   9
ATOM      9  C   UNL     1     -60.202 -42.159 -33.498  1.00  0.00     0.100 C 
BRANCH   9  10
ATOM     10  C   UNL     1     -60.148 -41.723 -32.063  1.00  0.00     0.220 C 
ATOM     11  O   UNL     1     -59.198 -40.992 -31.671  1.00  0.00    -0.275 OA
ATOM     12  N   UNL     1     -61.199 -42.092 -31.157  1.00  0.00    -0.352 N 
ATOM     13  H   UNL     1     -61.920 -42.778 -31.475  1.00  0.00     0.163 HD
BRANCH  12  14
ATOM     14  C   UNL     1     -61.475 -41.334 -29.941  1.00  0.00     0.151 C 
BRANCH  14  15
ATOM     15  C   UNL     1     -62.945 -41.025 -29.866  1.00  0.00    -0.025 A 
ATOM     16  C   UNL     1     -63.480 -40.430 -28.713  1.00  0.00     0.056 A 
ATOM     17  C   UNL     1     -63.806 -41.428 -30.896  1.00  0.00     0.009 A 
ATOM     18  C   UNL     1     -64.868 -40.220 -28.592  1.00  0.00     0.160 A 
ATOM     19  C   UNL     1     -65.183 -41.229 -30.780  1.00  0.00     0.050 A 
ATOM     20  C   UNL     1     -65.715 -40.627 -29.632  1.00  0.00     0.157 A 
BRANCH  18  21
ATOM     21  O   UNL     1     -65.436 -39.615 -27.459  1.00  0.00    -0.493 OA
ATOM     22  C   UNL     1     -64.774 -39.468 -26.206  1.00  0.00     0.278 C 
ENDBRANCH  18  21
BRANCH  20  23
ATOM     23  O   UNL     1     -67.091 -40.432 -29.515  1.00  0.00    -0.504 OA
ATOM     24  H   UNL     1     -67.609 -40.783 -28.717  1.00  0.00     0.293 HD
ENDBRANCH  20  23
ENDBRANCH  14  15
ENDBRANCH  12  14
ENDBRANCH   9  10
ENDBRANCH   1   9
TORSDOF 10
ENDMDL
MODEL 2
REMARK VINA RESULT:    -6.977      1.728      3.032
REMARK INTER + INTRA:         -11.878
REMARK INTER:                 -10.973
REMARK INTRA:                  -0.904
REMARK UNBOUND:                -1.026
REMARK SMILES COc1cc(CNC(=O)CCCCC=CC(C)C)ccc1O
REMARK SMILES IDX 11 1 12 2 13 3 14 4 15 5 16 6 17 7 18 8 10 9 8 10 9 11 7 12
REMARK SMILES IDX 6 14 5 15 4 16 19 17 3 18 20 19 21 20 2 21 1 22 22 23
REMARK H PARENT 7 13 22 24
REMARK Flexibility Score: inf
ROOT
ATOM      1  C   UNL     1     -59.440 -41.933 -31.817  1.00  0.00     0.010 C 
ENDROOT
BRANCH   1   2
ATOM      2  C   UNL     1     -59.110 -43.421 -32.019  1.00  0.00     0.005 C 
BRANCH   2   3
ATOM      3  C   UNL     1     -59.830 -43.985 -33.249  1.00  0.00     0.027 C 
BRANCH   3   4
ATOM      4  C   UNL     1     -60.711 -42.946 -33.889  1.00  0.00    -0.031 C 
ATOM      5  C   UNL     1     -60.524 -42.548 -35.157  1.00  0.00    -0.028 C 
BRANCH   5   6
ATOM      6  C   UNL     1     -61.422 -41.516 -35.796  1.00  0.00     0.005 C 
ATOM      7  C   UNL     1     -62.345 -40.889 -34.746  1.00  0.00     0.012 C 
ATOM      8  C   UNL     1     -62.245 -42.142 -36.927  1.00  0.00     0.012 C 
ENDBRANCH   5   6
ENDBRANCH   3   4
ENDBRANCH   2   3
ENDBRANCH   1   2
BRANCH   1   9
ATOM      9  C   UNL     1     -60.103 -41.661 -30.459  1.00  0.00     0.100 C 
BRANCH   9  10
ATOM     10  C   UNL     1     -61.451 -41.022 -30.623  1.00  0.00     0.220 C 
ATOM     11  O   UNL     1     -61.554 -39.950 -31.279  1.00  0.00    -0.275 OA
ATOM     12  N   UNL     1     -62.620 -41.656 -30.082  1.00  0.00    -0.352 N 
ATOM     13  H   UNL     1     -62.500 -42.487 -29.460  1.00  0.00     0.163 HD
BRANCH  12  14
ATOM     14  C   UNL     1     -63.958 -41.385 -30.600  1.00  0.00     0.151 C 
BRANCH  14  15
ATOM     15  C   UNL     1     -64.778 -40.707 -29.537  1.00  0.00    -0.025 A 
ATOM     16  C   UNL     1     -64.161 -39.846 -28.617  1.00  0.00     0.056 A 
ATOM     17  C   UNL     1     -66.137 -41.014 -29.389  1.00  0.00     0.009 A 
ATOM     18  C   UNL     1     -64.899 -39.277 -27.561  1.00  0.00     0.160 A 
ATOM     19  C   UNL     1     -66.873 -40.460 -28.340  1.00  0.00     0.050 A 
ATOM     20  C   UNL     1     -66.258 -39.592 -27.427  1.00  0.00     0.157 A 
BRANCH  18  21
ATOM     21  O   UNL     1     -64.317 -38.400 -26.630  1.00  0.00    -0.493 OA
ATOM     22  C   UNL     1     -63.769 -37.126 -26.956  1.00  0.00     0.278 C 
ENDBRANCH  18  21
BRANCH  20  23
ATOM     23  O   UNL     1     -66.992 -39.041 -26.377  1.00  0.00    -0.504 OA
ATOM     24  H   UNL     1     -67.391 -38.112 -26.441  1.00  0.00     0.293 HD
ENDBRANCH  20  23
ENDBRANCH  14  15
ENDBRANCH  12  14
ENDBRANCH   9  10
ENDBRANCH   1   9
TORSDOF 10
ENDMDL
MODEL 3
REMARK VINA RESULT:    -6.973      1.980      3.880
REMARK INTER + INTRA:         -11.872
REMARK INTER:                 -10.771
REMARK INTRA:                  -1.101
REMARK UNBOUND:                -1.026
REMARK SMILES COc1cc(CNC(=O)CCCCC=CC(C)C)ccc1O
REMARK SMILES IDX 11 1 12 2 13 3 14 4 15 5 16 6 17 7 18 8 10 9 8 10 9 11 7 12
REMARK SMILES IDX 6 14 5 15 4 16 19 17 3 18 20 19 21 20 2 21 1 22 22 23
REMARK H PARENT 7 13 22 24
REMARK Flexibility Score: inf
ROOT
ATOM      1  C   UNL     1     -62.776 -41.883 -35.712  1.00  0.00     0.010 C 
ENDROOT
BRANCH   1   2
ATOM      2  C   UNL     1     -61.497 -42.218 -36.497  1.00  0.00     0.005 C 
BRANCH   2   3
ATOM      3  C   UNL     1     -61.173 -43.714 -36.414  1.00  0.00     0.027 C 
BRANCH   3   4
ATOM      4  C   UNL     1     -60.925 -44.139 -34.992  1.00  0.00    -0.031 C 
ATOM      5  C   UNL     1     -59.982 -43.556 -34.235  1.00  0.00    -0.028 C 
BRANCH   5   6
ATOM      6  C   UNL     1     -59.751 -43.980 -32.804  1.00  0.00     0.005 C 
ATOM      7  C   UNL     1     -59.614 -42.751 -31.899  1.00  0.00     0.012 C 
ATOM      8  C   UNL     1     -58.505 -44.866 -32.698  1.00  0.00     0.012 C 
ENDBRANCH   5   6
ENDBRANCH   3   4
ENDBRANCH   2   3
ENDBRANCH   1   2
BRANCH   1   9
ATOM      9  C   UNL     1     -62.522 -40.870 -34.587  1.00  0.00     0.100 C 
BRANCH   9  10
ATOM     10  C   UNL     1     -62.934 -41.417 -33.251  1.00  0.00     0.220 C 
ATOM     11  O   UNL     1     -63.275 -42.628 -33.155  1.00  0.00    -0.275 OA
ATOM     12  N   UNL     1     -62.887 -40.582 -32.084  1.00  0.00    -0.352 N 
ATOM     13  H   UNL     1     -62.699 -39.562 -32.202  1.00  0.00     0.163 HD
BRANCH  12  14
ATOM     14  C   UNL     1     -62.789 -41.138 -30.738  1.00  0.00     0.151 C 
BRANCH  14  15
ATOM     15  C   UNL     1     -64.037 -40.810 -29.968  1.00  0.00    -0.025 A 
ATOM     16  C   UNL     1     -63.950 -40.401 -28.628  1.00  0.00     0.056 A 
ATOM     17  C   UNL     1     -65.299 -41.016 -30.544  1.00  0.00     0.009 A 
ATOM     18  C   UNL     1     -65.115 -40.180 -27.868  1.00  0.00     0.160 A 
ATOM     19  C   UNL     1     -66.457 -40.806 -29.794  1.00  0.00     0.050 A 
ATOM     20  C   UNL     1     -66.369 -40.388 -28.459  1.00  0.00     0.157 A 
BRANCH  18  21
ATOM     21  O   UNL     1     -65.064 -39.756 -26.529  1.00  0.00    -0.493 OA
ATOM     22  C   UNL     1     -64.900 -38.403 -26.117  1.00  0.00     0.278 C 
ENDBRANCH  18  21
BRANCH  20  23
ATOM     23  O   UNL     1     -67.526 -40.182 -27.709  1.00  0.00    -0.504 OA
ATOM     24  H   UNL     1     -67.747 -39.275 -27.315  1.00  0.00     0.293 HD
ENDBRANCH  20  23
ENDBRANCH  14  15
ENDBRANCH  12  14
ENDBRANCH   9  10
ENDBRANCH   1   9
TORSDOF 10
ENDMDL
MODEL 4
REMARK VINA RESULT:    -6.904      2.188      4.198
REMARK INTER + INTRA:         -11.764
REMARK INTER:                 -10.671
REMARK INTRA:                  -1.093
REMARK UNBOUND:                -1.026
REMARK SMILES COc1cc(CNC(=O)CCCCC=CC(C)C)ccc1O
REMARK SMILES IDX 11 1 12 2 13 3 14 4 15 5 16 6 17 7 18 8 10 9 8 10 9 11 7 12
REMARK SMILES IDX 6 14 5 15 4 16 19 17 3 18 20 19 21 20 2 21 1 22 22 23
REMARK H PARENT 7 13 22 24
REMARK Flexibility Score: inf
ROOT
ATOM      1  C   UNL     1     -62.922 -41.847 -35.279  1.00  0.00     0.010 C 
ENDROOT
BRANCH   1   2
ATOM      2  C   UNL     1     -61.523 -42.382 -35.625  1.00  0.00     0.005 C 
BRANCH   2   3
ATOM      3  C   UNL     1     -60.454 -41.301 -35.425  1.00  0.00     0.027 C 
BRANCH   3   4
ATOM      4  C   UNL     1     -60.555 -40.681 -34.057  1.00  0.00    -0.031 C 
ATOM      5  C   UNL     1     -60.022 -41.269 -32.975  1.00  0.00    -0.028 C 
BRANCH   5   6
ATOM      6  C   UNL     1     -60.115 -40.631 -31.610  1.00  0.00     0.005 C 
ATOM      7  C   UNL     1     -59.127 -39.466 -31.497  1.00  0.00     0.012 C 
ATOM      8  C   UNL     1     -59.850 -41.666 -30.511  1.00  0.00     0.012 C 
ENDBRANCH   5   6
ENDBRANCH   3   4
ENDBRANCH   2   3
ENDBRANCH   1   2
BRANCH   1   9
ATOM      9  C   UNL     1     -63.748 -42.856 -34.467  1.00  0.00     0.100 C 
BRANCH   9  10
ATOM     10  C   UNL     1     -63.599 -42.626 -32.991  1.00  0.00     0.220 C 
ATOM     11  O   UNL     1     -63.099 -43.532 -32.270  1.00  0.00    -0.275 OA
ATOM     12  N   UNL     1     -63.974 -41.366 -32.415  1.00  0.00    -0.352 N 
ATOM     13  H   UNL     1     -64.476 -40.670 -33.011  1.00  0.00     0.163 HD
BRANCH  12  14
ATOM     14  C   UNL     1     -63.424 -40.900 -31.146  1.00  0.00     0.151 C 
BRANCH  14  15
ATOM     15  C   UNL     1     -64.544 -40.649 -30.176  1.00  0.00    -0.025 A 
ATOM     16  C   UNL     1     -64.299 -39.950 -28.984  1.00  0.00     0.056 A 
ATOM     17  C   UNL     1     -65.812 -41.206 -30.400  1.00  0.00     0.009 A 
ATOM     18  C   UNL     1     -65.317 -39.789 -28.024  1.00  0.00     0.160 A 
ATOM     19  C   UNL     1     -66.823 -41.056 -29.449  1.00  0.00     0.050 A 
ATOM     20  C   UNL     1     -66.580 -40.349 -28.264  1.00  0.00     0.157 A 
BRANCH  18  21
ATOM     21  O   UNL     1     -65.110 -39.083 -26.827  1.00  0.00    -0.493 OA
ATOM     22  C   UNL     1     -63.922 -38.364 -26.510  1.00  0.00     0.278 C 
ENDBRANCH  18  21
BRANCH  20  23
ATOM     23  O   UNL     1     -67.589 -40.203 -27.313  1.00  0.00    -0.504 OA
ATOM     24  H   UNL     1     -67.544 -40.675 -26.417  1.00  0.00     0.293 HD
ENDBRANCH  20  23
ENDBRANCH  14  15
ENDBRANCH  12  14
ENDBRANCH   9  10
ENDBRANCH   1   9
TORSDOF 10
ENDMDL
MODEL 5
REMARK VINA RESULT:    -6.820      2.934      7.685
REMARK INTER + INTRA:         -11.633
REMARK INTER:                 -10.656
REMARK INTRA:                  -0.977
REMARK UNBOUND:                -1.026
REMARK SMILES COc1cc(CNC(=O)CCCCC=CC(C)C)ccc1O
REMARK SMILES IDX 11 1 12 2 13 3 14 4 15 5 16 6 17 7 18 8 10 9 8 10 9 11 7 12
REMARK SMILES IDX 6 14 5 15 4 16 19 17 3 18 20 19 21 20 2 21 1 22 22 23
REMARK H PARENT 7 13 22 24
REMARK Flexibility Score: inf
ROOT
ATOM      1  C   UNL     1     -63.399 -42.041 -30.557  1.00  0.00     0.010 C 
ENDROOT
BRANCH   1   2
ATOM      2  C   UNL     1     -64.352 -41.157 -31.378  1.00  0.00     0.005 C 
BRANCH   2   3
ATOM      3  C   UNL     1     -65.778 -41.217 -30.820  1.00  0.00     0.027 C 
BRANCH   3   4
ATOM      4  C   UNL     1     -66.064 -40.043 -29.925  1.00  0.00    -0.031 C 
ATOM      5  C   UNL     1     -66.158 -40.177 -28.593  1.00  0.00    -0.028 C 
BRANCH   5   6
ATOM      6  C   UNL     1     -66.430 -38.990 -27.701  1.00  0.00     0.005 C 
ATOM      7  C   UNL     1     -65.196 -38.084 -27.627  1.00  0.00     0.012 C 
ATOM      8  C   UNL     1     -66.840 -39.450 -26.298  1.00  0.00     0.012 C 
ENDBRANCH   5   6
ENDBRANCH   3   4
ENDBRANCH   2   3
ENDBRANCH   1   2
BRANCH   1   9
ATOM      9  C   UNL     1     -62.510 -41.221 -29.611  1.00  0.00     0.100 C 
BRANCH   9  10
ATOM     10  C   UNL     1     -61.173 -40.929 -30.228  1.00  0.00     0.220 C 
ATOM     11  O   UNL     1     -60.149 -41.531 -29.803  1.00  0.00    -0.275 OA
ATOM     12  N   UNL     1     -61.070 -40.013 -31.328  1.00  0.00    -0.352 N 
ATOM     13  H   UNL     1     -61.910 -39.453 -31.597  1.00  0.00     0.163 HD
BRANCH  12  14
ATOM     14  C   UNL     1     -59.953 -40.051 -32.266  1.00  0.00     0.151 C 
BRANCH  14  15
ATOM     15  C   UNL     1     -60.263 -41.018 -33.375  1.00  0.00    -0.025 A 
ATOM     16  C   UNL     1     -60.112 -42.398 -33.166  1.00  0.00     0.056 A 
ATOM     17  C   UNL     1     -60.595 -40.547 -34.653  1.00  0.00     0.009 A 
ATOM     18  C   UNL     1     -60.310 -43.309 -34.222  1.00  0.00     0.160 A 
ATOM     19  C   UNL     1     -60.785 -41.444 -35.705  1.00  0.00     0.050 A 
ATOM     20  C   UNL     1     -60.644 -42.822 -35.493  1.00  0.00     0.157 A 
BRANCH  18  21
ATOM     21  O   UNL     1     -60.181 -44.697 -34.045  1.00  0.00    -0.493 OA
ATOM     22  C   UNL     1     -58.939 -45.393 -34.006  1.00  0.00     0.278 C 
ENDBRANCH  18  21
BRANCH  20  23
ATOM     23  O   UNL     1     -60.830 -43.718 -36.546  1.00  0.00    -0.504 OA
ATOM     24  H   UNL     1     -61.609 -43.626 -37.187  1.00  0.00     0.293 HD
ENDBRANCH  20  23
ENDBRANCH  14  15
ENDBRANCH  12  14
ENDBRANCH   9  10
ENDBRANCH   1   9
TORSDOF 10
ENDMDL
MODEL 6
REMARK VINA RESULT:    -6.736      2.757      7.795
REMARK INTER + INTRA:         -11.503
REMARK INTER:                 -10.429
REMARK INTRA:                  -1.074
REMARK UNBOUND:                -1.026
REMARK SMILES COc1cc(CNC(=O)CCCCC=CC(C)C)ccc1O
REMARK SMILES IDX 11 1 12 2 13 3 14 4 15 5 16 6 17 7 18 8 10 9 8 10 9 11 7 12
REMARK SMILES IDX 6 14 5 15 4 16 19 17 3 18 20 19 21 20 2 21 1 22 22 23
REMARK H PARENT 7 13 22 24
REMARK Flexibility Score: inf
ROOT
ATOM      1  C   UNL     1     -63.179 -41.921 -30.435  1.00  0.00     0.010 C 
ENDROOT
BRANCH   1   2
ATOM      2  C   UNL     1     -64.113 -40.947 -31.172  1.00  0.00     0.005 C 
BRANCH   2   3
ATOM      3  C   UNL     1     -65.564 -41.116 -30.709  1.00  0.00     0.027 C 
BRANCH   3   4
ATOM      4  C   UNL     1     -65.973 -40.007 -29.779  1.00  0.00    -0.031 C 
ATOM      5  C   UNL     1     -65.836 -40.116 -28.448  1.00  0.00    -0.028 C 
BRANCH   5   6
ATOM      6  C   UNL     1     -66.235 -38.991 -27.524  1.00  0.00     0.005 C 
ATOM      7  C   UNL     1     -65.012 -38.148 -27.150  1.00  0.00     0.012 C 
ATOM      8  C   UNL     1     -66.911 -39.542 -26.263  1.00  0.00     0.012 C 
ENDBRANCH   5   6
ENDBRANCH   3   4
ENDBRANCH   2   3
ENDBRANCH   1   2
BRANCH   1   9
ATOM      9  C   UNL     1     -61.957 -41.214 -29.830  1.00  0.00     0.100 C 
BRANCH   9  10
ATOM     10  C   UNL     1     -60.819 -41.153 -30.806  1.00  0.00     0.220 C 
ATOM     11  O   UNL     1     -59.866 -41.972 -30.700  1.00  0.00    -0.275 OA
ATOM     12  N   UNL     1     -60.842 -40.203 -31.882  1.00  0.00    -0.352 N 
ATOM     13  H   UNL     1     -61.588 -39.471 -31.892  1.00  0.00     0.163 HD
BRANCH  12  14
ATOM     14  C   UNL     1     -60.068 -40.398 -33.105  1.00  0.00     0.151 C 
BRANCH  14  15
ATOM     15  C   UNL     1     -60.878 -41.197 -34.087  1.00  0.00    -0.025 A 
ATOM     16  C   UNL     1     -60.304 -42.299 -34.740  1.00  0.00     0.056 A 
ATOM     17  C   UNL     1     -62.170 -40.783 -34.442  1.00  0.00     0.009 A 
ATOM     18  C   UNL     1     -61.020 -42.999 -35.730  1.00  0.00     0.160 A 
ATOM     19  C   UNL     1     -62.882 -41.468 -35.428  1.00  0.00     0.050 A 
ATOM     20  C   UNL     1     -62.312 -42.574 -36.072  1.00  0.00     0.157 A 
BRANCH  18  21
ATOM     21  O   UNL     1     -60.482 -44.115 -36.393  1.00  0.00    -0.493 OA
ATOM     22  C   UNL     1     -59.389 -44.891 -35.909  1.00  0.00     0.278 C 
ENDBRANCH  18  21
BRANCH  20  23
ATOM     23  O   UNL     1     -63.022 -43.256 -37.059  1.00  0.00    -0.504 OA
ATOM     24  H   UNL     1     -64.003 -43.070 -37.228  1.00  0.00     0.293 HD
ENDBRANCH  20  23
ENDBRANCH  14  15
ENDBRANCH  12  14
ENDBRANCH   9  10
ENDBRANCH   1   9
TORSDOF 10
ENDMDL
MODEL 7
REMARK VINA RESULT:    -6.700      1.547      2.095
REMARK INTER + INTRA:         -11.447
REMARK INTER:                 -10.886
REMARK INTRA:                  -0.561
REMARK UNBOUND:                -1.026
REMARK SMILES COc1cc(CNC(=O)CCCCC=CC(C)C)ccc1O
REMARK SMILES IDX 11 1 12 2 13 3 14 4 15 5 16 6 17 7 18 8 10 9 8 10 9 11 7 12
REMARK SMILES IDX 6 14 5 15 4 16 19 17 3 18 20 19 21 20 2 21 1 22 22 23
REMARK H PARENT 7 13 22 24
REMARK Flexibility Score: inf
ROOT
ATOM      1  C   UNL     1     -61.877 -41.626 -35.422  1.00  0.00     0.010 C 
ENDROOT
BRANCH   1   2
ATOM      2  C   UNL     1     -63.359 -41.815 -35.786  1.00  0.00     0.005 C 
BRANCH   2   3
ATOM      3  C   UNL     1     -63.571 -41.725 -37.302  1.00  0.00     0.027 C 
BRANCH   3   4
ATOM      4  C   UNL     1     -62.605 -42.611 -38.041  1.00  0.00    -0.031 C 
ATOM      5  C   UNL     1     -62.928 -43.183 -39.211  1.00  0.00    -0.028 C 
BRANCH   5   6
ATOM      6  C   UNL     1     -61.947 -44.059 -39.953  1.00  0.00     0.005 C 
ATOM      7  C   UNL     1     -60.974 -43.199 -40.767  1.00  0.00     0.012 C 
ATOM      8  C   UNL     1     -62.684 -45.043 -40.868  1.00  0.00     0.012 C 
ENDBRANCH   5   6
ENDBRANCH   3   4
ENDBRANCH   2   3
ENDBRANCH   1   2
BRANCH   1   9
ATOM      9  C   UNL     1     -61.669 -40.524 -34.373  1.00  0.00     0.100 C 
BRANCH   9  10
ATOM     10  C   UNL     1     -61.650 -41.087 -32.981  1.00  0.00     0.220 C 
ATOM     11  O   UNL     1     -60.676 -41.798 -32.612  1.00  0.00    -0.275 OA
ATOM     12  N   UNL     1     -62.708 -40.773 -32.062  1.00  0.00    -0.352 N 
ATOM     13  H   UNL     1     -63.550 -40.267 -32.417  1.00  0.00     0.163 HD
BRANCH  12  14
ATOM     14  C   UNL     1     -62.526 -40.855 -30.616  1.00  0.00     0.151 C 
BRANCH  14  15
ATOM     15  C   UNL     1     -63.844 -40.616 -29.932  1.00  0.00    -0.025 A 
ATOM     16  C   UNL     1     -63.874 -40.202 -28.591  1.00  0.00     0.056 A 
ATOM     17  C   UNL     1     -65.046 -40.912 -30.589  1.00  0.00     0.009 A 
ATOM     18  C   UNL     1     -65.100 -40.064 -27.911  1.00  0.00     0.160 A 
ATOM     19  C   UNL     1     -66.264 -40.784 -29.918  1.00  0.00     0.050 A 
ATOM     20  C   UNL     1     -66.294 -40.361 -28.583  1.00  0.00     0.157 A 
BRANCH  18  21
ATOM     21  O   UNL     1     -65.168 -39.638 -26.574  1.00  0.00    -0.493 OA
ATOM     22  C   UNL     1     -65.133 -38.276 -26.159  1.00  0.00     0.278 C 
ENDBRANCH  18  21
BRANCH  20  23
ATOM     23  O   UNL     1     -67.510 -40.238 -27.912  1.00  0.00    -0.504 OA
ATOM     24  H   UNL     1     -68.275 -40.880 -28.081  1.00  0.00     0.293 HD
ENDBRANCH  20  23
ENDBRANCH  14  15
ENDBRANCH  12  14
ENDBRANCH   9  10
ENDBRANCH   1   9
TORSDOF 10
ENDMDL
MODEL 8
REMARK VINA RESULT:    -6.694      2.298      7.934
REMARK INTER + INTRA:         -11.437
REMARK INTER:                 -10.598
REMARK INTRA:                  -0.838
REMARK UNBOUND:                -1.026
REMARK SMILES COc1cc(CNC(=O)CCCCC=CC(C)C)ccc1O
REMARK SMILES IDX 11 1 12 2 13 3 14 4 15 5 16 6 17 7 18 8 10 9 8 10 9 11 7 12
REMARK SMILES IDX 6 14 5 15 4 16 19 17 3 18 20 19 21 20 2 21 1 22 22 23
REMARK H PARENT 7 13 22 24
REMARK Flexibility Score: inf
ROOT
ATOM      1  C   UNL     1     -64.085 -41.213 -31.286  1.00  0.00     0.010 C 
ENDROOT
BRANCH   1   2
ATOM      2  C   UNL     1     -65.554 -41.405 -30.875  1.00  0.00     0.005 C 
BRANCH   2   3
ATOM      3  C   UNL     1     -66.167 -40.088 -30.387  1.00  0.00     0.027 C 
BRANCH   3   4
ATOM      4  C   UNL     1     -66.062 -39.958 -28.892  1.00  0.00    -0.031 C 
ATOM      5  C   UNL     1     -65.949 -38.762 -28.294  1.00  0.00    -0.028 C 
BRANCH   5   6
ATOM      6  C   UNL     1     -65.860 -38.641 -26.792  1.00  0.00     0.005 C 
ATOM      7  C   UNL     1     -64.483 -39.102 -26.301  1.00  0.00     0.012 C 
ATOM      8  C   UNL     1     -66.969 -39.454 -26.117  1.00  0.00     0.012 C 
ENDBRANCH   5   6
ENDBRANCH   3   4
ENDBRANCH   2   3
ENDBRANCH   1   2
BRANCH   1   9
ATOM      9  C   UNL     1     -63.150 -41.092 -30.074  1.00  0.00     0.100 C 
BRANCH   9  10
ATOM     10  C   UNL     1     -61.726 -40.872 -30.497  1.00  0.00     0.220 C 
ATOM     11  O   UNL     1     -60.797 -41.457 -29.877  1.00  0.00    -0.275 OA
ATOM     12  N   UNL     1     -61.431 -40.044 -31.632  1.00  0.00    -0.352 N 
ATOM     13  H   UNL     1     -62.204 -39.493 -32.068  1.00  0.00     0.163 HD
BRANCH  12  14
ATOM     14  C   UNL     1     -60.185 -40.174 -32.382  1.00  0.00     0.151 C 
BRANCH  14  15
ATOM     15  C   UNL     1     -60.328 -41.266 -33.405  1.00  0.00    -0.025 A 
ATOM     16  C   UNL     1     -61.048 -41.031 -34.587  1.00  0.00     0.056 A 
ATOM     17  C   UNL     1     -59.842 -42.553 -33.140  1.00  0.00     0.009 A 
ATOM     18  C   UNL     1     -61.269 -42.071 -35.512  1.00  0.00     0.160 A 
ATOM     19  C   UNL     1     -60.064 -43.590 -34.048  1.00  0.00     0.050 A 
ATOM     20  C   UNL     1     -60.774 -43.353 -35.232  1.00  0.00     0.157 A 
BRANCH  18  21
ATOM     21  O   UNL     1     -61.972 -41.868 -36.710  1.00  0.00    -0.493 OA
ATOM     22  C   UNL     1     -63.365 -41.580 -36.789  1.00  0.00     0.278 C 
ENDBRANCH  18  21
BRANCH  20  23
ATOM     23  O   UNL     1     -60.999 -44.389 -36.137  1.00  0.00    -0.504 OA
ATOM     24  H   UNL     1     -60.950 -45.360 -35.852  1.00  0.00     0.293 HD
ENDBRANCH  20  23
ENDBRANCH  14  15
ENDBRANCH  12  14
ENDBRANCH   9  10
ENDBRANCH   1   9
TORSDOF 10
ENDMDL
MODEL 9
REMARK VINA RESULT:    -6.562      2.721      3.530
REMARK INTER + INTRA:         -11.231
REMARK INTER:                 -10.396
REMARK INTRA:                  -0.835
REMARK UNBOUND:                -1.026
REMARK SMILES COc1cc(CNC(=O)CCCCC=CC(C)C)ccc1O
REMARK SMILES IDX 11 1 12 2 13 3 14 4 15 5 16 6 17 7 18 8 10 9 8 10 9 11 7 12
REMARK SMILES IDX 6 14 5 15 4 16 19 17 3 18 20 19 21 20 2 21 1 22 22 23
REMARK H PARENT 7 13 22 24
REMARK Flexibility Score: inf
ROOT
ATOM      1  C   UNL     1     -60.237 -41.032 -32.123  1.00  0.00     0.010 C 
ENDROOT
BRANCH   1   2
ATOM      2  C   UNL     1     -59.860 -40.385 -33.466  1.00  0.00     0.005 C 
BRANCH   2   3
ATOM      3  C   UNL     1     -60.786 -40.866 -34.589  1.00  0.00     0.027 C 
BRANCH   3   4
ATOM      4  C   UNL     1     -60.881 -42.367 -34.613  1.00  0.00    -0.031 C 
ATOM      5  C   UNL     1     -60.031 -43.116 -35.333  1.00  0.00    -0.028 C 
BRANCH   5   6
ATOM      6  C   UNL     1     -60.124 -44.623 -35.339  1.00  0.00     0.005 C 
ATOM      7  C   UNL     1     -58.876 -45.232 -35.986  1.00  0.00     0.012 C 
ATOM      8  C   UNL     1     -61.387 -45.083 -36.075  1.00  0.00     0.012 C 
ENDBRANCH   5   6
ENDBRANCH   3   4
ENDBRANCH   2   3
ENDBRANCH   1   2
BRANCH   1   9
ATOM      9  C   UNL     1     -61.401 -40.307 -31.431  1.00  0.00     0.100 C 
BRANCH   9  10
ATOM     10  C   UNL     1     -62.650 -41.139 -31.442  1.00  0.00     0.220 C 
ATOM     11  O   UNL     1     -62.559 -42.394 -31.536  1.00  0.00    -0.275 OA
ATOM     12  N   UNL     1     -63.934 -40.515 -31.292  1.00  0.00    -0.352 N 
ATOM     13  H   UNL     1     -63.992 -39.472 -31.315  1.00  0.00     0.163 HD
BRANCH  12  14
ATOM     14  C   UNL     1     -65.100 -41.248 -30.809  1.00  0.00     0.151 C 
BRANCH  14  15
ATOM     15  C   UNL     1     -65.590 -40.624 -29.531  1.00  0.00    -0.025 A 
ATOM     16  C   UNL     1     -64.714 -39.865 -28.740  1.00  0.00     0.056 A 
ATOM     17  C   UNL     1     -66.886 -40.887 -29.067  1.00  0.00     0.009 A 
ATOM     18  C   UNL     1     -65.132 -39.352 -27.496  1.00  0.00     0.160 A 
ATOM     19  C   UNL     1     -67.304 -40.388 -27.831  1.00  0.00     0.050 A 
ATOM     20  C   UNL     1     -66.432 -39.622 -27.046  1.00  0.00     0.157 A 
BRANCH  18  21
ATOM     21  O   UNL     1     -64.287 -38.577 -26.685  1.00  0.00    -0.493 OA
ATOM     22  C   UNL     1     -63.898 -37.238 -26.974  1.00  0.00     0.278 C 
ENDBRANCH  18  21
BRANCH  20  23
ATOM     23  O   UNL     1     -66.849 -39.127 -25.811  1.00  0.00    -0.504 OA
ATOM     24  H   UNL     1     -66.506 -38.245 -25.451  1.00  0.00     0.293 HD
ENDBRANCH  20  23
ENDBRANCH  14  15
ENDBRANCH  12  14
ENDBRANCH   9  10
ENDBRANCH   1   9
TORSDOF 10
ENDMDL
