MODEL 1
REMARK VINA RESULT:    -3.268      0.000      0.000
REMARK INTER + INTRA:          -5.110
REMARK INTER:                  -4.701
REMARK INTRA:                  -0.409
REMARK UNBOUND:                -0.409
REMARK SMILES CCCCCCCCCO
REMARK SMILES IDX 6 1 5 2 4 3 3 4 2 5 1 6 7 7 8 8 9 9 10 10
REMARK H PARENT 10 11
REMARK Flexibility Score: inf
ROOT
ATOM      1  C   UNL     1     168.114 166.947 170.114  1.00  0.00     0.000 C 
ENDROOT
BRANCH   1   2
ATOM      2  C   UNL     1     167.538 165.714 170.824  1.00  0.00     0.000 C 
BRANCH   2   3
ATOM      3  C   UNL     1     166.681 164.878 169.864  1.00  0.00    -0.000 C 
BRANCH   3   4
ATOM      4  C   UNL     1     166.372 165.615 168.551  1.00  0.00    -0.000 C 
BRANCH   4   5
ATOM      5  C   UNL     1     164.876 165.914 168.378  1.00  0.00    -0.003 C 
ATOM      6  C   UNL     1     164.060 165.311 169.520  1.00  0.00     0.004 C 
ENDBRANCH   4   5
ENDBRANCH   3   4
ENDBRANCH   2   3
ENDBRANCH   1   2
BRANCH   1   7
ATOM      7  C   UNL     1     169.629 166.815 169.922  1.00  0.00     0.002 C 
BRANCH   7   8
ATOM      8  C   UNL     1     170.078 167.488 168.618  1.00  0.00     0.028 C 
BRANCH   8   9
ATOM      9  C   UNL     1     170.638 168.893 168.868  1.00  0.00     0.156 C 
BRANCH   9  10
ATOM     10  O   UNL     1     170.444 169.716 167.747  1.00  0.00    -0.396 OA
ATOM     11  H   UNL     1     171.345 169.936 167.397  1.00  0.00     0.210 HD
ENDBRANCH   9  10
ENDBRANCH   8   9
ENDBRANCH   7   8
ENDBRANCH   1   7
TORSDOF 8
ENDMDL
MODEL 2
REMARK VINA RESULT:    -3.228      8.126      8.904
REMARK INTER + INTRA:          -5.052
REMARK INTER:                  -4.678
REMARK INTRA:                  -0.374
REMARK UNBOUND:                -0.409
REMARK SMILES CCCCCCCCCO
REMARK SMILES IDX 6 1 5 2 4 3 3 4 2 5 1 6 7 7 8 8 9 9 10 10
REMARK H PARENT 10 11
REMARK Flexibility Score: inf
ROOT
ATOM      1  C   UNL     1     169.146 159.296 168.997  1.00  0.00     0.000 C 
ENDROOT
BRANCH   1   2
ATOM      2  C   UNL     1     168.321 158.007 168.892  1.00  0.00     0.000 C 
BRANCH   2   3
ATOM      3  C   UNL     1     169.152 156.870 168.282  1.00  0.00    -0.000 C 
BRANCH   3   4
ATOM      4  C   UNL     1     168.784 156.587 166.817  1.00  0.00    -0.000 C 
BRANCH   4   5
ATOM      5  C   UNL     1     167.429 157.192 166.421  1.00  0.00    -0.003 C 
ATOM      6  C   UNL     1     166.768 156.378 165.311  1.00  0.00     0.004 C 
ENDBRANCH   4   5
ENDBRANCH   3   4
ENDBRANCH   2   3
ENDBRANCH   1   2
BRANCH   1   7
ATOM      7  C   UNL     1     170.042 159.277 170.241  1.00  0.00     0.002 C 
BRANCH   7   8
ATOM      8  C   UNL     1     171.425 159.866 169.931  1.00  0.00     0.028 C 
BRANCH   8   9
ATOM      9  C   UNL     1     172.091 159.158 168.745  1.00  0.00     0.156 C 
BRANCH   9  10
ATOM     10  O   UNL     1     172.745 160.080 167.915  1.00  0.00    -0.396 OA
ATOM     11  H   UNL     1     173.691 160.110 168.212  1.00  0.00     0.210 HD
ENDBRANCH   9  10
ENDBRANCH   8   9
ENDBRANCH   7   8
ENDBRANCH   1   7
TORSDOF 8
ENDMDL
MODEL 3
REMARK VINA RESULT:    -3.224      8.302      9.870
REMARK INTER + INTRA:          -5.047
REMARK INTER:                  -4.435
REMARK INTRA:                  -0.612
REMARK UNBOUND:                -0.409
REMARK SMILES CCCCCCCCCO
REMARK SMILES IDX 6 1 5 2 4 3 3 4 2 5 1 6 7 7 8 8 9 9 10 10
REMARK H PARENT 10 11
REMARK Flexibility Score: inf
ROOT
ATOM      1  C   UNL     1     161.583 171.831 170.541  1.00  0.00     0.000 C 
ENDROOT
BRANCH   1   2
ATOM      2  C   UNL     1     162.711 171.163 169.743  1.00  0.00     0.000 C 
BRANCH   2   3
ATOM      3  C   UNL     1     163.018 171.951 168.462  1.00  0.00    -0.000 C 
BRANCH   3   4
ATOM      4  C   UNL     1     163.149 173.461 168.713  1.00  0.00    -0.000 C 
BRANCH   4   5
ATOM      5  C   UNL     1     162.201 174.291 167.834  1.00  0.00    -0.003 C 
ATOM      6  C   UNL     1     161.316 175.198 168.685  1.00  0.00     0.004 C 
ENDBRANCH   4   5
ENDBRANCH   3   4
ENDBRANCH   2   3
ENDBRANCH   1   2
BRANCH   1   7
ATOM      7  C   UNL     1     160.328 170.951 170.564  1.00  0.00     0.002 C 
BRANCH   7   8
ATOM      8  C   UNL     1     159.089 171.751 170.139  1.00  0.00     0.028 C 
BRANCH   8   9
ATOM      9  C   UNL     1     159.130 172.115 168.651  1.00  0.00     0.156 C 
BRANCH   9  10
ATOM     10  O   UNL     1     158.521 171.117 167.874  1.00  0.00    -0.396 OA
ATOM     11  H   UNL     1     159.152 170.905 167.138  1.00  0.00     0.210 HD
ENDBRANCH   9  10
ENDBRANCH   8   9
ENDBRANCH   7   8
ENDBRANCH   1   7
TORSDOF 8
ENDMDL
MODEL 4
REMARK VINA RESULT:    -3.180      7.460      8.289
REMARK INTER + INTRA:          -4.983
REMARK INTER:                  -4.425
REMARK INTRA:                  -0.559
REMARK UNBOUND:                -0.409
REMARK SMILES CCCCCCCCCO
REMARK SMILES IDX 6 1 5 2 4 3 3 4 2 5 1 6 7 7 8 8 9 9 10 10
REMARK H PARENT 10 11
REMARK Flexibility Score: inf
ROOT
ATOM      1  C   UNL     1     170.149 159.165 171.325  1.00  0.00     0.000 C 
ENDROOT
BRANCH   1   2
ATOM      2  C   UNL     1     168.731 159.016 170.759  1.00  0.00     0.000 C 
BRANCH   2   3
ATOM      3  C   UNL     1     168.529 159.924 169.537  1.00  0.00    -0.000 C 
BRANCH   3   4
ATOM      4  C   UNL     1     168.101 159.144 168.284  1.00  0.00    -0.000 C 
BRANCH   4   5
ATOM      5  C   UNL     1     167.976 157.635 168.541  1.00  0.00    -0.003 C 
ATOM      6  C   UNL     1     169.038 156.857 167.769  1.00  0.00     0.004 C 
ENDBRANCH   4   5
ENDBRANCH   3   4
ENDBRANCH   2   3
ENDBRANCH   1   2
BRANCH   1   7
ATOM      7  C   UNL     1     171.041 159.973 170.375  1.00  0.00     0.002 C 
BRANCH   7   8
ATOM      8  C   UNL     1     172.327 159.204 170.042  1.00  0.00     0.028 C 
BRANCH   8   9
ATOM      9  C   UNL     1     172.456 158.938 168.538  1.00  0.00     0.156 C 
BRANCH   9  10
ATOM     10  O   UNL     1     172.683 160.132 167.837  1.00  0.00    -0.396 OA
ATOM     11  H   UNL     1     172.103 160.821 168.252  1.00  0.00     0.210 HD
ENDBRANCH   9  10
ENDBRANCH   8   9
ENDBRANCH   7   8
ENDBRANCH   1   7
TORSDOF 8
ENDMDL
MODEL 5
REMARK VINA RESULT:    -3.132      4.822      7.484
REMARK INTER + INTRA:          -4.915
REMARK INTER:                  -4.610
REMARK INTRA:                  -0.305
REMARK UNBOUND:                -0.409
REMARK SMILES CCCCCCCCCO
REMARK SMILES IDX 6 1 5 2 4 3 3 4 2 5 1 6 7 7 8 8 9 9 10 10
REMARK H PARENT 10 11
REMARK Flexibility Score: inf
ROOT
ATOM      1  C   UNL     1     162.430 163.737 170.493  1.00  0.00     0.000 C 
ENDROOT
BRANCH   1   2
ATOM      2  C   UNL     1     163.827 164.359 170.621  1.00  0.00     0.000 C 
BRANCH   2   3
ATOM      3  C   UNL     1     164.139 165.260 169.417  1.00  0.00    -0.000 C 
BRANCH   3   4
ATOM      4  C   UNL     1     165.359 166.164 169.656  1.00  0.00    -0.000 C 
BRANCH   4   5
ATOM      5  C   UNL     1     166.687 165.458 169.345  1.00  0.00    -0.003 C 
ATOM      6  C   UNL     1     166.758 165.044 167.877  1.00  0.00     0.004 C 
ENDBRANCH   4   5
ENDBRANCH   3   4
ENDBRANCH   2   3
ENDBRANCH   1   2
BRANCH   1   7
ATOM      7  C   UNL     1     161.561 164.531 169.510  1.00  0.00     0.002 C 
BRANCH   7   8
ATOM      8  C   UNL     1     161.038 163.627 168.386  1.00  0.00     0.028 C 
BRANCH   8   9
ATOM      9  C   UNL     1     160.664 162.233 168.905  1.00  0.00     0.156 C 
BRANCH   9  10
ATOM     10  O   UNL     1     160.649 161.298 167.859  1.00  0.00    -0.396 OA
ATOM     11  H   UNL     1     159.709 161.235 167.547  1.00  0.00     0.210 HD
ENDBRANCH   9  10
ENDBRANCH   8   9
ENDBRANCH   7   8
ENDBRANCH   1   7
TORSDOF 8
ENDMDL
MODEL 6
REMARK VINA RESULT:    -3.104      7.649      8.578
REMARK INTER + INTRA:          -4.874
REMARK INTER:                  -4.091
REMARK INTRA:                  -0.783
REMARK UNBOUND:                -0.409
REMARK SMILES CCCCCCCCCO
REMARK SMILES IDX 6 1 5 2 4 3 3 4 2 5 1 6 7 7 8 8 9 9 10 10
REMARK H PARENT 10 11
REMARK Flexibility Score: inf
ROOT
ATOM      1  C   UNL     1     170.588 156.985 169.502  1.00  0.00     0.000 C 
ENDROOT
BRANCH   1   2
ATOM      2  C   UNL     1     169.061 156.976 169.354  1.00  0.00     0.000 C 
BRANCH   2   3
ATOM      3  C   UNL     1     168.628 157.721 168.083  1.00  0.00    -0.000 C 
BRANCH   3   4
ATOM      4  C   UNL     1     168.035 159.107 168.383  1.00  0.00    -0.000 C 
BRANCH   4   5
ATOM      5  C   UNL     1     167.546 159.240 169.832  1.00  0.00    -0.003 C 
ATOM      6  C   UNL     1     168.132 160.483 170.497  1.00  0.00     0.004 C 
ENDBRANCH   4   5
ENDBRANCH   3   4
ENDBRANCH   2   3
ENDBRANCH   1   2
BRANCH   1   7
ATOM      7  C   UNL     1     171.034 158.014 170.548  1.00  0.00     0.002 C 
BRANCH   7   8
ATOM      8  C   UNL     1     171.608 159.268 169.876  1.00  0.00     0.028 C 
BRANCH   8   9
ATOM      9  C   UNL     1     172.351 158.927 168.579  1.00  0.00     0.156 C 
BRANCH   9  10
ATOM     10  O   UNL     1     172.673 160.091 167.866  1.00  0.00    -0.396 OA
ATOM     11  H   UNL     1     171.856 160.653 167.853  1.00  0.00     0.210 HD
ENDBRANCH   9  10
ENDBRANCH   8   9
ENDBRANCH   7   8
ENDBRANCH   1   7
TORSDOF 8
ENDMDL
MODEL 7
REMARK VINA RESULT:    -3.096      8.957     10.506
REMARK INTER + INTRA:          -4.863
REMARK INTER:                  -4.158
REMARK INTRA:                  -0.704
REMARK UNBOUND:                -0.409
REMARK SMILES CCCCCCCCCO
REMARK SMILES IDX 6 1 5 2 4 3 3 4 2 5 1 6 7 7 8 8 9 9 10 10
REMARK H PARENT 10 11
REMARK Flexibility Score: inf
ROOT
ATOM      1  C   UNL     1     161.106 174.980 168.883  1.00  0.00     0.000 C 
ENDROOT
BRANCH   1   2
ATOM      2  C   UNL     1     161.493 174.765 167.414  1.00  0.00     0.000 C 
BRANCH   2   3
ATOM      3  C   UNL     1     162.837 174.032 167.301  1.00  0.00    -0.000 C 
BRANCH   3   4
ATOM      4  C   UNL     1     163.248 173.346 168.613  1.00  0.00    -0.000 C 
BRANCH   4   5
ATOM      5  C   UNL     1     163.019 171.828 168.583  1.00  0.00    -0.003 C 
ATOM      6  C   UNL     1     162.360 171.346 169.874  1.00  0.00     0.004 C 
ENDBRANCH   4   5
ENDBRANCH   3   4
ENDBRANCH   2   3
ENDBRANCH   1   2
BRANCH   1   7
ATOM      7  C   UNL     1     159.658 174.543 169.141  1.00  0.00     0.002 C 
BRANCH   7   8
ATOM      8  C   UNL     1     159.212 173.488 168.120  1.00  0.00     0.028 C 
BRANCH   8   9
ATOM      9  C   UNL     1     158.908 172.143 168.789  1.00  0.00     0.156 C 
BRANCH   9  10
ATOM     10  O   UNL     1     158.545 171.180 167.836  1.00  0.00    -0.396 OA
ATOM     11  H   UNL     1     157.577 171.003 167.964  1.00  0.00     0.210 HD
ENDBRANCH   9  10
ENDBRANCH   8   9
ENDBRANCH   7   8
ENDBRANCH   1   7
TORSDOF 8
ENDMDL
MODEL 8
REMARK VINA RESULT:    -3.070      2.174      2.931
REMARK INTER + INTRA:          -4.826
REMARK INTER:                  -4.494
REMARK INTRA:                  -0.332
REMARK UNBOUND:                -0.409
REMARK SMILES CCCCCCCCCO
REMARK SMILES IDX 6 1 5 2 4 3 3 4 2 5 1 6 7 7 8 8 9 9 10 10
REMARK H PARENT 10 11
REMARK Flexibility Score: inf
ROOT
ATOM      1  C   UNL     1     167.796 166.369 169.667  1.00  0.00     0.000 C 
ENDROOT
BRANCH   1   2
ATOM      2  C   UNL     1     166.894 165.631 168.670  1.00  0.00     0.000 C 
BRANCH   2   3
ATOM      3  C   UNL     1     167.669 165.261 167.397  1.00  0.00    -0.000 C 
BRANCH   3   4
ATOM      4  C   UNL     1     166.743 164.881 166.230  1.00  0.00    -0.000 C 
BRANCH   4   5
ATOM      5  C   UNL     1     167.466 164.890 164.875  1.00  0.00    -0.003 C 
ATOM      6  C   UNL     1     168.877 165.458 165.009  1.00  0.00     0.004 C 
ENDBRANCH   4   5
ENDBRANCH   3   4
ENDBRANCH   2   3
ENDBRANCH   1   2
BRANCH   1   7
ATOM      7  C   UNL     1     169.100 166.823 168.999  1.00  0.00     0.002 C 
BRANCH   7   8
ATOM      8  C   UNL     1     169.589 168.150 169.594  1.00  0.00     0.028 C 
BRANCH   8   9
ATOM      9  C   UNL     1     170.934 168.580 168.996  1.00  0.00     0.156 C 
BRANCH   9  10
ATOM     10  O   UNL     1     170.794 169.756 168.245  1.00  0.00    -0.396 OA
ATOM     11  H   UNL     1     171.693 170.174 168.201  1.00  0.00     0.210 HD
ENDBRANCH   9  10
ENDBRANCH   8   9
ENDBRANCH   7   8
ENDBRANCH   1   7
TORSDOF 8
ENDMDL
MODEL 9
REMARK VINA RESULT:    -3.022      4.168      7.052
REMARK INTER + INTRA:          -4.756
REMARK INTER:                  -4.489
REMARK INTRA:                  -0.267
REMARK UNBOUND:                -0.409
REMARK SMILES CCCCCCCCCO
REMARK SMILES IDX 6 1 5 2 4 3 3 4 2 5 1 6 7 7 8 8 9 9 10 10
REMARK H PARENT 10 11
REMARK Flexibility Score: inf
ROOT
ATOM      1  C   UNL     1     163.691 165.104 169.753  1.00  0.00     0.000 C 
ENDROOT
BRANCH   1   2
ATOM      2  C   UNL     1     164.489 166.059 168.855  1.00  0.00     0.000 C 
BRANCH   2   3
ATOM      3  C   UNL     1     165.841 165.445 168.465  1.00  0.00    -0.000 C 
BRANCH   3   4
ATOM      4  C   UNL     1     166.720 165.125 169.685  1.00  0.00    -0.000 C 
BRANCH   4   5
ATOM      5  C   UNL     1     167.319 166.385 170.328  1.00  0.00    -0.003 C 
ATOM      6  C   UNL     1     168.588 166.822 169.601  1.00  0.00     0.004 C 
ENDBRANCH   4   5
ENDBRANCH   3   4
ENDBRANCH   2   3
ENDBRANCH   1   2
BRANCH   1   7
ATOM      7  C   UNL     1     162.479 164.531 169.008  1.00  0.00     0.002 C 
BRANCH   7   8
ATOM      8  C   UNL     1     161.774 163.460 169.850  1.00  0.00     0.028 C 
BRANCH   8   9
ATOM      9  C   UNL     1     160.354 163.182 169.343  1.00  0.00     0.156 C 
BRANCH   9  10
ATOM     10  O   UNL     1     160.063 163.967 168.217  1.00  0.00    -0.396 OA
ATOM     11  H   UNL     1     159.966 164.901 168.537  1.00  0.00     0.210 HD
ENDBRANCH   9  10
ENDBRANCH   8   9
ENDBRANCH   7   8
ENDBRANCH   1   7
TORSDOF 8
ENDMDL
