MODEL 1
REMARK VINA RESULT:    -3.766      0.000      0.000
REMARK INTER + INTRA:          -5.697
REMARK INTER:                  -5.086
REMARK INTRA:                  -0.611
REMARK UNBOUND:                -0.611
REMARK SMILES CCCCCCCC(=O)[O-]
REMARK SMILES IDX 5 1 6 2 7 3 8 4 9 5 10 6 4 7 3 8 2 9 1 10
REMARK H PARENT
REMARK Flexibility Score: inf
ROOT
ATOM      1  C   UNL     1      -3.662  56.787  46.444  1.00  0.00     0.000 C 
ENDROOT
BRANCH   1   2
ATOM      2  C   UNL     1      -3.394  57.733  45.264  1.00  0.00     0.006 C 
BRANCH   2   3
ATOM      3  C   UNL     1      -1.909  58.102  45.184  1.00  0.00     0.053 C 
BRANCH   3   4
ATOM      4  C   UNL     1      -1.731  59.583  45.307  1.00  0.00     0.041 C 
ATOM      5  O   UNL     1      -0.580  60.072  45.459  1.00  0.00    -0.550 OA
ATOM      6  O   UNL     1      -2.840  60.419  45.307  1.00  0.00    -0.550 OA
ENDBRANCH   3   4
ENDBRANCH   2   3
ENDBRANCH   1   2
BRANCH   1   7
ATOM      7  C   UNL     1      -2.461  56.664  47.400  1.00  0.00     0.000 C 
BRANCH   7   8
ATOM      8  C   UNL     1      -2.671  57.290  48.791  1.00  0.00    -0.000 C 
BRANCH   8   9
ATOM      9  C   UNL     1      -2.234  58.761  48.858  1.00  0.00    -0.003 C 
ATOM     10  C   UNL     1      -3.438  59.695  48.788  1.00  0.00     0.004 C 
ENDBRANCH   8   9
ENDBRANCH   7   8
ENDBRANCH   1   7
TORSDOF 6
ENDMDL
MODEL 2
REMARK VINA RESULT:    -3.733      1.518      2.795
REMARK INTER + INTRA:          -5.654
REMARK INTER:                  -5.071
REMARK INTRA:                  -0.583
REMARK UNBOUND:                -0.611
REMARK SMILES CCCCCCCC(=O)[O-]
REMARK SMILES IDX 5 1 6 2 7 3 8 4 9 5 10 6 4 7 3 8 2 9 1 10
REMARK H PARENT
REMARK Flexibility Score: inf
ROOT
ATOM      1  C   UNL     1      -3.760  59.265  48.066  1.00  0.00     0.000 C 
ENDROOT
BRANCH   1   2
ATOM      2  C   UNL     1      -3.685  60.449  47.090  1.00  0.00     0.006 C 
BRANCH   2   3
ATOM      3  C   UNL     1      -4.054  60.013  45.669  1.00  0.00     0.053 C 
BRANCH   3   4
ATOM      4  C   UNL     1      -3.051  59.035  45.144  1.00  0.00     0.041 C 
ATOM      5  O   UNL     1      -3.428  57.925  44.684  1.00  0.00    -0.550 OA
ATOM      6  O   UNL     1      -1.695  59.328  45.210  1.00  0.00    -0.550 OA
ENDBRANCH   3   4
ENDBRANCH   2   3
ENDBRANCH   1   2
BRANCH   1   7
ATOM      7  C   UNL     1      -2.448  59.039  48.839  1.00  0.00     0.000 C 
BRANCH   7   8
ATOM      8  C   UNL     1      -2.126  57.567  49.157  1.00  0.00    -0.000 C 
BRANCH   8   9
ATOM      9  C   UNL     1      -2.572  56.604  48.047  1.00  0.00    -0.003 C 
ATOM     10  C   UNL     1      -1.422  56.297  47.093  1.00  0.00     0.004 C 
ENDBRANCH   8   9
ENDBRANCH   7   8
ENDBRANCH   1   7
TORSDOF 6
ENDMDL
MODEL 3
REMARK VINA RESULT:    -3.730      2.495      3.587
REMARK INTER + INTRA:          -5.649
REMARK INTER:                  -5.126
REMARK INTRA:                  -0.523
REMARK UNBOUND:                -0.611
REMARK SMILES CCCCCCCC(=O)[O-]
REMARK SMILES IDX 5 1 6 2 7 3 8 4 9 5 10 6 4 7 3 8 2 9 1 10
REMARK H PARENT
REMARK Flexibility Score: inf
ROOT
ATOM      1  C   UNL     1      -3.303  57.716  45.143  1.00  0.00     0.000 C 
ENDROOT
BRANCH   1   2
ATOM      2  C   UNL     1      -3.697  56.992  46.439  1.00  0.00     0.006 C 
BRANCH   2   3
ATOM      3  C   UNL     1      -2.458  56.633  47.266  1.00  0.00     0.053 C 
BRANCH   3   4
ATOM      4  C   UNL     1      -2.576  57.183  48.652  1.00  0.00     0.041 C 
ATOM      5  O   UNL     1      -2.585  56.407  49.644  1.00  0.00    -0.550 OA
ATOM      6  O   UNL     1      -2.727  58.551  48.847  1.00  0.00    -0.550 OA
ENDBRANCH   3   4
ENDBRANCH   2   3
ENDBRANCH   1   2
BRANCH   1   7
ATOM      7  C   UNL     1      -1.952  58.445  45.249  1.00  0.00     0.000 C 
BRANCH   7   8
ATOM      8  C   UNL     1      -2.046  59.943  45.597  1.00  0.00    -0.000 C 
BRANCH   8   9
ATOM      9  C   UNL     1      -3.472  60.498  45.466  1.00  0.00    -0.003 C 
ATOM     10  C   UNL     1      -3.894  61.231  46.736  1.00  0.00     0.004 C 
ENDBRANCH   8   9
ENDBRANCH   7   8
ENDBRANCH   1   7
TORSDOF 6
ENDMDL
MODEL 4
REMARK VINA RESULT:    -3.720      2.185      4.067
REMARK INTER + INTRA:          -5.636
REMARK INTER:                  -5.043
REMARK INTRA:                  -0.593
REMARK UNBOUND:                -0.611
REMARK SMILES CCCCCCCC(=O)[O-]
REMARK SMILES IDX 5 1 6 2 7 3 8 4 9 5 10 6 4 7 3 8 2 9 1 10
REMARK H PARENT
REMARK Flexibility Score: inf
ROOT
ATOM      1  C   UNL     1      -3.522  59.509  48.686  1.00  0.00     0.000 C 
ENDROOT
BRANCH   1   2
ATOM      2  C   UNL     1      -2.266  58.647  48.883  1.00  0.00     0.006 C 
BRANCH   2   3
ATOM      3  C   UNL     1      -2.622  57.157  48.901  1.00  0.00     0.053 C 
BRANCH   3   4
ATOM      4  C   UNL     1      -2.512  56.575  47.527  1.00  0.00     0.041 C 
ATOM      5  O   UNL     1      -3.550  56.309  46.866  1.00  0.00    -0.550 OA
ATOM      6  O   UNL     1      -1.262  56.280  46.996  1.00  0.00    -0.550 OA
ENDBRANCH   3   4
ENDBRANCH   2   3
ENDBRANCH   1   2
BRANCH   1   7
ATOM      7  C   UNL     1      -3.432  60.430  47.456  1.00  0.00     0.000 C 
BRANCH   7   8
ATOM      8  C   UNL     1      -4.125  59.892  46.190  1.00  0.00    -0.000 C 
BRANCH   8   9
ATOM      9  C   UNL     1      -3.140  59.279  45.183  1.00  0.00    -0.003 C 
ATOM     10  C   UNL     1      -1.771  59.943  45.282  1.00  0.00     0.004 C 
ENDBRANCH   8   9
ENDBRANCH   7   8
ENDBRANCH   1   7
TORSDOF 6
ENDMDL
MODEL 5
REMARK VINA RESULT:    -3.719      2.461      4.175
REMARK INTER + INTRA:          -5.634
REMARK INTER:                  -5.157
REMARK INTRA:                  -0.476
REMARK UNBOUND:                -0.611
REMARK SMILES CCCCCCCC(=O)[O-]
REMARK SMILES IDX 5 1 6 2 7 3 8 4 9 5 10 6 4 7 3 8 2 9 1 10
REMARK H PARENT
REMARK Flexibility Score: inf
ROOT
ATOM      1  C   UNL     1      -3.379  57.643  45.062  1.00  0.00     0.000 C 
ENDROOT
BRANCH   1   2
ATOM      2  C   UNL     1      -4.028  57.173  46.373  1.00  0.00     0.006 C 
BRANCH   2   3
ATOM      3  C   UNL     1      -3.011  56.446  47.258  1.00  0.00     0.053 C 
BRANCH   3   4
ATOM      4  C   UNL     1      -2.799  57.196  48.536  1.00  0.00     0.041 C 
ATOM      5  O   UNL     1      -2.647  58.446  48.520  1.00  0.00    -0.550 OA
ATOM      6  O   UNL     1      -2.717  56.508  49.740  1.00  0.00    -0.550 OA
ENDBRANCH   3   4
ENDBRANCH   2   3
ENDBRANCH   1   2
BRANCH   1   7
ATOM      7  C   UNL     1      -2.866  59.092  45.132  1.00  0.00     0.000 C 
BRANCH   7   8
ATOM      8  C   UNL     1      -1.333  59.241  45.108  1.00  0.00    -0.000 C 
BRANCH   8   9
ATOM      9  C   UNL     1      -0.606  57.906  44.892  1.00  0.00    -0.003 C 
ATOM     10  C   UNL     1       0.130  57.892  43.556  1.00  0.00     0.004 C 
ENDBRANCH   8   9
ENDBRANCH   7   8
ENDBRANCH   1   7
TORSDOF 6
ENDMDL
MODEL 6
REMARK VINA RESULT:    -3.699      1.850      2.773
REMARK INTER + INTRA:          -5.607
REMARK INTER:                  -5.061
REMARK INTRA:                  -0.546
REMARK UNBOUND:                -0.611
REMARK SMILES CCCCCCCC(=O)[O-]
REMARK SMILES IDX 5 1 6 2 7 3 8 4 9 5 10 6 4 7 3 8 2 9 1 10
REMARK H PARENT
REMARK Flexibility Score: inf
ROOT
ATOM      1  C   UNL     1      -3.019  57.965  44.930  1.00  0.00     0.000 C 
ENDROOT
BRANCH   1   2
ATOM      2  C   UNL     1      -3.357  59.445  45.162  1.00  0.00     0.006 C 
BRANCH   2   3
ATOM      3  C   UNL     1      -2.513  60.028  46.300  1.00  0.00     0.053 C 
BRANCH   3   4
ATOM      4  C   UNL     1      -3.393  60.642  47.343  1.00  0.00     0.041 C 
ATOM      5  O   UNL     1      -3.801  61.826  47.211  1.00  0.00    -0.550 OA
ATOM      6  O   UNL     1      -3.720  59.924  48.487  1.00  0.00    -0.550 OA
ENDBRANCH   3   4
ENDBRANCH   2   3
ENDBRANCH   1   2
BRANCH   1   7
ATOM      7  C   UNL     1      -4.079  57.009  45.506  1.00  0.00     0.000 C 
BRANCH   7   8
ATOM      8  C   UNL     1      -3.920  56.690  47.005  1.00  0.00    -0.000 C 
BRANCH   8   9
ATOM      9  C   UNL     1      -2.461  56.439  47.412  1.00  0.00    -0.003 C 
ATOM     10  C   UNL     1      -2.233  56.789  48.879  1.00  0.00     0.004 C 
ENDBRANCH   8   9
ENDBRANCH   7   8
ENDBRANCH   1   7
TORSDOF 6
ENDMDL
MODEL 7
REMARK VINA RESULT:    -3.522      2.483      3.822
REMARK INTER + INTRA:          -5.369
REMARK INTER:                  -4.820
REMARK INTRA:                  -0.548
REMARK UNBOUND:                -0.611
REMARK SMILES CCCCCCCC(=O)[O-]
REMARK SMILES IDX 5 1 6 2 7 3 8 4 9 5 10 6 4 7 3 8 2 9 1 10
REMARK H PARENT
REMARK Flexibility Score: inf
ROOT
ATOM      1  C   UNL     1      -4.036  58.839  45.985  1.00  0.00     0.000 C 
ENDROOT
BRANCH   1   2
ATOM      2  C   UNL     1      -3.745  57.403  45.526  1.00  0.00     0.006 C 
BRANCH   2   3
ATOM      3  C   UNL     1      -3.785  56.430  46.709  1.00  0.00     0.053 C 
BRANCH   3   4
ATOM      4  C   UNL     1      -2.582  56.614  47.578  1.00  0.00     0.041 C 
ATOM      5  O   UNL     1      -1.437  56.306  47.151  1.00  0.00    -0.550 OA
ATOM      6  O   UNL     1      -2.729  57.077  48.880  1.00  0.00    -0.550 OA
ENDBRANCH   3   4
ENDBRANCH   2   3
ENDBRANCH   1   2
BRANCH   1   7
ATOM      7  C   UNL     1      -3.055  59.869  45.397  1.00  0.00     0.000 C 
BRANCH   7   8
ATOM      8  C   UNL     1      -1.701  59.967  46.124  1.00  0.00    -0.000 C 
BRANCH   8   9
ATOM      9  C   UNL     1      -0.502  59.886  45.169  1.00  0.00    -0.003 C 
ATOM     10  C   UNL     1      -0.306  58.464  44.653  1.00  0.00     0.004 C 
ENDBRANCH   8   9
ENDBRANCH   7   8
ENDBRANCH   1   7
TORSDOF 6
ENDMDL
MODEL 8
REMARK VINA RESULT:    -3.518     13.554     14.249
REMARK INTER + INTRA:          -5.363
REMARK INTER:                  -5.069
REMARK INTRA:                  -0.294
REMARK UNBOUND:                -0.611
REMARK SMILES CCCCCCCC(=O)[O-]
REMARK SMILES IDX 5 1 6 2 7 3 8 4 9 5 10 6 4 7 3 8 2 9 1 10
REMARK H PARENT
REMARK Flexibility Score: inf
ROOT
ATOM      1  C   UNL     1       6.106  58.921  57.025  1.00  0.00     0.000 C 
ENDROOT
BRANCH   1   2
ATOM      2  C   UNL     1       5.733  59.976  58.078  1.00  0.00     0.006 C 
BRANCH   2   3
ATOM      3  C   UNL     1       5.163  61.234  57.415  1.00  0.00     0.053 C 
BRANCH   3   4
ATOM      4  C   UNL     1       4.846  62.271  58.445  1.00  0.00     0.041 C 
ATOM      5  O   UNL     1       5.413  62.242  59.569  1.00  0.00    -0.550 OA
ATOM      6  O   UNL     1       3.886  63.241  58.183  1.00  0.00    -0.550 OA
ENDBRANCH   3   4
ENDBRANCH   2   3
ENDBRANCH   1   2
BRANCH   1   7
ATOM      7  C   UNL     1       7.604  58.931  56.669  1.00  0.00     0.000 C 
BRANCH   7   8
ATOM      8  C   UNL     1       7.927  59.363  55.227  1.00  0.00    -0.000 C 
BRANCH   8   9
ATOM      9  C   UNL     1       8.044  60.886  55.071  1.00  0.00    -0.003 C 
ATOM     10  C   UNL     1       8.740  61.252  53.764  1.00  0.00     0.004 C 
ENDBRANCH   8   9
ENDBRANCH   7   8
ENDBRANCH   1   7
TORSDOF 6
ENDMDL
MODEL 9
REMARK VINA RESULT:    -3.484      1.445      2.320
REMARK INTER + INTRA:          -5.317
REMARK INTER:                  -4.973
REMARK INTRA:                  -0.344
REMARK UNBOUND:                -0.611
REMARK SMILES CCCCCCCC(=O)[O-]
REMARK SMILES IDX 5 1 6 2 7 3 8 4 9 5 10 6 4 7 3 8 2 9 1 10
REMARK H PARENT
REMARK Flexibility Score: inf
ROOT
ATOM      1  C   UNL     1      -3.182  57.730  45.102  1.00  0.00     0.000 C 
ENDROOT
BRANCH   1   2
ATOM      2  C   UNL     1      -1.859  58.489  45.282  1.00  0.00     0.006 C 
BRANCH   2   3
ATOM      3  C   UNL     1      -0.770  57.919  44.368  1.00  0.00     0.053 C 
BRANCH   3   4
ATOM      4  C   UNL     1       0.415  58.832  44.332  1.00  0.00     0.041 C 
ATOM      5  O   UNL     1       0.425  59.885  45.021  1.00  0.00    -0.550 OA
ATOM      6  O   UNL     1       1.487  58.545  43.497  1.00  0.00    -0.550 OA
ENDBRANCH   3   4
ENDBRANCH   2   3
ENDBRANCH   1   2
BRANCH   1   7
ATOM      7  C   UNL     1      -3.647  57.019  46.385  1.00  0.00     0.000 C 
BRANCH   7   8
ATOM      8  C   UNL     1      -2.524  56.358  47.206  1.00  0.00    -0.000 C 
BRANCH   8   9
ATOM      9  C   UNL     1      -2.563  56.742  48.692  1.00  0.00    -0.003 C 
ATOM     10  C   UNL     1      -2.515  58.256  48.869  1.00  0.00     0.004 C 
ENDBRANCH   8   9
ENDBRANCH   7   8
ENDBRANCH   1   7
TORSDOF 6
ENDMDL
