MODEL 1
REMARK VINA RESULT:    -4.365      0.000      0.000
REMARK INTER + INTRA:         -11.359
REMARK INTER:                  -9.469
REMARK INTRA:                  -1.890
REMARK UNBOUND:                -1.890
REMARK SMILES CCCCCCCCCCCCCCCCCCCCCC(=O)[O-]
REMARK SMILES IDX 12 1 11 2 10 3 9 4 8 5 7 6 6 7 5 8 4 9 3 10 2 11 1 12 13 13
REMARK SMILES IDX 14 14 15 15 16 16 17 17 18 18 19 19 20 20 21 21 22 22 23 23
REMARK SMILES IDX 24 24
REMARK H PARENT
REMARK Flexibility Score: inf
ROOT
ATOM      1  C   UNL     1      -0.672   6.407 -55.719  1.00  0.00     0.000 C 
ENDROOT
BRANCH   1   2
ATOM      2  C   UNL     1       0.117   6.581 -54.414  1.00  0.00     0.000 C 
BRANCH   2   3
ATOM      3  C   UNL     1      -0.060   5.366 -53.497  1.00  0.00     0.000 C 
BRANCH   3   4
ATOM      4  C   UNL     1      -1.107   5.645 -52.407  1.00  0.00    -0.000 C 
BRANCH   4   5
ATOM      5  C   UNL     1      -0.575   5.324 -51.003  1.00  0.00    -0.000 C 
BRANCH   5   6
ATOM      6  C   UNL     1      -1.704   5.200 -49.953  1.00  0.00    -0.000 C 
BRANCH   6   7
ATOM      7  C   UNL     1      -1.288   5.705 -48.561  1.00  0.00    -0.000 C 
BRANCH   7   8
ATOM      8  C   UNL     1      -2.428   5.670 -47.525  1.00  0.00    -0.000 C 
BRANCH   8   9
ATOM      9  C   UNL     1      -3.403   6.848 -47.676  1.00  0.00    -0.000 C 
BRANCH   9  10
ATOM     10  C   UNL     1      -3.212   7.864 -46.540  1.00  0.00    -0.000 C 
BRANCH  10  11
ATOM     11  C   UNL     1      -4.397   8.835 -46.414  1.00  0.00    -0.003 C 
ATOM     12  C   UNL     1      -5.401   8.694 -47.557  1.00  0.00     0.004 C 
ENDBRANCH  10  11
ENDBRANCH   9  10
ENDBRANCH   8   9
ENDBRANCH   7   8
ENDBRANCH   6   7
ENDBRANCH   5   6
ENDBRANCH   4   5
ENDBRANCH   3   4
ENDBRANCH   2   3
ENDBRANCH   1   2
BRANCH   1  13
ATOM     13  C   UNL     1      -0.482   4.996 -56.288  1.00  0.00     0.000 C 
BRANCH  13  14
ATOM     14  C   UNL     1      -0.603   4.997 -57.820  1.00  0.00     0.000 C 
BRANCH  14  15
ATOM     15  C   UNL     1      -0.869   6.401 -58.388  1.00  0.00     0.000 C 
BRANCH  15  16
ATOM     16  C   UNL     1      -1.997   6.409 -59.433  1.00  0.00     0.000 C 
BRANCH  16  17
ATOM     17  C   UNL     1      -2.860   5.134 -59.396  1.00  0.00     0.000 C 
BRANCH  17  18
ATOM     18  C   UNL     1      -4.289   5.328 -58.859  1.00  0.00     0.000 C 
BRANCH  18  19
ATOM     19  C   UNL     1      -4.372   5.237 -57.328  1.00  0.00     0.000 C 
BRANCH  19  20
ATOM     20  C   UNL     1      -4.539   6.631 -56.706  1.00  0.00     0.006 C 
BRANCH  20  21
ATOM     21  C   UNL     1      -5.086   7.657 -57.711  1.00  0.00     0.053 C 
BRANCH  21  22
ATOM     22  C   UNL     1      -4.198   8.858 -57.822  1.00  0.00     0.041 C 
ATOM     23  O   UNL     1      -4.424   9.734 -58.700  1.00  0.00    -0.550 OA
ATOM     24  O   UNL     1      -3.134   9.023 -56.944  1.00  0.00    -0.550 OA
ENDBRANCH  21  22
ENDBRANCH  20  21
ENDBRANCH  19  20
ENDBRANCH  18  19
ENDBRANCH  17  18
ENDBRANCH  16  17
ENDBRANCH  15  16
ENDBRANCH  14  15
ENDBRANCH  13  14
ENDBRANCH   1  13
TORSDOF 20
ENDMDL
MODEL 2
REMARK VINA RESULT:    -4.251      3.124      8.969
REMARK INTER + INTRA:         -11.112
REMARK INTER:                  -8.984
REMARK INTRA:                  -2.128
REMARK UNBOUND:                -1.890
REMARK SMILES CCCCCCCCCCCCCCCCCCCCCC(=O)[O-]
REMARK SMILES IDX 12 1 11 2 10 3 9 4 8 5 7 6 6 7 5 8 4 9 3 10 2 11 1 12 13 13
REMARK SMILES IDX 14 14 15 15 16 16 17 17 18 18 19 19 20 20 21 21 22 22 23 23
REMARK SMILES IDX 24 24
REMARK H PARENT
REMARK Flexibility Score: inf
ROOT
ATOM      1  C   UNL     1      -1.630   6.894 -55.141  1.00  0.00     0.000 C 
ENDROOT
BRANCH   1   2
ATOM      2  C   UNL     1      -1.052   5.792 -56.038  1.00  0.00     0.000 C 
BRANCH   2   3
ATOM      3  C   UNL     1      -0.982   6.250 -57.498  1.00  0.00     0.000 C 
BRANCH   3   4
ATOM      4  C   UNL     1      -1.678   5.242 -58.426  1.00  0.00    -0.000 C 
BRANCH   4   5
ATOM      5  C   UNL     1      -2.680   5.926 -59.369  1.00  0.00    -0.000 C 
BRANCH   5   6
ATOM      6  C   UNL     1      -4.112   5.361 -59.224  1.00  0.00    -0.000 C 
BRANCH   6   7
ATOM      7  C   UNL     1      -4.649   5.446 -57.785  1.00  0.00    -0.000 C 
BRANCH   7   8
ATOM      8  C   UNL     1      -5.922   6.303 -57.650  1.00  0.00    -0.000 C 
BRANCH   8   9
ATOM      9  C   UNL     1      -5.641   7.807 -57.785  1.00  0.00    -0.000 C 
BRANCH   9  10
ATOM     10  C   UNL     1      -4.523   8.244 -56.827  1.00  0.00    -0.000 C 
BRANCH  10  11
ATOM     11  C   UNL     1      -3.441   9.082 -57.527  1.00  0.00    -0.003 C 
ATOM     12  C   UNL     1      -3.834   9.485 -58.948  1.00  0.00     0.004 C 
ENDBRANCH  10  11
ENDBRANCH   9  10
ENDBRANCH   8   9
ENDBRANCH   7   8
ENDBRANCH   6   7
ENDBRANCH   5   6
ENDBRANCH   4   5
ENDBRANCH   3   4
ENDBRANCH   2   3
ENDBRANCH   1   2
BRANCH   1  13
ATOM     13  C   UNL     1      -0.701   7.177 -53.954  1.00  0.00     0.000 C 
BRANCH  13  14
ATOM     14  C   UNL     1      -0.165   5.870 -53.349  1.00  0.00     0.000 C 
BRANCH  14  15
ATOM     15  C   UNL     1      -1.129   5.261 -52.317  1.00  0.00     0.000 C 
BRANCH  15  16
ATOM     16  C   UNL     1      -0.624   5.417 -50.873  1.00  0.00     0.000 C 
BRANCH  16  17
ATOM     17  C   UNL     1      -1.758   5.373 -49.832  1.00  0.00     0.000 C 
BRANCH  17  18
ATOM     18  C   UNL     1      -1.337   5.720 -48.393  1.00  0.00     0.000 C 
BRANCH  18  19
ATOM     19  C   UNL     1      -2.503   5.664 -47.395  1.00  0.00     0.000 C 
BRANCH  19  20
ATOM     20  C   UNL     1      -3.680   6.521 -47.882  1.00  0.00     0.006 C 
BRANCH  20  21
ATOM     21  C   UNL     1      -3.822   7.826 -47.084  1.00  0.00     0.053 C 
BRANCH  21  22
ATOM     22  C   UNL     1      -5.244   8.292 -47.021  1.00  0.00     0.041 C 
ATOM     23  O   UNL     1      -5.849   8.622 -48.076  1.00  0.00    -0.550 OA
ATOM     24  O   UNL     1      -5.909   8.340 -45.802  1.00  0.00    -0.550 OA
ENDBRANCH  21  22
ENDBRANCH  20  21
ENDBRANCH  19  20
ENDBRANCH  18  19
ENDBRANCH  17  18
ENDBRANCH  16  17
ENDBRANCH  15  16
ENDBRANCH  14  15
ENDBRANCH  13  14
ENDBRANCH   1  13
TORSDOF 20
ENDMDL
MODEL 3
REMARK VINA RESULT:    -4.198      3.023      9.291
REMARK INTER + INTRA:         -10.998
REMARK INTER:                  -9.384
REMARK INTRA:                  -1.613
REMARK UNBOUND:                -1.890
REMARK SMILES CCCCCCCCCCCCCCCCCCCCCC(=O)[O-]
REMARK SMILES IDX 12 1 11 2 10 3 9 4 8 5 7 6 6 7 5 8 4 9 3 10 2 11 1 12 13 13
REMARK SMILES IDX 14 14 15 15 16 16 17 17 18 18 19 19 20 20 21 21 22 22 23 23
REMARK SMILES IDX 24 24
REMARK H PARENT
REMARK Flexibility Score: inf
ROOT
ATOM      1  C   UNL     1      -1.223   6.711 -54.575  1.00  0.00     0.000 C 
ENDROOT
BRANCH   1   2
ATOM      2  C   UNL     1      -0.269   6.362 -55.725  1.00  0.00     0.000 C 
BRANCH   2   3
ATOM      3  C   UNL     1      -0.546   4.953 -56.262  1.00  0.00     0.000 C 
BRANCH   3   4
ATOM      4  C   UNL     1      -0.787   4.979 -57.779  1.00  0.00    -0.000 C 
BRANCH   4   5
ATOM      5  C   UNL     1      -0.568   6.378 -58.373  1.00  0.00    -0.000 C 
BRANCH   5   6
ATOM      6  C   UNL     1      -1.778   6.869 -59.200  1.00  0.00    -0.000 C 
BRANCH   6   7
ATOM      7  C   UNL     1      -2.569   5.718 -59.847  1.00  0.00    -0.000 C 
BRANCH   7   8
ATOM      8  C   UNL     1      -4.096   5.923 -59.816  1.00  0.00    -0.000 C 
BRANCH   8   9
ATOM      9  C   UNL     1      -4.493   7.389 -59.583  1.00  0.00    -0.000 C 
BRANCH   9  10
ATOM     10  C   UNL     1      -5.370   7.526 -58.330  1.00  0.00    -0.000 C 
BRANCH  10  11
ATOM     11  C   UNL     1      -4.994   8.749 -57.478  1.00  0.00    -0.003 C 
ATOM     12  C   UNL     1      -3.790   8.491 -56.573  1.00  0.00     0.004 C 
ENDBRANCH  10  11
ENDBRANCH   9  10
ENDBRANCH   8   9
ENDBRANCH   7   8
ENDBRANCH   6   7
ENDBRANCH   5   6
ENDBRANCH   4   5
ENDBRANCH   3   4
ENDBRANCH   2   3
ENDBRANCH   1   2
BRANCH   1  13
ATOM     13  C   UNL     1      -0.499   6.645 -53.225  1.00  0.00     0.000 C 
BRANCH  13  14
ATOM     14  C   UNL     1      -1.168   5.628 -52.288  1.00  0.00     0.000 C 
BRANCH  14  15
ATOM     15  C   UNL     1      -0.245   5.189 -51.139  1.00  0.00     0.000 C 
BRANCH  15  16
ATOM     16  C   UNL     1      -0.929   5.283 -49.765  1.00  0.00     0.000 C 
BRANCH  16  17
ATOM     17  C   UNL     1      -0.057   5.987 -48.707  1.00  0.00     0.000 C 
BRANCH  17  18
ATOM     18  C   UNL     1      -0.729   6.189 -47.337  1.00  0.00     0.000 C 
BRANCH  18  19
ATOM     19  C   UNL     1      -2.220   5.819 -47.340  1.00  0.00     0.000 C 
BRANCH  19  20
ATOM     20  C   UNL     1      -3.089   7.050 -47.046  1.00  0.00     0.006 C 
BRANCH  20  21
ATOM     21  C   UNL     1      -4.459   6.976 -47.737  1.00  0.00     0.053 C 
BRANCH  21  22
ATOM     22  C   UNL     1      -5.304   8.174 -47.434  1.00  0.00     0.041 C 
ATOM     23  O   UNL     1      -5.312   8.667 -46.274  1.00  0.00    -0.550 OA
ATOM     24  O   UNL     1      -6.067   8.762 -48.436  1.00  0.00    -0.550 OA
ENDBRANCH  21  22
ENDBRANCH  20  21
ENDBRANCH  19  20
ENDBRANCH  18  19
ENDBRANCH  17  18
ENDBRANCH  16  17
ENDBRANCH  15  16
ENDBRANCH  14  15
ENDBRANCH  13  14
ENDBRANCH   1  13
TORSDOF 20
ENDMDL
MODEL 4
REMARK VINA RESULT:    -4.167     13.313     16.738
REMARK INTER + INTRA:         -10.929
REMARK INTER:                  -8.445
REMARK INTRA:                  -2.485
REMARK UNBOUND:                -1.890
REMARK SMILES CCCCCCCCCCCCCCCCCCCCCC(=O)[O-]
REMARK SMILES IDX 12 1 11 2 10 3 9 4 8 5 7 6 6 7 5 8 4 9 3 10 2 11 1 12 13 13
REMARK SMILES IDX 14 14 15 15 16 16 17 17 18 18 19 19 20 20 21 21 22 22 23 23
REMARK SMILES IDX 24 24
REMARK H PARENT
REMARK Flexibility Score: inf
ROOT
ATOM      1  C   UNL     1      -5.094  20.136 -59.162  1.00  0.00     0.000 C 
ENDROOT
BRANCH   1   2
ATOM      2  C   UNL     1      -4.581  19.035 -60.098  1.00  0.00     0.000 C 
BRANCH   2   3
ATOM      3  C   UNL     1      -5.487  17.800 -60.046  1.00  0.00     0.000 C 
BRANCH   3   4
ATOM      4  C   UNL     1      -5.538  17.095 -61.410  1.00  0.00    -0.000 C 
BRANCH   4   5
ATOM      5  C   UNL     1      -5.887  18.068 -62.547  1.00  0.00    -0.000 C 
BRANCH   5   6
ATOM      6  C   UNL     1      -6.230  17.340 -63.868  1.00  0.00    -0.000 C 
BRANCH   6   7
ATOM      7  C   UNL     1      -7.183  18.145 -64.767  1.00  0.00    -0.000 C 
BRANCH   7   8
ATOM      8  C   UNL     1      -8.626  18.215 -64.231  1.00  0.00    -0.000 C 
BRANCH   8   9
ATOM      9  C   UNL     1      -9.218  16.828 -63.939  1.00  0.00    -0.000 C 
BRANCH   9  10
ATOM     10  C   UNL     1      -9.219  16.541 -62.430  1.00  0.00    -0.000 C 
BRANCH  10  11
ATOM     11  C   UNL     1      -8.794  15.100 -62.104  1.00  0.00    -0.003 C 
ATOM     12  C   UNL     1      -8.049  14.990 -60.774  1.00  0.00     0.004 C 
ENDBRANCH  10  11
ENDBRANCH   9  10
ENDBRANCH   8   9
ENDBRANCH   7   8
ENDBRANCH   6   7
ENDBRANCH   5   6
ENDBRANCH   4   5
ENDBRANCH   3   4
ENDBRANCH   2   3
ENDBRANCH   1   2
BRANCH   1  13
ATOM     13  C   UNL     1      -5.366  21.430 -59.938  1.00  0.00     0.000 C 
BRANCH  13  14
ATOM     14  C   UNL     1      -6.313  21.176 -61.122  1.00  0.00     0.000 C 
BRANCH  14  15
ATOM     15  C   UNL     1      -5.987  22.062 -62.336  1.00  0.00     0.000 C 
BRANCH  15  16
ATOM     16  C   UNL     1      -6.408  21.416 -63.667  1.00  0.00     0.000 C 
BRANCH  16  17
ATOM     17  C   UNL     1      -5.677  22.015 -64.883  1.00  0.00     0.000 C 
BRANCH  17  18
ATOM     18  C   UNL     1      -4.240  21.507 -65.096  1.00  0.00     0.000 C 
BRANCH  18  19
ATOM     19  C   UNL     1      -3.958  20.183 -64.371  1.00  0.00     0.000 C 
BRANCH  19  20
ATOM     20  C   UNL     1      -2.819  19.416 -65.058  1.00  0.00     0.006 C 
BRANCH  20  21
ATOM     21  C   UNL     1      -1.439  20.011 -64.739  1.00  0.00     0.053 C 
BRANCH  21  22
ATOM     22  C   UNL     1      -0.608  19.083 -63.908  1.00  0.00     0.041 C 
ATOM     23  O   UNL     1      -0.940  18.827 -62.720  1.00  0.00    -0.550 OA
ATOM     24  O   UNL     1       0.521  18.482 -64.451  1.00  0.00    -0.550 OA
ENDBRANCH  21  22
ENDBRANCH  20  21
ENDBRANCH  19  20
ENDBRANCH  18  19
ENDBRANCH  17  18
ENDBRANCH  16  17
ENDBRANCH  15  16
ENDBRANCH  14  15
ENDBRANCH  13  14
ENDBRANCH   1  13
TORSDOF 20
ENDMDL
MODEL 5
REMARK VINA RESULT:    -4.105      1.074      2.193
REMARK INTER + INTRA:         -10.795
REMARK INTER:                  -9.196
REMARK INTRA:                  -1.599
REMARK UNBOUND:                -1.890
REMARK SMILES CCCCCCCCCCCCCCCCCCCCCC(=O)[O-]
REMARK SMILES IDX 12 1 11 2 10 3 9 4 8 5 7 6 6 7 5 8 4 9 3 10 2 11 1 12 13 13
REMARK SMILES IDX 14 14 15 15 16 16 17 17 18 18 19 19 20 20 21 21 22 22 23 23
REMARK SMILES IDX 24 24
REMARK H PARENT
REMARK Flexibility Score: inf
ROOT
ATOM      1  C   UNL     1      -0.520   7.266 -53.734  1.00  0.00     0.000 C 
ENDROOT
BRANCH   1   2
ATOM      2  C   UNL     1      -0.203   5.914 -53.083  1.00  0.00     0.000 C 
BRANCH   2   3
ATOM      3  C   UNL     1      -1.268   5.538 -52.047  1.00  0.00     0.000 C 
BRANCH   3   4
ATOM      4  C   UNL     1      -0.625   5.200 -50.693  1.00  0.00    -0.000 C 
BRANCH   4   5
ATOM      5  C   UNL     1      -1.655   5.200 -49.553  1.00  0.00    -0.000 C 
BRANCH   5   6
ATOM      6  C   UNL     1      -3.111   5.280 -50.067  1.00  0.00    -0.000 C 
BRANCH   6   7
ATOM      7  C   UNL     1      -4.138   5.453 -48.935  1.00  0.00    -0.000 C 
BRANCH   7   8
ATOM      8  C   UNL     1      -3.538   6.029 -47.638  1.00  0.00    -0.000 C 
BRANCH   8   9
ATOM      9  C   UNL     1      -4.464   7.049 -46.958  1.00  0.00    -0.000 C 
BRANCH   9  10
ATOM     10  C   UNL     1      -5.667   7.379 -47.854  1.00  0.00    -0.000 C 
BRANCH  10  11
ATOM     11  C   UNL     1      -5.813   8.887 -48.113  1.00  0.00    -0.003 C 
ATOM     12  C   UNL     1      -4.707   9.709 -47.452  1.00  0.00     0.004 C 
ENDBRANCH  10  11
ENDBRANCH   9  10
ENDBRANCH   8   9
ENDBRANCH   7   8
ENDBRANCH   6   7
ENDBRANCH   5   6
ENDBRANCH   4   5
ENDBRANCH   3   4
ENDBRANCH   2   3
ENDBRANCH   1   2
BRANCH   1  13
ATOM     13  C   UNL     1      -1.255   7.073 -55.066  1.00  0.00     0.000 C 
BRANCH  13  14
ATOM     14  C   UNL     1      -1.174   5.612 -55.535  1.00  0.00     0.000 C 
BRANCH  14  15
ATOM     15  C   UNL     1      -0.121   5.405 -56.637  1.00  0.00     0.000 C 
BRANCH  15  16
ATOM     16  C   UNL     1      -0.743   5.347 -58.042  1.00  0.00     0.000 C 
BRANCH  16  17
ATOM     17  C   UNL     1      -0.724   6.708 -58.764  1.00  0.00     0.000 C 
BRANCH  17  18
ATOM     18  C   UNL     1      -2.103   7.367 -58.950  1.00  0.00     0.000 C 
BRANCH  18  19
ATOM     19  C   UNL     1      -3.102   6.469 -59.694  1.00  0.00     0.000 C 
BRANCH  19  20
ATOM     20  C   UNL     1      -4.369   6.249 -58.855  1.00  0.00     0.006 C 
BRANCH  20  21
ATOM     21  C   UNL     1      -4.169   6.637 -57.383  1.00  0.00     0.053 C 
BRANCH  21  22
ATOM     22  C   UNL     1      -4.692   8.010 -57.090  1.00  0.00     0.041 C 
ATOM     23  O   UNL     1      -4.296   8.636 -56.071  1.00  0.00    -0.550 OA
ATOM     24  O   UNL     1      -5.601   8.609 -57.955  1.00  0.00    -0.550 OA
ENDBRANCH  21  22
ENDBRANCH  20  21
ENDBRANCH  19  20
ENDBRANCH  18  19
ENDBRANCH  17  18
ENDBRANCH  16  17
ENDBRANCH  15  16
ENDBRANCH  14  15
ENDBRANCH  13  14
ENDBRANCH   1  13
TORSDOF 20
ENDMDL
MODEL 6
REMARK VINA RESULT:    -4.055      1.725      2.239
REMARK INTER + INTRA:         -10.686
REMARK INTER:                  -8.872
REMARK INTRA:                  -1.813
REMARK UNBOUND:                -1.890
REMARK SMILES CCCCCCCCCCCCCCCCCCCCCC(=O)[O-]
REMARK SMILES IDX 12 1 11 2 10 3 9 4 8 5 7 6 6 7 5 8 4 9 3 10 2 11 1 12 13 13
REMARK SMILES IDX 14 14 15 15 16 16 17 17 18 18 19 19 20 20 21 21 22 22 23 23
REMARK SMILES IDX 24 24
REMARK H PARENT
REMARK Flexibility Score: inf
ROOT
ATOM      1  C   UNL     1      -1.217   6.856 -55.259  1.00  0.00     0.000 C 
ENDROOT
BRANCH   1   2
ATOM      2  C   UNL     1      -0.070   6.341 -54.380  1.00  0.00     0.000 C 
BRANCH   2   3
ATOM      3  C   UNL     1      -0.397   4.961 -53.799  1.00  0.00     0.000 C 
BRANCH   3   4
ATOM      4  C   UNL     1      -1.171   5.088 -52.478  1.00  0.00    -0.000 C 
BRANCH   4   5
ATOM      5  C   UNL     1      -0.371   5.857 -51.415  1.00  0.00    -0.000 C 
BRANCH   5   6
ATOM      6  C   UNL     1      -0.135   5.026 -50.133  1.00  0.00    -0.000 C 
BRANCH   6   7
ATOM      7  C   UNL     1       0.324   5.882 -48.939  1.00  0.00    -0.000 C 
BRANCH   7   8
ATOM      8  C   UNL     1      -0.667   5.878 -47.759  1.00  0.00    -0.000 C 
BRANCH   8   9
ATOM      9  C   UNL     1      -2.132   5.953 -48.214  1.00  0.00    -0.000 C 
BRANCH   9  10
ATOM     10  C   UNL     1      -3.064   6.205 -47.019  1.00  0.00    -0.000 C 
BRANCH  10  11
ATOM     11  C   UNL     1      -3.964   7.434 -47.223  1.00  0.00    -0.003 C 
ATOM     12  C   UNL     1      -5.210   7.122 -48.051  1.00  0.00     0.004 C 
ENDBRANCH  10  11
ENDBRANCH   9  10
ENDBRANCH   8   9
ENDBRANCH   7   8
ENDBRANCH   6   7
ENDBRANCH   5   6
ENDBRANCH   4   5
ENDBRANCH   3   4
ENDBRANCH   2   3
ENDBRANCH   1   2
BRANCH   1  13
ATOM     13  C   UNL     1      -1.520   5.873 -56.395  1.00  0.00     0.000 C 
BRANCH  13  14
ATOM     14  C   UNL     1      -0.328   5.757 -57.358  1.00  0.00     0.000 C 
BRANCH  14  15
ATOM     15  C   UNL     1      -0.599   6.433 -58.713  1.00  0.00     0.000 C 
BRANCH  15  16
ATOM     16  C   UNL     1      -2.092   6.724 -58.939  1.00  0.00     0.000 C 
BRANCH  16  17
ATOM     17  C   UNL     1      -2.421   8.229 -58.916  1.00  0.00     0.000 C 
BRANCH  17  18
ATOM     18  C   UNL     1      -3.862   8.576 -58.501  1.00  0.00     0.000 C 
BRANCH  18  19
ATOM     19  C   UNL     1      -4.047   8.651 -56.978  1.00  0.00     0.000 C 
BRANCH  19  20
ATOM     20  C   UNL     1      -4.922   7.495 -56.476  1.00  0.00     0.006 C 
BRANCH  20  21
ATOM     21  C   UNL     1      -5.543   6.690 -57.627  1.00  0.00     0.053 C 
BRANCH  21  22
ATOM     22  C   UNL     1      -7.039   6.759 -57.616  1.00  0.00     0.041 C 
ATOM     23  O   UNL     1      -7.625   7.844 -57.873  1.00  0.00    -0.550 OA
ATOM     24  O   UNL     1      -7.788   5.620 -57.342  1.00  0.00    -0.550 OA
ENDBRANCH  21  22
ENDBRANCH  20  21
ENDBRANCH  19  20
ENDBRANCH  18  19
ENDBRANCH  17  18
ENDBRANCH  16  17
ENDBRANCH  15  16
ENDBRANCH  14  15
ENDBRANCH  13  14
ENDBRANCH   1  13
TORSDOF 20
ENDMDL
MODEL 7
REMARK VINA RESULT:    -4.030     13.956     17.836
REMARK INTER + INTRA:         -10.632
REMARK INTER:                  -8.568
REMARK INTRA:                  -2.064
REMARK UNBOUND:                -1.890
REMARK SMILES CCCCCCCCCCCCCCCCCCCCCC(=O)[O-]
REMARK SMILES IDX 12 1 11 2 10 3 9 4 8 5 7 6 6 7 5 8 4 9 3 10 2 11 1 12 13 13
REMARK SMILES IDX 14 14 15 15 16 16 17 17 18 18 19 19 20 20 21 21 22 22 23 23
REMARK SMILES IDX 24 24
REMARK H PARENT
REMARK Flexibility Score: inf
ROOT
ATOM      1  C   UNL     1      -4.902  17.986 -60.065  1.00  0.00     0.000 C 
ENDROOT
BRANCH   1   2
ATOM      2  C   UNL     1      -5.607  16.977 -60.981  1.00  0.00     0.000 C 
BRANCH   2   3
ATOM      3  C   UNL     1      -6.957  16.551 -60.396  1.00  0.00     0.000 C 
BRANCH   3   4
ATOM      4  C   UNL     1      -7.826  15.860 -61.458  1.00  0.00    -0.000 C 
BRANCH   4   5
ATOM      5  C   UNL     1      -8.844  16.824 -62.085  1.00  0.00    -0.000 C 
BRANCH   5   6
ATOM      6  C   UNL     1      -9.055  16.566 -63.595  1.00  0.00    -0.000 C 
BRANCH   6   7
ATOM      7  C   UNL     1      -8.019  17.284 -64.477  1.00  0.00    -0.000 C 
BRANCH   7   8
ATOM      8  C   UNL     1      -8.220  18.810 -64.549  1.00  0.00    -0.000 C 
BRANCH   8   9
ATOM      9  C   UNL     1      -6.909  19.590 -64.365  1.00  0.00    -0.000 C 
BRANCH   9  10
ATOM     10  C   UNL     1      -5.696  18.653 -64.459  1.00  0.00    -0.000 C 
BRANCH  10  11
ATOM     11  C   UNL     1      -4.393  19.328 -64.005  1.00  0.00    -0.003 C 
ATOM     12  C   UNL     1      -3.358  19.429 -65.125  1.00  0.00     0.004 C 
ENDBRANCH  10  11
ENDBRANCH   9  10
ENDBRANCH   8   9
ENDBRANCH   7   8
ENDBRANCH   6   7
ENDBRANCH   5   6
ENDBRANCH   4   5
ENDBRANCH   3   4
ENDBRANCH   2   3
ENDBRANCH   1   2
BRANCH   1  13
ATOM     13  C   UNL     1      -4.800  19.359 -60.740  1.00  0.00     0.000 C 
BRANCH  13  14
ATOM     14  C   UNL     1      -5.379  20.461 -59.839  1.00  0.00     0.000 C 
BRANCH  14  15
ATOM     15  C   UNL     1      -6.471  21.284 -60.544  1.00  0.00     0.000 C 
BRANCH  15  16
ATOM     16  C   UNL     1      -5.954  21.991 -61.807  1.00  0.00     0.000 C 
BRANCH  16  17
ATOM     17  C   UNL     1      -5.721  23.499 -61.599  1.00  0.00     0.000 C 
BRANCH  17  18
ATOM     18  C   UNL     1      -5.421  23.919 -60.149  1.00  0.00     0.000 C 
BRANCH  18  19
ATOM     19  C   UNL     1      -4.443  25.100 -60.056  1.00  0.00     0.000 C 
BRANCH  19  20
ATOM     20  C   UNL     1      -3.741  25.123 -58.690  1.00  0.00     0.006 C 
BRANCH  20  21
ATOM     21  C   UNL     1      -4.724  24.926 -57.527  1.00  0.00     0.053 C 
BRANCH  21  22
ATOM     22  C   UNL     1      -4.061  24.307 -56.334  1.00  0.00     0.041 C 
ATOM     23  O   UNL     1      -4.572  23.298 -55.778  1.00  0.00    -0.550 OA
ATOM     24  O   UNL     1      -2.868  24.830 -55.850  1.00  0.00    -0.550 OA
ENDBRANCH  21  22
ENDBRANCH  20  21
ENDBRANCH  19  20
ENDBRANCH  18  19
ENDBRANCH  17  18
ENDBRANCH  16  17
ENDBRANCH  15  16
ENDBRANCH  14  15
ENDBRANCH  13  14
ENDBRANCH   1  13
TORSDOF 20
ENDMDL
MODEL 8
REMARK VINA RESULT:    -3.968      3.172      9.415
REMARK INTER + INTRA:         -10.498
REMARK INTER:                  -8.649
REMARK INTRA:                  -1.849
REMARK UNBOUND:                -1.890
REMARK SMILES CCCCCCCCCCCCCCCCCCCCCC(=O)[O-]
REMARK SMILES IDX 12 1 11 2 10 3 9 4 8 5 7 6 6 7 5 8 4 9 3 10 2 11 1 12 13 13
REMARK SMILES IDX 14 14 15 15 16 16 17 17 18 18 19 19 20 20 21 21 22 22 23 23
REMARK SMILES IDX 24 24
REMARK H PARENT
REMARK Flexibility Score: inf
ROOT
ATOM      1  C   UNL     1      -0.112   5.074 -53.392  1.00  0.00     0.000 C 
ENDROOT
BRANCH   1   2
ATOM      2  C   UNL     1       0.210   6.394 -54.105  1.00  0.00     0.000 C 
BRANCH   2   3
ATOM      3  C   UNL     1      -0.122   6.309 -55.598  1.00  0.00     0.000 C 
BRANCH   3   4
ATOM      4  C   UNL     1      -1.253   5.301 -55.856  1.00  0.00    -0.000 C 
BRANCH   4   5
ATOM      5  C   UNL     1      -2.628   5.984 -55.919  1.00  0.00    -0.000 C 
BRANCH   5   6
ATOM      6  C   UNL     1      -2.523   7.525 -55.982  1.00  0.00    -0.000 C 
BRANCH   6   7
ATOM      7  C   UNL     1      -3.814   8.195 -56.484  1.00  0.00    -0.000 C 
BRANCH   7   8
ATOM      8  C   UNL     1      -4.990   7.214 -56.661  1.00  0.00    -0.000 C 
BRANCH   8   9
ATOM      9  C   UNL     1      -5.665   7.339 -58.035  1.00  0.00    -0.000 C 
BRANCH   9  10
ATOM     10  C   UNL     1      -4.664   7.828 -59.094  1.00  0.00    -0.000 C 
BRANCH  10  11
ATOM     11  C   UNL     1      -4.178   6.695 -60.012  1.00  0.00    -0.003 C 
ATOM     12  C   UNL     1      -2.839   6.108 -59.567  1.00  0.00     0.004 C 
ENDBRANCH  10  11
ENDBRANCH   9  10
ENDBRANCH   8   9
ENDBRANCH   7   8
ENDBRANCH   6   7
ENDBRANCH   5   6
ENDBRANCH   4   5
ENDBRANCH   3   4
ENDBRANCH   2   3
ENDBRANCH   1   2
BRANCH   1  13
ATOM     13  C   UNL     1      -0.220   5.282 -51.877  1.00  0.00     0.000 C 
BRANCH  13  14
ATOM     14  C   UNL     1      -1.680   5.184 -51.408  1.00  0.00     0.000 C 
BRANCH  14  15
ATOM     15  C   UNL     1      -1.809   5.219 -49.876  1.00  0.00     0.000 C 
BRANCH  15  16
ATOM     16  C   UNL     1      -0.534   5.734 -49.188  1.00  0.00     0.000 C 
BRANCH  16  17
ATOM     17  C   UNL     1      -0.362   5.190 -47.757  1.00  0.00     0.000 C 
BRANCH  17  18
ATOM     18  C   UNL     1      -1.478   5.582 -46.772  1.00  0.00     0.000 C 
BRANCH  18  19
ATOM     19  C   UNL     1      -1.724   7.096 -46.715  1.00  0.00     0.000 C 
BRANCH  19  20
ATOM     20  C   UNL     1      -3.161   7.401 -46.268  1.00  0.00     0.006 C 
BRANCH  20  21
ATOM     21  C   UNL     1      -4.148   7.413 -47.444  1.00  0.00     0.053 C 
BRANCH  21  22
ATOM     22  C   UNL     1      -5.323   8.304 -47.179  1.00  0.00     0.041 C 
ATOM     23  O   UNL     1      -5.828   8.361 -46.026  1.00  0.00    -0.550 OA
ATOM     24  O   UNL     1      -5.847   9.089 -48.200  1.00  0.00    -0.550 OA
ENDBRANCH  21  22
ENDBRANCH  20  21
ENDBRANCH  19  20
ENDBRANCH  18  19
ENDBRANCH  17  18
ENDBRANCH  16  17
ENDBRANCH  15  16
ENDBRANCH  14  15
ENDBRANCH  13  14
ENDBRANCH   1  13
TORSDOF 20
ENDMDL
MODEL 9
REMARK VINA RESULT:    -3.869      3.740      9.248
REMARK INTER + INTRA:         -10.282
REMARK INTER:                  -8.340
REMARK INTRA:                  -1.942
REMARK UNBOUND:                -1.890
REMARK SMILES CCCCCCCCCCCCCCCCCCCCCC(=O)[O-]
REMARK SMILES IDX 12 1 11 2 10 3 9 4 8 5 7 6 6 7 5 8 4 9 3 10 2 11 1 12 13 13
REMARK SMILES IDX 14 14 15 15 16 16 17 17 18 18 19 19 20 20 21 21 22 22 23 23
REMARK SMILES IDX 24 24
REMARK H PARENT
REMARK Flexibility Score: inf
ROOT
ATOM      1  C   UNL     1      -1.508   6.824 -54.647  1.00  0.00     0.000 C 
ENDROOT
BRANCH   1   2
ATOM      2  C   UNL     1      -1.144   5.620 -55.526  1.00  0.00     0.000 C 
BRANCH   2   3
ATOM      3  C   UNL     1      -0.170   6.023 -56.638  1.00  0.00     0.000 C 
BRANCH   3   4
ATOM      4  C   UNL     1      -0.610   5.446 -57.992  1.00  0.00    -0.000 C 
BRANCH   4   5
ATOM      5  C   UNL     1      -1.467   6.441 -58.790  1.00  0.00    -0.000 C 
BRANCH   5   6
ATOM      6  C   UNL     1      -2.775   5.808 -59.319  1.00  0.00    -0.000 C 
BRANCH   6   7
ATOM      7  C   UNL     1      -3.595   5.116 -58.216  1.00  0.00    -0.000 C 
BRANCH   7   8
ATOM      8  C   UNL     1      -4.959   5.782 -57.952  1.00  0.00    -0.000 C 
BRANCH   8   9
ATOM      9  C   UNL     1      -4.829   7.155 -57.276  1.00  0.00    -0.000 C 
BRANCH   9  10
ATOM     10  C   UNL     1      -5.541   8.240 -58.099  1.00  0.00    -0.000 C 
BRANCH  10  11
ATOM     11  C   UNL     1      -4.561   9.256 -58.708  1.00  0.00    -0.003 C 
ATOM     12  C   UNL     1      -3.282   9.409 -57.886  1.00  0.00     0.004 C 
ENDBRANCH  10  11
ENDBRANCH   9  10
ENDBRANCH   8   9
ENDBRANCH   7   8
ENDBRANCH   6   7
ENDBRANCH   5   6
ENDBRANCH   4   5
ENDBRANCH   3   4
ENDBRANCH   2   3
ENDBRANCH   1   2
BRANCH   1  13
ATOM     13  C   UNL     1      -0.699   6.815 -53.345  1.00  0.00     0.000 C 
BRANCH  13  14
ATOM     14  C   UNL     1      -0.650   5.406 -52.734  1.00  0.00     0.000 C 
BRANCH  14  15
ATOM     15  C   UNL     1      -2.007   4.967 -52.158  1.00  0.00     0.000 C 
BRANCH  15  16
ATOM     16  C   UNL     1      -2.109   5.204 -50.642  1.00  0.00     0.000 C 
BRANCH  16  17
ATOM     17  C   UNL     1      -3.564   5.237 -50.136  1.00  0.00     0.000 C 
BRANCH  17  18
ATOM     18  C   UNL     1      -3.724   5.163 -48.607  1.00  0.00     0.000 C 
BRANCH  18  19
ATOM     19  C   UNL     1      -3.969   6.536 -47.962  1.00  0.00     0.000 C 
BRANCH  19  20
ATOM     20  C   UNL     1      -3.085   6.723 -46.721  1.00  0.00     0.006 C 
BRANCH  20  21
ATOM     21  C   UNL     1      -1.589   6.601 -47.047  1.00  0.00     0.053 C 
BRANCH  21  22
ATOM     22  C   UNL     1      -0.754   7.493 -46.181  1.00  0.00     0.041 C 
ATOM     23  O   UNL     1       0.345   7.081 -45.721  1.00  0.00    -0.550 OA
ATOM     24  O   UNL     1      -1.176   8.787 -45.900  1.00  0.00    -0.550 OA
ENDBRANCH  21  22
ENDBRANCH  20  21
ENDBRANCH  19  20
ENDBRANCH  18  19
ENDBRANCH  17  18
ENDBRANCH  16  17
ENDBRANCH  15  16
ENDBRANCH  14  15
ENDBRANCH  13  14
ENDBRANCH   1  13
TORSDOF 20
ENDMDL
