MODEL 1
REMARK VINA RESULT:    -6.042      0.000      0.000
REMARK INTER + INTRA:          -7.499
REMARK INTER:                  -7.278
REMARK INTRA:                  -0.221
REMARK UNBOUND:                -0.221
REMARK SMILES O=c1c(O)c(-c2ccc(O)c(O)c2)oc2cc(O)cc(O)c12
REMARK SMILES IDX 5 1 3 2 2 3 1 4 22 5 20 6 19 7 17 8 16 9 15 10 14 11 6 12
REMARK SMILES IDX 7 13 8 14 9 15 13 16 11 17 10 18 12 20 4 22 21 24 18 26
REMARK H PARENT 10 19 12 21 4 23 21 25 18 27
REMARK Flexibility Score: inf
ROOT
ATOM      1  C   UNL     1      71.335  38.515  20.217  1.00  0.00     0.180 A 
ATOM      2  C   UNL     1      71.654  37.326  19.537  1.00  0.00     0.208 A 
ATOM      3  C   UNL     1      70.613  36.524  19.043  1.00  0.00     0.238 A 
ATOM      4  O   UNL     1      70.904  35.435  18.483  1.00  0.00    -0.285 OA
ATOM      5  C   UNL     1      69.268  36.927  19.220  1.00  0.00     0.111 A 
ATOM      6  C   UNL     1      68.136  36.212  18.726  1.00  0.00     0.134 A 
ATOM      7  C   UNL     1      66.846  36.634  19.072  1.00  0.00     0.093 A 
ATOM      8  C   UNL     1      66.648  37.784  19.841  1.00  0.00     0.123 A 
ATOM      9  C   UNL     1      67.746  38.522  20.278  1.00  0.00     0.094 A 
ATOM     10  C   UNL     1      69.045  38.105  19.979  1.00  0.00     0.146 A 
ATOM     11  O   UNL     1      70.062  38.832  20.424  1.00  0.00    -0.452 OA
ENDROOT
BRANCH   1  12
ATOM     12  C   UNL     1      72.377  39.425  20.744  1.00  0.00     0.025 A 
ATOM     13  C   UNL     1      72.599  40.692  20.175  1.00  0.00     0.016 A 
ATOM     14  C   UNL     1      73.572  41.544  20.704  1.00  0.00     0.051 A 
ATOM     15  C   UNL     1      74.325  41.150  21.817  1.00  0.00     0.157 A 
ATOM     16  C   UNL     1      73.121  39.044  21.873  1.00  0.00     0.062 A 
ATOM     17  C   UNL     1      74.098  39.899  22.405  1.00  0.00     0.158 A 
BRANCH  15  18
ATOM     18  O   UNL     1      75.297  41.996  22.348  1.00  0.00    -0.504 OA
ATOM     19  H   UNL     1      75.705  42.744  21.800  1.00  0.00     0.293 HD
ENDBRANCH  15  18
BRANCH  17  20
ATOM     20  O   UNL     1      74.845  39.512  23.517  1.00  0.00    -0.504 OA
ATOM     21  H   UNL     1      75.522  38.762  23.464  1.00  0.00     0.293 HD
ENDBRANCH  17  20
ENDBRANCH   1  12
BRANCH   2  22
ATOM     22  O   UNL     1      72.988  36.937  19.392  1.00  0.00    -0.502 OA
ATOM     23  H   UNL     1      73.598  37.336  18.688  1.00  0.00     0.293 HD
ENDBRANCH   2  22
BRANCH   6  24
ATOM     24  O   UNL     1      68.222  35.105  17.875  1.00  0.00    -0.507 OA
ATOM     25  H   UNL     1      68.773  34.280  18.059  1.00  0.00     0.293 HD
ENDBRANCH   6  24
BRANCH   8  26
ATOM     26  O   UNL     1      65.361  38.207  20.169  1.00  0.00    -0.508 OA
ATOM     27  H   UNL     1      65.083  39.178  20.075  1.00  0.00     0.293 HD
ENDBRANCH   8  26
TORSDOF 6
ENDMDL
MODEL 2
REMARK VINA RESULT:    -5.455      1.506      2.043
REMARK INTER + INTRA:          -6.791
REMARK INTER:                  -6.505
REMARK INTRA:                  -0.286
REMARK UNBOUND:                -0.221
REMARK SMILES O=c1c(O)c(-c2ccc(O)c(O)c2)oc2cc(O)cc(O)c12
REMARK SMILES IDX 5 1 3 2 2 3 1 4 22 5 20 6 19 7 17 8 16 9 15 10 14 11 6 12
REMARK SMILES IDX 7 13 8 14 9 15 13 16 11 17 10 18 12 20 4 22 21 24 18 26
REMARK H PARENT 10 19 12 21 4 23 21 25 18 27
REMARK Flexibility Score: inf
ROOT
ATOM      1  C   UNL     1      71.560  38.258  19.257  1.00  0.00     0.180 A 
ATOM      2  C   UNL     1      71.684  36.993  18.657  1.00  0.00     0.208 A 
ATOM      3  C   UNL     1      70.529  36.225  18.443  1.00  0.00     0.238 A 
ATOM      4  O   UNL     1      70.652  35.071  17.955  1.00  0.00    -0.285 OA
ATOM      5  C   UNL     1      69.263  36.736  18.816  1.00  0.00     0.111 A 
ATOM      6  C   UNL     1      68.023  36.061  18.609  1.00  0.00     0.134 A 
ATOM      7  C   UNL     1      66.844  36.604  19.136  1.00  0.00     0.093 A 
ATOM      8  C   UNL     1      66.853  37.830  19.806  1.00  0.00     0.123 A 
ATOM      9  C   UNL     1      68.050  38.525  19.961  1.00  0.00     0.094 A 
ATOM     10  C   UNL     1      69.247  37.992  19.478  1.00  0.00     0.146 A 
ATOM     11  O   UNL     1      70.366  38.683  19.656  1.00  0.00    -0.452 OA
ENDROOT
BRANCH   1  12
ATOM     12  C   UNL     1      72.729  39.137  19.493  1.00  0.00     0.025 A 
ATOM     13  C   UNL     1      73.597  38.924  20.579  1.00  0.00     0.016 A 
ATOM     14  C   UNL     1      74.707  39.752  20.768  1.00  0.00     0.051 A 
ATOM     15  C   UNL     1      74.974  40.792  19.868  1.00  0.00     0.157 A 
ATOM     16  C   UNL     1      73.013  40.168  18.583  1.00  0.00     0.062 A 
ATOM     17  C   UNL     1      74.127  40.999  18.772  1.00  0.00     0.158 A 
BRANCH  15  18
ATOM     18  O   UNL     1      76.079  41.619  20.054  1.00  0.00    -0.504 OA
ATOM     19  H   UNL     1      76.571  41.657  20.939  1.00  0.00     0.293 HD
ENDBRANCH  15  18
BRANCH  17  20
ATOM     20  O   UNL     1      74.399  42.031  17.875  1.00  0.00    -0.504 OA
ATOM     21  H   UNL     1      73.911  42.916  17.923  1.00  0.00     0.293 HD
ENDBRANCH  17  20
ENDBRANCH   1  12
BRANCH   2  22
ATOM     22  O   UNL     1      72.946  36.498  18.316  1.00  0.00    -0.502 OA
ATOM     23  H   UNL     1      73.440  35.826  18.891  1.00  0.00     0.293 HD
ENDBRANCH   2  22
BRANCH   6  24
ATOM     24  O   UNL     1      67.891  34.878  17.875  1.00  0.00    -0.507 OA
ATOM     25  H   UNL     1      67.856  34.828  16.868  1.00  0.00     0.293 HD
ENDBRANCH   6  24
BRANCH   8  26
ATOM     26  O   UNL     1      65.674  38.371  20.314  1.00  0.00    -0.508 OA
ATOM     27  H   UNL     1      64.818  37.829  20.358  1.00  0.00     0.293 HD
ENDBRANCH   8  26
TORSDOF 6
ENDMDL
MODEL 3
REMARK VINA RESULT:    -5.416      1.267      2.968
REMARK INTER + INTRA:          -6.745
REMARK INTER:                  -6.470
REMARK INTRA:                  -0.275
REMARK UNBOUND:                -0.221
REMARK SMILES O=c1c(O)c(-c2ccc(O)c(O)c2)oc2cc(O)cc(O)c12
REMARK SMILES IDX 5 1 3 2 2 3 1 4 22 5 20 6 19 7 17 8 16 9 15 10 14 11 6 12
REMARK SMILES IDX 7 13 8 14 9 15 13 16 11 17 10 18 12 20 4 22 21 24 18 26
REMARK H PARENT 10 19 12 21 4 23 21 25 18 27
REMARK Flexibility Score: inf
ROOT
ATOM      1  C   UNL     1      70.636  39.643  20.452  1.00  0.00     0.180 A 
ATOM      2  C   UNL     1      69.518  40.464  20.678  1.00  0.00     0.208 A 
ATOM      3  C   UNL     1      68.243  39.987  20.335  1.00  0.00     0.238 A 
ATOM      4  O   UNL     1      67.252  40.748  20.489  1.00  0.00    -0.285 OA
ATOM      5  C   UNL     1      68.100  38.690  19.786  1.00  0.00     0.111 A 
ATOM      6  C   UNL     1      66.852  38.090  19.439  1.00  0.00     0.134 A 
ATOM      7  C   UNL     1      66.839  36.854  18.782  1.00  0.00     0.093 A 
ATOM      8  C   UNL     1      68.027  36.166  18.518  1.00  0.00     0.123 A 
ATOM      9  C   UNL     1      69.246  36.717  18.907  1.00  0.00     0.094 A 
ATOM     10  C   UNL     1      69.293  37.965  19.532  1.00  0.00     0.146 A 
ATOM     11  O   UNL     1      70.476  38.458  19.875  1.00  0.00    -0.452 OA
ENDROOT
BRANCH   1  12
ATOM     12  C   UNL     1      72.010  40.066  20.811  1.00  0.00     0.025 A 
ATOM     13  C   UNL     1      72.721  40.988  20.022  1.00  0.00     0.016 A 
ATOM     14  C   UNL     1      74.007  41.391  20.393  1.00  0.00     0.051 A 
ATOM     15  C   UNL     1      74.594  40.890  21.563  1.00  0.00     0.157 A 
ATOM     16  C   UNL     1      72.595  39.584  21.993  1.00  0.00     0.062 A 
ATOM     17  C   UNL     1      73.885  39.988  22.366  1.00  0.00     0.158 A 
BRANCH  15  18
ATOM     18  O   UNL     1      75.876  41.289  21.935  1.00  0.00    -0.504 OA
ATOM     19  H   UNL     1      76.484  40.683  22.473  1.00  0.00     0.293 HD
ENDBRANCH  15  18
BRANCH  17  20
ATOM     20  O   UNL     1      74.470  39.497  23.533  1.00  0.00    -0.504 OA
ATOM     21  H   UNL     1      74.022  39.604  24.434  1.00  0.00     0.293 HD
ENDBRANCH  17  20
ENDBRANCH   1  12
BRANCH   2  22
ATOM     22  O   UNL     1      69.684  41.749  21.201  1.00  0.00    -0.502 OA
ATOM     23  H   UNL     1      70.129  42.496  20.680  1.00  0.00     0.293 HD
ENDBRANCH   2  22
BRANCH   6  24
ATOM     24  O   UNL     1      65.606  38.650  19.740  1.00  0.00    -0.507 OA
ATOM     25  H   UNL     1      65.266  39.526  19.372  1.00  0.00     0.293 HD
ENDBRANCH   6  24
BRANCH   8  26
ATOM     26  O   UNL     1      68.005  34.929  17.878  1.00  0.00    -0.508 OA
ATOM     27  H   UNL     1      67.703  34.088  18.359  1.00  0.00     0.293 HD
ENDBRANCH   8  26
TORSDOF 6
ENDMDL
MODEL 4
REMARK VINA RESULT:    -5.231      1.528      3.175
REMARK INTER + INTRA:          -6.521
REMARK INTER:                  -6.205
REMARK INTRA:                  -0.316
REMARK UNBOUND:                -0.221
REMARK SMILES O=c1c(O)c(-c2ccc(O)c(O)c2)oc2cc(O)cc(O)c12
REMARK SMILES IDX 5 1 3 2 2 3 1 4 22 5 20 6 19 7 17 8 16 9 15 10 14 11 6 12
REMARK SMILES IDX 7 13 8 14 9 15 13 16 11 17 10 18 12 20 4 22 21 24 18 26
REMARK H PARENT 10 19 12 21 4 23 21 25 18 27
REMARK Flexibility Score: inf
ROOT
ATOM      1  C   UNL     1      71.865  39.804  21.218  1.00  0.00     0.180 A 
ATOM      2  C   UNL     1      70.666  40.397  21.649  1.00  0.00     0.208 A 
ATOM      3  C   UNL     1      69.445  39.814  21.273  1.00  0.00     0.238 A 
ATOM      4  O   UNL     1      68.374  40.381  21.617  1.00  0.00    -0.285 OA
ATOM      5  C   UNL     1      69.438  38.639  20.484  1.00  0.00     0.111 A 
ATOM      6  C   UNL     1      68.261  37.942  20.079  1.00  0.00     0.134 A 
ATOM      7  C   UNL     1      68.367  36.864  19.191  1.00  0.00     0.093 A 
ATOM      8  C   UNL     1      69.614  36.418  18.746  1.00  0.00     0.123 A 
ATOM      9  C   UNL     1      70.773  37.055  19.184  1.00  0.00     0.094 A 
ATOM     10  C   UNL     1      70.697  38.155  20.041  1.00  0.00     0.146 A 
ATOM     11  O   UNL     1      71.825  38.740  20.425  1.00  0.00    -0.452 OA
ENDROOT
BRANCH   1  12
ATOM     12  C   UNL     1      73.192  40.345  21.594  1.00  0.00     0.025 A 
ATOM     13  C   UNL     1      73.795  41.381  20.858  1.00  0.00     0.016 A 
ATOM     14  C   UNL     1      75.037  41.892  21.246  1.00  0.00     0.051 A 
ATOM     15  C   UNL     1      75.685  41.387  22.381  1.00  0.00     0.157 A 
ATOM     16  C   UNL     1      73.836  39.858  22.743  1.00  0.00     0.062 A 
ATOM     17  C   UNL     1      75.082  40.371  23.133  1.00  0.00     0.158 A 
BRANCH  15  18
ATOM     18  O   UNL     1      76.923  41.894  22.771  1.00  0.00    -0.504 OA
ATOM     19  H   UNL     1      77.775  41.645  22.282  1.00  0.00     0.293 HD
ENDBRANCH  15  18
BRANCH  17  20
ATOM     20  O   UNL     1      75.727  39.875  24.265  1.00  0.00    -0.504 OA
ATOM     21  H   UNL     1      75.255  39.260  24.916  1.00  0.00     0.293 HD
ENDBRANCH  17  20
ENDBRANCH   1  12
BRANCH   2  22
ATOM     22  O   UNL     1      70.695  41.569  22.409  1.00  0.00    -0.502 OA
ATOM     23  H   UNL     1      71.144  41.618  23.316  1.00  0.00     0.293 HD
ENDBRANCH   2  22
BRANCH   6  24
ATOM     24  O   UNL     1      66.976  38.248  20.537  1.00  0.00    -0.507 OA
ATOM     25  H   UNL     1      66.744  38.470  21.494  1.00  0.00     0.293 HD
ENDBRANCH   6  24
BRANCH   8  26
ATOM     26  O   UNL     1      69.713  35.335  17.875  1.00  0.00    -0.508 OA
ATOM     27  H   UNL     1      68.894  34.814  17.582  1.00  0.00     0.293 HD
ENDBRANCH   8  26
TORSDOF 6
ENDMDL
MODEL 5
REMARK VINA RESULT:    -5.060      1.804      6.607
REMARK INTER + INTRA:          -6.316
REMARK INTER:                  -6.049
REMARK INTRA:                  -0.267
REMARK UNBOUND:                -0.221
REMARK SMILES O=c1c(O)c(-c2ccc(O)c(O)c2)oc2cc(O)cc(O)c12
REMARK SMILES IDX 5 1 3 2 2 3 1 4 22 5 20 6 19 7 17 8 16 9 15 10 14 11 6 12
REMARK SMILES IDX 7 13 8 14 9 15 13 16 11 17 10 18 12 20 4 22 21 24 18 26
REMARK H PARENT 10 19 12 21 4 23 21 25 18 27
REMARK Flexibility Score: inf
ROOT
ATOM      1  C   UNL     1      70.253  39.489  19.627  1.00  0.00     0.180 A 
ATOM      2  C   UNL     1      71.003  38.408  19.133  1.00  0.00     0.208 A 
ATOM      3  C   UNL     1      72.321  38.232  19.584  1.00  0.00     0.238 A 
ATOM      4  O   UNL     1      73.006  37.294  19.097  1.00  0.00    -0.285 OA
ATOM      5  C   UNL     1      72.867  39.128  20.534  1.00  0.00     0.111 A 
ATOM      6  C   UNL     1      74.177  39.021  21.090  1.00  0.00     0.134 A 
ATOM      7  C   UNL     1      74.659  40.037  21.924  1.00  0.00     0.093 A 
ATOM      8  C   UNL     1      73.854  41.124  22.273  1.00  0.00     0.123 A 
ATOM      9  C   UNL     1      72.552  41.207  21.783  1.00  0.00     0.094 A 
ATOM     10  C   UNL     1      72.056  40.227  20.921  1.00  0.00     0.146 A 
ATOM     11  O   UNL     1      70.815  40.350  20.468  1.00  0.00    -0.452 OA
ENDROOT
BRANCH   1  12
ATOM     12  C   UNL     1      68.849  39.726  19.218  1.00  0.00     0.025 A 
ATOM     13  C   UNL     1      68.519  40.716  18.276  1.00  0.00     0.016 A 
ATOM     14  C   UNL     1      67.190  40.906  17.888  1.00  0.00     0.051 A 
ATOM     15  C   UNL     1      66.176  40.101  18.423  1.00  0.00     0.157 A 
ATOM     16  C   UNL     1      67.831  38.909  19.736  1.00  0.00     0.062 A 
ATOM     17  C   UNL     1      66.497  39.099  19.347  1.00  0.00     0.158 A 
BRANCH  15  18
ATOM     18  O   UNL     1      64.850  40.288  18.039  1.00  0.00    -0.504 OA
ATOM     19  H   UNL     1      64.090  39.801  18.500  1.00  0.00     0.293 HD
ENDBRANCH  15  18
BRANCH  17  20
ATOM     20  O   UNL     1      65.487  38.295  19.873  1.00  0.00    -0.504 OA
ATOM     21  H   UNL     1      64.514  38.574  19.834  1.00  0.00     0.293 HD
ENDBRANCH  17  20
ENDBRANCH   1  12
BRANCH   2  22
ATOM     22  O   UNL     1      70.452  37.548  18.179  1.00  0.00    -0.502 OA
ATOM     23  H   UNL     1      69.867  36.760  18.431  1.00  0.00     0.293 HD
ENDBRANCH   2  22
BRANCH   6  24
ATOM     24  O   UNL     1      75.028  37.931  20.879  1.00  0.00    -0.507 OA
ATOM     25  H   UNL     1      75.957  37.994  20.491  1.00  0.00     0.293 HD
ENDBRANCH   6  24
BRANCH   8  26
ATOM     26  O   UNL     1      74.335  42.124  23.116  1.00  0.00    -0.508 OA
ATOM     27  H   UNL     1      73.912  42.304  24.020  1.00  0.00     0.293 HD
ENDBRANCH   8  26
TORSDOF 6
ENDMDL
MODEL 6
REMARK VINA RESULT:    -4.857      1.900      7.280
REMARK INTER + INTRA:          -6.071
REMARK INTER:                  -5.902
REMARK INTRA:                  -0.168
REMARK UNBOUND:                -0.221
REMARK SMILES O=c1c(O)c(-c2ccc(O)c(O)c2)oc2cc(O)cc(O)c12
REMARK SMILES IDX 5 1 3 2 2 3 1 4 22 5 20 6 19 7 17 8 16 9 15 10 14 11 6 12
REMARK SMILES IDX 7 13 8 14 9 15 13 16 11 17 10 18 12 20 4 22 21 24 18 26
REMARK H PARENT 10 19 12 21 4 23 21 25 18 27
REMARK Flexibility Score: inf
ROOT
ATOM      1  C   UNL     1      70.507  39.316  20.202  1.00  0.00     0.180 A 
ATOM      2  C   UNL     1      70.687  40.156  21.315  1.00  0.00     0.208 A 
ATOM      3  C   UNL     1      71.938  40.761  21.516  1.00  0.00     0.238 A 
ATOM      4  O   UNL     1      72.109  41.468  22.544  1.00  0.00    -0.285 OA
ATOM      5  C   UNL     1      72.988  40.533  20.595  1.00  0.00     0.111 A 
ATOM      6  C   UNL     1      74.283  41.126  20.678  1.00  0.00     0.134 A 
ATOM      7  C   UNL     1      75.285  40.727  19.785  1.00  0.00     0.093 A 
ATOM      8  C   UNL     1      75.019  39.804  18.770  1.00  0.00     0.123 A 
ATOM      9  C   UNL     1      73.741  39.265  18.644  1.00  0.00     0.094 A 
ATOM     10  C   UNL     1      72.731  39.616  19.542  1.00  0.00     0.146 A 
ATOM     11  O   UNL     1      71.531  39.070  19.392  1.00  0.00    -0.452 OA
ENDROOT
BRANCH   1  12
ATOM     12  C   UNL     1      69.211  38.662  19.910  1.00  0.00     0.025 A 
ATOM     13  C   UNL     1      69.058  37.267  20.002  1.00  0.00     0.016 A 
ATOM     14  C   UNL     1      67.819  36.674  19.744  1.00  0.00     0.051 A 
ATOM     15  C   UNL     1      66.714  37.466  19.406  1.00  0.00     0.157 A 
ATOM     16  C   UNL     1      68.095  39.452  19.591  1.00  0.00     0.062 A 
ATOM     17  C   UNL     1      66.851  38.858  19.332  1.00  0.00     0.158 A 
BRANCH  15  18
ATOM     18  O   UNL     1      65.477  36.878  19.147  1.00  0.00    -0.504 OA
ATOM     19  H   UNL     1      64.792  37.326  18.550  1.00  0.00     0.293 HD
ENDBRANCH  15  18
BRANCH  17  20
ATOM     20  O   UNL     1      65.748  39.644  19.002  1.00  0.00    -0.504 OA
ATOM     21  H   UNL     1      65.825  40.648  18.899  1.00  0.00     0.293 HD
ENDBRANCH  17  20
ENDBRANCH   1  12
BRANCH   2  22
ATOM     22  O   UNL     1      69.644  40.350  22.224  1.00  0.00    -0.502 OA
ATOM     23  H   UNL     1      68.912  41.036  22.074  1.00  0.00     0.293 HD
ENDBRANCH   2  22
BRANCH   6  24
ATOM     24  O   UNL     1      74.627  42.124  21.596  1.00  0.00    -0.507 OA
ATOM     25  H   UNL     1      74.710  41.986  22.591  1.00  0.00     0.293 HD
ENDBRANCH   6  24
BRANCH   8  26
ATOM     26  O   UNL     1      76.017  39.424  17.875  1.00  0.00    -0.508 OA
ATOM     27  H   UNL     1      75.833  38.766  17.126  1.00  0.00     0.293 HD
ENDBRANCH   8  26
TORSDOF 6
ENDMDL
MODEL 7
REMARK VINA RESULT:    -4.524      2.470      7.245
REMARK INTER + INTRA:          -5.671
REMARK INTER:                  -5.339
REMARK INTRA:                  -0.332
REMARK UNBOUND:                -0.221
REMARK SMILES O=c1c(O)c(-c2ccc(O)c(O)c2)oc2cc(O)cc(O)c12
REMARK SMILES IDX 5 1 3 2 2 3 1 4 22 5 20 6 19 7 17 8 16 9 15 10 14 11 6 12
REMARK SMILES IDX 7 13 8 14 9 15 13 16 11 17 10 18 12 20 4 22 21 24 18 26
REMARK H PARENT 10 19 12 21 4 23 21 25 18 27
REMARK Flexibility Score: inf
ROOT
ATOM      1  C   UNL     1      70.071  40.656  19.842  1.00  0.00     0.180 A 
ATOM      2  C   UNL     1      70.441  41.360  21.002  1.00  0.00     0.208 A 
ATOM      3  C   UNL     1      71.793  41.392  21.376  1.00  0.00     0.238 A 
ATOM      4  O   UNL     1      72.111  41.977  22.444  1.00  0.00    -0.285 OA
ATOM      5  C   UNL     1      72.761  40.735  20.579  1.00  0.00     0.111 A 
ATOM      6  C   UNL     1      74.164  40.736  20.842  1.00  0.00     0.134 A 
ATOM      7  C   UNL     1      75.014  39.944  20.060  1.00  0.00     0.093 A 
ATOM      8  C   UNL     1      74.520  39.202  18.984  1.00  0.00     0.123 A 
ATOM      9  C   UNL     1      73.160  39.242  18.683  1.00  0.00     0.094 A 
ATOM     10  C   UNL     1      72.282  39.994  19.467  1.00  0.00     0.146 A 
ATOM     11  O   UNL     1      70.993  39.996  19.151  1.00  0.00    -0.452 OA
ENDROOT
BRANCH   1  12
ATOM     12  C   UNL     1      68.668  40.598  19.369  1.00  0.00     0.025 A 
ATOM     13  C   UNL     1      68.134  41.599  18.538  1.00  0.00     0.016 A 
ATOM     14  C   UNL     1      66.815  41.511  18.085  1.00  0.00     0.051 A 
ATOM     15  C   UNL     1      66.017  40.416  18.442  1.00  0.00     0.157 A 
ATOM     16  C   UNL     1      67.871  39.493  19.707  1.00  0.00     0.062 A 
ATOM     17  C   UNL     1      66.547  39.404  19.252  1.00  0.00     0.158 A 
BRANCH  15  18
ATOM     18  O   UNL     1      64.702  40.325  17.992  1.00  0.00    -0.504 OA
ATOM     19  H   UNL     1      64.452  39.749  17.197  1.00  0.00     0.293 HD
ENDBRANCH  15  18
BRANCH  17  20
ATOM     20  O   UNL     1      65.753  38.312  19.600  1.00  0.00    -0.504 OA
ATOM     21  H   UNL     1      66.069  37.361  19.459  1.00  0.00     0.293 HD
ENDBRANCH  17  20
ENDBRANCH   1  12
BRANCH   2  22
ATOM     22  O   UNL     1      69.466  41.983  21.786  1.00  0.00    -0.502 OA
ATOM     23  H   UNL     1      68.519  41.630  21.859  1.00  0.00     0.293 HD
ENDBRANCH   2  22
BRANCH   6  24
ATOM     24  O   UNL     1      74.772  41.512  21.834  1.00  0.00    -0.507 OA
ATOM     25  H   UNL     1      74.550  41.465  22.817  1.00  0.00     0.293 HD
ENDBRANCH   6  24
BRANCH   8  26
ATOM     26  O   UNL     1      75.374  38.429  18.200  1.00  0.00    -0.508 OA
ATOM     27  H   UNL     1      75.746  37.547  18.534  1.00  0.00     0.293 HD
ENDBRANCH   8  26
TORSDOF 6
ENDMDL
MODEL 8
REMARK VINA RESULT:    -4.113      1.846      7.159
REMARK INTER + INTRA:          -5.175
REMARK INTER:                  -4.846
REMARK INTRA:                  -0.329
REMARK UNBOUND:                -0.221
REMARK SMILES O=c1c(O)c(-c2ccc(O)c(O)c2)oc2cc(O)cc(O)c12
REMARK SMILES IDX 5 1 3 2 2 3 1 4 22 5 20 6 19 7 17 8 16 9 15 10 14 11 6 12
REMARK SMILES IDX 7 13 8 14 9 15 13 16 11 17 10 18 12 20 4 22 21 24 18 26
REMARK H PARENT 10 19 12 21 4 23 21 25 18 27
REMARK Flexibility Score: inf
ROOT
ATOM      1  C   UNL     1      71.956  39.281  20.135  1.00  0.00     0.180 A 
ATOM      2  C   UNL     1      72.438  40.073  19.079  1.00  0.00     0.208 A 
ATOM      3  C   UNL     1      73.614  40.817  19.268  1.00  0.00     0.238 A 
ATOM      4  O   UNL     1      74.011  41.567  18.338  1.00  0.00    -0.285 OA
ATOM      5  C   UNL     1      74.301  40.747  20.504  1.00  0.00     0.111 A 
ATOM      6  C   UNL     1      75.522  41.427  20.791  1.00  0.00     0.134 A 
ATOM      7  C   UNL     1      76.045  41.389  22.090  1.00  0.00     0.093 A 
ATOM      8  C   UNL     1      75.424  40.642  23.095  1.00  0.00     0.123 A 
ATOM      9  C   UNL     1      74.263  39.927  22.808  1.00  0.00     0.094 A 
ATOM     10  C   UNL     1      73.699  39.975  21.531  1.00  0.00     0.146 A 
ATOM     11  O   UNL     1      72.587  39.287  21.304  1.00  0.00    -0.452 OA
ENDROOT
BRANCH   1  12
ATOM     12  C   UNL     1      70.737  38.449  20.003  1.00  0.00     0.025 A 
ATOM     13  C   UNL     1      70.790  37.155  19.456  1.00  0.00     0.016 A 
ATOM     14  C   UNL     1      69.631  36.379  19.364  1.00  0.00     0.051 A 
ATOM     15  C   UNL     1      68.408  36.879  19.829  1.00  0.00     0.157 A 
ATOM     16  C   UNL     1      69.512  38.936  20.488  1.00  0.00     0.062 A 
ATOM     17  C   UNL     1      68.349  38.158  20.395  1.00  0.00     0.158 A 
BRANCH  15  18
ATOM     18  O   UNL     1      67.251  36.109  19.738  1.00  0.00    -0.504 OA
ATOM     19  H   UNL     1      67.181  35.201  20.183  1.00  0.00     0.293 HD
ENDBRANCH  15  18
BRANCH  17  20
ATOM     20  O   UNL     1      67.132  38.650  20.864  1.00  0.00    -0.504 OA
ATOM     21  H   UNL     1      66.543  38.105  21.481  1.00  0.00     0.293 HD
ENDBRANCH  17  20
ENDBRANCH   1  12
BRANCH   2  22
ATOM     22  O   UNL     1      71.732  40.144  17.875  1.00  0.00    -0.502 OA
ATOM     23  H   UNL     1      71.948  39.551  17.082  1.00  0.00     0.293 HD
ENDBRANCH   2  22
BRANCH   6  24
ATOM     24  O   UNL     1      76.271  42.125  19.838  1.00  0.00    -0.507 OA
ATOM     25  H   UNL     1      77.278  42.176  19.824  1.00  0.00     0.293 HD
ENDBRANCH   6  24
BRANCH   8  26
ATOM     26  O   UNL     1      75.958  40.597  24.381  1.00  0.00    -0.508 OA
ATOM     27  H   UNL     1      75.673  39.889  25.048  1.00  0.00     0.293 HD
ENDBRANCH   8  26
TORSDOF 6
ENDMDL
MODEL 9
REMARK VINA RESULT:    -3.642      2.493      6.947
REMARK INTER + INTRA:          -4.608
REMARK INTER:                  -4.384
REMARK INTRA:                  -0.223
REMARK UNBOUND:                -0.221
REMARK SMILES O=c1c(O)c(-c2ccc(O)c(O)c2)oc2cc(O)cc(O)c12
REMARK SMILES IDX 5 1 3 2 2 3 1 4 22 5 20 6 19 7 17 8 16 9 15 10 14 11 6 12
REMARK SMILES IDX 7 13 8 14 9 15 13 16 11 17 10 18 12 20 4 22 21 24 18 26
REMARK H PARENT 10 19 12 21 4 23 21 25 18 27
REMARK Flexibility Score: inf
ROOT
ATOM      1  C   UNL     1      70.768  39.365  19.392  1.00  0.00     0.180 A 
ATOM      2  C   UNL     1      71.206  40.661  19.715  1.00  0.00     0.208 A 
ATOM      3  C   UNL     1      72.564  40.979  19.555  1.00  0.00     0.238 A 
ATOM      4  O   UNL     1      72.961  42.124  19.896  1.00  0.00    -0.285 OA
ATOM      5  C   UNL     1      73.464  40.004  19.061  1.00  0.00     0.111 A 
ATOM      6  C   UNL     1      74.853  40.230  18.822  1.00  0.00     0.134 A 
ATOM      7  C   UNL     1      75.674  39.156  18.456  1.00  0.00     0.093 A 
ATOM      8  C   UNL     1      75.144  37.879  18.257  1.00  0.00     0.123 A 
ATOM      9  C   UNL     1      73.778  37.662  18.430  1.00  0.00     0.094 A 
ATOM     10  C   UNL     1      72.940  38.705  18.830  1.00  0.00     0.146 A 
ATOM     11  O   UNL     1      71.648  38.453  18.993  1.00  0.00    -0.452 OA
ENDROOT
BRANCH   1  12
ATOM     12  C   UNL     1      69.348  38.961  19.510  1.00  0.00     0.025 A 
ATOM     13  C   UNL     1      68.563  38.704  18.372  1.00  0.00     0.016 A 
ATOM     14  C   UNL     1      67.232  38.301  18.508  1.00  0.00     0.051 A 
ATOM     15  C   UNL     1      66.671  38.135  19.780  1.00  0.00     0.157 A 
ATOM     16  C   UNL     1      68.786  38.772  20.784  1.00  0.00     0.062 A 
ATOM     17  C   UNL     1      67.450  38.368  20.921  1.00  0.00     0.158 A 
BRANCH  15  18
ATOM     18  O   UNL     1      65.344  37.735  19.920  1.00  0.00    -0.504 OA
ATOM     19  H   UNL     1      64.761  37.539  19.114  1.00  0.00     0.293 HD
ENDBRANCH  15  18
BRANCH  17  20
ATOM     20  O   UNL     1      66.891  38.196  22.186  1.00  0.00    -0.504 OA
ATOM     21  H   UNL     1      66.499  37.308  22.475  1.00  0.00     0.293 HD
ENDBRANCH  17  20
ENDBRANCH   1  12
BRANCH   2  22
ATOM     22  O   UNL     1      70.306  41.601  20.221  1.00  0.00    -0.502 OA
ATOM     23  H   UNL     1      69.472  41.882  19.718  1.00  0.00     0.293 HD
ENDBRANCH   2  22
BRANCH   6  24
ATOM     24  O   UNL     1      75.465  41.484  18.903  1.00  0.00    -0.507 OA
ATOM     25  H   UNL     1      74.971  42.363  18.942  1.00  0.00     0.293 HD
ENDBRANCH   6  24
BRANCH   8  26
ATOM     26  O   UNL     1      75.965  36.819  17.878  1.00  0.00    -0.508 OA
ATOM     27  H   UNL     1      76.323  36.157  18.557  1.00  0.00     0.293 HD
ENDBRANCH   8  26
TORSDOF 6
ENDMDL
