MODEL 1
REMARK VINA RESULT:    -3.719      0.000      0.000
REMARK INTER + INTRA:          -4.406
REMARK INTER:                  -4.372
REMARK INTRA:                  -0.034
REMARK UNBOUND:                -0.034
REMARK SMILES O=C([O-])CCC(=O)[O-]
REMARK SMILES IDX 4 1 2 2 1 3 3 4 5 5 6 6 7 7 8 8
REMARK H PARENT
REMARK Flexibility Score: inf
ROOT
ATOM      1  C   UNL     1     158.758 155.230 218.843  1.00  0.00     0.059 C 
ENDROOT
BRANCH   1   2
ATOM      2  C   UNL     1     159.607 155.903 217.810  1.00  0.00     0.042 C 
ATOM      3  O   UNL     1     159.308 157.054 217.398  1.00  0.00    -0.550 OA
ATOM      4  O   UNL     1     160.755 155.279 217.341  1.00  0.00    -0.550 OA
ENDBRANCH   1   2
BRANCH   1   5
ATOM      5  C   UNL     1     159.532 155.073 220.153  1.00  0.00     0.059 C 
BRANCH   5   6
ATOM      6  C   UNL     1     159.073 153.855 220.889  1.00  0.00     0.042 C 
ATOM      7  O   UNL     1     159.915 153.046 221.364  1.00  0.00    -0.550 OA
ATOM      8  O   UNL     1     157.718 153.637 221.096  1.00  0.00    -0.550 OA
ENDBRANCH   5   6
ENDBRANCH   1   5
TORSDOF 3
ENDMDL
MODEL 2
REMARK VINA RESULT:    -3.685      0.185      4.210
REMARK INTER + INTRA:          -4.365
REMARK INTER:                  -4.331
REMARK INTRA:                  -0.034
REMARK UNBOUND:                -0.034
REMARK SMILES O=C([O-])CCC(=O)[O-]
REMARK SMILES IDX 4 1 2 2 1 3 3 4 5 5 6 6 7 7 8 8
REMARK H PARENT
REMARK Flexibility Score: inf
ROOT
ATOM      1  C   UNL     1     159.604 155.053 220.128  1.00  0.00     0.059 C 
ENDROOT
BRANCH   1   2
ATOM      2  C   UNL     1     159.063 153.908 220.925  1.00  0.00     0.042 C 
ATOM      3  O   UNL     1     159.831 153.222 221.650  1.00  0.00    -0.550 OA
ATOM      4  O   UNL     1     157.703 153.629 220.906  1.00  0.00    -0.550 OA
ENDBRANCH   1   2
BRANCH   1   5
ATOM      5  C   UNL     1     158.910 155.134 218.768  1.00  0.00     0.059 C 
BRANCH   5   6
ATOM      6  C   UNL     1     159.777 155.845 217.778  1.00  0.00     0.042 C 
ATOM      7  O   UNL     1     160.850 155.317 217.381  1.00  0.00    -0.550 OA
ATOM      8  O   UNL     1     159.378 157.068 217.256  1.00  0.00    -0.550 OA
ENDBRANCH   5   6
ENDBRANCH   1   5
TORSDOF 3
ENDMDL
MODEL 3
REMARK VINA RESULT:    -3.656      7.107      8.661
REMARK INTER + INTRA:          -4.331
REMARK INTER:                  -4.299
REMARK INTRA:                  -0.032
REMARK UNBOUND:                -0.034
REMARK SMILES O=C([O-])CCC(=O)[O-]
REMARK SMILES IDX 4 1 2 2 1 3 3 4 5 5 6 6 7 7 8 8
REMARK H PARENT
REMARK Flexibility Score: inf
ROOT
ATOM      1  C   UNL     1     158.589 162.748 220.192  1.00  0.00     0.059 C 
ENDROOT
BRANCH   1   2
ATOM      2  C   UNL     1     158.973 164.027 220.868  1.00  0.00     0.042 C 
ATOM      3  O   UNL     1     158.086 164.778 221.353  1.00  0.00    -0.550 OA
ATOM      4  O   UNL     1     160.312 164.366 221.006  1.00  0.00    -0.550 OA
ENDBRANCH   1   2
BRANCH   1   5
ATOM      5  C   UNL     1     159.032 162.762 218.729  1.00  0.00     0.059 C 
BRANCH   5   6
ATOM      6  C   UNL     1     158.208 161.809 217.923  1.00  0.00     0.042 C 
ATOM      7  O   UNL     1     158.763 160.881 217.277  1.00  0.00    -0.550 OA
ATOM      8  O   UNL     1     156.824 161.914 217.925  1.00  0.00    -0.550 OA
ENDBRANCH   5   6
ENDBRANCH   1   5
TORSDOF 3
ENDMDL
MODEL 4
REMARK VINA RESULT:    -3.592     10.554     11.356
REMARK INTER + INTRA:          -4.256
REMARK INTER:                  -4.132
REMARK INTRA:                  -0.125
REMARK UNBOUND:                -0.034
REMARK SMILES O=C([O-])CCC(=O)[O-]
REMARK SMILES IDX 4 1 2 2 1 3 3 4 5 5 6 6 7 7 8 8
REMARK H PARENT
REMARK Flexibility Score: inf
ROOT
ATOM      1  C   UNL     1     162.081 152.219 229.922  1.00  0.00     0.059 C 
ENDROOT
BRANCH   1   2
ATOM      2  C   UNL     1     161.585 153.615 230.137  1.00  0.00     0.042 C 
ATOM      3  O   UNL     1     161.764 154.494 229.253  1.00  0.00    -0.550 OA
ATOM      4  O   UNL     1     160.883 153.933 231.292  1.00  0.00    -0.550 OA
ENDBRANCH   1   2
BRANCH   1   5
ATOM      5  C   UNL     1     161.083 151.421 229.083  1.00  0.00     0.059 C 
BRANCH   5   6
ATOM      6  C   UNL     1     159.971 150.907 229.941  1.00  0.00     0.042 C 
ATOM      7  O   UNL     1     158.772 151.121 229.619  1.00  0.00    -0.550 OA
ATOM      8  O   UNL     1     160.256 150.149 231.069  1.00  0.00    -0.550 OA
ENDBRANCH   5   6
ENDBRANCH   1   5
TORSDOF 3
ENDMDL
MODEL 5
REMARK VINA RESULT:    -3.588     10.587     12.064
REMARK INTER + INTRA:          -4.251
REMARK INTER:                  -4.093
REMARK INTRA:                  -0.158
REMARK UNBOUND:                -0.034
REMARK SMILES O=C([O-])CCC(=O)[O-]
REMARK SMILES IDX 4 1 2 2 1 3 3 4 5 5 6 6 7 7 8 8
REMARK H PARENT
REMARK Flexibility Score: inf
ROOT
ATOM      1  C   UNL     1     158.883 151.089 230.102  1.00  0.00     0.059 C 
ENDROOT
BRANCH   1   2
ATOM      2  C   UNL     1     159.368 151.146 231.517  1.00  0.00     0.042 C 
ATOM      3  O   UNL     1     159.151 152.169 232.219  1.00  0.00    -0.550 OA
ATOM      4  O   UNL     1     160.014 150.052 232.075  1.00  0.00    -0.550 OA
ENDBRANCH   1   2
BRANCH   1   5
ATOM      5  C   UNL     1     159.532 152.195 229.269  1.00  0.00     0.059 C 
BRANCH   5   6
ATOM      6  C   UNL     1     161.019 152.032 229.248  1.00  0.00     0.042 C 
ATOM      7  O   UNL     1     161.532 150.949 228.860  1.00  0.00    -0.550 OA
ATOM      8  O   UNL     1     161.839 153.092 229.610  1.00  0.00    -0.550 OA
ENDBRANCH   5   6
ENDBRANCH   1   5
TORSDOF 3
ENDMDL
MODEL 6
REMARK VINA RESULT:    -3.587     15.643     16.183
REMARK INTER + INTRA:          -4.249
REMARK INTER:                  -4.080
REMARK INTRA:                  -0.169
REMARK UNBOUND:                -0.034
REMARK SMILES O=C([O-])CCC(=O)[O-]
REMARK SMILES IDX 4 1 2 2 1 3 3 4 5 5 6 6 7 7 8 8
REMARK H PARENT
REMARK Flexibility Score: inf
ROOT
ATOM      1  C   UNL     1     158.402 165.802 229.244  1.00  0.00     0.059 C 
ENDROOT
BRANCH   1   2
ATOM      2  C   UNL     1     156.918 166.003 229.255  1.00  0.00     0.042 C 
ATOM      3  O   UNL     1     156.423 167.084 228.841  1.00  0.00    -0.550 OA
ATOM      4  O   UNL     1     156.081 164.979 229.677  1.00  0.00    -0.550 OA
ENDBRANCH   1   2
BRANCH   1   5
ATOM      5  C   UNL     1     159.097 166.902 230.047  1.00  0.00     0.059 C 
BRANCH   5   6
ATOM      6  C   UNL     1     158.659 166.862 231.476  1.00  0.00     0.042 C 
ATOM      7  O   UNL     1     158.891 165.846 232.183  1.00  0.00    -0.550 OA
ATOM      8  O   UNL     1     158.039 167.968 232.044  1.00  0.00    -0.550 OA
ENDBRANCH   5   6
ENDBRANCH   1   5
TORSDOF 3
ENDMDL
MODEL 7
REMARK VINA RESULT:    -3.584     15.649     16.367
REMARK INTER + INTRA:          -4.246
REMARK INTER:                  -4.087
REMARK INTRA:                  -0.159
REMARK UNBOUND:                -0.034
REMARK SMILES O=C([O-])CCC(=O)[O-]
REMARK SMILES IDX 4 1 2 2 1 3 3 4 5 5 6 6 7 7 8 8
REMARK H PARENT
REMARK Flexibility Score: inf
ROOT
ATOM      1  C   UNL     1     159.096 166.890 230.066  1.00  0.00     0.059 C 
ENDROOT
BRANCH   1   2
ATOM      2  C   UNL     1     158.650 166.865 231.494  1.00  0.00     0.042 C 
ATOM      3  O   UNL     1     158.868 165.850 232.208  1.00  0.00    -0.550 OA
ATOM      4  O   UNL     1     158.039 167.980 232.052  1.00  0.00    -0.550 OA
ENDBRANCH   1   2
BRANCH   1   5
ATOM      5  C   UNL     1     158.404 165.783 229.270  1.00  0.00     0.059 C 
BRANCH   5   6
ATOM      6  C   UNL     1     156.922 165.989 229.266  1.00  0.00     0.042 C 
ATOM      7  O   UNL     1     156.435 167.085 228.881  1.00  0.00    -0.550 OA
ATOM      8  O   UNL     1     156.076 164.954 229.640  1.00  0.00    -0.550 OA
ENDBRANCH   5   6
ENDBRANCH   1   5
TORSDOF 3
ENDMDL
MODEL 8
REMARK VINA RESULT:    -3.583     10.586     11.653
REMARK INTER + INTRA:          -4.245
REMARK INTER:                  -4.082
REMARK INTRA:                  -0.163
REMARK UNBOUND:                -0.034
REMARK SMILES O=C([O-])CCC(=O)[O-]
REMARK SMILES IDX 4 1 2 2 1 3 3 4 5 5 6 6 7 7 8 8
REMARK H PARENT
REMARK Flexibility Score: inf
ROOT
ATOM      1  C   UNL     1     159.616 152.225 229.244  1.00  0.00     0.059 C 
ENDROOT
BRANCH   1   2
ATOM      2  C   UNL     1     161.096 152.000 229.240  1.00  0.00     0.042 C 
ATOM      3  O   UNL     1     161.568 150.900 228.851  1.00  0.00    -0.550 OA
ATOM      4  O   UNL     1     161.955 153.022 229.619  1.00  0.00    -0.550 OA
ENDBRANCH   1   2
BRANCH   1   5
ATOM      5  C   UNL     1     158.910 151.121 230.032  1.00  0.00     0.059 C 
BRANCH   5   6
ATOM      6  C   UNL     1     159.341 151.141 231.464  1.00  0.00     0.042 C 
ATOM      7  O   UNL     1     159.108 152.150 232.182  1.00  0.00    -0.550 OA
ATOM      8  O   UNL     1     159.954 150.028 232.022  1.00  0.00    -0.550 OA
ENDBRANCH   5   6
ENDBRANCH   1   5
TORSDOF 3
ENDMDL
MODEL 9
REMARK VINA RESULT:    -3.535     15.188     15.938
REMARK INTER + INTRA:          -4.189
REMARK INTER:                  -4.063
REMARK INTRA:                  -0.126
REMARK UNBOUND:                -0.034
REMARK SMILES O=C([O-])CCC(=O)[O-]
REMARK SMILES IDX 4 1 2 2 1 3 3 4 5 5 6 6 7 7 8 8
REMARK H PARENT
REMARK Flexibility Score: inf
ROOT
ATOM      1  C   UNL     1     155.923 165.856 229.975  1.00  0.00     0.059 C 
ENDROOT
BRANCH   1   2
ATOM      2  C   UNL     1     156.424 164.457 230.153  1.00  0.00     0.042 C 
ATOM      3  O   UNL     1     156.287 163.613 229.229  1.00  0.00    -0.550 OA
ATOM      4  O   UNL     1     157.085 164.099 231.320  1.00  0.00    -0.550 OA
ENDBRANCH   1   2
BRANCH   1   5
ATOM      5  C   UNL     1     156.967 166.710 229.254  1.00  0.00     0.059 C 
BRANCH   5   6
ATOM      6  C   UNL     1     157.990 167.215 230.222  1.00  0.00     0.042 C 
ATOM      7  O   UNL     1     157.647 167.970 231.170  1.00  0.00    -0.550 OA
ATOM      8  O   UNL     1     159.314 166.813 230.107  1.00  0.00    -0.550 OA
ENDBRANCH   5   6
ENDBRANCH   1   5
TORSDOF 3
ENDMDL
