MODEL 1
REMARK VINA RESULT:    14.520      0.000      0.000
REMARK INTER + INTRA:          30.571
REMARK INTER:                  31.497
REMARK INTRA:                  -0.926
REMARK UNBOUND:                -0.926
REMARK SMILES CCCCCCCCCCCCCCCCCCCCCC(=O)[O-]
REMARK SMILES IDX 12 1 11 2 10 3 9 4 8 5 7 6 6 7 5 8 4 9 3 10 2 11 1 12 13 13
REMARK SMILES IDX 14 14 15 15 16 16 17 17 18 18 19 19 20 20 21 21 22 22 23 23
REMARK SMILES IDX 24 24
REMARK H PARENT
REMARK Flexibility Score: inf
ROOT
ATOM      1  C   UNL     1     -12.260  58.852  -3.486  1.00  0.00     0.000 C 
ENDROOT
BRANCH   1   2
ATOM      2  C   UNL     1     -13.516  58.297  -4.175  1.00  0.00     0.000 C 
BRANCH   2   3
ATOM      3  C   UNL     1     -14.555  59.404  -4.393  1.00  0.00     0.000 C 
BRANCH   3   4
ATOM      4  C   UNL     1     -15.670  59.331  -3.338  1.00  0.00    -0.000 C 
BRANCH   4   5
ATOM      5  C   UNL     1     -16.560  60.584  -3.326  1.00  0.00    -0.000 C 
BRANCH   5   6
ATOM      6  C   UNL     1     -18.046  60.253  -3.102  1.00  0.00    -0.000 C 
BRANCH   6   7
ATOM      7  C   UNL     1     -18.312  58.739  -3.070  1.00  0.00    -0.000 C 
BRANCH   7   8
ATOM      8  C   UNL     1     -18.007  58.115  -1.697  1.00  0.00    -0.000 C 
BRANCH   8   9
ATOM      9  C   UNL     1     -17.633  56.624  -1.788  1.00  0.00    -0.000 C 
BRANCH   9  10
ATOM     10  C   UNL     1     -16.595  56.277  -2.871  1.00  0.00    -0.000 C 
BRANCH  10  11
ATOM     11  C   UNL     1     -17.016  55.085  -3.741  1.00  0.00    -0.003 C 
ATOM     12  C   UNL     1     -17.174  55.499  -5.201  1.00  0.00     0.004 C 
ENDBRANCH  10  11
ENDBRANCH   9  10
ENDBRANCH   8   9
ENDBRANCH   7   8
ENDBRANCH   6   7
ENDBRANCH   5   6
ENDBRANCH   4   5
ENDBRANCH   3   4
ENDBRANCH   2   3
ENDBRANCH   1   2
BRANCH   1  13
ATOM     13  C   UNL     1     -11.227  57.759  -3.168  1.00  0.00     0.000 C 
BRANCH  13  14
ATOM     14  C   UNL     1     -11.625  56.389  -3.741  1.00  0.00     0.000 C 
BRANCH  14  15
ATOM     15  C   UNL     1     -10.507  55.749  -4.582  1.00  0.00     0.000 C 
BRANCH  15  16
ATOM     16  C   UNL     1     -10.153  54.327  -4.111  1.00  0.00     0.000 C 
BRANCH  16  17
ATOM     17  C   UNL     1      -8.686  54.203  -3.667  1.00  0.00     0.000 C 
BRANCH  17  18
ATOM     18  C   UNL     1      -8.189  52.746  -3.680  1.00  0.00     0.000 C 
BRANCH  18  19
ATOM     19  C   UNL     1      -9.063  51.814  -2.825  1.00  0.00     0.000 C 
BRANCH  19  20
ATOM     20  C   UNL     1      -8.422  50.436  -2.603  1.00  0.00     0.006 C 
BRANCH  20  21
ATOM     21  C   UNL     1      -9.390  49.493  -1.881  1.00  0.00     0.053 C 
BRANCH  21  22
ATOM     22  C   UNL     1     -10.483  49.055  -2.804  1.00  0.00     0.041 C 
ATOM     23  O   UNL     1     -11.676  49.014  -2.400  1.00  0.00    -0.550 OA
ATOM     24  O   UNL     1     -10.180  48.647  -4.098  1.00  0.00    -0.550 OA
ENDBRANCH  21  22
ENDBRANCH  20  21
ENDBRANCH  19  20
ENDBRANCH  18  19
ENDBRANCH  17  18
ENDBRANCH  16  17
ENDBRANCH  15  16
ENDBRANCH  14  15
ENDBRANCH  13  14
ENDBRANCH   1  13
TORSDOF 20
ENDMDL
MODEL 2
REMARK VINA RESULT:    15.123      2.553      8.818
REMARK INTER + INTRA:          31.878
REMARK INTER:                  33.032
REMARK INTRA:                  -1.154
REMARK UNBOUND:                -0.926
REMARK SMILES CCCCCCCCCCCCCCCCCCCCCC(=O)[O-]
REMARK SMILES IDX 12 1 11 2 10 3 9 4 8 5 7 6 6 7 5 8 4 9 3 10 2 11 1 12 13 13
REMARK SMILES IDX 14 14 15 15 16 16 17 17 18 18 19 19 20 20 21 21 22 22 23 23
REMARK SMILES IDX 24 24
REMARK H PARENT
REMARK Flexibility Score: inf
ROOT
ATOM      1  C   UNL     1     -13.462  58.085  -3.832  1.00  0.00     0.000 C 
ENDROOT
BRANCH   1   2
ATOM      2  C   UNL     1     -12.087  58.714  -3.564  1.00  0.00     0.000 C 
BRANCH   2   3
ATOM      3  C   UNL     1     -11.039  57.635  -3.266  1.00  0.00     0.000 C 
BRANCH   3   4
ATOM      4  C   UNL     1     -11.494  56.264  -3.790  1.00  0.00    -0.000 C 
BRANCH   4   5
ATOM      5  C   UNL     1     -10.389  55.526  -4.563  1.00  0.00    -0.000 C 
BRANCH   5   6
ATOM      6  C   UNL     1     -10.074  54.142  -3.968  1.00  0.00    -0.000 C 
BRANCH   6   7
ATOM      7  C   UNL     1      -8.566  53.915  -3.776  1.00  0.00    -0.000 C 
BRANCH   7   8
ATOM      8  C   UNL     1      -8.260  52.687  -2.900  1.00  0.00    -0.000 C 
BRANCH   8   9
ATOM      9  C   UNL     1      -9.008  51.423  -3.361  1.00  0.00    -0.000 C 
BRANCH   9  10
ATOM     10  C   UNL     1      -9.099  50.300  -2.311  1.00  0.00    -0.000 C 
BRANCH  10  11
ATOM     11  C   UNL     1      -9.967  49.121  -2.771  1.00  0.00    -0.003 C 
ATOM     12  C   UNL     1     -11.312  49.114  -2.051  1.00  0.00     0.004 C 
ENDBRANCH  10  11
ENDBRANCH   9  10
ENDBRANCH   8   9
ENDBRANCH   7   8
ENDBRANCH   6   7
ENDBRANCH   5   6
ENDBRANCH   4   5
ENDBRANCH   3   4
ENDBRANCH   2   3
ENDBRANCH   1   2
BRANCH   1  13
ATOM     13  C   UNL     1     -14.353  58.965  -4.724  1.00  0.00     0.000 C 
BRANCH  13  14
ATOM     14  C   UNL     1     -14.823  60.242  -4.008  1.00  0.00     0.000 C 
BRANCH  14  15
ATOM     15  C   UNL     1     -16.012  59.991  -3.066  1.00  0.00     0.000 C 
BRANCH  15  16
ATOM     16  C   UNL     1     -17.274  60.766  -3.488  1.00  0.00     0.000 C 
BRANCH  16  17
ATOM     17  C   UNL     1     -18.569  60.010  -3.148  1.00  0.00     0.000 C 
BRANCH  17  18
ATOM     18  C   UNL     1     -18.374  58.483  -3.137  1.00  0.00     0.000 C 
BRANCH  18  19
ATOM     19  C   UNL     1     -18.074  57.933  -1.732  1.00  0.00     0.000 C 
BRANCH  19  20
ATOM     20  C   UNL     1     -17.373  56.567  -1.765  1.00  0.00     0.006 C 
BRANCH  20  21
ATOM     21  C   UNL     1     -16.502  56.431  -3.018  1.00  0.00     0.053 C 
BRANCH  21  22
ATOM     22  C   UNL     1     -17.049  55.376  -3.927  1.00  0.00     0.041 C 
ATOM     23  O   UNL     1     -17.063  55.557  -5.173  1.00  0.00    -0.550 OA
ATOM     24  O   UNL     1     -17.585  54.209  -3.395  1.00  0.00    -0.550 OA
ENDBRANCH  21  22
ENDBRANCH  20  21
ENDBRANCH  19  20
ENDBRANCH  18  19
ENDBRANCH  17  18
ENDBRANCH  16  17
ENDBRANCH  15  16
ENDBRANCH  14  15
ENDBRANCH  13  14
ENDBRANCH   1  13
TORSDOF 20
ENDMDL
MODEL 3
REMARK VINA RESULT:    15.327      2.491      9.084
REMARK INTER + INTRA:          32.321
REMARK INTER:                  33.565
REMARK INTRA:                  -1.243
REMARK UNBOUND:                -0.926
REMARK SMILES CCCCCCCCCCCCCCCCCCCCCC(=O)[O-]
REMARK SMILES IDX 12 1 11 2 10 3 9 4 8 5 7 6 6 7 5 8 4 9 3 10 2 11 1 12 13 13
REMARK SMILES IDX 14 14 15 15 16 16 17 17 18 18 19 19 20 20 21 21 22 22 23 23
REMARK SMILES IDX 24 24
REMARK H PARENT
REMARK Flexibility Score: inf
ROOT
ATOM      1  C   UNL     1     -10.993  57.735  -3.369  1.00  0.00     0.000 C 
ENDROOT
BRANCH   1   2
ATOM      2  C   UNL     1     -11.461  56.293  -3.617  1.00  0.00     0.000 C 
BRANCH   2   3
ATOM      3  C   UNL     1     -10.542  55.582  -4.619  1.00  0.00     0.000 C 
BRANCH   3   4
ATOM      4  C   UNL     1     -10.202  54.161  -4.145  1.00  0.00    -0.000 C 
BRANCH   4   5
ATOM      5  C   UNL     1      -8.688  53.906  -4.065  1.00  0.00    -0.000 C 
BRANCH   5   6
ATOM      6  C   UNL     1      -8.301  53.006  -2.879  1.00  0.00    -0.000 C 
BRANCH   6   7
ATOM      7  C   UNL     1      -8.297  51.515  -3.251  1.00  0.00    -0.000 C 
BRANCH   7   8
ATOM      8  C   UNL     1      -8.649  50.608  -2.059  1.00  0.00    -0.000 C 
BRANCH   8   9
ATOM      9  C   UNL     1      -9.323  49.292  -2.487  1.00  0.00    -0.000 C 
BRANCH   9  10
ATOM     10  C   UNL     1     -10.708  49.450  -3.140  1.00  0.00    -0.000 C 
BRANCH  10  11
ATOM     11  C   UNL     1     -11.846  48.900  -2.270  1.00  0.00    -0.003 C 
ATOM     12  C   UNL     1     -11.549  49.100  -0.786  1.00  0.00     0.004 C 
ENDBRANCH  10  11
ENDBRANCH   9  10
ENDBRANCH   8   9
ENDBRANCH   7   8
ENDBRANCH   6   7
ENDBRANCH   5   6
ENDBRANCH   4   5
ENDBRANCH   3   4
ENDBRANCH   2   3
ENDBRANCH   1   2
BRANCH   1  13
ATOM     13  C   UNL     1     -12.157  58.736  -3.321  1.00  0.00     0.000 C 
BRANCH  13  14
ATOM     14  C   UNL     1     -13.147  58.544  -4.482  1.00  0.00     0.000 C 
BRANCH  14  15
ATOM     15  C   UNL     1     -14.613  58.540  -4.018  1.00  0.00     0.000 C 
BRANCH  15  16
ATOM     16  C   UNL     1     -15.250  59.941  -4.062  1.00  0.00     0.000 C 
BRANCH  16  17
ATOM     17  C   UNL     1     -16.200  60.193  -2.879  1.00  0.00     0.000 C 
BRANCH  17  18
ATOM     18  C   UNL     1     -17.682  60.132  -3.292  1.00  0.00     0.000 C 
BRANCH  18  19
ATOM     19  C   UNL     1     -18.355  58.808  -2.894  1.00  0.00     0.000 C 
BRANCH  19  20
ATOM     20  C   UNL     1     -17.514  57.987  -1.907  1.00  0.00     0.006 C 
BRANCH  20  21
ATOM     21  C   UNL     1     -17.739  56.486  -2.115  1.00  0.00     0.053 C 
BRANCH  21  22
ATOM     22  C   UNL     1     -16.731  55.931  -3.072  1.00  0.00     0.041 C 
ATOM     23  O   UNL     1     -17.008  55.830  -4.297  1.00  0.00    -0.550 OA
ATOM     24  O   UNL     1     -15.500  55.483  -2.605  1.00  0.00    -0.550 OA
ENDBRANCH  21  22
ENDBRANCH  20  21
ENDBRANCH  19  20
ENDBRANCH  18  19
ENDBRANCH  17  18
ENDBRANCH  16  17
ENDBRANCH  15  16
ENDBRANCH  14  15
ENDBRANCH  13  14
ENDBRANCH   1  13
TORSDOF 20
ENDMDL
MODEL 4
REMARK VINA RESULT:    16.189      1.081      2.104
REMARK INTER + INTRA:          34.192
REMARK INTER:                  35.685
REMARK INTRA:                  -1.493
REMARK UNBOUND:                -0.926
REMARK SMILES CCCCCCCCCCCCCCCCCCCCCC(=O)[O-]
REMARK SMILES IDX 12 1 11 2 10 3 9 4 8 5 7 6 6 7 5 8 4 9 3 10 2 11 1 12 13 13
REMARK SMILES IDX 14 14 15 15 16 16 17 17 18 18 19 19 20 20 21 21 22 22 23 23
REMARK SMILES IDX 24 24
REMARK H PARENT
REMARK Flexibility Score: inf
ROOT
ATOM      1  C   UNL     1     -10.798  56.799  -3.339  1.00  0.00     0.000 C 
ENDROOT
BRANCH   1   2
ATOM      2  C   UNL     1     -11.524  58.152  -3.402  1.00  0.00     0.000 C 
BRANCH   2   3
ATOM      3  C   UNL     1     -12.997  57.967  -3.785  1.00  0.00     0.000 C 
BRANCH   3   4
ATOM      4  C   UNL     1     -13.647  59.311  -4.147  1.00  0.00    -0.000 C 
BRANCH   4   5
ATOM      5  C   UNL     1     -15.182  59.243  -4.171  1.00  0.00    -0.000 C 
BRANCH   5   6
ATOM      6  C   UNL     1     -15.826  59.973  -2.979  1.00  0.00    -0.000 C 
BRANCH   6   7
ATOM      7  C   UNL     1     -17.328  60.225  -3.187  1.00  0.00    -0.000 C 
BRANCH   7   8
ATOM      8  C   UNL     1     -18.168  58.945  -3.036  1.00  0.00    -0.000 C 
BRANCH   8   9
ATOM      9  C   UNL     1     -17.801  58.133  -1.781  1.00  0.00    -0.000 C 
BRANCH   9  10
ATOM     10  C   UNL     1     -17.646  56.618  -2.006  1.00  0.00    -0.000 C 
BRANCH  10  11
ATOM     11  C   UNL     1     -16.511  56.272  -2.980  1.00  0.00    -0.003 C 
ATOM     12  C   UNL     1     -17.053  55.607  -4.242  1.00  0.00     0.004 C 
ENDBRANCH  10  11
ENDBRANCH   9  10
ENDBRANCH   8   9
ENDBRANCH   7   8
ENDBRANCH   6   7
ENDBRANCH   5   6
ENDBRANCH   4   5
ENDBRANCH   3   4
ENDBRANCH   2   3
ENDBRANCH   1   2
BRANCH   1  13
ATOM     13  C   UNL     1     -10.864  56.028  -4.667  1.00  0.00     0.000 C 
BRANCH  13  14
ATOM     14  C   UNL     1     -10.507  54.541  -4.502  1.00  0.00     0.000 C 
BRANCH  14  15
ATOM     15  C   UNL     1      -9.247  54.325  -3.647  1.00  0.00     0.000 C 
BRANCH  15  16
ATOM     16  C   UNL     1      -8.663  52.909  -3.803  1.00  0.00     0.000 C 
BRANCH  16  17
ATOM     17  C   UNL     1      -8.424  52.219  -2.449  1.00  0.00     0.000 C 
BRANCH  17  18
ATOM     18  C   UNL     1      -8.253  50.696  -2.587  1.00  0.00     0.000 C 
BRANCH  18  19
ATOM     19  C   UNL     1      -9.087  50.107  -3.737  1.00  0.00     0.000 C 
BRANCH  19  20
ATOM     20  C   UNL     1      -9.924  48.895  -3.304  1.00  0.00     0.006 C 
BRANCH  20  21
ATOM     21  C   UNL     1     -11.332  49.328  -2.881  1.00  0.00     0.053 C 
BRANCH  21  22
ATOM     22  C   UNL     1     -11.538  49.090  -1.418  1.00  0.00     0.041 C 
ATOM     23  O   UNL     1     -12.697  48.899  -0.964  1.00  0.00    -0.550 OA
ATOM     24  O   UNL     1     -10.453  49.122  -0.548  1.00  0.00    -0.550 OA
ENDBRANCH  21  22
ENDBRANCH  20  21
ENDBRANCH  19  20
ENDBRANCH  18  19
ENDBRANCH  17  18
ENDBRANCH  16  17
ENDBRANCH  15  16
ENDBRANCH  14  15
ENDBRANCH  13  14
ENDBRANCH   1  13
TORSDOF 20
ENDMDL
MODEL 5
REMARK VINA RESULT:    17.517      2.669      9.268
REMARK INTER + INTRA:          37.073
REMARK INTER:                  37.972
REMARK INTRA:                  -0.899
REMARK UNBOUND:                -0.926
REMARK SMILES CCCCCCCCCCCCCCCCCCCCCC(=O)[O-]
REMARK SMILES IDX 12 1 11 2 10 3 9 4 8 5 7 6 6 7 5 8 4 9 3 10 2 11 1 12 13 13
REMARK SMILES IDX 14 14 15 15 16 16 17 17 18 18 19 19 20 20 21 21 22 22 23 23
REMARK SMILES IDX 24 24
REMARK H PARENT
REMARK Flexibility Score: inf
ROOT
ATOM      1  C   UNL     1     -11.280  55.698  -3.950  1.00  0.00     0.000 C 
ENDROOT
BRANCH   1   2
ATOM      2  C   UNL     1     -10.302  54.679  -4.553  1.00  0.00     0.000 C 
BRANCH   2   3
ATOM      3  C   UNL     1      -9.178  54.345  -3.563  1.00  0.00     0.000 C 
BRANCH   3   4
ATOM      4  C   UNL     1      -8.285  53.217  -4.102  1.00  0.00    -0.000 C 
BRANCH   4   5
ATOM      5  C   UNL     1      -7.866  52.218  -3.011  1.00  0.00    -0.000 C 
BRANCH   5   6
ATOM      6  C   UNL     1      -8.917  51.120  -2.777  1.00  0.00    -0.000 C 
BRANCH   6   7
ATOM      7  C   UNL     1      -8.454  50.073  -1.751  1.00  0.00    -0.000 C 
BRANCH   7   8
ATOM      8  C   UNL     1      -9.589  49.129  -1.318  1.00  0.00    -0.000 C 
BRANCH   8   9
ATOM      9  C   UNL     1     -10.982  49.639  -1.730  1.00  0.00    -0.000 C 
BRANCH   9  10
ATOM     10  C   UNL     1     -11.455  49.190  -3.125  1.00  0.00    -0.000 C 
BRANCH  10  11
ATOM     11  C   UNL     1     -10.566  48.097  -3.733  1.00  0.00    -0.003 C 
ATOM     12  C   UNL     1      -9.774  48.632  -4.923  1.00  0.00     0.004 C 
ENDBRANCH  10  11
ENDBRANCH   9  10
ENDBRANCH   8   9
ENDBRANCH   7   8
ENDBRANCH   6   7
ENDBRANCH   5   6
ENDBRANCH   4   5
ENDBRANCH   3   4
ENDBRANCH   2   3
ENDBRANCH   1   2
BRANCH   1  13
ATOM     13  C   UNL     1     -10.753  57.140  -4.019  1.00  0.00     0.000 C 
BRANCH  13  14
ATOM     14  C   UNL     1     -11.682  58.140  -3.310  1.00  0.00     0.000 C 
BRANCH  14  15
ATOM     15  C   UNL     1     -13.146  58.017  -3.767  1.00  0.00     0.000 C 
BRANCH  15  16
ATOM     16  C   UNL     1     -13.756  59.372  -4.168  1.00  0.00     0.000 C 
BRANCH  16  17
ATOM     17  C   UNL     1     -15.292  59.334  -4.217  1.00  0.00     0.000 C 
BRANCH  17  18
ATOM     18  C   UNL     1     -15.936  59.968  -2.971  1.00  0.00     0.000 C 
BRANCH  18  19
ATOM     19  C   UNL     1     -17.329  59.392  -2.665  1.00  0.00     0.000 C 
BRANCH  19  20
ATOM     20  C   UNL     1     -17.270  58.118  -1.809  1.00  0.00     0.006 C 
BRANCH  20  21
ATOM     21  C   UNL     1     -17.897  56.933  -2.550  1.00  0.00     0.053 C 
BRANCH  21  22
ATOM     22  C   UNL     1     -16.835  56.075  -3.163  1.00  0.00     0.041 C 
ATOM     23  O   UNL     1     -15.702  55.985  -2.621  1.00  0.00    -0.550 OA
ATOM     24  O   UNL     1     -17.082  55.410  -4.358  1.00  0.00    -0.550 OA
ENDBRANCH  21  22
ENDBRANCH  20  21
ENDBRANCH  19  20
ENDBRANCH  18  19
ENDBRANCH  17  18
ENDBRANCH  16  17
ENDBRANCH  15  16
ENDBRANCH  14  15
ENDBRANCH  13  14
ENDBRANCH   1  13
TORSDOF 20
ENDMDL
