MODEL 1
REMARK VINA RESULT:    -7.775      0.000      0.000
REMARK INTER + INTRA:          -8.457
REMARK INTER:                  -8.457
REMARK INTRA:                   0.000
REMARK UNBOUND:                 0.000
REMARK SMILES Cc1cc(O)c2c(c1)C(=O)c1cc(O)cc(O)c1C2=O
REMARK SMILES IDX 1 1 2 2 8 3 7 4 6 5 4 6 3 7 19 8 20 9 18 10 11 11 9 12 10 13
REMARK SMILES IDX 12 14 13 15 15 16 16 17 5 18 17 20 14 22
REMARK H PARENT 5 19 17 21 14 23
REMARK Flexibility Score: inf
ROOT
ATOM      1  C   UNL     1     -10.785  -8.811  -0.019  1.00  0.00     0.044 C 
ATOM      2  C   UNL     1      -9.969  -8.049  -1.021  1.00  0.00    -0.047 A 
ATOM      3  C   UNL     1     -10.339  -8.040  -2.370  1.00  0.00     0.016 A 
ATOM      4  C   UNL     1      -9.597  -7.307  -3.312  1.00  0.00     0.038 A 
ATOM      5  C   UNL     1      -8.465  -6.571  -2.897  1.00  0.00     0.076 A 
ATOM      6  C   UNL     1      -8.145  -6.517  -1.515  1.00  0.00     0.127 A 
ATOM      7  C   UNL     1      -8.885  -7.270  -0.600  1.00  0.00     0.050 A 
ATOM      8  C   UNL     1      -7.621  -5.932  -3.938  1.00  0.00     0.201 C 
ATOM      9  O   UNL     1      -6.387  -5.781  -3.740  1.00  0.00    -0.288 OA
ATOM     10  C   UNL     1      -8.195  -5.646  -5.280  1.00  0.00     0.076 A 
ATOM     11  C   UNL     1      -9.329  -6.382  -5.691  1.00  0.00     0.041 A 
ATOM     12  C   UNL     1     -10.002  -7.297  -4.739  1.00  0.00     0.194 C 
ATOM     13  O   UNL     1     -10.935  -8.048  -5.135  1.00  0.00    -0.289 OA
ATOM     14  C   UNL     1      -9.818  -6.239  -7.001  1.00  0.00     0.059 A 
ATOM     15  C   UNL     1      -9.199  -5.363  -7.897  1.00  0.00     0.120 A 
ATOM     16  C   UNL     1      -8.105  -4.606  -7.482  1.00  0.00     0.093 A 
ATOM     17  C   UNL     1      -7.612  -4.714  -6.177  1.00  0.00     0.131 A 
ENDROOT
BRANCH   6  18
ATOM     18  O   UNL     1      -7.128  -5.704  -1.008  1.00  0.00    -0.507 OA
ATOM     19  H   UNL     1      -6.153  -5.810  -1.251  1.00  0.00     0.293 HD
ENDBRANCH   6  18
BRANCH  17  20
ATOM     20  O   UNL     1      -6.572  -3.857  -5.808  1.00  0.00    -0.507 OA
ATOM     21  H   UNL     1      -5.599  -4.046  -6.001  1.00  0.00     0.293 HD
ENDBRANCH  17  20
BRANCH  15  22
ATOM     22  O   UNL     1      -9.673  -5.229  -9.201  1.00  0.00    -0.508 OA
ATOM     23  H   UNL     1      -9.557  -4.368  -9.721  1.00  0.00     0.293 HD
ENDBRANCH  15  22
TORSDOF 3
ENDMDL
MODEL 2
REMARK VINA RESULT:    -7.438      2.125      3.832
REMARK INTER + INTRA:          -8.090
REMARK INTER:                  -8.090
REMARK INTRA:                   0.000
REMARK UNBOUND:                 0.000
REMARK SMILES Cc1cc(O)c2c(c1)C(=O)c1cc(O)cc(O)c1C2=O
REMARK SMILES IDX 1 1 2 2 8 3 7 4 6 5 4 6 3 7 19 8 20 9 18 10 11 11 9 12 10 13
REMARK SMILES IDX 12 14 13 15 15 16 16 17 5 18 17 20 14 22
REMARK H PARENT 5 19 17 21 14 23
REMARK Flexibility Score: inf
ROOT
ATOM      1  C   UNL     1      -9.749  -8.002  -1.193  1.00  0.00     0.044 C 
ATOM      2  C   UNL     1      -9.616  -7.570  -2.624  1.00  0.00    -0.047 A 
ATOM      3  C   UNL     1      -8.350  -7.451  -3.209  1.00  0.00     0.016 A 
ATOM      4  C   UNL     1      -8.217  -7.074  -4.556  1.00  0.00     0.038 A 
ATOM      5  C   UNL     1      -9.368  -6.813  -5.331  1.00  0.00     0.076 A 
ATOM      6  C   UNL     1     -10.649  -7.018  -4.756  1.00  0.00     0.127 A 
ATOM      7  C   UNL     1     -10.758  -7.373  -3.409  1.00  0.00     0.050 A 
ATOM      8  C   UNL     1      -9.185  -6.275  -6.703  1.00  0.00     0.201 C 
ATOM      9  O   UNL     1     -10.059  -5.518  -7.203  1.00  0.00    -0.288 OA
ATOM     10  C   UNL     1      -7.891  -6.475  -7.408  1.00  0.00     0.076 A 
ATOM     11  C   UNL     1      -6.741  -6.739  -6.629  1.00  0.00     0.041 A 
ATOM     12  C   UNL     1      -6.871  -6.956  -5.169  1.00  0.00     0.194 C 
ATOM     13  O   UNL     1      -5.839  -7.067  -4.452  1.00  0.00    -0.289 OA
ATOM     14  C   UNL     1      -5.479  -6.799  -7.245  1.00  0.00     0.059 A 
ATOM     15  C   UNL     1      -5.354  -6.614  -8.625  1.00  0.00     0.120 A 
ATOM     16  C   UNL     1      -6.491  -6.394  -9.400  1.00  0.00     0.093 A 
ATOM     17  C   UNL     1      -7.760  -6.350  -8.815  1.00  0.00     0.131 A 
ENDROOT
BRANCH   6  18
ATOM     18  O   UNL     1     -11.832  -6.916  -5.494  1.00  0.00    -0.507 OA
ATOM     19  H   UNL     1     -12.744  -7.135  -5.120  1.00  0.00     0.293 HD
ENDBRANCH   6  18
BRANCH  17  20
ATOM     20  O   UNL     1      -8.858  -6.218  -9.668  1.00  0.00    -0.507 OA
ATOM     21  H   UNL     1      -9.046  -6.845 -10.438  1.00  0.00     0.293 HD
ENDBRANCH  17  20
BRANCH  15  22
ATOM     22  O   UNL     1      -4.102  -6.659  -9.236  1.00  0.00    -0.508 OA
ATOM     23  H   UNL     1      -3.865  -7.382  -9.905  1.00  0.00     0.293 HD
ENDBRANCH  15  22
TORSDOF 3
ENDMDL
MODEL 3
REMARK VINA RESULT:    -7.245      1.099      3.382
REMARK INTER + INTRA:          -7.880
REMARK INTER:                  -7.880
REMARK INTRA:                   0.000
REMARK UNBOUND:                 0.000
REMARK SMILES Cc1cc(O)c2c(c1)C(=O)c1cc(O)cc(O)c1C2=O
REMARK SMILES IDX 1 1 2 2 8 3 7 4 6 5 4 6 3 7 19 8 20 9 18 10 11 11 9 12 10 13
REMARK SMILES IDX 12 14 13 15 15 16 16 17 5 18 17 20 14 22
REMARK H PARENT 5 19 17 21 14 23
REMARK Flexibility Score: inf
ROOT
ATOM      1  C   UNL     1     -10.124  -9.119  -0.248  1.00  0.00     0.044 C 
ATOM      2  C   UNL     1     -10.151  -8.512  -1.620  1.00  0.00    -0.047 A 
ATOM      3  C   UNL     1      -9.146  -7.625  -2.019  1.00  0.00     0.016 A 
ATOM      4  C   UNL     1      -9.148  -7.074  -3.311  1.00  0.00     0.038 A 
ATOM      5  C   UNL     1     -10.173  -7.416  -4.220  1.00  0.00     0.076 A 
ATOM      6  C   UNL     1     -11.142  -8.381  -3.838  1.00  0.00     0.127 A 
ATOM      7  C   UNL     1     -11.131  -8.900  -2.541  1.00  0.00     0.050 A 
ATOM      8  C   UNL     1     -10.226  -6.702  -5.522  1.00  0.00     0.201 C 
ATOM      9  O   UNL     1     -11.334  -6.518  -6.091  1.00  0.00    -0.288 OA
ATOM     10  C   UNL     1      -9.004  -6.044  -6.053  1.00  0.00     0.076 A 
ATOM     11  C   UNL     1      -7.978  -5.706  -5.141  1.00  0.00     0.041 A 
ATOM     12  C   UNL     1      -8.074  -6.139  -3.727  1.00  0.00     0.194 C 
ATOM     13  O   UNL     1      -7.228  -5.735  -2.883  1.00  0.00    -0.289 OA
ATOM     14  C   UNL     1      -6.869  -4.963  -5.581  1.00  0.00     0.059 A 
ATOM     15  C   UNL     1      -6.765  -4.568  -6.917  1.00  0.00     0.120 A 
ATOM     16  C   UNL     1      -7.755  -4.935  -7.827  1.00  0.00     0.093 A 
ATOM     17  C   UNL     1      -8.858  -5.692  -7.420  1.00  0.00     0.131 A 
ENDROOT
BRANCH   6  18
ATOM     18  O   UNL     1     -12.103  -8.875  -4.724  1.00  0.00    -0.507 OA
ATOM     19  H   UNL     1     -11.879  -9.298  -5.613  1.00  0.00     0.293 HD
ENDBRANCH   6  18
BRANCH  17  20
ATOM     20  O   UNL     1      -9.760  -6.099  -8.406  1.00  0.00    -0.507 OA
ATOM     21  H   UNL     1     -10.527  -6.733  -8.233  1.00  0.00     0.293 HD
ENDBRANCH  17  20
BRANCH  15  22
ATOM     22  O   UNL     1      -5.673  -3.820  -7.353  1.00  0.00    -0.508 OA
ATOM     23  H   UNL     1      -5.008  -4.192  -8.020  1.00  0.00     0.293 HD
ENDBRANCH  15  22
TORSDOF 3
ENDMDL
MODEL 4
REMARK VINA RESULT:    -6.687      2.069      6.313
REMARK INTER + INTRA:          -7.273
REMARK INTER:                  -7.273
REMARK INTRA:                   0.000
REMARK UNBOUND:                 0.000
REMARK SMILES Cc1cc(O)c2c(c1)C(=O)c1cc(O)cc(O)c1C2=O
REMARK SMILES IDX 1 1 2 2 8 3 7 4 6 5 4 6 3 7 19 8 20 9 18 10 11 11 9 12 10 13
REMARK SMILES IDX 12 14 13 15 15 16 16 17 5 18 17 20 14 22
REMARK H PARENT 5 19 17 21 14 23
REMARK Flexibility Score: inf
ROOT
ATOM      1  C   UNL     1      -4.605  -6.458  -9.736  1.00  0.00     0.044 C 
ATOM      2  C   UNL     1      -5.793  -6.426  -8.820  1.00  0.00    -0.047 A 
ATOM      3  C   UNL     1      -5.636  -6.684  -7.454  1.00  0.00     0.016 A 
ATOM      4  C   UNL     1      -6.737  -6.629  -6.583  1.00  0.00     0.038 A 
ATOM      5  C   UNL     1      -8.017  -6.310  -7.088  1.00  0.00     0.076 A 
ATOM      6  C   UNL     1      -8.155  -5.967  -8.458  1.00  0.00     0.127 A 
ATOM      7  C   UNL     1      -7.049  -6.049  -9.309  1.00  0.00     0.050 A 
ATOM      8  C   UNL     1      -9.180  -6.407  -6.168  1.00  0.00     0.201 C 
ATOM      9  O   UNL     1     -10.317  -6.702  -6.623  1.00  0.00    -0.288 OA
ATOM     10  C   UNL     1      -8.965  -6.344  -4.698  1.00  0.00     0.076 A 
ATOM     11  C   UNL     1      -7.682  -6.661  -4.197  1.00  0.00     0.041 A 
ATOM     12  C   UNL     1      -6.560  -6.898  -5.136  1.00  0.00     0.194 C 
ATOM     13  O   UNL     1      -5.447  -7.302  -4.700  1.00  0.00    -0.289 OA
ATOM     14  C   UNL     1      -7.476  -6.745  -2.809  1.00  0.00     0.059 A 
ATOM     15  C   UNL     1      -8.526  -6.503  -1.920  1.00  0.00     0.120 A 
ATOM     16  C   UNL     1      -9.782  -6.151  -2.411  1.00  0.00     0.093 A 
ATOM     17  C   UNL     1     -10.008  -6.040  -3.786  1.00  0.00     0.131 A 
ENDROOT
BRANCH   6  18
ATOM     18  O   UNL     1      -9.356  -5.508  -9.003  1.00  0.00    -0.507 OA
ATOM     19  H   UNL     1      -9.787  -4.631  -8.747  1.00  0.00     0.293 HD
ENDBRANCH   6  18
BRANCH  17  20
ATOM     20  O   UNL     1     -11.267  -5.594  -4.198  1.00  0.00    -0.507 OA
ATOM     21  H   UNL     1     -11.885  -6.134  -4.787  1.00  0.00     0.293 HD
ENDBRANCH  17  20
BRANCH  15  22
ATOM     22  O   UNL     1      -8.327  -6.599  -0.544  1.00  0.00    -0.508 OA
ATOM     23  H   UNL     1      -8.976  -6.187   0.115  1.00  0.00     0.293 HD
ENDBRANCH  15  22
TORSDOF 3
ENDMDL
MODEL 5
REMARK VINA RESULT:    -6.230      2.568      5.356
REMARK INTER + INTRA:          -6.776
REMARK INTER:                  -6.776
REMARK INTRA:                   0.000
REMARK UNBOUND:                 0.000
REMARK SMILES Cc1cc(O)c2c(c1)C(=O)c1cc(O)cc(O)c1C2=O
REMARK SMILES IDX 1 1 2 2 8 3 7 4 6 5 4 6 3 7 19 8 20 9 18 10 11 11 9 12 10 13
REMARK SMILES IDX 12 14 13 15 15 16 16 17 5 18 17 20 14 22
REMARK H PARENT 5 19 17 21 14 23
REMARK Flexibility Score: inf
ROOT
ATOM      1  C   UNL     1      -4.746  -6.206  -9.373  1.00  0.00     0.044 C 
ATOM      2  C   UNL     1      -5.753  -6.312  -8.266  1.00  0.00    -0.047 A 
ATOM      3  C   UNL     1      -7.075  -5.901  -8.473  1.00  0.00     0.016 A 
ATOM      4  C   UNL     1      -8.032  -6.022  -7.452  1.00  0.00     0.038 A 
ATOM      5  C   UNL     1      -7.661  -6.564  -6.201  1.00  0.00     0.076 A 
ATOM      6  C   UNL     1      -6.342  -7.057  -6.025  1.00  0.00     0.127 A 
ATOM      7  C   UNL     1      -5.402  -6.907  -7.048  1.00  0.00     0.050 A 
ATOM      8  C   UNL     1      -8.658  -6.539  -5.100  1.00  0.00     0.201 C 
ATOM      9  O   UNL     1      -8.271  -6.452  -3.905  1.00  0.00    -0.288 OA
ATOM     10  C   UNL     1     -10.106  -6.427  -5.419  1.00  0.00     0.076 A 
ATOM     11  C   UNL     1     -10.473  -5.887  -6.672  1.00  0.00     0.041 A 
ATOM     12  C   UNL     1      -9.431  -5.590  -7.683  1.00  0.00     0.194 C 
ATOM     13  O   UNL     1      -9.739  -4.993  -8.751  1.00  0.00    -0.289 OA
ATOM     14  C   UNL     1     -11.828  -5.638  -6.955  1.00  0.00     0.059 A 
ATOM     15  C   UNL     1     -12.815  -5.934  -6.013  1.00  0.00     0.120 A 
ATOM     16  C   UNL     1     -12.459  -6.504  -4.792  1.00  0.00     0.093 A 
ATOM     17  C   UNL     1     -11.122  -6.781  -4.493  1.00  0.00     0.131 A 
ENDROOT
BRANCH   6  18
ATOM     18  O   UNL     1      -5.936  -7.730  -4.870  1.00  0.00    -0.507 OA
ATOM     19  H   UNL     1      -5.473  -7.280  -4.093  1.00  0.00     0.293 HD
ENDBRANCH   6  18
BRANCH  17  20
ATOM     20  O   UNL     1     -10.853  -7.436  -3.289  1.00  0.00    -0.507 OA
ATOM     21  H   UNL     1     -10.530  -6.964  -2.456  1.00  0.00     0.293 HD
ENDBRANCH  17  20
BRANCH  15  22
ATOM     22  O   UNL     1     -14.157  -5.676  -6.286  1.00  0.00    -0.508 OA
ATOM     23  H   UNL     1     -14.592  -4.798  -6.027  1.00  0.00     0.293 HD
ENDBRANCH  15  22
TORSDOF 3
ENDMDL
MODEL 6
REMARK VINA RESULT:    -5.624      2.645      4.060
REMARK INTER + INTRA:          -6.118
REMARK INTER:                  -6.118
REMARK INTRA:                   0.000
REMARK UNBOUND:                 0.000
REMARK SMILES Cc1cc(O)c2c(c1)C(=O)c1cc(O)cc(O)c1C2=O
REMARK SMILES IDX 1 1 2 2 8 3 7 4 6 5 4 6 3 7 19 8 20 9 18 10 11 11 9 12 10 13
REMARK SMILES IDX 12 14 13 15 15 16 16 17 5 18 17 20 14 22
REMARK H PARENT 5 19 17 21 14 23
REMARK Flexibility Score: inf
ROOT
ATOM      1  C   UNL     1     -13.700  -4.326  -5.565  1.00  0.00     0.044 C 
ATOM      2  C   UNL     1     -12.341  -4.956  -5.478  1.00  0.00    -0.047 A 
ATOM      3  C   UNL     1     -11.539  -5.062  -6.620  1.00  0.00     0.016 A 
ATOM      4  C   UNL     1     -10.255  -5.626  -6.543  1.00  0.00     0.038 A 
ATOM      5  C   UNL     1      -9.763  -6.091  -5.304  1.00  0.00     0.076 A 
ATOM      6  C   UNL     1     -10.547  -5.904  -4.135  1.00  0.00     0.127 A 
ATOM      7  C   UNL     1     -11.830  -5.359  -4.240  1.00  0.00     0.050 A 
ATOM      8  C   UNL     1      -8.465  -6.813  -5.288  1.00  0.00     0.201 C 
ATOM      9  O   UNL     1      -8.253  -7.703  -4.423  1.00  0.00    -0.288 OA
ATOM     10  C   UNL     1      -7.499  -6.620  -6.401  1.00  0.00     0.076 A 
ATOM     11  C   UNL     1      -7.994  -6.152  -7.639  1.00  0.00     0.041 A 
ATOM     12  C   UNL     1      -9.409  -5.728  -7.758  1.00  0.00     0.194 C 
ATOM     13  O   UNL     1      -9.887  -5.429  -8.886  1.00  0.00    -0.289 OA
ATOM     14  C   UNL     1      -7.139  -6.086  -8.753  1.00  0.00     0.059 A 
ATOM     15  C   UNL     1      -5.799  -6.466  -8.642  1.00  0.00     0.120 A 
ATOM     16  C   UNL     1      -5.299  -6.890  -7.412  1.00  0.00     0.093 A 
ATOM     17  C   UNL     1      -6.123  -6.944  -6.284  1.00  0.00     0.131 A 
ENDROOT
BRANCH   6  18
ATOM     18  O   UNL     1     -10.077  -6.209  -2.855  1.00  0.00    -0.507 OA
ATOM     19  H   UNL     1      -9.549  -7.042  -2.638  1.00  0.00     0.293 HD
ENDBRANCH   6  18
BRANCH  17  20
ATOM     20  O   UNL     1      -5.529  -7.291  -5.068  1.00  0.00    -0.507 OA
ATOM     21  H   UNL     1      -4.529  -7.328  -4.926  1.00  0.00     0.293 HD
ENDBRANCH  17  20
BRANCH  15  22
ATOM     22  O   UNL     1      -4.952  -6.414  -9.748  1.00  0.00    -0.508 OA
ATOM     23  H   UNL     1      -4.234  -5.704  -9.833  1.00  0.00     0.293 HD
ENDBRANCH  15  22
TORSDOF 3
ENDMDL
MODEL 7
REMARK VINA RESULT:    -5.051      1.688      5.640
REMARK INTER + INTRA:          -5.494
REMARK INTER:                  -5.494
REMARK INTRA:                   0.000
REMARK UNBOUND:                 0.000
REMARK SMILES Cc1cc(O)c2c(c1)C(=O)c1cc(O)cc(O)c1C2=O
REMARK SMILES IDX 1 1 2 2 8 3 7 4 6 5 4 6 3 7 19 8 20 9 18 10 11 11 9 12 10 13
REMARK SMILES IDX 12 14 13 15 15 16 16 17 5 18 17 20 14 22
REMARK H PARENT 5 19 17 21 14 23
REMARK Flexibility Score: inf
ROOT
ATOM      1  C   UNL     1      -9.000  -6.128 -10.278  1.00  0.00     0.044 C 
ATOM      2  C   UNL     1      -8.415  -5.872  -8.921  1.00  0.00    -0.047 A 
ATOM      3  C   UNL     1      -9.132  -6.214  -7.769  1.00  0.00     0.016 A 
ATOM      4  C   UNL     1      -8.581  -6.004  -6.494  1.00  0.00     0.038 A 
ATOM      5  C   UNL     1      -7.291  -5.441  -6.368  1.00  0.00     0.076 A 
ATOM      6  C   UNL     1      -6.537  -5.175  -7.541  1.00  0.00     0.127 A 
ATOM      7  C   UNL     1      -7.113  -5.373  -8.798  1.00  0.00     0.050 A 
ATOM      8  C   UNL     1      -6.803  -5.096  -5.009  1.00  0.00     0.201 C 
ATOM      9  O   UNL     1      -6.003  -4.136  -4.854  1.00  0.00    -0.288 OA
ATOM     10  C   UNL     1      -7.402  -5.759  -3.820  1.00  0.00     0.076 A 
ATOM     11  C   UNL     1      -8.691  -6.323  -3.949  1.00  0.00     0.041 A 
ATOM     12  C   UNL     1      -9.345  -6.376  -5.278  1.00  0.00     0.194 C 
ATOM     13  O   UNL     1     -10.541  -6.763  -5.379  1.00  0.00    -0.289 OA
ATOM     14  C   UNL     1      -9.346  -6.836  -2.816  1.00  0.00     0.059 A 
ATOM     15  C   UNL     1      -8.726  -6.806  -1.564  1.00  0.00     0.120 A 
ATOM     16  C   UNL     1      -7.438  -6.287  -1.441  1.00  0.00     0.093 A 
ATOM     17  C   UNL     1      -6.757  -5.789  -2.556  1.00  0.00     0.131 A 
ENDROOT
BRANCH   6  18
ATOM     18  O   UNL     1      -5.206  -4.749  -7.501  1.00  0.00    -0.507 OA
ATOM     19  H   UNL     1      -4.417  -5.369  -7.621  1.00  0.00     0.293 HD
ENDBRANCH   6  18
BRANCH  17  20
ATOM     20  O   UNL     1      -5.437  -5.371  -2.371  1.00  0.00    -0.507 OA
ATOM     21  H   UNL     1      -4.658  -5.727  -2.907  1.00  0.00     0.293 HD
ENDBRANCH  17  20
BRANCH  15  22
ATOM     22  O   UNL     1      -9.378  -7.302  -0.437  1.00  0.00    -0.508 OA
ATOM     23  H   UNL     1      -9.119  -7.008   0.497  1.00  0.00     0.293 HD
ENDBRANCH  15  22
TORSDOF 3
ENDMDL
MODEL 8
REMARK VINA RESULT:    -5.029      2.030      3.619
REMARK INTER + INTRA:          -5.470
REMARK INTER:                  -5.470
REMARK INTRA:                   0.000
REMARK UNBOUND:                 0.000
REMARK SMILES Cc1cc(O)c2c(c1)C(=O)c1cc(O)cc(O)c1C2=O
REMARK SMILES IDX 1 1 2 2 8 3 7 4 6 5 4 6 3 7 19 8 20 9 18 10 11 11 9 12 10 13
REMARK SMILES IDX 12 14 13 15 15 16 16 17 5 18 17 20 14 22
REMARK H PARENT 5 19 17 21 14 23
REMARK Flexibility Score: inf
ROOT
ATOM      1  C   UNL     1     -14.263  -8.893  -5.632  1.00  0.00     0.044 C 
ATOM      2  C   UNL     1     -12.862  -8.536  -5.231  1.00  0.00    -0.047 A 
ATOM      3  C   UNL     1     -12.094  -7.686  -6.035  1.00  0.00     0.016 A 
ATOM      4  C   UNL     1     -10.791  -7.324  -5.653  1.00  0.00     0.038 A 
ATOM      5  C   UNL     1     -10.247  -7.819  -4.448  1.00  0.00     0.076 A 
ATOM      6  C   UNL     1     -11.061  -8.611  -3.596  1.00  0.00     0.127 A 
ATOM      7  C   UNL     1     -12.347  -8.975  -4.006  1.00  0.00     0.050 A 
ATOM      8  C   UNL     1      -8.820  -7.536  -4.151  1.00  0.00     0.201 C 
ATOM      9  O   UNL     1      -8.146  -8.355  -3.472  1.00  0.00    -0.288 OA
ATOM     10  C   UNL     1      -8.142  -6.390  -4.811  1.00  0.00     0.076 A 
ATOM     11  C   UNL     1      -8.690  -5.895  -6.016  1.00  0.00     0.041 A 
ATOM     12  C   UNL     1      -9.986  -6.418  -6.508  1.00  0.00     0.194 C 
ATOM     13  O   UNL     1     -10.417  -6.072  -7.642  1.00  0.00    -0.289 OA
ATOM     14  C   UNL     1      -8.004  -4.904  -6.740  1.00  0.00     0.059 A 
ATOM     15  C   UNL     1      -6.791  -4.393  -6.270  1.00  0.00     0.120 A 
ATOM     16  C   UNL     1      -6.269  -4.851  -5.062  1.00  0.00     0.093 A 
ATOM     17  C   UNL     1      -6.942  -5.821  -4.312  1.00  0.00     0.131 A 
ENDROOT
BRANCH   6  18
ATOM     18  O   UNL     1     -10.648  -9.023  -2.327  1.00  0.00    -0.507 OA
ATOM     19  H   UNL     1     -11.005  -9.846  -1.862  1.00  0.00     0.293 HD
ENDBRANCH   6  18
BRANCH  17  20
ATOM     20  O   UNL     1      -6.403  -6.161  -3.068  1.00  0.00    -0.507 OA
ATOM     21  H   UNL     1      -5.910  -7.025  -2.891  1.00  0.00     0.293 HD
ENDBRANCH  17  20
BRANCH  15  22
ATOM     22  O   UNL     1      -6.103  -3.421  -6.993  1.00  0.00    -0.508 OA
ATOM     23  H   UNL     1      -5.760  -2.576  -6.551  1.00  0.00     0.293 HD
ENDBRANCH  15  22
TORSDOF 3
ENDMDL
MODEL 9
REMARK VINA RESULT:    -4.978      5.099      6.964
REMARK INTER + INTRA:          -5.414
REMARK INTER:                  -5.414
REMARK INTRA:                   0.000
REMARK UNBOUND:                 0.000
REMARK SMILES Cc1cc(O)c2c(c1)C(=O)c1cc(O)cc(O)c1C2=O
REMARK SMILES IDX 1 1 2 2 8 3 7 4 6 5 4 6 3 7 19 8 20 9 18 10 11 11 9 12 10 13
REMARK SMILES IDX 12 14 13 15 15 16 16 17 5 18 17 20 14 22
REMARK H PARENT 5 19 17 21 14 23
REMARK Flexibility Score: inf
ROOT
ATOM      1  C   UNL     1      -8.864  -6.985  -5.071  1.00  0.00     0.044 C 
ATOM      2  C   UNL     1     -10.288  -6.527  -5.181  1.00  0.00    -0.047 A 
ATOM      3  C   UNL     1     -11.289  -7.424  -5.569  1.00  0.00     0.016 A 
ATOM      4  C   UNL     1     -12.630  -7.011  -5.647  1.00  0.00     0.038 A 
ATOM      5  C   UNL     1     -12.976  -5.679  -5.331  1.00  0.00     0.076 A 
ATOM      6  C   UNL     1     -11.969  -4.797  -4.858  1.00  0.00     0.127 A 
ATOM      7  C   UNL     1     -10.639  -5.224  -4.808  1.00  0.00     0.050 A 
ATOM      8  C   UNL     1     -14.375  -5.240  -5.568  1.00  0.00     0.201 C 
ATOM      9  O   UNL     1     -14.615  -4.039  -5.861  1.00  0.00    -0.288 OA
ATOM     10  C   UNL     1     -15.462  -6.251  -5.645  1.00  0.00     0.076 A 
ATOM     11  C   UNL     1     -15.112  -7.584  -5.958  1.00  0.00     0.041 A 
ATOM     12  C   UNL     1     -13.685  -7.971  -6.053  1.00  0.00     0.194 C 
ATOM     13  O   UNL     1     -13.368  -9.125  -6.453  1.00  0.00    -0.289 OA
ATOM     14  C   UNL     1     -16.122  -8.539  -6.173  1.00  0.00     0.059 A 
ATOM     15  C   UNL     1     -17.469  -8.183  -6.065  1.00  0.00     0.120 A 
ATOM     16  C   UNL     1     -17.815  -6.879  -5.717  1.00  0.00     0.093 A 
ATOM     17  C   UNL     1     -16.831  -5.916  -5.477  1.00  0.00     0.131 A 
ENDROOT
BRANCH   6  18
ATOM     18  O   UNL     1     -12.251  -3.510  -4.395  1.00  0.00    -0.507 OA
ATOM     19  H   UNL     1     -12.915  -3.313  -3.659  1.00  0.00     0.293 HD
ENDBRANCH   6  18
BRANCH  17  20
ATOM     20  O   UNL     1     -17.253  -4.657  -5.043  1.00  0.00    -0.507 OA
ATOM     21  H   UNL     1     -17.144  -3.813  -5.588  1.00  0.00     0.293 HD
ENDBRANCH  17  20
BRANCH  15  22
ATOM     22  O   UNL     1     -18.471  -9.124  -6.291  1.00  0.00    -0.508 OA
ATOM     23  H   UNL     1     -18.503  -9.671  -7.144  1.00  0.00     0.293 HD
ENDBRANCH  15  22
TORSDOF 3
ENDMDL
