MODEL 1
REMARK VINA RESULT:    -4.948      0.000      0.000
REMARK INTER + INTRA:         -11.292
REMARK INTER:                  -9.287
REMARK INTRA:                  -2.005
REMARK UNBOUND:                -2.005
REMARK SMILES O=C([O-])CCCCCCCCCCCCCCC(=O)[O-]
REMARK SMILES IDX 10 1 9 2 8 3 7 4 6 5 5 6 4 7 2 8 1 9 3 10 11 11 12 12 13 13
REMARK SMILES IDX 14 14 15 15 16 16 17 17 18 18 19 19 20 20
REMARK H PARENT
REMARK Flexibility Score: inf
ROOT
ATOM      1  C   UNL     1       8.248  19.899  30.619  1.00  0.00     0.000 C 
ENDROOT
BRANCH   1   2
ATOM      2  C   UNL     1       8.988  18.874  29.745  1.00  0.00     0.000 C 
BRANCH   2   3
ATOM      3  C   UNL     1       9.830  17.888  30.574  1.00  0.00     0.000 C 
BRANCH   3   4
ATOM      4  C   UNL     1      10.152  18.421  31.980  1.00  0.00     0.000 C 
BRANCH   4   5
ATOM      5  C   UNL     1       9.618  17.513  33.099  1.00  0.00     0.000 C 
BRANCH   5   6
ATOM      6  C   UNL     1       8.515  18.220  33.897  1.00  0.00     0.006 C 
BRANCH   6   7
ATOM      7  C   UNL     1       8.316  17.559  35.264  1.00  0.00     0.053 C 
BRANCH   7   8
ATOM      8  C   UNL     1       9.453  17.892  36.177  1.00  0.00     0.041 C 
ATOM      9  O   UNL     1       9.852  19.082  36.284  1.00  0.00    -0.550 OA
ATOM     10  O   UNL     1      10.049  16.893  36.937  1.00  0.00    -0.550 OA
ENDBRANCH   7   8
ENDBRANCH   6   7
ENDBRANCH   5   6
ENDBRANCH   4   5
ENDBRANCH   3   4
ENDBRANCH   2   3
ENDBRANCH   1   2
BRANCH   1  11
ATOM     11  C   UNL     1       8.290  21.323  30.033  1.00  0.00     0.000 C 
BRANCH  11  12
ATOM     12  C   UNL     1       8.865  22.347  31.034  1.00  0.00     0.000 C 
BRANCH  12  13
ATOM     13  C   UNL     1       8.631  21.971  32.511  1.00  0.00     0.000 C 
BRANCH  13  14
ATOM     14  C   UNL     1       9.906  21.857  33.365  1.00  0.00     0.000 C 
BRANCH  14  15
ATOM     15  C   UNL     1      11.194  22.019  32.539  1.00  0.00     0.000 C 
BRANCH  15  16
ATOM     16  C   UNL     1      11.954  23.317  32.860  1.00  0.00     0.006 C 
BRANCH  16  17
ATOM     17  C   UNL     1      12.060  24.292  31.674  1.00  0.00     0.053 C 
BRANCH  17  18
ATOM     18  C   UNL     1      11.150  25.475  31.813  1.00  0.00     0.041 C 
ATOM     19  O   UNL     1      10.048  25.364  32.411  1.00  0.00    -0.550 OA
ATOM     20  O   UNL     1      11.540  26.712  31.316  1.00  0.00    -0.550 OA
ENDBRANCH  17  18
ENDBRANCH  16  17
ENDBRANCH  15  16
ENDBRANCH  14  15
ENDBRANCH  13  14
ENDBRANCH  12  13
ENDBRANCH  11  12
ENDBRANCH   1  11
TORSDOF 15
ENDMDL
MODEL 2
REMARK VINA RESULT:    -4.935      2.123      5.959
REMARK INTER + INTRA:         -11.267
REMARK INTER:                  -9.621
REMARK INTRA:                  -1.646
REMARK UNBOUND:                -2.005
REMARK SMILES O=C([O-])CCCCCCCCCCCCCCC(=O)[O-]
REMARK SMILES IDX 10 1 9 2 8 3 7 4 6 5 5 6 4 7 2 8 1 9 3 10 11 11 12 12 13 13
REMARK SMILES IDX 14 14 15 15 16 16 17 17 18 18 19 19 20 20
REMARK H PARENT
REMARK Flexibility Score: inf
ROOT
ATOM      1  C   UNL     1       8.281  19.566  30.594  1.00  0.00     0.000 C 
ENDROOT
BRANCH   1   2
ATOM      2  C   UNL     1       8.149  20.362  29.286  1.00  0.00     0.000 C 
BRANCH   2   3
ATOM      3  C   UNL     1       7.906  21.862  29.528  1.00  0.00     0.000 C 
BRANCH   3   4
ATOM      4  C   UNL     1       8.052  22.255  31.007  1.00  0.00     0.000 C 
BRANCH   4   5
ATOM      5  C   UNL     1       9.372  22.985  31.301  1.00  0.00     0.000 C 
BRANCH   5   6
ATOM      6  C   UNL     1      10.199  22.222  32.344  1.00  0.00     0.006 C 
BRANCH   6   7
ATOM      7  C   UNL     1       9.297  21.609  33.419  1.00  0.00     0.053 C 
BRANCH   7   8
ATOM      8  C   UNL     1       9.351  22.422  34.674  1.00  0.00     0.041 C 
ATOM      9  O   UNL     1       9.813  21.921  35.734  1.00  0.00    -0.550 OA
ATOM     10  O   UNL     1       8.924  23.745  34.665  1.00  0.00    -0.550 OA
ENDBRANCH   7   8
ENDBRANCH   6   7
ENDBRANCH   5   6
ENDBRANCH   4   5
ENDBRANCH   3   4
ENDBRANCH   2   3
ENDBRANCH   1   2
BRANCH   1  11
ATOM     11  C   UNL     1       9.443  18.557  30.563  1.00  0.00     0.000 C 
BRANCH  11  12
ATOM     12  C   UNL     1       9.733  17.959  31.956  1.00  0.00     0.000 C 
BRANCH  12  13
ATOM     13  C   UNL     1       8.574  18.129  32.958  1.00  0.00     0.000 C 
BRANCH  13  14
ATOM     14  C   UNL     1       8.799  17.476  34.334  1.00  0.00     0.000 C 
BRANCH  14  15
ATOM     15  C   UNL     1       7.951  18.118  35.445  1.00  0.00     0.000 C 
BRANCH  15  16
ATOM     16  C   UNL     1       8.799  18.662  36.609  1.00  0.00     0.006 C 
BRANCH  16  17
ATOM     17  C   UNL     1       7.983  19.393  37.690  1.00  0.00     0.053 C 
BRANCH  17  18
ATOM     18  C   UNL     1       8.798  19.730  38.902  1.00  0.00     0.041 C 
ATOM     19  O   UNL     1       8.986  18.870  39.802  1.00  0.00    -0.550 OA
ATOM     20  O   UNL     1       9.383  20.985  39.017  1.00  0.00    -0.550 OA
ENDBRANCH  17  18
ENDBRANCH  16  17
ENDBRANCH  15  16
ENDBRANCH  14  15
ENDBRANCH  13  14
ENDBRANCH  12  13
ENDBRANCH  11  12
ENDBRANCH   1  11
TORSDOF 15
ENDMDL
MODEL 3
REMARK VINA RESULT:    -4.876      1.863      2.965
REMARK INTER + INTRA:         -11.156
REMARK INTER:                  -9.115
REMARK INTRA:                  -2.041
REMARK UNBOUND:                -2.005
REMARK SMILES O=C([O-])CCCCCCCCCCCCCCC(=O)[O-]
REMARK SMILES IDX 10 1 9 2 8 3 7 4 6 5 5 6 4 7 2 8 1 9 3 10 11 11 12 12 13 13
REMARK SMILES IDX 14 14 15 15 16 16 17 17 18 18 19 19 20 20
REMARK H PARENT
REMARK Flexibility Score: inf
ROOT
ATOM      1  C   UNL     1       8.122  21.259  30.060  1.00  0.00     0.000 C 
ENDROOT
BRANCH   1   2
ATOM      2  C   UNL     1       8.413  19.996  30.885  1.00  0.00     0.000 C 
BRANCH   2   3
ATOM      3  C   UNL     1       9.022  18.864  30.038  1.00  0.00     0.000 C 
BRANCH   3   4
ATOM      4  C   UNL     1       9.757  17.816  30.890  1.00  0.00     0.000 C 
BRANCH   4   5
ATOM      5  C   UNL     1      10.297  18.392  32.208  1.00  0.00     0.000 C 
BRANCH   5   6
ATOM      6  C   UNL     1       9.880  17.519  33.398  1.00  0.00     0.006 C 
BRANCH   6   7
ATOM      7  C   UNL     1       8.598  18.049  34.046  1.00  0.00     0.053 C 
BRANCH   7   8
ATOM      8  C   UNL     1       8.585  17.741  35.510  1.00  0.00     0.041 C 
ATOM      9  O   UNL     1       7.876  18.426  36.295  1.00  0.00    -0.550 OA
ATOM     10  O   UNL     1       9.328  16.676  36.004  1.00  0.00    -0.550 OA
ENDBRANCH   7   8
ENDBRANCH   6   7
ENDBRANCH   5   6
ENDBRANCH   4   5
ENDBRANCH   3   4
ENDBRANCH   2   3
ENDBRANCH   1   2
BRANCH   1  11
ATOM     11  C   UNL     1       7.994  22.523  30.931  1.00  0.00     0.000 C 
BRANCH  11  12
ATOM     12  C   UNL     1       9.068  22.578  32.038  1.00  0.00     0.000 C 
BRANCH  12  13
ATOM     13  C   UNL     1      10.250  23.512  31.711  1.00  0.00     0.000 C 
BRANCH  13  14
ATOM     14  C   UNL     1      11.582  23.140  32.386  1.00  0.00     0.000 C 
BRANCH  14  15
ATOM     15  C   UNL     1      11.659  21.653  32.773  1.00  0.00     0.000 C 
BRANCH  15  16
ATOM     16  C   UNL     1      11.910  21.435  34.275  1.00  0.00     0.006 C 
BRANCH  16  17
ATOM     17  C   UNL     1      10.690  20.896  35.043  1.00  0.00     0.053 C 
BRANCH  17  18
ATOM     18  C   UNL     1      10.015  21.948  35.871  1.00  0.00     0.041 C 
ATOM     19  O   UNL     1      10.318  23.161  35.727  1.00  0.00    -0.550 OA
ATOM     20  O   UNL     1       9.023  21.589  36.774  1.00  0.00    -0.550 OA
ENDBRANCH  17  18
ENDBRANCH  16  17
ENDBRANCH  15  16
ENDBRANCH  14  15
ENDBRANCH  13  14
ENDBRANCH  12  13
ENDBRANCH  11  12
ENDBRANCH   1  11
TORSDOF 15
ENDMDL
MODEL 4
REMARK VINA RESULT:    -4.844      1.982      6.397
REMARK INTER + INTRA:         -11.096
REMARK INTER:                  -9.512
REMARK INTRA:                  -1.583
REMARK UNBOUND:                -2.005
REMARK SMILES O=C([O-])CCCCCCCCCCCCCCC(=O)[O-]
REMARK SMILES IDX 10 1 9 2 8 3 7 4 6 5 5 6 4 7 2 8 1 9 3 10 11 11 12 12 13 13
REMARK SMILES IDX 14 14 15 15 16 16 17 17 18 18 19 19 20 20
REMARK H PARENT
REMARK Flexibility Score: inf
ROOT
ATOM      1  C   UNL     1      10.037  18.556  31.778  1.00  0.00     0.000 C 
ENDROOT
BRANCH   1   2
ATOM      2  C   UNL     1       9.815  17.950  30.382  1.00  0.00     0.000 C 
BRANCH   2   3
ATOM      3  C   UNL     1       8.947  18.846  29.481  1.00  0.00     0.000 C 
BRANCH   3   4
ATOM      4  C   UNL     1       8.193  19.929  30.270  1.00  0.00     0.000 C 
BRANCH   4   5
ATOM      5  C   UNL     1       8.021  21.234  29.476  1.00  0.00     0.000 C 
BRANCH   5   6
ATOM      6  C   UNL     1       8.090  22.452  30.405  1.00  0.00     0.006 C 
BRANCH   6   7
ATOM      7  C   UNL     1       8.715  22.082  31.753  1.00  0.00     0.053 C 
BRANCH   7   8
ATOM      8  C   UNL     1      10.069  22.701  31.892  1.00  0.00     0.041 C 
ATOM      9  O   UNL     1      11.032  22.025  32.340  1.00  0.00    -0.550 OA
ATOM     10  O   UNL     1      10.276  24.016  31.492  1.00  0.00    -0.550 OA
ENDBRANCH   7   8
ENDBRANCH   6   7
ENDBRANCH   5   6
ENDBRANCH   4   5
ENDBRANCH   3   4
ENDBRANCH   2   3
ENDBRANCH   1   2
BRANCH   1  11
ATOM     11  C   UNL     1       9.422  17.702  32.902  1.00  0.00     0.000 C 
BRANCH  11  12
ATOM     12  C   UNL     1       8.286  18.442  33.640  1.00  0.00     0.000 C 
BRANCH  12  13
ATOM     13  C   UNL     1       8.288  18.220  35.165  1.00  0.00     0.000 C 
BRANCH  13  14
ATOM     14  C   UNL     1       8.833  16.856  35.626  1.00  0.00     0.000 C 
BRANCH  14  15
ATOM     15  C   UNL     1      10.030  16.984  36.582  1.00  0.00     0.000 C 
BRANCH  15  16
ATOM     16  C   UNL     1      10.956  18.163  36.232  1.00  0.00     0.006 C 
BRANCH  16  17
ATOM     17  C   UNL     1      12.151  17.779  35.342  1.00  0.00     0.053 C 
BRANCH  17  18
ATOM     18  C   UNL     1      13.257  17.119  36.109  1.00  0.00     0.041 C 
ATOM     19  O   UNL     1      13.340  15.864  36.152  1.00  0.00    -0.550 OA
ATOM     20  O   UNL     1      14.219  17.894  36.744  1.00  0.00    -0.550 OA
ENDBRANCH  17  18
ENDBRANCH  16  17
ENDBRANCH  15  16
ENDBRANCH  14  15
ENDBRANCH  13  14
ENDBRANCH  12  13
ENDBRANCH  11  12
ENDBRANCH   1  11
TORSDOF 15
ENDMDL
MODEL 5
REMARK VINA RESULT:    -4.835      1.281      2.578
REMARK INTER + INTRA:         -11.080
REMARK INTER:                  -9.554
REMARK INTRA:                  -1.526
REMARK UNBOUND:                -2.005
REMARK SMILES O=C([O-])CCCCCCCCCCCCCCC(=O)[O-]
REMARK SMILES IDX 10 1 9 2 8 3 7 4 6 5 5 6 4 7 2 8 1 9 3 10 11 11 12 12 13 13
REMARK SMILES IDX 14 14 15 15 16 16 17 17 18 18 19 19 20 20
REMARK H PARENT
REMARK Flexibility Score: inf
ROOT
ATOM      1  C   UNL     1       9.921  17.680  30.723  1.00  0.00     0.000 C 
ENDROOT
BRANCH   1   2
ATOM      2  C   UNL     1      10.200  18.408  32.048  1.00  0.00     0.000 C 
BRANCH   2   3
ATOM      3  C   UNL     1       9.686  17.628  33.271  1.00  0.00     0.000 C 
BRANCH   3   4
ATOM      4  C   UNL     1       8.374  18.201  33.831  1.00  0.00     0.000 C 
BRANCH   4   5
ATOM      5  C   UNL     1       8.463  19.705  34.137  1.00  0.00     0.000 C 
BRANCH   5   6
ATOM      6  C   UNL     1       9.062  19.945  35.529  1.00  0.00     0.006 C 
BRANCH   6   7
ATOM      7  C   UNL     1       8.518  18.934  36.543  1.00  0.00     0.053 C 
BRANCH   7   8
ATOM      8  C   UNL     1       9.642  18.260  37.265  1.00  0.00     0.041 C 
ATOM      9  O   UNL     1      10.017  17.109  36.917  1.00  0.00    -0.550 OA
ATOM     10  O   UNL     1      10.298  18.917  38.299  1.00  0.00    -0.550 OA
ENDBRANCH   7   8
ENDBRANCH   6   7
ENDBRANCH   5   6
ENDBRANCH   4   5
ENDBRANCH   3   4
ENDBRANCH   2   3
ENDBRANCH   1   2
BRANCH   1  11
ATOM     11  C   UNL     1       9.132  18.544  29.723  1.00  0.00     0.000 C 
BRANCH  11  12
ATOM     12  C   UNL     1       8.389  19.706  30.417  1.00  0.00     0.000 C 
BRANCH  12  13
ATOM     13  C   UNL     1       8.015  20.860  29.466  1.00  0.00     0.000 C 
BRANCH  13  14
ATOM     14  C   UNL     1       8.188  22.272  30.055  1.00  0.00     0.000 C 
BRANCH  14  15
ATOM     15  C   UNL     1       8.912  22.268  31.411  1.00  0.00     0.000 C 
BRANCH  15  16
ATOM     16  C   UNL     1       9.841  23.481  31.600  1.00  0.00     0.006 C 
BRANCH  16  17
ATOM     17  C   UNL     1      11.193  23.140  32.253  1.00  0.00     0.053 C 
BRANCH  17  18
ATOM     18  C   UNL     1      12.123  24.313  32.306  1.00  0.00     0.041 C 
ATOM     19  O   UNL     1      12.571  24.819  31.243  1.00  0.00    -0.550 OA
ATOM     20  O   UNL     1      12.465  24.873  33.530  1.00  0.00    -0.550 OA
ENDBRANCH  17  18
ENDBRANCH  16  17
ENDBRANCH  15  16
ENDBRANCH  14  15
ENDBRANCH  13  14
ENDBRANCH  12  13
ENDBRANCH  11  12
ENDBRANCH   1  11
TORSDOF 15
ENDMDL
MODEL 6
REMARK VINA RESULT:    -4.831      1.718      3.111
REMARK INTER + INTRA:         -11.072
REMARK INTER:                  -9.288
REMARK INTRA:                  -1.784
REMARK UNBOUND:                -2.005
REMARK SMILES O=C([O-])CCCCCCCCCCCCCCC(=O)[O-]
REMARK SMILES IDX 10 1 9 2 8 3 7 4 6 5 5 6 4 7 2 8 1 9 3 10 11 11 12 12 13 13
REMARK SMILES IDX 14 14 15 15 16 16 17 17 18 18 19 19 20 20
REMARK H PARENT
REMARK Flexibility Score: inf
ROOT
ATOM      1  C   UNL     1       9.906  17.703  30.759  1.00  0.00     0.000 C 
ENDROOT
BRANCH   1   2
ATOM      2  C   UNL     1      10.207  18.429  32.080  1.00  0.00     0.000 C 
BRANCH   2   3
ATOM      3  C   UNL     1       9.807  17.601  33.315  1.00  0.00     0.000 C 
BRANCH   3   4
ATOM      4  C   UNL     1       8.470  18.053  33.924  1.00  0.00     0.000 C 
BRANCH   4   5
ATOM      5  C   UNL     1       8.355  19.582  34.041  1.00  0.00     0.000 C 
BRANCH   5   6
ATOM      6  C   UNL     1       9.113  20.094  35.272  1.00  0.00     0.006 C 
BRANCH   6   7
ATOM      7  C   UNL     1       9.971  21.313  34.922  1.00  0.00     0.053 C 
BRANCH   7   8
ATOM      8  C   UNL     1       9.780  22.397  35.936  1.00  0.00     0.041 C 
ATOM      9  O   UNL     1       9.918  23.605  35.605  1.00  0.00    -0.550 OA
ATOM     10  O   UNL     1       9.414  22.075  37.237  1.00  0.00    -0.550 OA
ENDBRANCH   7   8
ENDBRANCH   6   7
ENDBRANCH   5   6
ENDBRANCH   4   5
ENDBRANCH   3   4
ENDBRANCH   2   3
ENDBRANCH   1   2
BRANCH   1  11
ATOM     11  C   UNL     1       9.103  18.571  29.772  1.00  0.00     0.000 C 
BRANCH  11  12
ATOM     12  C   UNL     1       8.335  19.704  30.485  1.00  0.00     0.000 C 
BRANCH  12  13
ATOM     13  C   UNL     1       8.004  20.900  29.571  1.00  0.00     0.000 C 
BRANCH  13  14
ATOM     14  C   UNL     1       8.128  22.283  30.236  1.00  0.00     0.000 C 
BRANCH  14  15
ATOM     15  C   UNL     1       9.040  22.270  31.474  1.00  0.00     0.000 C 
BRANCH  15  16
ATOM     16  C   UNL     1       9.716  23.627  31.737  1.00  0.00     0.006 C 
BRANCH  16  17
ATOM     17  C   UNL     1      11.202  23.523  32.123  1.00  0.00     0.053 C 
BRANCH  17  18
ATOM     18  C   UNL     1      11.994  24.726  31.708  1.00  0.00     0.041 C 
ATOM     19  O   UNL     1      13.241  24.643  31.550  1.00  0.00    -0.550 OA
ATOM     20  O   UNL     1      11.348  25.930  31.459  1.00  0.00    -0.550 OA
ENDBRANCH  17  18
ENDBRANCH  16  17
ENDBRANCH  15  16
ENDBRANCH  14  15
ENDBRANCH  13  14
ENDBRANCH  12  13
ENDBRANCH  11  12
ENDBRANCH   1  11
TORSDOF 15
ENDMDL
MODEL 7
REMARK VINA RESULT:    -4.827      2.591      5.243
REMARK INTER + INTRA:         -11.065
REMARK INTER:                  -9.286
REMARK INTRA:                  -1.779
REMARK UNBOUND:                -2.005
REMARK SMILES O=C([O-])CCCCCCCCCCCCCCC(=O)[O-]
REMARK SMILES IDX 10 1 9 2 8 3 7 4 6 5 5 6 4 7 2 8 1 9 3 10 11 11 12 12 13 13
REMARK SMILES IDX 14 14 15 15 16 16 17 17 18 18 19 19 20 20
REMARK H PARENT
REMARK Flexibility Score: inf
ROOT
ATOM      1  C   UNL     1      10.164  18.311  32.603  1.00  0.00     0.000 C 
ENDROOT
BRANCH   1   2
ATOM      2  C   UNL     1      10.017  17.616  31.239  1.00  0.00     0.000 C 
BRANCH   2   3
ATOM      3  C   UNL     1       9.277  18.488  30.209  1.00  0.00     0.000 C 
BRANCH   3   4
ATOM      4  C   UNL     1       8.408  19.573  30.865  1.00  0.00     0.000 C 
BRANCH   4   5
ATOM      5  C   UNL     1       8.170  20.782  29.946  1.00  0.00     0.000 C 
BRANCH   5   6
ATOM      6  C   UNL     1       7.878  22.044  30.768  1.00  0.00     0.006 C 
BRANCH   6   7
ATOM      7  C   UNL     1       8.608  22.005  32.114  1.00  0.00     0.053 C 
BRANCH   7   8
ATOM      8  C   UNL     1       9.990  22.561  31.976  1.00  0.00     0.041 C 
ATOM      9  O   UNL     1      10.164  23.715  31.502  1.00  0.00    -0.550 OA
ATOM     10  O   UNL     1      11.084  21.819  32.405  1.00  0.00    -0.550 OA
ENDBRANCH   7   8
ENDBRANCH   6   7
ENDBRANCH   5   6
ENDBRANCH   4   5
ENDBRANCH   3   4
ENDBRANCH   2   3
ENDBRANCH   1   2
BRANCH   1  11
ATOM     11  C   UNL     1       9.913  17.358  33.786  1.00  0.00     0.000 C 
BRANCH  11  12
ATOM     12  C   UNL     1       8.551  17.616  34.463  1.00  0.00     0.000 C 
BRANCH  12  13
ATOM     13  C   UNL     1       8.193  19.110  34.591  1.00  0.00     0.000 C 
BRANCH  13  14
ATOM     14  C   UNL     1       8.641  19.779  35.902  1.00  0.00     0.000 C 
BRANCH  14  15
ATOM     15  C   UNL     1       9.772  20.801  35.695  1.00  0.00     0.000 C 
BRANCH  15  16
ATOM     16  C   UNL     1       9.289  22.259  35.789  1.00  0.00     0.006 C 
BRANCH  16  17
ATOM     17  C   UNL     1       8.696  22.636  37.159  1.00  0.00     0.053 C 
BRANCH  17  18
ATOM     18  C   UNL     1       9.684  23.327  38.049  1.00  0.00     0.041 C 
ATOM     19  O   UNL     1       9.949  24.546  37.878  1.00  0.00    -0.550 OA
ATOM     20  O   UNL     1      10.283  22.633  39.092  1.00  0.00    -0.550 OA
ENDBRANCH  17  18
ENDBRANCH  16  17
ENDBRANCH  15  16
ENDBRANCH  14  15
ENDBRANCH  13  14
ENDBRANCH  12  13
ENDBRANCH  11  12
ENDBRANCH   1  11
TORSDOF 15
ENDMDL
MODEL 8
REMARK VINA RESULT:    -4.827      2.570      5.848
REMARK INTER + INTRA:         -11.064
REMARK INTER:                  -9.744
REMARK INTRA:                  -1.321
REMARK UNBOUND:                -2.005
REMARK SMILES O=C([O-])CCCCCCCCCCCCCCC(=O)[O-]
REMARK SMILES IDX 10 1 9 2 8 3 7 4 6 5 5 6 4 7 2 8 1 9 3 10 11 11 12 12 13 13
REMARK SMILES IDX 14 14 15 15 16 16 17 17 18 18 19 19 20 20
REMARK H PARENT
REMARK Flexibility Score: inf
ROOT
ATOM      1  C   UNL     1       8.021  21.881  29.668  1.00  0.00     0.000 C 
ENDROOT
BRANCH   1   2
ATOM      2  C   UNL     1       8.005  22.141  31.183  1.00  0.00     0.000 C 
BRANCH   2   3
ATOM      3  C   UNL     1       9.229  22.945  31.657  1.00  0.00     0.000 C 
BRANCH   3   4
ATOM      4  C   UNL     1       8.973  23.692  32.976  1.00  0.00     0.000 C 
BRANCH   4   5
ATOM      5  C   UNL     1       8.952  22.756  34.196  1.00  0.00     0.000 C 
BRANCH   5   6
ATOM      6  C   UNL     1       9.629  23.416  35.403  1.00  0.00     0.006 C 
BRANCH   6   7
ATOM      7  C   UNL     1       9.187  22.755  36.712  1.00  0.00     0.053 C 
BRANCH   7   8
ATOM      8  C   UNL     1       9.682  23.535  37.887  1.00  0.00     0.041 C 
ATOM      9  O   UNL     1      10.118  24.707  37.731  1.00  0.00    -0.550 OA
ATOM     10  O   UNL     1       9.630  22.983  39.161  1.00  0.00    -0.550 OA
ENDBRANCH   7   8
ENDBRANCH   6   7
ENDBRANCH   5   6
ENDBRANCH   4   5
ENDBRANCH   3   4
ENDBRANCH   2   3
ENDBRANCH   1   2
BRANCH   1  11
ATOM     11  C   UNL     1       8.189  20.390  29.321  1.00  0.00     0.000 C 
BRANCH  11  12
ATOM     12  C   UNL     1       8.303  19.509  30.583  1.00  0.00     0.000 C 
BRANCH  12  13
ATOM     13  C   UNL     1       9.531  18.576  30.580  1.00  0.00     0.000 C 
BRANCH  13  14
ATOM     14  C   UNL     1       9.714  17.735  31.856  1.00  0.00     0.000 C 
BRANCH  14  15
ATOM     15  C   UNL     1      10.482  18.483  32.959  1.00  0.00     0.000 C 
BRANCH  15  16
ATOM     16  C   UNL     1       9.563  19.309  33.876  1.00  0.00     0.006 C 
BRANCH  16  17
ATOM     17  C   UNL     1       8.180  18.675  34.114  1.00  0.00     0.053 C 
BRANCH  17  18
ATOM     18  C   UNL     1       8.106  17.912  35.402  1.00  0.00     0.041 C 
ATOM     19  O   UNL     1       8.095  16.653  35.397  1.00  0.00    -0.550 OA
ATOM     20  O   UNL     1       8.088  18.594  36.612  1.00  0.00    -0.550 OA
ENDBRANCH  17  18
ENDBRANCH  16  17
ENDBRANCH  15  16
ENDBRANCH  14  15
ENDBRANCH  13  14
ENDBRANCH  12  13
ENDBRANCH  11  12
ENDBRANCH   1  11
TORSDOF 15
ENDMDL
MODEL 9
REMARK VINA RESULT:    -4.792      2.253      3.174
REMARK INTER + INTRA:         -10.999
REMARK INTER:                  -9.176
REMARK INTRA:                  -1.823
REMARK UNBOUND:                -2.005
REMARK SMILES O=C([O-])CCCCCCCCCCCCCCC(=O)[O-]
REMARK SMILES IDX 10 1 9 2 8 3 7 4 6 5 5 6 4 7 2 8 1 9 3 10 11 11 12 12 13 13
REMARK SMILES IDX 14 14 15 15 16 16 17 17 18 18 19 19 20 20
REMARK H PARENT
REMARK Flexibility Score: inf
ROOT
ATOM      1  C   UNL     1       8.733  19.338  30.052  1.00  0.00     0.000 C 
ENDROOT
BRANCH   1   2
ATOM      2  C   UNL     1       9.606  18.252  30.702  1.00  0.00     0.000 C 
BRANCH   2   3
ATOM      3  C   UNL     1      10.128  18.666  32.090  1.00  0.00     0.000 C 
BRANCH   3   4
ATOM      4  C   UNL     1       9.632  17.738  33.210  1.00  0.00     0.000 C 
BRANCH   4   5
ATOM      5  C   UNL     1       8.247  18.137  33.745  1.00  0.00     0.000 C 
BRANCH   5   6
ATOM      6  C   UNL     1       8.360  19.287  34.753  1.00  0.00     0.006 C 
BRANCH   6   7
ATOM      7  C   UNL     1       7.985  18.821  36.163  1.00  0.00     0.053 C 
BRANCH   7   8
ATOM      8  C   UNL     1       9.215  18.543  36.968  1.00  0.00     0.041 C 
ATOM      9  O   UNL     1       9.824  17.448  36.837  1.00  0.00    -0.550 OA
ATOM     10  O   UNL     1       9.711  19.509  37.836  1.00  0.00    -0.550 OA
ENDBRANCH   7   8
ENDBRANCH   6   7
ENDBRANCH   5   6
ENDBRANCH   4   5
ENDBRANCH   3   4
ENDBRANCH   2   3
ENDBRANCH   1   2
BRANCH   1  11
ATOM     11  C   UNL     1       8.245  20.393  31.062  1.00  0.00     0.000 C 
BRANCH  11  12
ATOM     12  C   UNL     1       8.249  21.816  30.465  1.00  0.00     0.000 C 
BRANCH  12  13
ATOM     13  C   UNL     1       9.118  22.817  31.252  1.00  0.00     0.000 C 
BRANCH  13  14
ATOM     14  C   UNL     1       9.727  22.269  32.555  1.00  0.00     0.000 C 
BRANCH  14  15
ATOM     15  C   UNL     1       9.106  22.898  33.814  1.00  0.00     0.000 C 
BRANCH  15  16
ATOM     16  C   UNL     1       9.930  22.634  35.087  1.00  0.00     0.006 C 
BRANCH  16  17
ATOM     17  C   UNL     1       9.098  22.624  36.382  1.00  0.00     0.053 C 
BRANCH  17  18
ATOM     18  C   UNL     1       9.616  23.582  37.411  1.00  0.00     0.041 C 
ATOM     19  O   UNL     1       9.285  23.458  38.620  1.00  0.00    -0.550 OA
ATOM     20  O   UNL     1      10.498  24.590  37.041  1.00  0.00    -0.550 OA
ENDBRANCH  17  18
ENDBRANCH  16  17
ENDBRANCH  15  16
ENDBRANCH  14  15
ENDBRANCH  13  14
ENDBRANCH  12  13
ENDBRANCH  11  12
ENDBRANCH   1  11
TORSDOF 15
ENDMDL
