MODEL 1
REMARK VINA RESULT:    -4.281      0.000      0.000
REMARK INTER + INTRA:          -5.873
REMARK INTER:                  -5.782
REMARK INTRA:                  -0.091
REMARK UNBOUND:                -0.091
REMARK SMILES [NH3+]CCCC[C@@H]([NH3+])C(=O)[O-]
REMARK SMILES IDX 4 1 3 2 2 3 1 4 5 8 6 9 7 10 8 14 9 15 10 16
REMARK H PARENT 1 5 1 6 1 7 7 11 7 12 7 13
REMARK Flexibility Score: inf
ROOT
ATOM      1  C   UNL     1     -37.223  18.450 -30.212  1.00  0.00     0.012 C 
ENDROOT
BRANCH   1   2
ATOM      2  C   UNL     1     -36.776  16.984 -30.110  1.00  0.00     0.061 C 
BRANCH   2   3
ATOM      3  C   UNL     1     -35.413  16.735 -30.777  1.00  0.00     0.258 C 
BRANCH   3   4
ATOM      4  N   UNL     1     -35.252  15.343 -31.205  1.00  0.00    -0.358 N 
ATOM      5  H   UNL     1     -35.868  15.140 -32.024  1.00  0.00     0.344 HD
ATOM      6  H   UNL     1     -34.259  15.189 -31.495  1.00  0.00     0.344 HD
ATOM      7  H   UNL     1     -35.476  14.691 -30.418  1.00  0.00     0.344 HD
ENDBRANCH   3   4
ENDBRANCH   2   3
ENDBRANCH   1   2
BRANCH   1   8
ATOM      8  C   UNL     1     -37.902  18.908 -28.912  1.00  0.00     0.072 C 
BRANCH   8   9
ATOM      9  C   UNL     1     -39.301  19.518 -29.153  1.00  0.00     0.227 C 
BRANCH   9  10
ATOM     10  N   UNL     1     -40.202  19.277 -28.017  1.00  0.00    -0.350 N 
ATOM     11  H   UNL     1     -39.686  19.349 -27.111  1.00  0.00     0.345 HD
ATOM     12  H   UNL     1     -40.636  18.330 -28.097  1.00  0.00     0.345 HD
ATOM     13  H   UNL     1     -40.979  19.979 -28.025  1.00  0.00     0.345 HD
ENDBRANCH   9  10
BRANCH   9  14
ATOM     14  C   UNL     1     -39.168  20.998 -29.399  1.00  0.00     0.099 C 
ATOM     15  O   UNL     1     -40.101  21.634 -29.955  1.00  0.00    -0.544 OA
ATOM     16  O   UNL     1     -38.006  21.667 -29.033  1.00  0.00    -0.544 OA
ENDBRANCH   9  14
ENDBRANCH   8   9
ENDBRANCH   1   8
TORSDOF 7
ENDMDL
MODEL 2
REMARK VINA RESULT:    -4.211      2.876      4.910
REMARK INTER + INTRA:          -5.779
REMARK INTER:                  -5.610
REMARK INTRA:                  -0.169
REMARK UNBOUND:                -0.091
REMARK SMILES [NH3+]CCCC[C@@H]([NH3+])C(=O)[O-]
REMARK SMILES IDX 4 1 3 2 2 3 1 4 5 8 6 9 7 10 8 14 9 15 10 16
REMARK H PARENT 1 5 1 6 1 7 7 11 7 12 7 13
REMARK Flexibility Score: inf
ROOT
ATOM      1  C   UNL     1     -39.506  20.272 -29.137  1.00  0.00     0.012 C 
ENDROOT
BRANCH   1   2
ATOM      2  C   UNL     1     -38.296  21.029 -29.702  1.00  0.00     0.061 C 
BRANCH   2   3
ATOM      3  C   UNL     1     -38.024  22.347 -28.958  1.00  0.00     0.258 C 
BRANCH   3   4
ATOM      4  N   UNL     1     -39.257  22.979 -28.482  1.00  0.00    -0.358 N 
ATOM      5  H   UNL     1     -39.826  22.299 -27.930  1.00  0.00     0.344 HD
ATOM      6  H   UNL     1     -39.009  23.782 -27.860  1.00  0.00     0.344 HD
ATOM      7  H   UNL     1     -39.816  23.342 -29.289  1.00  0.00     0.344 HD
ENDBRANCH   3   4
ENDBRANCH   2   3
ENDBRANCH   1   2
BRANCH   1   8
ATOM      8  C   UNL     1     -39.103  18.867 -28.665  1.00  0.00     0.072 C 
BRANCH   8   9
ATOM      9  C   UNL     1     -37.616  18.548 -28.942  1.00  0.00     0.227 C 
BRANCH   9  10
ATOM     10  N   UNL     1     -36.948  17.994 -27.756  1.00  0.00    -0.350 N 
ATOM     11  H   UNL     1     -37.616  17.912 -26.957  1.00  0.00     0.345 HD
ATOM     12  H   UNL     1     -36.145  18.602 -27.479  1.00  0.00     0.345 HD
ATOM     13  H   UNL     1     -36.561  17.046 -27.977  1.00  0.00     0.345 HD
ENDBRANCH   9  10
BRANCH   9  14
ATOM     14  C   UNL     1     -37.517  17.577 -30.089  1.00  0.00     0.099 C 
ATOM     15  O   UNL     1     -36.806  16.543 -29.984  1.00  0.00    -0.544 OA
ATOM     16  O   UNL     1     -38.192  17.826 -31.279  1.00  0.00    -0.544 OA
ENDBRANCH   9  14
ENDBRANCH   8   9
ENDBRANCH   1   8
TORSDOF 7
ENDMDL
MODEL 3
REMARK VINA RESULT:    -4.172      2.436      4.009
REMARK INTER + INTRA:          -5.726
REMARK INTER:                  -5.199
REMARK INTRA:                  -0.527
REMARK UNBOUND:                -0.091
REMARK SMILES [NH3+]CCCC[C@@H]([NH3+])C(=O)[O-]
REMARK SMILES IDX 4 1 3 2 2 3 1 4 5 8 6 9 7 10 8 14 9 15 10 16
REMARK H PARENT 1 5 1 6 1 7 7 11 7 12 7 13
REMARK Flexibility Score: inf
ROOT
ATOM      1  C   UNL     1     -37.943  18.403 -30.167  1.00  0.00     0.012 C 
ENDROOT
BRANCH   1   2
ATOM      2  C   UNL     1     -38.370  18.642 -28.711  1.00  0.00     0.061 C 
BRANCH   2   3
ATOM      3  C   UNL     1     -39.847  19.052 -28.588  1.00  0.00     0.258 C 
BRANCH   3   4
ATOM      4  N   UNL     1     -40.066  20.451 -28.962  1.00  0.00    -0.358 N 
ATOM      5  H   UNL     1     -39.249  20.817 -29.501  1.00  0.00     0.344 HD
ATOM      6  H   UNL     1     -40.914  20.511 -29.570  1.00  0.00     0.344 HD
ATOM      7  H   UNL     1     -40.224  21.036 -28.109  1.00  0.00     0.344 HD
ENDBRANCH   3   4
ENDBRANCH   2   3
ENDBRANCH   1   2
BRANCH   1   8
ATOM      8  C   UNL     1     -36.635  19.143 -30.484  1.00  0.00     0.072 C 
BRANCH   8   9
ATOM      9  C   UNL     1     -36.823  20.270 -31.524  1.00  0.00     0.227 C 
BRANCH   9  10
ATOM     10  N   UNL     1     -38.113  20.159 -32.220  1.00  0.00    -0.350 N 
ATOM     11  H   UNL     1     -38.588  19.259 -31.981  1.00  0.00     0.345 HD
ATOM     12  H   UNL     1     -37.970  20.213 -33.253  1.00  0.00     0.345 HD
ATOM     13  H   UNL     1     -38.734  20.956 -31.947  1.00  0.00     0.345 HD
ENDBRANCH   9  10
BRANCH   9  14
ATOM     14  C   UNL     1     -36.723  21.607 -30.838  1.00  0.00     0.099 C 
ATOM     15  O   UNL     1     -35.847  22.438 -31.196  1.00  0.00    -0.544 OA
ATOM     16  O   UNL     1     -37.582  21.924 -29.792  1.00  0.00    -0.544 OA
ENDBRANCH   9  14
ENDBRANCH   8   9
ENDBRANCH   1   8
TORSDOF 7
ENDMDL
MODEL 4
REMARK VINA RESULT:    -4.167      2.309      2.866
REMARK INTER + INTRA:          -5.720
REMARK INTER:                  -5.357
REMARK INTRA:                  -0.363
REMARK UNBOUND:                -0.091
REMARK SMILES [NH3+]CCCC[C@@H]([NH3+])C(=O)[O-]
REMARK SMILES IDX 4 1 3 2 2 3 1 4 5 8 6 9 7 10 8 14 9 15 10 16
REMARK H PARENT 1 5 1 6 1 7 7 11 7 12 7 13
REMARK Flexibility Score: inf
ROOT
ATOM      1  C   UNL     1     -37.264  19.022 -30.602  1.00  0.00     0.012 C 
ENDROOT
BRANCH   1   2
ATOM      2  C   UNL     1     -36.094  19.946 -30.972  1.00  0.00     0.061 C 
BRANCH   2   3
ATOM      3  C   UNL     1     -36.533  21.135 -31.843  1.00  0.00     0.258 C 
BRANCH   3   4
ATOM      4  N   UNL     1     -37.725  20.829 -32.637  1.00  0.00    -0.358 N 
ATOM      5  H   UNL     1     -38.585  21.169 -32.150  1.00  0.00     0.344 HD
ATOM      6  H   UNL     1     -37.654  21.318 -33.559  1.00  0.00     0.344 HD
ATOM      7  H   UNL     1     -37.795  19.799 -32.809  1.00  0.00     0.344 HD
ENDBRANCH   3   4
ENDBRANCH   2   3
ENDBRANCH   1   2
BRANCH   1   8
ATOM      8  C   UNL     1     -37.834  19.383 -29.222  1.00  0.00     0.072 C 
BRANCH   8   9
ATOM      9  C   UNL     1     -39.319  19.805 -29.281  1.00  0.00     0.227 C 
BRANCH   9  10
ATOM     10  N   UNL     1     -40.053  19.382 -28.080  1.00  0.00    -0.350 N 
ATOM     11  H   UNL     1     -39.971  18.350 -27.938  1.00  0.00     0.345 HD
ATOM     12  H   UNL     1     -41.061  19.643 -28.165  1.00  0.00     0.345 HD
ATOM     13  H   UNL     1     -39.672  19.875 -27.239  1.00  0.00     0.345 HD
ENDBRANCH   9  10
BRANCH   9  14
ATOM     14  C   UNL     1     -39.410  21.300 -29.440  1.00  0.00     0.099 C 
ATOM     15  O   UNL     1     -38.493  22.040 -28.998  1.00  0.00    -0.544 OA
ATOM     16  O   UNL     1     -40.516  21.873 -30.057  1.00  0.00    -0.544 OA
ENDBRANCH   9  14
ENDBRANCH   8   9
ENDBRANCH   1   8
TORSDOF 7
ENDMDL
MODEL 5
REMARK VINA RESULT:    -4.152      3.176      4.291
REMARK INTER + INTRA:          -5.699
REMARK INTER:                  -5.174
REMARK INTRA:                  -0.524
REMARK UNBOUND:                -0.091
REMARK SMILES [NH3+]CCCC[C@@H]([NH3+])C(=O)[O-]
REMARK SMILES IDX 4 1 3 2 2 3 1 4 5 8 6 9 7 10 8 14 9 15 10 16
REMARK H PARENT 1 5 1 6 1 7 7 11 7 12 7 13
REMARK Flexibility Score: inf
ROOT
ATOM      1  C   UNL     1     -39.340  20.152 -29.110  1.00  0.00     0.012 C 
ENDROOT
BRANCH   1   2
ATOM      2  C   UNL     1     -38.202  20.813 -29.902  1.00  0.00     0.061 C 
BRANCH   2   3
ATOM      3  C   UNL     1     -38.542  20.982 -31.393  1.00  0.00     0.258 C 
BRANCH   3   4
ATOM      4  N   UNL     1     -37.601  20.268 -32.259  1.00  0.00    -0.358 N 
ATOM      5  H   UNL     1     -37.981  20.198 -33.230  1.00  0.00     0.344 HD
ATOM      6  H   UNL     1     -36.702  20.801 -32.297  1.00  0.00     0.344 HD
ATOM      7  H   UNL     1     -37.409  19.312 -31.879  1.00  0.00     0.344 HD
ENDBRANCH   3   4
ENDBRANCH   2   3
ENDBRANCH   1   2
BRANCH   1   8
ATOM      8  C   UNL     1     -38.981  18.705 -28.738  1.00  0.00     0.072 C 
BRANCH   8   9
ATOM      9  C   UNL     1     -37.487  18.383 -28.969  1.00  0.00     0.227 C 
BRANCH   9  10
ATOM     10  N   UNL     1     -36.824  17.955 -27.729  1.00  0.00    -0.350 N 
ATOM     11  H   UNL     1     -36.473  18.780 -27.191  1.00  0.00     0.345 HD
ATOM     12  H   UNL     1     -36.027  17.317 -27.949  1.00  0.00     0.345 HD
ATOM     13  H   UNL     1     -37.498  17.420 -27.132  1.00  0.00     0.345 HD
ENDBRANCH   9  10
BRANCH   9  14
ATOM     14  C   UNL     1     -37.362  17.307 -30.016  1.00  0.00     0.099 C 
ATOM     15  O   UNL     1     -36.619  16.311 -29.815  1.00  0.00    -0.544 OA
ATOM     16  O   UNL     1     -38.049  17.418 -31.219  1.00  0.00    -0.544 OA
ENDBRANCH   9  14
ENDBRANCH   8   9
ENDBRANCH   1   8
TORSDOF 7
ENDMDL
MODEL 6
REMARK VINA RESULT:    -4.123      3.170      5.707
REMARK INTER + INTRA:          -5.660
REMARK INTER:                  -5.555
REMARK INTRA:                  -0.105
REMARK UNBOUND:                -0.091
REMARK SMILES [NH3+]CCCC[C@@H]([NH3+])C(=O)[O-]
REMARK SMILES IDX 4 1 3 2 2 3 1 4 5 8 6 9 7 10 8 14 9 15 10 16
REMARK H PARENT 1 5 1 6 1 7 7 11 7 12 7 13
REMARK Flexibility Score: inf
ROOT
ATOM      1  C   UNL     1     -40.053  22.009 -29.527  1.00  0.00     0.012 C 
ENDROOT
BRANCH   1   2
ATOM      2  C   UNL     1     -41.109  22.387 -30.576  1.00  0.00     0.061 C 
BRANCH   2   3
ATOM      3  C   UNL     1     -42.458  22.769 -29.944  1.00  0.00     0.258 C 
BRANCH   3   4
ATOM      4  N   UNL     1     -42.309  23.757 -28.874  1.00  0.00    -0.358 N 
ATOM      5  H   UNL     1     -43.157  24.365 -28.817  1.00  0.00     0.344 HD
ATOM      6  H   UNL     1     -42.202  23.256 -27.962  1.00  0.00     0.344 HD
ATOM      7  H   UNL     1     -41.457  24.343 -29.035  1.00  0.00     0.344 HD
ENDBRANCH   3   4
ENDBRANCH   2   3
ENDBRANCH   1   2
BRANCH   1   8
ATOM      8  C   UNL     1     -39.152  20.875 -30.039  1.00  0.00     0.072 C 
BRANCH   8   9
ATOM      9  C   UNL     1     -39.000  19.726 -29.017  1.00  0.00     0.227 C 
BRANCH   9  10
ATOM     10  N   UNL     1     -40.292  19.344 -28.430  1.00  0.00    -0.350 N 
ATOM     11  H   UNL     1     -40.157  18.877 -27.505  1.00  0.00     0.345 HD
ATOM     12  H   UNL     1     -40.803  18.701 -29.075  1.00  0.00     0.345 HD
ATOM     13  H   UNL     1     -40.888  20.195 -28.300  1.00  0.00     0.345 HD
ENDBRANCH   9  10
BRANCH   9  14
ATOM     14  C   UNL     1     -38.369  18.536 -29.691  1.00  0.00     0.099 C 
ATOM     15  O   UNL     1     -38.753  18.180 -30.836  1.00  0.00    -0.544 OA
ATOM     16  O   UNL     1     -37.375  17.810 -29.046  1.00  0.00    -0.544 OA
ENDBRANCH   9  14
ENDBRANCH   8   9
ENDBRANCH   1   8
TORSDOF 7
ENDMDL
MODEL 7
REMARK VINA RESULT:    -4.083      3.456      5.663
REMARK INTER + INTRA:          -5.606
REMARK INTER:                  -5.445
REMARK INTRA:                  -0.161
REMARK UNBOUND:                -0.091
REMARK SMILES [NH3+]CCCC[C@@H]([NH3+])C(=O)[O-]
REMARK SMILES IDX 4 1 3 2 2 3 1 4 5 8 6 9 7 10 8 14 9 15 10 16
REMARK H PARENT 1 5 1 6 1 7 7 11 7 12 7 13
REMARK Flexibility Score: inf
ROOT
ATOM      1  C   UNL     1     -38.916  21.879 -29.347  1.00  0.00     0.012 C 
ENDROOT
BRANCH   1   2
ATOM      2  C   UNL     1     -40.259  21.599 -30.037  1.00  0.00     0.061 C 
BRANCH   2   3
ATOM      3  C   UNL     1     -41.204  22.812 -30.005  1.00  0.00     0.258 C 
BRANCH   3   4
ATOM      4  N   UNL     1     -42.564  22.444 -29.604  1.00  0.00    -0.358 N 
ATOM      5  H   UNL     1     -43.065  21.980 -30.395  1.00  0.00     0.344 HD
ATOM      6  H   UNL     1     -42.512  21.769 -28.807  1.00  0.00     0.344 HD
ATOM      7  H   UNL     1     -43.093  23.290 -29.292  1.00  0.00     0.344 HD
ENDBRANCH   3   4
ENDBRANCH   2   3
ENDBRANCH   1   2
BRANCH   1   8
ATOM      8  C   UNL     1     -37.753  21.263 -30.139  1.00  0.00     0.072 C 
BRANCH   8   9
ATOM      9  C   UNL     1     -38.232  20.395 -31.325  1.00  0.00     0.227 C 
BRANCH   9  10
ATOM     10  N   UNL     1     -37.781  20.937 -32.614  1.00  0.00    -0.350 N 
ATOM     11  H   UNL     1     -36.745  21.075 -32.617  1.00  0.00     0.345 HD
ATOM     12  H   UNL     1     -38.254  21.848 -32.807  1.00  0.00     0.345 HD
ATOM     13  H   UNL     1     -38.040  20.280 -33.386  1.00  0.00     0.345 HD
ENDBRANCH   9  10
BRANCH   9  14
ATOM     14  C   UNL     1     -37.725  18.987 -31.152  1.00  0.00     0.099 C 
ATOM     15  O   UNL     1     -36.602  18.780 -30.623  1.00  0.00    -0.544 OA
ATOM     16  O   UNL     1     -38.483  17.910 -31.596  1.00  0.00    -0.544 OA
ENDBRANCH   9  14
ENDBRANCH   8   9
ENDBRANCH   1   8
TORSDOF 7
ENDMDL
MODEL 8
REMARK VINA RESULT:    -4.026      2.152      2.523
REMARK INTER + INTRA:          -5.529
REMARK INTER:                  -5.392
REMARK INTRA:                  -0.137
REMARK UNBOUND:                -0.091
REMARK SMILES [NH3+]CCCC[C@@H]([NH3+])C(=O)[O-]
REMARK SMILES IDX 4 1 3 2 2 3 1 4 5 8 6 9 7 10 8 14 9 15 10 16
REMARK H PARENT 1 5 1 6 1 7 7 11 7 12 7 13
REMARK Flexibility Score: inf
ROOT
ATOM      1  C   UNL     1     -37.417  18.068 -30.197  1.00  0.00     0.012 C 
ENDROOT
BRANCH   1   2
ATOM      2  C   UNL     1     -36.963  16.674 -30.655  1.00  0.00     0.061 C 
BRANCH   2   3
ATOM      3  C   UNL     1     -35.438  16.577 -30.828  1.00  0.00     0.258 C 
BRANCH   3   4
ATOM      4  N   UNL     1     -35.031  15.319 -31.459  1.00  0.00    -0.358 N 
ATOM      5  H   UNL     1     -34.212  14.907 -30.958  1.00  0.00     0.344 HD
ATOM      6  H   UNL     1     -35.825  14.639 -31.404  1.00  0.00     0.344 HD
ATOM      7  H   UNL     1     -34.795  15.475 -32.466  1.00  0.00     0.344 HD
ENDBRANCH   3   4
ENDBRANCH   2   3
ENDBRANCH   1   2
BRANCH   1   8
ATOM      8  C   UNL     1     -37.933  18.895 -31.385  1.00  0.00     0.072 C 
BRANCH   8   9
ATOM      9  C   UNL     1     -37.314  20.310 -31.441  1.00  0.00     0.227 C 
BRANCH   9  10
ATOM     10  N   UNL     1     -37.497  20.933 -32.759  1.00  0.00    -0.350 N 
ATOM     11  H   UNL     1     -37.971  21.860 -32.670  1.00  0.00     0.345 HD
ATOM     12  H   UNL     1     -38.065  20.309 -33.376  1.00  0.00     0.345 HD
ATOM     13  H   UNL     1     -36.567  21.067 -33.221  1.00  0.00     0.345 HD
ENDBRANCH   9  10
BRANCH   9  14
ATOM     14  C   UNL     1     -37.936  21.171 -30.374  1.00  0.00     0.099 C 
ATOM     15  O   UNL     1     -37.207  21.823 -29.581  1.00  0.00    -0.544 OA
ATOM     16  O   UNL     1     -39.319  21.236 -30.243  1.00  0.00    -0.544 OA
ENDBRANCH   9  14
ENDBRANCH   8   9
ENDBRANCH   1   8
TORSDOF 7
ENDMDL
MODEL 9
REMARK VINA RESULT:    -3.962      2.217      4.538
REMARK INTER + INTRA:          -5.442
REMARK INTER:                  -4.941
REMARK INTRA:                  -0.501
REMARK UNBOUND:                -0.091
REMARK SMILES [NH3+]CCCC[C@@H]([NH3+])C(=O)[O-]
REMARK SMILES IDX 4 1 3 2 2 3 1 4 5 8 6 9 7 10 8 14 9 15 10 16
REMARK H PARENT 1 5 1 6 1 7 7 11 7 12 7 13
REMARK Flexibility Score: inf
ROOT
ATOM      1  C   UNL     1     -37.379  19.690 -31.340  1.00  0.00     0.012 C 
ENDROOT
BRANCH   1   2
ATOM      2  C   UNL     1     -38.424  20.814 -31.295  1.00  0.00     0.061 C 
BRANCH   2   3
ATOM      3  C   UNL     1     -38.562  21.437 -29.896  1.00  0.00     0.258 C 
BRANCH   3   4
ATOM      4  N   UNL     1     -39.821  21.064 -29.246  1.00  0.00    -0.358 N 
ATOM      5  H   UNL     1     -40.062  21.752 -28.497  1.00  0.00     0.344 HD
ATOM      6  H   UNL     1     -40.587  21.074 -29.959  1.00  0.00     0.344 HD
ATOM      7  H   UNL     1     -39.752  20.102 -28.842  1.00  0.00     0.344 HD
ENDBRANCH   3   4
ENDBRANCH   2   3
ENDBRANCH   1   2
BRANCH   1   8
ATOM      8  C   UNL     1     -38.019  18.333 -31.010  1.00  0.00     0.072 C 
BRANCH   8   9
ATOM      9  C   UNL     1     -37.207  17.528 -29.969  1.00  0.00     0.227 C 
BRANCH   9  10
ATOM     10  N   UNL     1     -35.782  17.462 -30.323  1.00  0.00    -0.350 N 
ATOM     11  H   UNL     1     -35.660  17.367 -31.357  1.00  0.00     0.345 HD
ATOM     12  H   UNL     1     -35.329  16.653 -29.843  1.00  0.00     0.345 HD
ATOM     13  H   UNL     1     -35.295  18.330 -30.000  1.00  0.00     0.345 HD
ENDBRANCH   9  10
BRANCH   9  14
ATOM     14  C   UNL     1     -37.370  18.157 -28.610  1.00  0.00     0.099 C 
ATOM     15  O   UNL     1     -36.365  18.351 -27.877  1.00  0.00    -0.544 OA
ATOM     16  O   UNL     1     -38.633  18.509 -28.148  1.00  0.00    -0.544 OA
ENDBRANCH   9  14
ENDBRANCH   8   9
ENDBRANCH   1   8
TORSDOF 7
ENDMDL
