MODEL 1
REMARK VINA RESULT:    -3.400      0.000      0.000
REMARK INTER + INTRA:          -3.618
REMARK INTER:                  -3.599
REMARK INTRA:                  -0.019
REMARK UNBOUND:                -0.019
REMARK SMILES O=C([O-])c1cccnc1
REMARK SMILES IDX 4 1 5 2 9 3 6 4 8 5 7 6 2 7 1 8 3 9
REMARK H PARENT
REMARK Flexibility Score: inf
ROOT
ATOM      1  C   UNL     1     -44.312  27.831  -5.321  1.00  0.00     0.016 A 
ATOM      2  C   UNL     1     -43.263  27.645  -6.236  1.00  0.00     0.013 A 
ATOM      3  C   UNL     1     -45.633  27.768  -5.799  1.00  0.00     0.120 A 
ATOM      4  C   UNL     1     -43.540  27.404  -7.583  1.00  0.00     0.021 A 
ATOM      5  N   UNL     1     -45.877  27.532  -7.116  1.00  0.00    -0.264 NA
ATOM      6  C   UNL     1     -44.868  27.350  -8.008  1.00  0.00     0.111 A 
ENDROOT
BRANCH   1   7
ATOM      7  C   UNL     1     -44.039  28.087  -3.891  1.00  0.00     0.073 C 
ATOM      8  O   UNL     1     -44.685  27.478  -2.997  1.00  0.00    -0.545 OA
ATOM      9  O   UNL     1     -43.067  29.006  -3.513  1.00  0.00    -0.545 OA
ENDBRANCH   1   7
TORSDOF 1
ENDMDL
MODEL 2
REMARK VINA RESULT:    -3.254      1.784      2.013
REMARK INTER + INTRA:          -3.464
REMARK INTER:                  -3.446
REMARK INTRA:                  -0.018
REMARK UNBOUND:                -0.019
REMARK SMILES O=C([O-])c1cccnc1
REMARK SMILES IDX 4 1 5 2 9 3 6 4 8 5 7 6 2 7 1 8 3 9
REMARK H PARENT
REMARK Flexibility Score: inf
ROOT
ATOM      1  C   UNL     1     -43.784  28.233  -4.821  1.00  0.00     0.016 A 
ATOM      2  C   UNL     1     -43.648  27.223  -5.788  1.00  0.00     0.013 A 
ATOM      3  C   UNL     1     -43.351  29.530  -5.145  1.00  0.00     0.120 A 
ATOM      4  C   UNL     1     -43.095  27.516  -7.035  1.00  0.00     0.021 A 
ATOM      5  N   UNL     1     -42.815  29.790  -6.367  1.00  0.00    -0.264 NA
ATOM      6  C   UNL     1     -42.680  28.820  -7.309  1.00  0.00     0.111 A 
ENDROOT
BRANCH   1   7
ATOM      7  C   UNL     1     -44.368  27.943  -3.494  1.00  0.00     0.073 C 
ATOM      8  O   UNL     1     -45.530  27.463  -3.396  1.00  0.00    -0.545 OA
ATOM      9  O   UNL     1     -43.644  28.197  -2.335  1.00  0.00    -0.545 OA
ENDBRANCH   1   7
TORSDOF 1
ENDMDL
MODEL 3
REMARK VINA RESULT:    -3.152      2.650      3.623
REMARK INTER + INTRA:          -3.356
REMARK INTER:                  -3.336
REMARK INTRA:                  -0.019
REMARK UNBOUND:                -0.019
REMARK SMILES O=C([O-])c1cccnc1
REMARK SMILES IDX 4 1 5 2 9 3 6 4 8 5 7 6 2 7 1 8 3 9
REMARK H PARENT
REMARK Flexibility Score: inf
ROOT
ATOM      1  C   UNL     1     -44.765  27.513  -6.149  1.00  0.00     0.016 A 
ATOM      2  C   UNL     1     -44.090  27.201  -4.958  1.00  0.00     0.013 A 
ATOM      3  C   UNL     1     -46.071  28.025  -6.062  1.00  0.00     0.120 A 
ATOM      4  C   UNL     1     -44.714  27.399  -3.725  1.00  0.00     0.021 A 
ATOM      5  N   UNL     1     -46.657  28.209  -4.848  1.00  0.00    -0.264 NA
ATOM      6  C   UNL     1     -46.012  27.910  -3.691  1.00  0.00     0.111 A 
ENDROOT
BRANCH   1   7
ATOM      7  C   UNL     1     -44.121  27.311  -7.465  1.00  0.00     0.073 C 
ATOM      8  O   UNL     1     -42.944  27.712  -7.671  1.00  0.00    -0.545 OA
ATOM      9  O   UNL     1     -44.807  26.677  -8.494  1.00  0.00    -0.545 OA
ENDBRANCH   1   7
TORSDOF 1
ENDMDL
MODEL 4
REMARK VINA RESULT:    -3.093      2.695      3.822
REMARK INTER + INTRA:          -3.293
REMARK INTER:                  -3.273
REMARK INTRA:                  -0.020
REMARK UNBOUND:                -0.019
REMARK SMILES O=C([O-])c1cccnc1
REMARK SMILES IDX 4 1 5 2 9 3 6 4 8 5 7 6 2 7 1 8 3 9
REMARK H PARENT
REMARK Flexibility Score: inf
ROOT
ATOM      1  C   UNL     1     -43.820  27.955  -5.493  1.00  0.00     0.016 A 
ATOM      2  C   UNL     1     -43.185  29.113  -5.013  1.00  0.00     0.013 A 
ATOM      3  C   UNL     1     -44.476  27.123  -4.570  1.00  0.00     0.120 A 
ATOM      4  C   UNL     1     -43.214  29.416  -3.651  1.00  0.00     0.021 A 
ATOM      5  N   UNL     1     -44.490  27.440  -3.248  1.00  0.00    -0.264 NA
ATOM      6  C   UNL     1     -43.879  28.558  -2.774  1.00  0.00     0.111 A 
ENDROOT
BRANCH   1   7
ATOM      7  C   UNL     1     -43.801  27.617  -6.932  1.00  0.00     0.073 C 
ATOM      8  O   UNL     1     -42.738  27.722  -7.601  1.00  0.00    -0.545 OA
ATOM      9  O   UNL     1     -44.957  27.180  -7.568  1.00  0.00    -0.545 OA
ENDBRANCH   1   7
TORSDOF 1
ENDMDL
MODEL 5
REMARK VINA RESULT:    -2.979      2.429      3.181
REMARK INTER + INTRA:          -3.173
REMARK INTER:                  -3.155
REMARK INTRA:                  -0.018
REMARK UNBOUND:                -0.019
REMARK SMILES O=C([O-])c1cccnc1
REMARK SMILES IDX 4 1 5 2 9 3 6 4 8 5 7 6 2 7 1 8 3 9
REMARK H PARENT
REMARK Flexibility Score: inf
ROOT
ATOM      1  C   UNL     1     -44.208  27.829  -2.676  1.00  0.00     0.016 A 
ATOM      2  C   UNL     1     -43.406  28.964  -2.879  1.00  0.00     0.013 A 
ATOM      3  C   UNL     1     -44.699  27.149  -3.804  1.00  0.00     0.120 A 
ATOM      4  C   UNL     1     -43.112  29.395  -4.174  1.00  0.00     0.021 A 
ATOM      5  N   UNL     1     -44.398  27.588  -5.056  1.00  0.00    -0.264 NA
ATOM      6  C   UNL     1     -43.623  28.685  -5.262  1.00  0.00     0.111 A 
ENDROOT
BRANCH   1   7
ATOM      7  C   UNL     1     -44.530  27.357  -1.313  1.00  0.00     0.073 C 
ATOM      8  O   UNL     1     -43.610  27.080  -0.497  1.00  0.00    -0.545 OA
ATOM      9  O   UNL     1     -45.853  27.211  -0.912  1.00  0.00    -0.545 OA
ENDBRANCH   1   7
TORSDOF 1
ENDMDL
MODEL 6
REMARK VINA RESULT:    -2.971      0.946      1.942
REMARK INTER + INTRA:          -3.164
REMARK INTER:                  -3.145
REMARK INTRA:                  -0.020
REMARK UNBOUND:                -0.019
REMARK SMILES O=C([O-])c1cccnc1
REMARK SMILES IDX 4 1 5 2 9 3 6 4 8 5 7 6 2 7 1 8 3 9
REMARK H PARENT
REMARK Flexibility Score: inf
ROOT
ATOM      1  C   UNL     1     -44.511  27.783  -5.307  1.00  0.00     0.016 A 
ATOM      2  C   UNL     1     -45.778  27.888  -5.904  1.00  0.00     0.013 A 
ATOM      3  C   UNL     1     -43.408  27.491  -6.128  1.00  0.00     0.120 A 
ATOM      4  C   UNL     1     -45.923  27.702  -7.280  1.00  0.00     0.021 A 
ATOM      5  N   UNL     1     -43.576  27.315  -7.466  1.00  0.00    -0.264 NA
ATOM      6  C   UNL     1     -44.798  27.414  -8.052  1.00  0.00     0.111 A 
ENDROOT
BRANCH   1   7
ATOM      7  C   UNL     1     -44.336  27.976  -3.851  1.00  0.00     0.073 C 
ATOM      8  O   UNL     1     -43.374  28.657  -3.406  1.00  0.00    -0.545 OA
ATOM      9  O   UNL     1     -45.231  27.407  -2.953  1.00  0.00    -0.545 OA
ENDBRANCH   1   7
TORSDOF 1
ENDMDL
MODEL 7
REMARK VINA RESULT:    -2.944      2.796      3.981
REMARK INTER + INTRA:          -3.136
REMARK INTER:                  -3.116
REMARK INTRA:                  -0.020
REMARK UNBOUND:                -0.019
REMARK SMILES O=C([O-])c1cccnc1
REMARK SMILES IDX 4 1 5 2 9 3 6 4 8 5 7 6 2 7 1 8 3 9
REMARK H PARENT
REMARK Flexibility Score: inf
ROOT
ATOM      1  C   UNL     1     -43.807  27.986  -5.559  1.00  0.00     0.016 A 
ATOM      2  C   UNL     1     -44.477  27.155  -4.645  1.00  0.00     0.013 A 
ATOM      3  C   UNL     1     -43.207  29.162  -5.077  1.00  0.00     0.120 A 
ATOM      4  C   UNL     1     -44.537  27.503  -3.295  1.00  0.00     0.021 A 
ATOM      5  N   UNL     1     -43.280  29.479  -3.756  1.00  0.00    -0.264 NA
ATOM      6  C   UNL     1     -43.926  28.682  -2.865  1.00  0.00     0.111 A 
ENDROOT
BRANCH   1   7
ATOM      7  C   UNL     1     -43.731  27.635  -6.993  1.00  0.00     0.073 C 
ATOM      8  O   UNL     1     -42.645  27.743  -7.623  1.00  0.00    -0.545 OA
ATOM      9  O   UNL     1     -44.859  27.182  -7.668  1.00  0.00    -0.545 OA
ENDBRANCH   1   7
TORSDOF 1
ENDMDL
MODEL 8
REMARK VINA RESULT:    -2.875      3.980      5.524
REMARK INTER + INTRA:          -3.062
REMARK INTER:                  -3.041
REMARK INTRA:                  -0.021
REMARK UNBOUND:                -0.019
REMARK SMILES O=C([O-])c1cccnc1
REMARK SMILES IDX 4 1 5 2 9 3 6 4 8 5 7 6 2 7 1 8 3 9
REMARK H PARENT
REMARK Flexibility Score: inf
ROOT
ATOM      1  C   UNL     1     -44.836  27.598  -1.772  1.00  0.00     0.016 A 
ATOM      2  C   UNL     1     -43.500  27.920  -1.480  1.00  0.00     0.013 A 
ATOM      3  C   UNL     1     -45.722  27.393  -0.701  1.00  0.00     0.120 A 
ATOM      4  C   UNL     1     -43.078  28.030  -0.154  1.00  0.00     0.021 A 
ATOM      5  N   UNL     1     -45.287  27.507   0.582  1.00  0.00    -0.264 NA
ATOM      6  C   UNL     1     -43.997  27.818   0.875  1.00  0.00     0.111 A 
ENDROOT
BRANCH   1   7
ATOM      7  C   UNL     1     -45.302  27.477  -3.170  1.00  0.00     0.073 C 
ATOM      8  O   UNL     1     -44.541  27.011  -4.061  1.00  0.00    -0.545 OA
ATOM      9  O   UNL     1     -46.586  27.876  -3.522  1.00  0.00    -0.545 OA
ENDBRANCH   1   7
TORSDOF 1
ENDMDL
MODEL 9
REMARK VINA RESULT:    -2.743      3.005      4.470
REMARK INTER + INTRA:          -2.923
REMARK INTER:                  -2.901
REMARK INTRA:                  -0.022
REMARK UNBOUND:                -0.019
REMARK SMILES O=C([O-])c1cccnc1
REMARK SMILES IDX 4 1 5 2 9 3 6 4 8 5 7 6 2 7 1 8 3 9
REMARK H PARENT
REMARK Flexibility Score: inf
ROOT
ATOM      1  C   UNL     1     -45.138  27.662  -3.123  1.00  0.00     0.016 A 
ATOM      2  C   UNL     1     -44.265  27.488  -2.037  1.00  0.00     0.013 A 
ATOM      3  C   UNL     1     -46.522  27.650  -2.876  1.00  0.00     0.120 A 
ATOM      4  C   UNL     1     -44.774  27.308  -0.750  1.00  0.00     0.021 A 
ATOM      5  N   UNL     1     -46.992  27.473  -1.613  1.00  0.00    -0.264 NA
ATOM      6  C   UNL     1     -46.156  27.304  -0.555  1.00  0.00     0.111 A 
ENDROOT
BRANCH   1   7
ATOM      7  C   UNL     1     -44.619  27.854  -4.495  1.00  0.00     0.073 C 
ATOM      8  O   UNL     1     -45.321  27.544  -5.495  1.00  0.00    -0.545 OA
ATOM      9  O   UNL     1     -43.348  28.378  -4.700  1.00  0.00    -0.545 OA
ENDBRANCH   1   7
TORSDOF 1
ENDMDL
