MODEL 1
REMARK VINA RESULT:    -4.227      0.000      0.000
REMARK INTER + INTRA:          -7.560
REMARK INTER:                  -6.452
REMARK INTRA:                  -1.108
REMARK UNBOUND:                -1.108
REMARK SMILES OC[C@@H]1O[C@@H](O[C@@]2(CO)O[C@@H](CO)[C@@H](O)[C@H]2O)[C@H](O)[C@@H](O)[C@H]1O
REMARK SMILES IDX 6 1 5 2 3 3 22 4 4 5 20 6 18 7 2 8 1 9 23 11 21 13 19 15
REMARK SMILES IDX 7 17 16 18 10 19 14 20 11 21 8 22 9 23 17 25 15 27 12 29
REMARK SMILES IDX 13 30
REMARK H PARENT 1 10 23 12 21 14 19 16 9 24 17 26 15 28 13 31
REMARK Flexibility Score: inf
ROOT
ATOM      1  O   UNL     1      28.870  28.709  23.613  1.00  0.00    -0.313 OA
ENDROOT
BRANCH   1   2
ATOM      2  C   UNL     1      29.700  29.415  24.531  1.00  0.00     0.285 C 
ATOM      3  C   UNL     1      29.102  31.498  23.610  1.00  0.00     0.178 C 
ATOM      4  C   UNL     1      30.515  31.763  23.034  1.00  0.00     0.177 C 
ATOM      5  O   UNL     1      29.186  30.713  24.790  1.00  0.00    -0.341 OA
ATOM      6  C   UNL     1      31.234  30.429  22.759  1.00  0.00     0.179 C 
ATOM      7  C   UNL     1      31.143  29.491  23.981  1.00  0.00     0.202 C 
BRANCH   3   8
ATOM      8  C   UNL     1      28.391  32.812  23.975  1.00  0.00     0.191 C 
BRANCH   8   9
ATOM      9  O   UNL     1      27.066  32.582  24.373  1.00  0.00    -0.394 OA
ATOM     10  H   UNL     1      27.025  31.644  24.697  1.00  0.00     0.210 HD
ENDBRANCH   8   9
ENDBRANCH   3   8
BRANCH   4  11
ATOM     11  O   UNL     1      30.419  32.504  21.845  1.00  0.00    -0.387 OA
ATOM     12  H   UNL     1      29.723  33.196  21.994  1.00  0.00     0.211 HD
ENDBRANCH   4  11
BRANCH   6  13
ATOM     13  O   UNL     1      30.659  29.809  21.635  1.00  0.00    -0.387 OA
ATOM     14  H   UNL     1      29.997  30.447  21.261  1.00  0.00     0.211 HD
ENDBRANCH   6  13
BRANCH   7  15
ATOM     15  O   UNL     1      32.049  29.886  24.983  1.00  0.00    -0.385 OA
ATOM     16  H   UNL     1      32.961  29.888  24.594  1.00  0.00     0.211 HD
ENDBRANCH   7  15
ENDBRANCH   1   2
BRANCH   1  17
ATOM     17  C   UNL     1      28.138  27.626  24.184  1.00  0.00     0.224 C 
ATOM     18  C   UNL     1      27.446  26.763  23.105  1.00  0.00     0.208 C 
ATOM     19  O   UNL     1      27.111  28.190  24.973  1.00  0.00    -0.337 OA
ATOM     20  C   UNL     1      26.168  26.320  23.784  1.00  0.00     0.180 C 
ATOM     21  C   UNL     1      25.952  27.384  24.870  1.00  0.00     0.179 C 
BRANCH  17  22
ATOM     22  C   UNL     1      29.022  26.765  25.125  1.00  0.00     0.225 C 
BRANCH  22  23
ATOM     23  O   UNL     1      29.988  26.080  24.377  1.00  0.00    -0.391 OA
ATOM     24  H   UNL     1      30.150  25.223  24.851  1.00  0.00     0.210 HD
ENDBRANCH  22  23
ENDBRANCH  17  22
BRANCH  18  25
ATOM     25  O   UNL     1      27.183  27.497  21.929  1.00  0.00    -0.385 OA
ATOM     26  H   UNL     1      26.459  27.036  21.431  1.00  0.00     0.211 HD
ENDBRANCH  18  25
BRANCH  20  27
ATOM     27  O   UNL     1      25.092  26.223  22.882  1.00  0.00    -0.387 OA
ATOM     28  H   UNL     1      25.296  26.843  22.133  1.00  0.00     0.211 HD
ENDBRANCH  20  27
BRANCH  21  29
ATOM     29  C   UNL     1      24.730  28.288  24.628  1.00  0.00     0.191 C 
BRANCH  29  30
ATOM     30  O   UNL     1      24.866  28.978  23.415  1.00  0.00    -0.394 OA
ATOM     31  H   UNL     1      25.432  28.412  22.826  1.00  0.00     0.210 HD
ENDBRANCH  29  30
ENDBRANCH  21  29
ENDBRANCH   1  17
TORSDOF 13
ENDMDL
MODEL 2
REMARK VINA RESULT:    -3.875      1.900      2.367
REMARK INTER + INTRA:          -7.022
REMARK INTER:                  -5.838
REMARK INTRA:                  -1.184
REMARK UNBOUND:                -1.108
REMARK SMILES OC[C@@H]1O[C@@H](O[C@@]2(CO)O[C@@H](CO)[C@@H](O)[C@H]2O)[C@H](O)[C@@H](O)[C@H]1O
REMARK SMILES IDX 6 1 5 2 3 3 22 4 4 5 20 6 18 7 2 8 1 9 23 11 21 13 19 15
REMARK SMILES IDX 7 17 16 18 10 19 14 20 11 21 8 22 9 23 17 25 15 27 12 29
REMARK SMILES IDX 13 30
REMARK H PARENT 1 10 23 12 21 14 19 16 9 24 17 26 15 28 13 31
REMARK Flexibility Score: inf
ROOT
ATOM      1  O   UNL     1      29.312  29.040  23.463  1.00  0.00    -0.313 OA
ENDROOT
BRANCH   1   2
ATOM      2  C   UNL     1      29.936  29.837  24.466  1.00  0.00     0.285 C 
ATOM      3  C   UNL     1      29.042  31.823  23.570  1.00  0.00     0.178 C 
ATOM      4  C   UNL     1      30.423  32.358  23.115  1.00  0.00     0.177 C 
ATOM      5  O   UNL     1      29.181  31.011  24.726  1.00  0.00    -0.341 OA
ATOM      6  C   UNL     1      31.386  31.185  22.854  1.00  0.00     0.179 C 
ATOM      7  C   UNL     1      31.378  30.191  24.033  1.00  0.00     0.202 C 
BRANCH   3   8
ATOM      8  C   UNL     1      28.084  32.974  23.921  1.00  0.00     0.191 C 
BRANCH   8   9
ATOM      9  O   UNL     1      26.895  32.492  24.488  1.00  0.00    -0.394 OA
ATOM     10  H   UNL     1      26.601  33.170  25.152  1.00  0.00     0.210 HD
ENDBRANCH   8   9
ENDBRANCH   3   8
BRANCH   4  11
ATOM     11  O   UNL     1      30.281  33.125  21.946  1.00  0.00    -0.387 OA
ATOM     12  H   UNL     1      30.801  32.664  21.237  1.00  0.00     0.211 HD
ENDBRANCH   4  11
BRANCH   6  13
ATOM     13  O   UNL     1      31.013  30.526  21.668  1.00  0.00    -0.387 OA
ATOM     14  H   UNL     1      30.193  30.975  21.335  1.00  0.00     0.211 HD
ENDBRANCH   6  13
BRANCH   7  15
ATOM     15  O   UNL     1      32.125  30.692  25.116  1.00  0.00    -0.385 OA
ATOM     16  H   UNL     1      32.946  30.143  25.206  1.00  0.00     0.211 HD
ENDBRANCH   7  15
ENDBRANCH   1   2
BRANCH   1  17
ATOM     17  C   UNL     1      29.538  27.637  23.592  1.00  0.00     0.224 C 
ATOM     18  C   UNL     1      30.383  27.078  22.426  1.00  0.00     0.208 C 
ATOM     19  O   UNL     1      28.277  27.006  23.520  1.00  0.00    -0.337 OA
ATOM     20  C   UNL     1      29.824  25.685  22.231  1.00  0.00     0.180 C 
ATOM     21  C   UNL     1      28.411  25.779  22.827  1.00  0.00     0.179 C 
BRANCH  17  22
ATOM     22  C   UNL     1      30.155  27.276  24.970  1.00  0.00     0.225 C 
BRANCH  22  23
ATOM     23  O   UNL     1      31.445  26.760  24.794  1.00  0.00    -0.391 OA
ATOM     24  H   UNL     1      31.805  27.185  23.973  1.00  0.00     0.210 HD
ENDBRANCH  22  23
ENDBRANCH  17  22
BRANCH  18  25
ATOM     25  O   UNL     1      30.253  27.857  21.257  1.00  0.00    -0.385 OA
ATOM     26  H   UNL     1      31.156  28.174  20.993  1.00  0.00     0.211 HD
ENDBRANCH  18  25
BRANCH  20  27
ATOM     27  O   UNL     1      29.830  25.293  20.880  1.00  0.00    -0.387 OA
ATOM     28  H   UNL     1      28.891  25.067  20.648  1.00  0.00     0.211 HD
ENDBRANCH  20  27
BRANCH  21  29
ATOM     29  C   UNL     1      27.284  25.661  21.787  1.00  0.00     0.191 C 
BRANCH  29  30
ATOM     30  O   UNL     1      27.232  26.814  20.990  1.00  0.00    -0.394 OA
ATOM     31  H   UNL     1      26.274  26.974  20.783  1.00  0.00     0.210 HD
ENDBRANCH  29  30
ENDBRANCH  21  29
ENDBRANCH   1  17
TORSDOF 13
ENDMDL
MODEL 3
REMARK VINA RESULT:    -3.596      1.801      5.721
REMARK INTER + INTRA:          -6.596
REMARK INTER:                  -5.474
REMARK INTRA:                  -1.123
REMARK UNBOUND:                -1.108
REMARK SMILES OC[C@@H]1O[C@@H](O[C@@]2(CO)O[C@@H](CO)[C@@H](O)[C@H]2O)[C@H](O)[C@@H](O)[C@H]1O
REMARK SMILES IDX 6 1 5 2 3 3 22 4 4 5 20 6 18 7 2 8 1 9 23 11 21 13 19 15
REMARK SMILES IDX 7 17 16 18 10 19 14 20 11 21 8 22 9 23 17 25 15 27 12 29
REMARK SMILES IDX 13 30
REMARK H PARENT 1 10 23 12 21 14 19 16 9 24 17 26 15 28 13 31
REMARK Flexibility Score: inf
ROOT
ATOM      1  O   UNL     1      29.524  28.583  23.109  1.00  0.00    -0.313 OA
ENDROOT
BRANCH   1   2
ATOM      2  C   UNL     1      28.804  27.560  23.791  1.00  0.00     0.285 C 
ATOM      3  C   UNL     1      30.302  25.895  23.061  1.00  0.00     0.178 C 
ATOM      4  C   UNL     1      29.254  25.211  22.149  1.00  0.00     0.177 C 
ATOM      5  O   UNL     1      29.668  26.501  24.178  1.00  0.00    -0.341 OA
ATOM      6  C   UNL     1      28.197  26.235  21.695  1.00  0.00     0.179 C 
ATOM      7  C   UNL     1      27.657  27.040  22.895  1.00  0.00     0.202 C 
BRANCH   3   8
ATOM      8  C   UNL     1      31.324  24.880  23.600  1.00  0.00     0.191 C 
BRANCH   8   9
ATOM      9  O   UNL     1      32.034  25.401  24.691  1.00  0.00    -0.394 OA
ATOM     10  H   UNL     1      32.884  25.766  24.330  1.00  0.00     0.210 HD
ENDBRANCH   8   9
ENDBRANCH   3   8
BRANCH   4  11
ATOM     11  O   UNL     1      29.886  24.652  21.025  1.00  0.00    -0.387 OA
ATOM     12  H   UNL     1      29.189  24.559  20.323  1.00  0.00     0.211 HD
ENDBRANCH   4  11
BRANCH   6  13
ATOM     13  O   UNL     1      28.764  27.108  20.749  1.00  0.00    -0.387 OA
ATOM     14  H   UNL     1      29.676  26.767  20.552  1.00  0.00     0.211 HD
ENDBRANCH   6  13
BRANCH   7  15
ATOM     15  O   UNL     1      26.739  26.274  23.639  1.00  0.00    -0.385 OA
ATOM     16  H   UNL     1      25.897  26.208  23.119  1.00  0.00     0.211 HD
ENDBRANCH   7  15
ENDBRANCH   1   2
BRANCH   1  17
ATOM     17  C   UNL     1      30.119  29.561  23.960  1.00  0.00     0.224 C 
ATOM     18  C   UNL     1      29.084  30.585  24.476  1.00  0.00     0.208 C 
ATOM     19  O   UNL     1      31.048  30.282  23.176  1.00  0.00    -0.337 OA
ATOM     20  C   UNL     1      29.881  31.869  24.562  1.00  0.00     0.180 C 
ATOM     21  C   UNL     1      31.037  31.640  23.577  1.00  0.00     0.179 C 
BRANCH  17  22
ATOM     22  C   UNL     1      30.909  28.909  25.125  1.00  0.00     0.225 C 
BRANCH  22  23
ATOM     23  O   UNL     1      32.113  28.377  24.646  1.00  0.00    -0.391 OA
ATOM     24  H   UNL     1      32.419  27.724  25.327  1.00  0.00     0.210 HD
ENDBRANCH  22  23
ENDBRANCH  17  22
BRANCH  18  25
ATOM     25  O   UNL     1      27.985  30.713  23.602  1.00  0.00    -0.385 OA
ATOM     26  H   UNL     1      28.159  31.477  22.993  1.00  0.00     0.211 HD
ENDBRANCH  18  25
BRANCH  20  27
ATOM     27  O   UNL     1      29.104  33.000  24.249  1.00  0.00    -0.387 OA
ATOM     28  H   UNL     1      29.052  33.040  23.258  1.00  0.00     0.211 HD
ENDBRANCH  20  27
BRANCH  21  29
ATOM     29  C   UNL     1      30.981  32.534  22.326  1.00  0.00     0.191 C 
BRANCH  29  30
ATOM     30  O   UNL     1      29.882  32.187  21.527  1.00  0.00    -0.394 OA
ATOM     31  H   UNL     1      29.095  32.141  22.130  1.00  0.00     0.210 HD
ENDBRANCH  29  30
ENDBRANCH  21  29
ENDBRANCH   1  17
TORSDOF 13
ENDMDL
MODEL 4
REMARK VINA RESULT:    -2.925      1.941      5.426
REMARK INTER + INTRA:          -5.572
REMARK INTER:                  -5.895
REMARK INTRA:                   0.323
REMARK UNBOUND:                -1.108
REMARK SMILES OC[C@@H]1O[C@@H](O[C@@]2(CO)O[C@@H](CO)[C@@H](O)[C@H]2O)[C@H](O)[C@@H](O)[C@H]1O
REMARK SMILES IDX 6 1 5 2 3 3 22 4 4 5 20 6 18 7 2 8 1 9 23 11 21 13 19 15
REMARK SMILES IDX 7 17 16 18 10 19 14 20 11 21 8 22 9 23 17 25 15 27 12 29
REMARK SMILES IDX 13 30
REMARK H PARENT 1 10 23 12 21 14 19 16 9 24 17 26 15 28 13 31
REMARK Flexibility Score: inf
ROOT
ATOM      1  O   UNL     1      28.274  28.020  24.417  1.00  0.00    -0.313 OA
ENDROOT
BRANCH   1   2
ATOM      2  C   UNL     1      27.512  28.167  23.222  1.00  0.00     0.285 C 
ATOM      3  C   UNL     1      25.599  28.844  24.417  1.00  0.00     0.178 C 
ATOM      4  C   UNL     1      24.805  27.561  24.070  1.00  0.00     0.177 C 
ATOM      5  O   UNL     1      26.510  29.161  23.375  1.00  0.00    -0.341 OA
ATOM      6  C   UNL     1      25.773  26.392  23.808  1.00  0.00     0.179 C 
ATOM      7  C   UNL     1      26.889  26.809  22.827  1.00  0.00     0.202 C 
BRANCH   3   8
ATOM      8  C   UNL     1      24.663  30.050  24.600  1.00  0.00     0.191 C 
BRANCH   8   9
ATOM      9  O   UNL     1      23.744  30.148  23.545  1.00  0.00    -0.394 OA
ATOM     10  H   UNL     1      23.217  29.306  23.547  1.00  0.00     0.210 HD
ENDBRANCH   8   9
ENDBRANCH   3   8
BRANCH   4  11
ATOM     11  O   UNL     1      23.937  27.231  25.124  1.00  0.00    -0.387 OA
ATOM     12  H   UNL     1      23.369  26.483  24.803  1.00  0.00     0.211 HD
ENDBRANCH   4  11
BRANCH   6  13
ATOM     13  O   UNL     1      26.338  25.969  25.025  1.00  0.00    -0.387 OA
ATOM     14  H   UNL     1      25.619  25.512  25.534  1.00  0.00     0.211 HD
ENDBRANCH   6  13
BRANCH   7  15
ATOM     15  O   UNL     1      26.408  26.835  21.505  1.00  0.00    -0.385 OA
ATOM     16  H   UNL     1      26.145  25.914  21.251  1.00  0.00     0.211 HD
ENDBRANCH   7  15
ENDBRANCH   1   2
BRANCH   1  17
ATOM     17  C   UNL     1      29.613  28.503  24.333  1.00  0.00     0.224 C 
ATOM     18  C   UNL     1      30.143  28.488  22.882  1.00  0.00     0.208 C 
ATOM     19  O   UNL     1      30.423  27.611  25.070  1.00  0.00    -0.337 OA
ATOM     20  C   UNL     1      31.613  28.173  23.053  1.00  0.00     0.180 C 
ATOM     21  C   UNL     1      31.673  27.473  24.419  1.00  0.00     0.179 C 
BRANCH  17  22
ATOM     22  C   UNL     1      29.764  29.904  24.983  1.00  0.00     0.225 C 
BRANCH  22  23
ATOM     23  O   UNL     1      29.121  30.867  24.194  1.00  0.00    -0.391 OA
ATOM     24  H   UNL     1      28.184  30.558  24.087  1.00  0.00     0.210 HD
ENDBRANCH  22  23
ENDBRANCH  17  22
BRANCH  18  25
ATOM     25  O   UNL     1      29.493  27.518  22.091  1.00  0.00    -0.385 OA
ATOM     26  H   UNL     1      28.937  26.953  22.688  1.00  0.00     0.211 HD
ENDBRANCH  18  25
BRANCH  20  27
ATOM     27  O   UNL     1      32.114  27.381  22.004  1.00  0.00    -0.387 OA
ATOM     28  H   UNL     1      32.460  28.010  21.317  1.00  0.00     0.211 HD
ENDBRANCH  20  27
BRANCH  21  29
ATOM     29  C   UNL     1      32.039  25.980  24.343  1.00  0.00     0.191 C 
BRANCH  29  30
ATOM     30  O   UNL     1      31.027  25.262  23.689  1.00  0.00    -0.394 OA
ATOM     31  H   UNL     1      31.299  24.307  23.708  1.00  0.00     0.210 HD
ENDBRANCH  29  30
ENDBRANCH  21  29
ENDBRANCH   1  17
TORSDOF 13
ENDMDL
MODEL 5
REMARK VINA RESULT:    -2.833      1.612      2.920
REMARK INTER + INTRA:          -5.431
REMARK INTER:                  -4.487
REMARK INTRA:                  -0.944
REMARK UNBOUND:                -1.108
REMARK SMILES OC[C@@H]1O[C@@H](O[C@@]2(CO)O[C@@H](CO)[C@@H](O)[C@H]2O)[C@H](O)[C@@H](O)[C@H]1O
REMARK SMILES IDX 6 1 5 2 3 3 22 4 4 5 20 6 18 7 2 8 1 9 23 11 21 13 19 15
REMARK SMILES IDX 7 17 16 18 10 19 14 20 11 21 8 22 9 23 17 25 15 27 12 29
REMARK SMILES IDX 13 30
REMARK H PARENT 1 10 23 12 21 14 19 16 9 24 17 26 15 28 13 31
REMARK Flexibility Score: inf
ROOT
ATOM      1  O   UNL     1      27.767  26.989  23.610  1.00  0.00    -0.313 OA
ENDROOT
BRANCH   1   2
ATOM      2  C   UNL     1      28.905  27.022  24.468  1.00  0.00     0.285 C 
ATOM      3  C   UNL     1      29.625  29.082  23.583  1.00  0.00     0.178 C 
ATOM      4  C   UNL     1      30.879  28.470  22.912  1.00  0.00     0.177 C 
ATOM      5  O   UNL     1      29.287  28.359  24.757  1.00  0.00    -0.341 OA
ATOM      6  C   UNL     1      30.638  26.983  22.594  1.00  0.00     0.179 C 
ATOM      7  C   UNL     1      30.071  26.240  23.822  1.00  0.00     0.202 C 
BRANCH   3   8
ATOM      8  C   UNL     1      29.866  30.546  23.990  1.00  0.00     0.191 C 
BRANCH   8   9
ATOM      9  O   UNL     1      29.502  31.428  22.962  1.00  0.00    -0.394 OA
ATOM     10  H   UNL     1      28.606  31.143  22.645  1.00  0.00     0.210 HD
ENDBRANCH   8   9
ENDBRANCH   3   8
BRANCH   4  11
ATOM     11  O   UNL     1      31.181  29.166  21.729  1.00  0.00    -0.387 OA
ATOM     12  H   UNL     1      31.422  30.092  21.996  1.00  0.00     0.211 HD
ENDBRANCH   4  11
BRANCH   6  13
ATOM     13  O   UNL     1      29.744  26.873  21.512  1.00  0.00    -0.387 OA
ATOM     14  H   UNL     1      29.303  27.756  21.413  1.00  0.00     0.211 HD
ENDBRANCH   6  13
BRANCH   7  15
ATOM     15  O   UNL     1      31.087  25.976  24.759  1.00  0.00    -0.385 OA
ATOM     16  H   UNL     1      31.939  25.849  24.267  1.00  0.00     0.211 HD
ENDBRANCH   7  15
ENDBRANCH   1   2
BRANCH   1  17
ATOM     17  C   UNL     1      26.528  27.286  24.253  1.00  0.00     0.224 C 
ATOM     18  C   UNL     1      25.450  27.744  23.246  1.00  0.00     0.208 C 
ATOM     19  O   UNL     1      26.763  28.376  25.120  1.00  0.00    -0.337 OA
ATOM     20  C   UNL     1      24.646  28.754  24.035  1.00  0.00     0.180 C 
ATOM     21  C   UNL     1      25.625  29.218  25.124  1.00  0.00     0.179 C 
BRANCH  17  22
ATOM     22  C   UNL     1      26.032  26.103  25.125  1.00  0.00     0.225 C 
BRANCH  22  23
ATOM     23  O   UNL     1      25.002  25.422  24.464  1.00  0.00    -0.391 OA
ATOM     24  H   UNL     1      24.978  25.784  23.540  1.00  0.00     0.210 HD
ENDBRANCH  22  23
ENDBRANCH  17  22
BRANCH  18  25
ATOM     25  O   UNL     1      26.015  28.319  22.089  1.00  0.00    -0.385 OA
ATOM     26  H   UNL     1      25.495  28.010  21.302  1.00  0.00     0.211 HD
ENDBRANCH  18  25
BRANCH  20  27
ATOM     27  O   UNL     1      24.176  29.807  23.229  1.00  0.00    -0.387 OA
ATOM     28  H   UNL     1      23.505  30.298  23.771  1.00  0.00     0.211 HD
ENDBRANCH  20  27
BRANCH  21  29
ATOM     29  C   UNL     1      26.079  30.680  24.976  1.00  0.00     0.191 C 
BRANCH  29  30
ATOM     30  O   UNL     1      26.648  30.890  23.711  1.00  0.00    -0.394 OA
ATOM     31  H   UNL     1      27.537  30.448  23.721  1.00  0.00     0.210 HD
ENDBRANCH  29  30
ENDBRANCH  21  29
ENDBRANCH   1  17
TORSDOF 13
ENDMDL
MODEL 6
REMARK VINA RESULT:    -2.484      1.597      5.823
REMARK INTER + INTRA:          -4.900
REMARK INTER:                  -3.671
REMARK INTRA:                  -1.228
REMARK UNBOUND:                -1.108
REMARK SMILES OC[C@@H]1O[C@@H](O[C@@]2(CO)O[C@@H](CO)[C@@H](O)[C@H]2O)[C@H](O)[C@@H](O)[C@H]1O
REMARK SMILES IDX 6 1 5 2 3 3 22 4 4 5 20 6 18 7 2 8 1 9 23 11 21 13 19 15
REMARK SMILES IDX 7 17 16 18 10 19 14 20 11 21 8 22 9 23 17 25 15 27 12 29
REMARK SMILES IDX 13 30
REMARK H PARENT 1 10 23 12 21 14 19 16 9 24 17 26 15 28 13 31
REMARK Flexibility Score: inf
ROOT
ATOM      1  O   UNL     1      28.366  29.321  23.482  1.00  0.00    -0.313 OA
ENDROOT
BRANCH   1   2
ATOM      2  C   UNL     1      28.288  28.233  24.401  1.00  0.00     0.285 C 
ATOM      3  C   UNL     1      29.747  26.917  23.103  1.00  0.00     0.178 C 
ATOM      4  C   UNL     1      28.646  25.901  22.712  1.00  0.00     0.177 C 
ATOM      5  O   UNL     1      29.484  27.467  24.385  1.00  0.00    -0.341 OA
ATOM      6  C   UNL     1      27.263  26.579  22.748  1.00  0.00     0.179 C 
ATOM      7  C   UNL     1      27.062  27.353  24.068  1.00  0.00     0.202 C 
BRANCH   3   8
ATOM      8  C   UNL     1      31.131  26.248  23.159  1.00  0.00     0.191 C 
BRANCH   8   9
ATOM      9  O   UNL     1      31.020  24.863  23.354  1.00  0.00    -0.394 OA
ATOM     10  H   UNL     1      31.616  24.433  22.686  1.00  0.00     0.210 HD
ENDBRANCH   8   9
ENDBRANCH   3   8
BRANCH   4  11
ATOM     11  O   UNL     1      28.892  25.394  21.426  1.00  0.00    -0.387 OA
ATOM     12  H   UNL     1      29.735  24.872  21.481  1.00  0.00     0.211 HD
ENDBRANCH   4  11
BRANCH   6  13
ATOM     13  O   UNL     1      27.141  27.455  21.654  1.00  0.00    -0.387 OA
ATOM     14  H   UNL     1      26.473  28.144  21.909  1.00  0.00     0.211 HD
ENDBRANCH   6  13
BRANCH   7  15
ATOM     15  O   UNL     1      26.766  26.472  25.125  1.00  0.00    -0.385 OA
ATOM     16  H   UNL     1      27.101  25.571  24.881  1.00  0.00     0.211 HD
ENDBRANCH   7  15
ENDBRANCH   1   2
BRANCH   1  17
ATOM     17  C   UNL     1      28.792  30.555  24.057  1.00  0.00     0.224 C 
ATOM     18  C   UNL     1      29.516  31.452  23.028  1.00  0.00     0.208 C 
ATOM     19  O   UNL     1      29.738  30.241  25.058  1.00  0.00    -0.337 OA
ATOM     20  C   UNL     1      30.559  32.163  23.862  1.00  0.00     0.180 C 
ATOM     21  C   UNL     1      30.748  31.233  25.070  1.00  0.00     0.179 C 
BRANCH  17  22
ATOM     22  C   UNL     1      27.623  31.305  24.748  1.00  0.00     0.225 C 
BRANCH  22  23
ATOM     23  O   UNL     1      26.515  31.352  23.893  1.00  0.00    -0.391 OA
ATOM     24  H   UNL     1      26.459  30.460  23.462  1.00  0.00     0.210 HD
ENDBRANCH  22  23
ENDBRANCH  17  22
BRANCH  18  25
ATOM     25  O   UNL     1      30.106  30.699  21.991  1.00  0.00    -0.385 OA
ATOM     26  H   UNL     1      30.109  31.253  21.168  1.00  0.00     0.211 HD
ENDBRANCH  18  25
BRANCH  20  27
ATOM     27  O   UNL     1      31.749  32.390  23.147  1.00  0.00    -0.387 OA
ATOM     28  H   UNL     1      31.855  33.375  23.081  1.00  0.00     0.211 HD
ENDBRANCH  20  27
BRANCH  21  29
ATOM     29  C   UNL     1      32.125  30.550  25.125  1.00  0.00     0.191 C 
BRANCH  29  30
ATOM     30  O   UNL     1      32.118  29.374  24.359  1.00  0.00    -0.394 OA
ATOM     31  H   UNL     1      31.776  28.652  24.949  1.00  0.00     0.210 HD
ENDBRANCH  29  30
ENDBRANCH  21  29
ENDBRANCH   1  17
TORSDOF 13
ENDMDL
