MODEL 1
REMARK VINA RESULT:    -4.422      0.000      0.000
REMARK INTER + INTRA:          -4.776
REMARK INTER:                  -4.681
REMARK INTRA:                  -0.095
REMARK UNBOUND:                -0.095
REMARK SMILES C=C(C)[C@H]1CC=C(C)C(=O)C1
REMARK SMILES IDX 8 1 7 2 6 3 5 4 4 5 11 6 9 7 10 8 2 9 1 10 3 11
REMARK H PARENT
REMARK Flexibility Score: inf
ROOT
ATOM      1  C   UNL     1      21.897  49.367  -0.965  1.00  0.00     0.048 C 
ATOM      2  C   UNL     1      22.699  50.570  -0.554  1.00  0.00    -0.012 C 
ATOM      3  C   UNL     1      23.191  50.651   0.694  1.00  0.00    -0.019 C 
ATOM      4  C   UNL     1      23.985  51.842   1.163  1.00  0.00     0.036 C 
ATOM      5  C   UNL     1      24.806  52.450   0.010  1.00  0.00     0.025 C 
ATOM      6  C   UNL     1      23.885  52.794  -1.176  1.00  0.00     0.089 C 
ATOM      7  C   UNL     1      23.051  51.604  -1.561  1.00  0.00     0.158 C 
ATOM      8  O   UNL     1      22.620  51.511  -2.742  1.00  0.00    -0.295 OA
ENDROOT
BRANCH   5   9
ATOM      9  C   UNL     1      25.607  53.662   0.469  1.00  0.00    -0.077 C 
ATOM     10  C   UNL     1      25.985  53.806   1.750  1.00  0.00     0.008 C 
ATOM     11  C   UNL     1      25.994  54.731  -0.522  1.00  0.00     0.039 C 
ENDBRANCH   5   9
TORSDOF 1
ENDMDL
MODEL 2
REMARK VINA RESULT:    -4.421      1.946      4.642
REMARK INTER + INTRA:          -4.775
REMARK INTER:                  -4.678
REMARK INTRA:                  -0.097
REMARK UNBOUND:                -0.095
REMARK SMILES C=C(C)[C@H]1CC=C(C)C(=O)C1
REMARK SMILES IDX 8 1 7 2 6 3 5 4 4 5 11 6 9 7 10 8 2 9 1 10 3 11
REMARK H PARENT
REMARK Flexibility Score: inf
ROOT
ATOM      1  C   UNL     1      25.997  53.548   1.391  1.00  0.00     0.048 C 
ATOM      2  C   UNL     1      24.950  52.743   0.671  1.00  0.00    -0.012 C 
ATOM      3  C   UNL     1      24.463  53.177  -0.503  1.00  0.00    -0.019 C 
ATOM      4  C   UNL     1      23.402  52.420  -1.257  1.00  0.00     0.036 C 
ATOM      5  C   UNL     1      23.543  50.901  -1.037  1.00  0.00     0.025 C 
ATOM      6  C   UNL     1      23.534  50.577   0.468  1.00  0.00     0.089 C 
ATOM      7  C   UNL     1      24.551  51.412   1.196  1.00  0.00     0.158 C 
ATOM      8  O   UNL     1      25.034  50.987   2.279  1.00  0.00    -0.295 OA
ENDROOT
BRANCH   5   9
ATOM      9  C   UNL     1      22.469  50.122  -1.787  1.00  0.00    -0.077 C 
ATOM     10  C   UNL     1      21.749  49.164  -1.180  1.00  0.00     0.008 C 
ATOM     11  C   UNL     1      22.194  50.421  -3.238  1.00  0.00     0.039 C 
ENDBRANCH   5   9
TORSDOF 1
ENDMDL
MODEL 3
REMARK VINA RESULT:    -4.381      1.982      3.488
REMARK INTER + INTRA:          -4.732
REMARK INTER:                  -4.638
REMARK INTRA:                  -0.094
REMARK UNBOUND:                -0.095
REMARK SMILES C=C(C)[C@H]1CC=C(C)C(=O)C1
REMARK SMILES IDX 8 1 7 2 6 3 5 4 4 5 11 6 9 7 10 8 2 9 1 10 3 11
REMARK H PARENT
REMARK Flexibility Score: inf
ROOT
ATOM      1  C   UNL     1      21.463  49.716  -4.599  1.00  0.00     0.048 C 
ATOM      2  C   UNL     1      21.980  50.077  -3.234  1.00  0.00    -0.012 C 
ATOM      3  C   UNL     1      22.683  51.210  -3.064  1.00  0.00    -0.019 C 
ATOM      4  C   UNL     1      23.238  51.611  -1.722  1.00  0.00     0.036 C 
ATOM      5  C   UNL     1      22.321  51.137  -0.578  1.00  0.00     0.025 C 
ATOM      6  C   UNL     1      22.082  49.619  -0.680  1.00  0.00     0.089 C 
ATOM      7  C   UNL     1      21.606  49.250  -2.059  1.00  0.00     0.158 C 
ATOM      8  O   UNL     1      20.916  48.206  -2.212  1.00  0.00    -0.295 OA
ENDROOT
BRANCH   5   9
ATOM      9  C   UNL     1      22.877  51.527   0.786  1.00  0.00    -0.077 C 
ATOM     10  C   UNL     1      22.117  51.468   1.893  1.00  0.00     0.008 C 
ATOM     11  C   UNL     1      24.305  51.990   0.915  1.00  0.00     0.039 C 
ENDBRANCH   5   9
TORSDOF 1
ENDMDL
MODEL 4
REMARK VINA RESULT:    -4.306      1.563      4.263
REMARK INTER + INTRA:          -4.652
REMARK INTER:                  -4.559
REMARK INTRA:                  -0.093
REMARK UNBOUND:                -0.095
REMARK SMILES C=C(C)[C@H]1CC=C(C)C(=O)C1
REMARK SMILES IDX 8 1 7 2 6 3 5 4 4 5 11 6 9 7 10 8 2 9 1 10 3 11
REMARK H PARENT
REMARK Flexibility Score: inf
ROOT
ATOM      1  C   UNL     1      26.021  53.792   1.731  1.00  0.00     0.048 C 
ATOM      2  C   UNL     1      25.195  52.789   0.974  1.00  0.00    -0.012 C 
ATOM      3  C   UNL     1      24.872  51.619   1.549  1.00  0.00    -0.019 C 
ATOM      4  C   UNL     1      24.063  50.572   0.829  1.00  0.00     0.036 C 
ATOM      5  C   UNL     1      23.051  51.220  -0.135  1.00  0.00     0.025 C 
ATOM      6  C   UNL     1      23.775  52.169  -1.109  1.00  0.00     0.089 C 
ATOM      7  C   UNL     1      24.635  53.145  -0.355  1.00  0.00     0.158 C 
ATOM      8  O   UNL     1      24.907  54.258  -0.880  1.00  0.00    -0.295 OA
ENDROOT
BRANCH   5   9
ATOM      9  C   UNL     1      22.232  50.172  -0.878  1.00  0.00    -0.077 C 
ATOM     10  C   UNL     1      21.550  49.220  -0.217  1.00  0.00     0.008 C 
ATOM     11  C   UNL     1      22.172  50.188  -2.384  1.00  0.00     0.039 C 
ENDBRANCH   5   9
TORSDOF 1
ENDMDL
MODEL 5
REMARK VINA RESULT:    -4.292      1.473      2.746
REMARK INTER + INTRA:          -4.638
REMARK INTER:                  -4.542
REMARK INTRA:                  -0.096
REMARK UNBOUND:                -0.095
REMARK SMILES C=C(C)[C@H]1CC=C(C)C(=O)C1
REMARK SMILES IDX 8 1 7 2 6 3 5 4 4 5 11 6 9 7 10 8 2 9 1 10 3 11
REMARK H PARENT
REMARK Flexibility Score: inf
ROOT
ATOM      1  C   UNL     1      21.289  48.713  -4.044  1.00  0.00     0.048 C 
ATOM      2  C   UNL     1      21.722  49.556  -2.876  1.00  0.00    -0.012 C 
ATOM      3  C   UNL     1      21.581  49.086  -1.625  1.00  0.00    -0.019 C 
ATOM      4  C   UNL     1      21.982  49.895  -0.419  1.00  0.00     0.036 C 
ATOM      5  C   UNL     1      23.191  50.797  -0.733  1.00  0.00     0.025 C 
ATOM      6  C   UNL     1      22.891  51.683  -1.957  1.00  0.00     0.089 C 
ATOM      7  C   UNL     1      22.417  50.846  -3.113  1.00  0.00     0.158 C 
ATOM      8  O   UNL     1      22.582  51.271  -4.288  1.00  0.00    -0.295 OA
ENDROOT
BRANCH   5   9
ATOM      9  C   UNL     1      23.601  51.629   0.476  1.00  0.00    -0.077 C 
ATOM     10  C   UNL     1      22.859  51.646   1.597  1.00  0.00     0.008 C 
ATOM     11  C   UNL     1      24.861  52.454   0.432  1.00  0.00     0.039 C 
ENDBRANCH   5   9
TORSDOF 1
ENDMDL
MODEL 6
REMARK VINA RESULT:    -4.208      1.667      2.224
REMARK INTER + INTRA:          -4.550
REMARK INTER:                  -4.452
REMARK INTRA:                  -0.097
REMARK UNBOUND:                -0.095
REMARK SMILES C=C(C)[C@H]1CC=C(C)C(=O)C1
REMARK SMILES IDX 8 1 7 2 6 3 5 4 4 5 11 6 9 7 10 8 2 9 1 10 3 11
REMARK H PARENT
REMARK Flexibility Score: inf
ROOT
ATOM      1  C   UNL     1      21.753  49.468  -0.250  1.00  0.00     0.048 C 
ATOM      2  C   UNL     1      22.863  50.471  -0.095  1.00  0.00    -0.012 C 
ATOM      3  C   UNL     1      22.979  51.481  -0.973  1.00  0.00    -0.019 C 
ATOM      4  C   UNL     1      24.081  52.502  -0.875  1.00  0.00     0.036 C 
ATOM      5  C   UNL     1      24.471  52.758   0.593  1.00  0.00     0.025 C 
ATOM      6  C   UNL     1      24.840  51.433   1.286  1.00  0.00     0.089 C 
ATOM      7  C   UNL     1      23.749  50.415   1.095  1.00  0.00     0.158 C 
ATOM      8  O   UNL     1      23.619  49.488   1.939  1.00  0.00    -0.295 OA
ENDROOT
BRANCH   5   9
ATOM      9  C   UNL     1      25.593  53.783   0.707  1.00  0.00    -0.077 C 
ATOM     10  C   UNL     1      26.270  53.954   1.855  1.00  0.00     0.008 C 
ATOM     11  C   UNL     1      25.966  54.629  -0.483  1.00  0.00     0.039 C 
ENDBRANCH   5   9
TORSDOF 1
ENDMDL
MODEL 7
REMARK VINA RESULT:    -4.172      2.411      4.244
REMARK INTER + INTRA:          -4.512
REMARK INTER:                  -4.423
REMARK INTRA:                  -0.088
REMARK UNBOUND:                -0.095
REMARK SMILES C=C(C)[C@H]1CC=C(C)C(=O)C1
REMARK SMILES IDX 8 1 7 2 6 3 5 4 4 5 11 6 9 7 10 8 2 9 1 10 3 11
REMARK H PARENT
REMARK Flexibility Score: inf
ROOT
ATOM      1  C   UNL     1      22.099  50.841   2.191  1.00  0.00     0.048 C 
ATOM      2  C   UNL     1      22.443  50.689   0.735  1.00  0.00    -0.012 C 
ATOM      3  C   UNL     1      21.764  49.814  -0.025  1.00  0.00    -0.019 C 
ATOM      4  C   UNL     1      22.080  49.609  -1.483  1.00  0.00     0.036 C 
ATOM      5  C   UNL     1      22.572  50.917  -2.133  1.00  0.00     0.025 C 
ATOM      6  C   UNL     1      23.772  51.482  -1.350  1.00  0.00     0.089 C 
ATOM      7  C   UNL     1      23.443  51.594   0.113  1.00  0.00     0.158 C 
ATOM      8  O   UNL     1      24.055  52.442   0.818  1.00  0.00    -0.295 OA
ENDROOT
BRANCH   5   9
ATOM      9  C   UNL     1      22.904  50.722  -3.607  1.00  0.00    -0.077 C 
ATOM     10  C   UNL     1      22.218  51.361  -4.569  1.00  0.00     0.008 C 
ATOM     11  C   UNL     1      24.024  49.798  -4.012  1.00  0.00     0.039 C 
ENDBRANCH   5   9
TORSDOF 1
ENDMDL
MODEL 8
REMARK VINA RESULT:    -4.074      2.111      5.173
REMARK INTER + INTRA:          -4.407
REMARK INTER:                  -4.312
REMARK INTRA:                  -0.095
REMARK UNBOUND:                -0.095
REMARK SMILES C=C(C)[C@H]1CC=C(C)C(=O)C1
REMARK SMILES IDX 8 1 7 2 6 3 5 4 4 5 11 6 9 7 10 8 2 9 1 10 3 11
REMARK H PARENT
REMARK Flexibility Score: inf
ROOT
ATOM      1  C   UNL     1      24.470  52.291   1.033  1.00  0.00     0.048 C 
ATOM      2  C   UNL     1      23.588  51.625   0.014  1.00  0.00    -0.012 C 
ATOM      3  C   UNL     1      23.624  52.029  -1.267  1.00  0.00    -0.019 C 
ATOM      4  C   UNL     1      22.750  51.408  -2.325  1.00  0.00     0.036 C 
ATOM      5  C   UNL     1      22.501  49.916  -2.033  1.00  0.00     0.025 C 
ATOM      6  C   UNL     1      21.920  49.739  -0.618  1.00  0.00     0.089 C 
ATOM      7  C   UNL     1      22.777  50.442   0.398  1.00  0.00     0.158 C 
ATOM      8  O   UNL     1      22.771  50.038   1.592  1.00  0.00    -0.295 OA
ENDROOT
BRANCH   5   9
ATOM      9  C   UNL     1      21.610  49.277  -3.091  1.00  0.00    -0.077 C 
ATOM     10  C   UNL     1      21.585  49.735  -4.354  1.00  0.00     0.008 C 
ATOM     11  C   UNL     1      20.731  48.106  -2.731  1.00  0.00     0.039 C 
ENDBRANCH   5   9
TORSDOF 1
ENDMDL
MODEL 9
REMARK VINA RESULT:    -4.071      2.540      4.385
REMARK INTER + INTRA:          -4.404
REMARK INTER:                  -4.310
REMARK INTRA:                  -0.093
REMARK UNBOUND:                -0.095
REMARK SMILES C=C(C)[C@H]1CC=C(C)C(=O)C1
REMARK SMILES IDX 8 1 7 2 6 3 5 4 4 5 11 6 9 7 10 8 2 9 1 10 3 11
REMARK H PARENT
REMARK Flexibility Score: inf
ROOT
ATOM      1  C   UNL     1      22.471  50.943   2.132  1.00  0.00     0.048 C 
ATOM      2  C   UNL     1      22.479  50.910   0.628  1.00  0.00    -0.012 C 
ATOM      3  C   UNL     1      23.116  51.873  -0.058  1.00  0.00    -0.019 C 
ATOM      4  C   UNL     1      23.141  51.898  -1.564  1.00  0.00     0.036 C 
ATOM      5  C   UNL     1      23.130  50.470  -2.142  1.00  0.00     0.025 C 
ATOM      6  C   UNL     1      21.928  49.680  -1.591  1.00  0.00     0.089 C 
ATOM      7  C   UNL     1      21.894  49.749  -0.089  1.00  0.00     0.158 C 
ATOM      8  O   UNL     1      21.327  48.825   0.556  1.00  0.00    -0.295 OA
ENDROOT
BRANCH   5   9
ATOM      9  C   UNL     1      23.145  50.480  -3.665  1.00  0.00    -0.077 C 
ATOM     10  C   UNL     1      22.274  51.224  -4.368  1.00  0.00     0.008 C 
ATOM     11  C   UNL     1      24.152  49.646  -4.416  1.00  0.00     0.039 C 
ENDBRANCH   5   9
TORSDOF 1
ENDMDL
