MODEL 1
REMARK VINA RESULT:    -7.486      0.000      0.000
REMARK INTER + INTRA:          -9.324
REMARK INTER:                  -9.018
REMARK INTRA:                  -0.307
REMARK UNBOUND:                -0.307
REMARK SMILES O=c1c(O)c(-c2ccc(O)c(O)c2)oc2cc(O)cc(O)c12
REMARK SMILES IDX 5 1 3 2 2 3 1 4 22 5 20 6 19 7 17 8 16 9 15 10 14 11 6 12
REMARK SMILES IDX 7 13 8 14 9 15 13 16 11 17 10 18 12 20 4 22 21 24 18 26
REMARK H PARENT 10 19 12 21 4 23 21 25 18 27
REMARK Flexibility Score: inf
ROOT
ATOM      1  C   UNL     1      22.977  63.014  32.106  1.00  0.00     0.180 A 
ATOM      2  C   UNL     1      22.512  63.289  33.403  1.00  0.00     0.208 A 
ATOM      3  C   UNL     1      23.375  63.091  34.493  1.00  0.00     0.238 A 
ATOM      4  O   UNL     1      22.970  63.392  35.646  1.00  0.00    -0.285 OA
ATOM      5  C   UNL     1      24.686  62.604  34.274  1.00  0.00     0.111 A 
ATOM      6  C   UNL     1      25.631  62.328  35.307  1.00  0.00     0.134 A 
ATOM      7  C   UNL     1      26.942  61.974  34.967  1.00  0.00     0.093 A 
ATOM      8  C   UNL     1      27.324  61.822  33.632  1.00  0.00     0.123 A 
ATOM      9  C   UNL     1      26.393  62.032  32.619  1.00  0.00     0.094 A 
ATOM     10  C   UNL     1      25.086  62.421  32.925  1.00  0.00     0.146 A 
ATOM     11  O   UNL     1      24.234  62.620  31.927  1.00  0.00    -0.452 OA
ENDROOT
BRANCH   1  12
ATOM     12  C   UNL     1      22.119  63.174  30.909  1.00  0.00     0.025 A 
ATOM     13  C   UNL     1      21.464  62.076  30.327  1.00  0.00     0.016 A 
ATOM     14  C   UNL     1      20.678  62.246  29.184  1.00  0.00     0.051 A 
ATOM     15  C   UNL     1      20.548  63.513  28.598  1.00  0.00     0.157 A 
ATOM     16  C   UNL     1      22.002  64.438  30.307  1.00  0.00     0.062 A 
ATOM     17  C   UNL     1      21.216  64.613  29.162  1.00  0.00     0.158 A 
BRANCH  15  18
ATOM     18  O   UNL     1      19.762  63.681  27.460  1.00  0.00    -0.504 OA
ATOM     19  H   UNL     1      19.596  64.598  27.059  1.00  0.00     0.293 HD
ENDBRANCH  15  18
BRANCH  17  20
ATOM     20  O   UNL     1      21.112  65.885  28.600  1.00  0.00    -0.504 OA
ATOM     21  H   UNL     1      20.915  66.706  29.160  1.00  0.00     0.293 HD
ENDBRANCH  17  20
ENDBRANCH   1  12
BRANCH   2  22
ATOM     22  O   UNL     1      21.221  63.791  33.595  1.00  0.00    -0.502 OA
ATOM     23  H   UNL     1      20.666  63.566  34.411  1.00  0.00     0.293 HD
ENDBRANCH   2  22
BRANCH   6  24
ATOM     24  O   UNL     1      25.327  62.360  36.671  1.00  0.00    -0.507 OA
ATOM     25  H   UNL     1      24.749  63.058  37.115  1.00  0.00     0.293 HD
ENDBRANCH   6  24
BRANCH   8  26
ATOM     26  O   UNL     1      28.627  61.453  33.303  1.00  0.00    -0.508 OA
ATOM     27  H   UNL     1      29.070  60.643  33.720  1.00  0.00     0.293 HD
ENDBRANCH   8  26
TORSDOF 6
ENDMDL
MODEL 2
REMARK VINA RESULT:    -7.352      2.136      2.471
REMARK INTER + INTRA:          -9.162
REMARK INTER:                  -8.870
REMARK INTRA:                  -0.292
REMARK UNBOUND:                -0.307
REMARK SMILES O=c1c(O)c(-c2ccc(O)c(O)c2)oc2cc(O)cc(O)c12
REMARK SMILES IDX 5 1 3 2 2 3 1 4 22 5 20 6 19 7 17 8 16 9 15 10 14 11 6 12
REMARK SMILES IDX 7 13 8 14 9 15 13 16 11 17 10 18 12 20 4 22 21 24 18 26
REMARK H PARENT 10 19 12 21 4 23 21 25 18 27
REMARK Flexibility Score: inf
ROOT
ATOM      1  C   UNL     1      22.977  62.876  32.415  1.00  0.00     0.180 A 
ATOM      2  C   UNL     1      23.370  63.046  33.754  1.00  0.00     0.208 A 
ATOM      3  C   UNL     1      24.251  62.115  34.328  1.00  0.00     0.238 A 
ATOM      4  O   UNL     1      24.643  62.304  35.509  1.00  0.00    -0.285 OA
ATOM      5  C   UNL     1      24.715  61.018  33.562  1.00  0.00     0.111 A 
ATOM      6  C   UNL     1      25.578  59.994  34.054  1.00  0.00     0.134 A 
ATOM      7  C   UNL     1      26.077  59.028  33.172  1.00  0.00     0.093 A 
ATOM      8  C   UNL     1      25.692  59.013  31.828  1.00  0.00     0.123 A 
ATOM      9  C   UNL     1      24.804  59.974  31.353  1.00  0.00     0.094 A 
ATOM     10  C   UNL     1      24.317  60.972  32.201  1.00  0.00     0.146 A 
ATOM     11  O   UNL     1      23.480  61.874  31.703  1.00  0.00    -0.452 OA
ENDROOT
BRANCH   1  12
ATOM     12  C   UNL     1      22.032  63.801  31.748  1.00  0.00     0.025 A 
ATOM     13  C   UNL     1      20.649  63.738  31.995  1.00  0.00     0.016 A 
ATOM     14  C   UNL     1      19.773  64.604  31.337  1.00  0.00     0.051 A 
ATOM     15  C   UNL     1      20.263  65.536  30.411  1.00  0.00     0.157 A 
ATOM     16  C   UNL     1      22.515  64.722  30.804  1.00  0.00     0.062 A 
ATOM     17  C   UNL     1      21.641  65.591  30.142  1.00  0.00     0.158 A 
BRANCH  15  18
ATOM     18  O   UNL     1      19.388  66.400  29.756  1.00  0.00    -0.504 OA
ATOM     19  H   UNL     1      18.528  66.715  30.192  1.00  0.00     0.293 HD
ENDBRANCH  15  18
BRANCH  17  20
ATOM     20  O   UNL     1      22.160  66.502  29.221  1.00  0.00    -0.504 OA
ATOM     21  H   UNL     1      22.803  66.220  28.491  1.00  0.00     0.293 HD
ENDBRANCH  17  20
ENDBRANCH   1  12
BRANCH   2  22
ATOM     22  O   UNL     1      22.918  64.148  34.485  1.00  0.00    -0.502 OA
ATOM     23  H   UNL     1      21.934  64.353  34.608  1.00  0.00     0.293 HD
ENDBRANCH   2  22
BRANCH   6  24
ATOM     24  O   UNL     1      25.950  59.864  35.396  1.00  0.00    -0.507 OA
ATOM     25  H   UNL     1      25.664  60.490  36.134  1.00  0.00     0.293 HD
ENDBRANCH   6  24
BRANCH   8  26
ATOM     26  O   UNL     1      26.181  58.038  30.960  1.00  0.00    -0.508 OA
ATOM     27  H   UNL     1      26.103  57.051  31.174  1.00  0.00     0.293 HD
ENDBRANCH   8  26
TORSDOF 6
ENDMDL
MODEL 3
REMARK VINA RESULT:    -7.326      1.694      2.269
REMARK INTER + INTRA:          -9.132
REMARK INTER:                  -8.821
REMARK INTRA:                  -0.311
REMARK UNBOUND:                -0.307
REMARK SMILES O=c1c(O)c(-c2ccc(O)c(O)c2)oc2cc(O)cc(O)c12
REMARK SMILES IDX 5 1 3 2 2 3 1 4 22 5 20 6 19 7 17 8 16 9 15 10 14 11 6 12
REMARK SMILES IDX 7 13 8 14 9 15 13 16 11 17 10 18 12 20 4 22 21 24 18 26
REMARK H PARENT 10 19 12 21 4 23 21 25 18 27
REMARK Flexibility Score: inf
ROOT
ATOM      1  C   UNL     1      23.378  63.548  30.907  1.00  0.00     0.180 A 
ATOM      2  C   UNL     1      22.409  63.701  31.915  1.00  0.00     0.208 A 
ATOM      3  C   UNL     1      22.719  63.295  33.223  1.00  0.00     0.238 A 
ATOM      4  O   UNL     1      21.868  63.485  34.131  1.00  0.00    -0.285 OA
ATOM      5  C   UNL     1      23.984  62.726  33.504  1.00  0.00     0.111 A 
ATOM      6  C   UNL     1      24.389  62.244  34.784  1.00  0.00     0.134 A 
ATOM      7  C   UNL     1      25.710  61.821  34.977  1.00  0.00     0.093 A 
ATOM      8  C   UNL     1      26.623  61.804  33.919  1.00  0.00     0.123 A 
ATOM      9  C   UNL     1      26.219  62.217  32.652  1.00  0.00     0.094 A 
ATOM     10  C   UNL     1      24.918  62.678  32.437  1.00  0.00     0.146 A 
ATOM     11  O   UNL     1      24.579  63.072  31.216  1.00  0.00    -0.452 OA
ENDROOT
BRANCH   1  12
ATOM     12  C   UNL     1      23.118  63.930  29.500  1.00  0.00     0.025 A 
ATOM     13  C   UNL     1      23.275  65.256  29.061  1.00  0.00     0.016 A 
ATOM     14  C   UNL     1      23.001  65.598  27.734  1.00  0.00     0.051 A 
ATOM     15  C   UNL     1      22.553  64.624  26.831  1.00  0.00     0.157 A 
ATOM     16  C   UNL     1      22.648  62.962  28.596  1.00  0.00     0.062 A 
ATOM     17  C   UNL     1      22.373  63.301  27.267  1.00  0.00     0.158 A 
BRANCH  15  18
ATOM     18  O   UNL     1      22.282  64.968  25.508  1.00  0.00    -0.504 OA
ATOM     19  H   UNL     1      21.566  65.644  25.270  1.00  0.00     0.293 HD
ENDBRANCH  15  18
BRANCH  17  20
ATOM     20  O   UNL     1      21.922  62.310  26.395  1.00  0.00    -0.504 OA
ATOM     21  H   UNL     1      21.050  61.816  26.547  1.00  0.00     0.293 HD
ENDBRANCH  17  20
ENDBRANCH   1  12
BRANCH   2  22
ATOM     22  O   UNL     1      21.174  64.285  31.620  1.00  0.00    -0.502 OA
ATOM     23  H   UNL     1      20.358  63.737  31.380  1.00  0.00     0.293 HD
ENDBRANCH   2  22
BRANCH   6  24
ATOM     24  O   UNL     1      23.533  62.133  35.884  1.00  0.00    -0.507 OA
ATOM     25  H   UNL     1      23.764  62.417  36.824  1.00  0.00     0.293 HD
ENDBRANCH   6  24
BRANCH   8  26
ATOM     26  O   UNL     1      27.931  61.366  34.116  1.00  0.00    -0.508 OA
ATOM     27  H   UNL     1      28.238  60.999  35.009  1.00  0.00     0.293 HD
ENDBRANCH   8  26
TORSDOF 6
ENDMDL
MODEL 4
REMARK VINA RESULT:    -7.217      1.568      6.698
REMARK INTER + INTRA:          -9.000
REMARK INTER:                  -8.846
REMARK INTRA:                  -0.154
REMARK UNBOUND:                -0.307
REMARK SMILES O=c1c(O)c(-c2ccc(O)c(O)c2)oc2cc(O)cc(O)c12
REMARK SMILES IDX 5 1 3 2 2 3 1 4 22 5 20 6 19 7 17 8 16 9 15 10 14 11 6 12
REMARK SMILES IDX 7 13 8 14 9 15 13 16 11 17 10 18 12 20 4 22 21 24 18 26
REMARK H PARENT 10 19 12 21 4 23 21 25 18 27
REMARK Flexibility Score: inf
ROOT
ATOM      1  C   UNL     1      23.321  62.538  31.984  1.00  0.00     0.180 A 
ATOM      2  C   UNL     1      22.192  63.272  32.388  1.00  0.00     0.208 A 
ATOM      3  C   UNL     1      21.235  63.634  31.426  1.00  0.00     0.238 A 
ATOM      4  O   UNL     1      20.200  64.242  31.804  1.00  0.00    -0.285 OA
ATOM      5  C   UNL     1      21.426  63.273  30.071  1.00  0.00     0.111 A 
ATOM      6  C   UNL     1      20.541  63.621  29.007  1.00  0.00     0.134 A 
ATOM      7  C   UNL     1      20.761  63.099  27.727  1.00  0.00     0.093 A 
ATOM      8  C   UNL     1      21.871  62.294  27.458  1.00  0.00     0.123 A 
ATOM      9  C   UNL     1      22.772  61.997  28.477  1.00  0.00     0.094 A 
ATOM     10  C   UNL     1      22.560  62.473  29.773  1.00  0.00     0.146 A 
ATOM     11  O   UNL     1      23.439  62.158  30.716  1.00  0.00    -0.452 OA
ENDROOT
BRANCH   1  12
ATOM     12  C   UNL     1      24.385  62.141  32.934  1.00  0.00     0.025 A 
ATOM     13  C   UNL     1      24.126  61.255  33.994  1.00  0.00     0.016 A 
ATOM     14  C   UNL     1      25.139  60.912  34.893  1.00  0.00     0.051 A 
ATOM     15  C   UNL     1      26.422  61.462  34.755  1.00  0.00     0.157 A 
ATOM     16  C   UNL     1      25.666  62.704  32.813  1.00  0.00     0.062 A 
ATOM     17  C   UNL     1      26.684  62.364  33.711  1.00  0.00     0.158 A 
BRANCH  15  18
ATOM     18  O   UNL     1      27.431  61.117  35.652  1.00  0.00    -0.504 OA
ATOM     19  H   UNL     1      28.383  61.443  35.530  1.00  0.00     0.293 HD
ENDBRANCH  15  18
BRANCH  17  20
ATOM     20  O   UNL     1      27.947  62.933  33.550  1.00  0.00    -0.504 OA
ATOM     21  H   UNL     1      28.553  63.127  34.338  1.00  0.00     0.293 HD
ENDBRANCH  17  20
ENDBRANCH   1  12
BRANCH   2  22
ATOM     22  O   UNL     1      22.012  63.599  33.735  1.00  0.00    -0.502 OA
ATOM     23  H   UNL     1      22.417  63.054  34.486  1.00  0.00     0.293 HD
ENDBRANCH   2  22
BRANCH   6  24
ATOM     24  O   UNL     1      19.456  64.491  29.148  1.00  0.00    -0.507 OA
ATOM     25  H   UNL     1      19.492  65.486  28.984  1.00  0.00     0.293 HD
ENDBRANCH   6  24
BRANCH   8  26
ATOM     26  O   UNL     1      22.091  61.792  26.177  1.00  0.00    -0.508 OA
ATOM     27  H   UNL     1      22.571  60.912  26.027  1.00  0.00     0.293 HD
ENDBRANCH   8  26
TORSDOF 6
ENDMDL
MODEL 5
REMARK VINA RESULT:    -7.214      2.284      6.652
REMARK INTER + INTRA:          -8.997
REMARK INTER:                  -9.105
REMARK INTRA:                   0.108
REMARK UNBOUND:                -0.307
REMARK SMILES O=c1c(O)c(-c2ccc(O)c(O)c2)oc2cc(O)cc(O)c12
REMARK SMILES IDX 5 1 3 2 2 3 1 4 22 5 20 6 19 7 17 8 16 9 15 10 14 11 6 12
REMARK SMILES IDX 7 13 8 14 9 15 13 16 11 17 10 18 12 20 4 22 21 24 18 26
REMARK H PARENT 10 19 12 21 4 23 21 25 18 27
REMARK Flexibility Score: inf
ROOT
ATOM      1  C   UNL     1      23.665  62.893  31.145  1.00  0.00     0.180 A 
ATOM      2  C   UNL     1      22.631  63.821  31.364  1.00  0.00     0.208 A 
ATOM      3  C   UNL     1      22.150  64.572  30.280  1.00  0.00     0.238 A 
ATOM      4  O   UNL     1      21.187  65.360  30.472  1.00  0.00    -0.285 OA
ATOM      5  C   UNL     1      22.719  64.401  28.995  1.00  0.00     0.111 A 
ATOM      6  C   UNL     1      22.336  65.138  27.835  1.00  0.00     0.134 A 
ATOM      7  C   UNL     1      22.875  64.793  26.589  1.00  0.00     0.093 A 
ATOM      8  C   UNL     1      23.831  63.781  26.473  1.00  0.00     0.123 A 
ATOM      9  C   UNL     1      24.254  63.096  27.609  1.00  0.00     0.094 A 
ATOM     10  C   UNL     1      23.708  63.393  28.861  1.00  0.00     0.146 A 
ATOM     11  O   UNL     1      24.133  62.708  29.916  1.00  0.00    -0.452 OA
ENDROOT
BRANCH   1  12
ATOM     12  C   UNL     1      24.241  62.082  32.242  1.00  0.00     0.025 A 
ATOM     13  C   UNL     1      24.459  60.701  32.093  1.00  0.00     0.016 A 
ATOM     14  C   UNL     1      24.983  59.951  33.149  1.00  0.00     0.051 A 
ATOM     15  C   UNL     1      25.282  60.565  34.373  1.00  0.00     0.157 A 
ATOM     16  C   UNL     1      24.523  62.689  33.477  1.00  0.00     0.062 A 
ATOM     17  C   UNL     1      25.048  61.940  34.536  1.00  0.00     0.158 A 
BRANCH  15  18
ATOM     18  O   UNL     1      25.806  59.815  35.424  1.00  0.00    -0.504 OA
ATOM     19  H   UNL     1      26.441  60.221  36.101  1.00  0.00     0.293 HD
ENDBRANCH  15  18
BRANCH  17  20
ATOM     20  O   UNL     1      25.328  62.581  35.744  1.00  0.00    -0.504 OA
ATOM     21  H   UNL     1      26.188  63.096  35.892  1.00  0.00     0.293 HD
ENDBRANCH  17  20
ENDBRANCH   1  12
BRANCH   2  22
ATOM     22  O   UNL     1      22.068  63.958  32.636  1.00  0.00    -0.502 OA
ATOM     23  H   UNL     1      21.511  64.761  32.900  1.00  0.00     0.293 HD
ENDBRANCH   2  22
BRANCH   6  24
ATOM     24  O   UNL     1      21.459  66.226  27.856  1.00  0.00    -0.507 OA
ATOM     25  H   UNL     1      21.420  66.920  28.588  1.00  0.00     0.293 HD
ENDBRANCH   6  24
BRANCH   8  26
ATOM     26  O   UNL     1      24.374  63.456  25.232  1.00  0.00    -0.508 OA
ATOM     27  H   UNL     1      23.977  62.724  24.654  1.00  0.00     0.293 HD
ENDBRANCH   8  26
TORSDOF 6
ENDMDL
MODEL 6
REMARK VINA RESULT:    -7.213      1.992      3.665
REMARK INTER + INTRA:          -8.996
REMARK INTER:                  -8.921
REMARK INTRA:                  -0.075
REMARK UNBOUND:                -0.307
REMARK SMILES O=c1c(O)c(-c2ccc(O)c(O)c2)oc2cc(O)cc(O)c12
REMARK SMILES IDX 5 1 3 2 2 3 1 4 22 5 20 6 19 7 17 8 16 9 15 10 14 11 6 12
REMARK SMILES IDX 7 13 8 14 9 15 13 16 11 17 10 18 12 20 4 22 21 24 18 26
REMARK H PARENT 10 19 12 21 4 23 21 25 18 27
REMARK Flexibility Score: inf
ROOT
ATOM      1  C   UNL     1      23.789  62.996  30.904  1.00  0.00     0.180 A 
ATOM      2  C   UNL     1      24.803  62.036  31.071  1.00  0.00     0.208 A 
ATOM      3  C   UNL     1      25.142  61.623  32.370  1.00  0.00     0.238 A 
ATOM      4  O   UNL     1      26.011  60.724  32.509  1.00  0.00    -0.285 OA
ATOM      5  C   UNL     1      24.475  62.185  33.485  1.00  0.00     0.111 A 
ATOM      6  C   UNL     1      24.765  61.870  34.846  1.00  0.00     0.134 A 
ATOM      7  C   UNL     1      23.955  62.388  35.863  1.00  0.00     0.093 A 
ATOM      8  C   UNL     1      22.905  63.263  35.572  1.00  0.00     0.123 A 
ATOM      9  C   UNL     1      22.651  63.623  34.251  1.00  0.00     0.094 A 
ATOM     10  C   UNL     1      23.420  63.094  33.211  1.00  0.00     0.146 A 
ATOM     11  O   UNL     1      23.138  63.456  31.966  1.00  0.00    -0.452 OA
ENDROOT
BRANCH   1  12
ATOM     12  C   UNL     1      23.394  63.500  29.569  1.00  0.00     0.025 A 
ATOM     13  C   UNL     1      23.434  64.872  29.264  1.00  0.00     0.016 A 
ATOM     14  C   UNL     1      23.033  65.328  28.005  1.00  0.00     0.051 A 
ATOM     15  C   UNL     1      22.573  64.422  27.039  1.00  0.00     0.157 A 
ATOM     16  C   UNL     1      22.912  62.600  28.604  1.00  0.00     0.062 A 
ATOM     17  C   UNL     1      22.510  63.053  27.343  1.00  0.00     0.158 A 
BRANCH  15  18
ATOM     18  O   UNL     1      22.176  64.880  25.784  1.00  0.00    -0.504 OA
ATOM     19  H   UNL     1      22.599  65.696  25.357  1.00  0.00     0.293 HD
ENDBRANCH  15  18
BRANCH  17  20
ATOM     20  O   UNL     1      22.050  62.127  26.406  1.00  0.00    -0.504 OA
ATOM     21  H   UNL     1      22.234  61.135  26.495  1.00  0.00     0.293 HD
ENDBRANCH  17  20
ENDBRANCH   1  12
BRANCH   2  22
ATOM     22  O   UNL     1      25.433  61.477  29.956  1.00  0.00    -0.502 OA
ATOM     23  H   UNL     1      26.302  61.840  29.584  1.00  0.00     0.293 HD
ENDBRANCH   2  22
BRANCH   6  24
ATOM     24  O   UNL     1      25.846  61.080  35.251  1.00  0.00    -0.507 OA
ATOM     25  H   UNL     1      26.685  60.934  34.711  1.00  0.00     0.293 HD
ENDBRANCH   6  24
BRANCH   8  26
ATOM     26  O   UNL     1      22.113  63.788  36.592  1.00  0.00    -0.508 OA
ATOM     27  H   UNL     1      21.143  63.516  36.703  1.00  0.00     0.293 HD
ENDBRANCH   8  26
TORSDOF 6
ENDMDL
MODEL 7
REMARK VINA RESULT:    -7.159     10.716     12.818
REMARK INTER + INTRA:          -8.931
REMARK INTER:                  -8.611
REMARK INTRA:                  -0.319
REMARK UNBOUND:                -0.307
REMARK SMILES O=c1c(O)c(-c2ccc(O)c(O)c2)oc2cc(O)cc(O)c12
REMARK SMILES IDX 5 1 3 2 2 3 1 4 22 5 20 6 19 7 17 8 16 9 15 10 14 11 6 12
REMARK SMILES IDX 7 13 8 14 9 15 13 16 11 17 10 18 12 20 4 22 21 24 18 26
REMARK H PARENT 10 19 12 21 4 23 21 25 18 27
REMARK Flexibility Score: inf
ROOT
ATOM      1  C   UNL     1      16.712  56.469  26.376  1.00  0.00     0.180 A 
ATOM      2  C   UNL     1      17.503  57.362  25.631  1.00  0.00     0.208 A 
ATOM      3  C   UNL     1      17.069  58.689  25.478  1.00  0.00     0.238 A 
ATOM      4  O   UNL     1      17.808  59.497  24.857  1.00  0.00    -0.285 OA
ATOM      5  C   UNL     1      15.845  59.102  26.055  1.00  0.00     0.111 A 
ATOM      6  C   UNL     1      15.290  60.411  25.929  1.00  0.00     0.134 A 
ATOM      7  C   UNL     1      14.138  60.746  26.651  1.00  0.00     0.093 A 
ATOM      8  C   UNL     1      13.485  59.798  27.444  1.00  0.00     0.123 A 
ATOM      9  C   UNL     1      13.985  58.502  27.526  1.00  0.00     0.094 A 
ATOM     10  C   UNL     1      15.154  58.148  26.846  1.00  0.00     0.146 A 
ATOM     11  O   UNL     1      15.601  56.904  26.960  1.00  0.00    -0.452 OA
ENDROOT
BRANCH   1  12
ATOM     12  C   UNL     1      17.090  55.049  26.561  1.00  0.00     0.025 A 
ATOM     13  C   UNL     1      17.951  54.651  27.598  1.00  0.00     0.016 A 
ATOM     14  C   UNL     1      18.313  53.308  27.740  1.00  0.00     0.051 A 
ATOM     15  C   UNL     1      17.831  52.348  26.840  1.00  0.00     0.157 A 
ATOM     16  C   UNL     1      16.626  54.086  25.650  1.00  0.00     0.062 A 
ATOM     17  C   UNL     1      16.986  52.741  25.789  1.00  0.00     0.158 A 
BRANCH  15  18
ATOM     18  O   UNL     1      18.191  51.009  26.985  1.00  0.00    -0.504 OA
ATOM     19  H   UNL     1      18.779  50.541  26.305  1.00  0.00     0.293 HD
ENDBRANCH  15  18
BRANCH  17  20
ATOM     20  O   UNL     1      16.495  51.810  24.873  1.00  0.00    -0.504 OA
ATOM     21  H   UNL     1      15.720  51.196  25.093  1.00  0.00     0.293 HD
ENDBRANCH  17  20
ENDBRANCH   1  12
BRANCH   2  22
ATOM     22  O   UNL     1      18.719  56.940  25.088  1.00  0.00    -0.502 OA
ATOM     23  H   UNL     1      19.613  57.232  25.462  1.00  0.00     0.293 HD
ENDBRANCH   2  22
BRANCH   6  24
ATOM     24  O   UNL     1      15.812  61.403  25.093  1.00  0.00    -0.507 OA
ATOM     25  H   UNL     1      16.696  61.341  24.610  1.00  0.00     0.293 HD
ENDBRANCH   6  24
BRANCH   8  26
ATOM     26  O   UNL     1      12.329  60.135  28.146  1.00  0.00    -0.508 OA
ATOM     27  H   UNL     1      11.409  60.021  27.739  1.00  0.00     0.293 HD
ENDBRANCH   8  26
TORSDOF 6
ENDMDL
MODEL 8
REMARK VINA RESULT:    -7.012      3.669      5.361
REMARK INTER + INTRA:          -8.753
REMARK INTER:                  -8.645
REMARK INTRA:                  -0.109
REMARK UNBOUND:                -0.307
REMARK SMILES O=c1c(O)c(-c2ccc(O)c(O)c2)oc2cc(O)cc(O)c12
REMARK SMILES IDX 5 1 3 2 2 3 1 4 22 5 20 6 19 7 17 8 16 9 15 10 14 11 6 12
REMARK SMILES IDX 7 13 8 14 9 15 13 16 11 17 10 18 12 20 4 22 21 24 18 26
REMARK H PARENT 10 19 12 21 4 23 21 25 18 27
REMARK Flexibility Score: inf
ROOT
ATOM      1  C   UNL     1      23.223  63.533  28.054  1.00  0.00     0.180 A 
ATOM      2  C   UNL     1      21.885  63.955  28.139  1.00  0.00     0.208 A 
ATOM      3  C   UNL     1      21.271  64.024  29.400  1.00  0.00     0.238 A 
ATOM      4  O   UNL     1      20.092  64.456  29.475  1.00  0.00    -0.285 OA
ATOM      5  C   UNL     1      21.997  63.655  30.558  1.00  0.00     0.111 A 
ATOM      6  C   UNL     1      21.463  63.648  31.881  1.00  0.00     0.134 A 
ATOM      7  C   UNL     1      22.309  63.390  32.967  1.00  0.00     0.093 A 
ATOM      8  C   UNL     1      23.656  63.075  32.770  1.00  0.00     0.123 A 
ATOM      9  C   UNL     1      24.172  63.021  31.479  1.00  0.00     0.094 A 
ATOM     10  C   UNL     1      23.361  63.309  30.378  1.00  0.00     0.146 A 
ATOM     11  O   UNL     1      23.897  63.255  29.165  1.00  0.00    -0.452 OA
ENDROOT
BRANCH   1  12
ATOM     12  C   UNL     1      23.930  63.410  26.759  1.00  0.00     0.025 A 
ATOM     13  C   UNL     1      24.467  62.183  26.332  1.00  0.00     0.016 A 
ATOM     14  C   UNL     1      25.151  62.095  25.116  1.00  0.00     0.051 A 
ATOM     15  C   UNL     1      25.322  63.235  24.318  1.00  0.00     0.157 A 
ATOM     16  C   UNL     1      24.123  64.553  25.965  1.00  0.00     0.062 A 
ATOM     17  C   UNL     1      24.807  64.469  24.747  1.00  0.00     0.158 A 
BRANCH  15  18
ATOM     18  O   UNL     1      26.003  63.144  23.106  1.00  0.00    -0.504 OA
ATOM     19  H   UNL     1      25.510  63.073  22.223  1.00  0.00     0.293 HD
ENDBRANCH  15  18
BRANCH  17  20
ATOM     20  O   UNL     1      24.967  65.623  23.979  1.00  0.00    -0.504 OA
ATOM     21  H   UNL     1      25.830  65.828  23.490  1.00  0.00     0.293 HD
ENDBRANCH  17  20
ENDBRANCH   1  12
BRANCH   2  22
ATOM     22  O   UNL     1      21.193  64.336  26.985  1.00  0.00    -0.502 OA
ATOM     23  H   UNL     1      20.743  65.238  26.895  1.00  0.00     0.293 HD
ENDBRANCH   2  22
BRANCH   6  24
ATOM     24  O   UNL     1      20.113  63.860  32.179  1.00  0.00    -0.507 OA
ATOM     25  H   UNL     1      19.346  63.359  31.757  1.00  0.00     0.293 HD
ENDBRANCH   6  24
BRANCH   8  26
ATOM     26  O   UNL     1      24.487  62.804  33.856  1.00  0.00    -0.508 OA
ATOM     27  H   UNL     1      24.757  63.528  34.511  1.00  0.00     0.293 HD
ENDBRANCH   8  26
TORSDOF 6
ENDMDL
MODEL 9
REMARK VINA RESULT:    -6.888      8.883     10.517
REMARK INTER + INTRA:          -8.603
REMARK INTER:                  -8.297
REMARK INTRA:                  -0.306
REMARK UNBOUND:                -0.307
REMARK SMILES O=c1c(O)c(-c2ccc(O)c(O)c2)oc2cc(O)cc(O)c12
REMARK SMILES IDX 5 1 3 2 2 3 1 4 22 5 20 6 19 7 17 8 16 9 15 10 14 11 6 12
REMARK SMILES IDX 7 13 8 14 9 15 13 16 11 17 10 18 12 20 4 22 21 24 18 26
REMARK H PARENT 10 19 12 21 4 23 21 25 18 27
REMARK Flexibility Score: inf
ROOT
ATOM      1  C   UNL     1      17.961  57.262  26.244  1.00  0.00     0.180 A 
ATOM      2  C   UNL     1      19.171  57.533  26.908  1.00  0.00     0.208 A 
ATOM      3  C   UNL     1      19.573  56.695  27.960  1.00  0.00     0.238 A 
ATOM      4  O   UNL     1      20.683  56.909  28.513  1.00  0.00    -0.285 OA
ATOM      5  C   UNL     1      18.753  55.608  28.348  1.00  0.00     0.111 A 
ATOM      6  C   UNL     1      19.042  54.719  29.426  1.00  0.00     0.134 A 
ATOM      7  C   UNL     1      18.227  53.600  29.636  1.00  0.00     0.093 A 
ATOM      8  C   UNL     1      17.095  53.375  28.848  1.00  0.00     0.123 A 
ATOM      9  C   UNL     1      16.772  54.269  27.831  1.00  0.00     0.094 A 
ATOM     10  C   UNL     1      17.587  55.375  27.574  1.00  0.00     0.146 A 
ATOM     11  O   UNL     1      17.247  56.197  26.588  1.00  0.00    -0.452 OA
ENDROOT
BRANCH   1  12
ATOM     12  C   UNL     1      17.459  58.115  25.142  1.00  0.00     0.025 A 
ATOM     13  C   UNL     1      17.693  57.783  23.797  1.00  0.00     0.016 A 
ATOM     14  C   UNL     1      17.230  58.614  22.773  1.00  0.00     0.051 A 
ATOM     15  C   UNL     1      16.540  59.795  23.079  1.00  0.00     0.157 A 
ATOM     16  C   UNL     1      16.785  59.309  25.444  1.00  0.00     0.062 A 
ATOM     17  C   UNL     1      16.319  60.144  24.422  1.00  0.00     0.158 A 
BRANCH  15  18
ATOM     18  O   UNL     1      16.077  60.621  22.057  1.00  0.00    -0.504 OA
ATOM     19  H   UNL     1      15.475  61.414  22.246  1.00  0.00     0.293 HD
ENDBRANCH  15  18
BRANCH  17  20
ATOM     20  O   UNL     1      15.642  61.316  24.760  1.00  0.00    -0.504 OA
ATOM     21  H   UNL     1      14.845  61.648  24.230  1.00  0.00     0.293 HD
ENDBRANCH  17  20
ENDBRANCH   1  12
BRANCH   2  22
ATOM     22  O   UNL     1      19.976  58.598  26.495  1.00  0.00    -0.502 OA
ATOM     23  H   UNL     1      20.384  58.645  25.569  1.00  0.00     0.293 HD
ENDBRANCH   2  22
BRANCH   6  24
ATOM     24  O   UNL     1      20.093  54.903  30.328  1.00  0.00    -0.507 OA
ATOM     25  H   UNL     1      20.650  54.159  30.722  1.00  0.00     0.293 HD
ENDBRANCH   6  24
BRANCH   8  26
ATOM     26  O   UNL     1      16.280  52.267  29.075  1.00  0.00    -0.508 OA
ATOM     27  H   UNL     1      16.614  51.460  29.588  1.00  0.00     0.293 HD
ENDBRANCH   8  26
TORSDOF 6
ENDMDL
