MODEL 1
REMARK VINA RESULT:    -4.154      0.000      0.000
REMARK INTER + INTRA:          -4.154
REMARK INTER:                  -4.154
REMARK INTRA:                   0.000
REMARK UNBOUND:                 0.000
REMARK SMILES CC(C)=C1CC[C@@H](C)CC1=O
REMARK SMILES IDX 8 1 7 2 6 3 5 4 4 5 2 6 1 7 3 8 10 9 11 10 9 11
REMARK H PARENT
REMARK Flexibility Score: inf
ROOT
ATOM      1  C   UNL     1     -15.898  23.681  19.531  1.00  0.00     0.008 C 
ATOM      2  C   UNL     1     -15.806  25.157  19.127  1.00  0.00    -0.006 C 
ATOM      3  C   UNL     1     -15.278  25.291  17.689  1.00  0.00     0.008 C 
ATOM      4  C   UNL     1     -15.276  26.755  17.230  1.00  0.00     0.039 C 
ATOM      5  C   UNL     1     -14.553  27.673  18.207  1.00  0.00    -0.006 C 
ATOM      6  C   UNL     1     -13.883  28.782  17.776  1.00  0.00    -0.070 C 
ATOM      7  C   UNL     1     -13.847  29.155  16.311  1.00  0.00     0.039 C 
ATOM      8  C   UNL     1     -13.113  29.667  18.728  1.00  0.00     0.039 C 
ATOM      9  C   UNL     1     -14.719  27.350  19.655  1.00  0.00     0.159 C 
ATOM     10  O   UNL     1     -14.723  28.256  20.532  1.00  0.00    -0.295 OA
ATOM     11  C   UNL     1     -14.893  25.925  20.094  1.00  0.00     0.084 C 
ENDROOT
TORSDOF 0
ENDMDL
MODEL 2
REMARK VINA RESULT:    -4.077      1.718      2.922
REMARK INTER + INTRA:          -4.077
REMARK INTER:                  -4.077
REMARK INTRA:                   0.000
REMARK UNBOUND:                 0.000
REMARK SMILES CC(C)=C1CC[C@@H](C)CC1=O
REMARK SMILES IDX 8 1 7 2 6 3 5 4 4 5 2 6 1 7 3 8 10 9 11 10 9 11
REMARK H PARENT
REMARK Flexibility Score: inf
ROOT
ATOM      1  C   UNL     1     -14.725  25.342  14.567  1.00  0.00     0.008 C 
ATOM      2  C   UNL     1     -14.882  26.435  15.630  1.00  0.00    -0.006 C 
ATOM      3  C   UNL     1     -13.732  27.450  15.535  1.00  0.00     0.008 C 
ATOM      4  C   UNL     1     -13.927  28.608  16.523  1.00  0.00     0.039 C 
ATOM      5  C   UNL     1     -14.166  28.126  17.948  1.00  0.00    -0.006 C 
ATOM      6  C   UNL     1     -13.743  28.854  19.023  1.00  0.00    -0.070 C 
ATOM      7  C   UNL     1     -13.036  30.179  18.844  1.00  0.00     0.039 C 
ATOM      8  C   UNL     1     -13.923  28.360  20.439  1.00  0.00     0.039 C 
ATOM      9  C   UNL     1     -14.981  26.884  18.092  1.00  0.00     0.159 C 
ATOM     10  O   UNL     1     -15.733  26.706  19.088  1.00  0.00    -0.295 OA
ATOM     11  C   UNL     1     -14.923  25.818  17.037  1.00  0.00     0.084 C 
ENDROOT
TORSDOF 0
ENDMDL
MODEL 3
REMARK VINA RESULT:    -4.029      1.636      4.579
REMARK INTER + INTRA:          -4.029
REMARK INTER:                  -4.029
REMARK INTRA:                   0.000
REMARK UNBOUND:                 0.000
REMARK SMILES CC(C)=C1CC[C@@H](C)CC1=O
REMARK SMILES IDX 8 1 7 2 6 3 5 4 4 5 2 6 1 7 3 8 10 9 11 10 9 11
REMARK H PARENT
REMARK Flexibility Score: inf
ROOT
ATOM      1  C   UNL     1     -12.966  30.265  18.756  1.00  0.00     0.008 C 
ATOM      2  C   UNL     1     -13.936  29.079  18.707  1.00  0.00    -0.006 C 
ATOM      3  C   UNL     1     -13.735  28.166  19.927  1.00  0.00     0.008 C 
ATOM      4  C   UNL     1     -14.766  27.029  19.948  1.00  0.00     0.039 C 
ATOM      5  C   UNL     1     -14.807  26.254  18.638  1.00  0.00    -0.006 C 
ATOM      6  C   UNL     1     -15.108  24.922  18.610  1.00  0.00    -0.070 C 
ATOM      7  C   UNL     1     -15.430  24.165  19.879  1.00  0.00     0.039 C 
ATOM      8  C   UNL     1     -15.096  24.130  17.324  1.00  0.00     0.039 C 
ATOM      9  C   UNL     1     -14.616  27.058  17.394  1.00  0.00     0.159 C 
ATOM     10  O   UNL     1     -15.185  26.739  16.315  1.00  0.00    -0.295 OA
ATOM     11  C   UNL     1     -13.739  28.275  17.412  1.00  0.00     0.084 C 
ENDROOT
TORSDOF 0
ENDMDL
MODEL 4
REMARK VINA RESULT:    -4.009      3.087      5.186
REMARK INTER + INTRA:          -4.009
REMARK INTER:                  -4.009
REMARK INTRA:                   0.000
REMARK UNBOUND:                 0.000
REMARK SMILES CC(C)=C1CC[C@@H](C)CC1=O
REMARK SMILES IDX 8 1 7 2 6 3 5 4 4 5 2 6 1 7 3 8 10 9 11 10 9 11
REMARK H PARENT
REMARK Flexibility Score: inf
ROOT
ATOM      1  C   UNL     1     -16.789  33.673  19.135  1.00  0.00     0.008 C 
ATOM      2  C   UNL     1     -16.148  32.331  18.765  1.00  0.00    -0.006 C 
ATOM      3  C   UNL     1     -17.101  31.170  19.089  1.00  0.00     0.008 C 
ATOM      4  C   UNL     1     -16.519  29.826  18.631  1.00  0.00     0.039 C 
ATOM      5  C   UNL     1     -15.109  29.591  19.157  1.00  0.00    -0.006 C 
ATOM      6  C   UNL     1     -14.658  28.333  19.440  1.00  0.00    -0.070 C 
ATOM      7  C   UNL     1     -15.534  27.119  19.224  1.00  0.00     0.039 C 
ATOM      8  C   UNL     1     -13.283  28.092  20.016  1.00  0.00     0.039 C 
ATOM      9  C   UNL     1     -14.228  30.793  19.232  1.00  0.00     0.159 C 
ATOM     10  O   UNL     1     -12.982  30.705  19.058  1.00  0.00    -0.295 OA
ATOM     11  C   UNL     1     -14.820  32.144  19.513  1.00  0.00     0.084 C 
ENDROOT
TORSDOF 0
ENDMDL
MODEL 5
REMARK VINA RESULT:    -3.987      1.205      3.975
REMARK INTER + INTRA:          -3.987
REMARK INTER:                  -3.987
REMARK INTRA:                   0.000
REMARK UNBOUND:                 0.000
REMARK SMILES CC(C)=C1CC[C@@H](C)CC1=O
REMARK SMILES IDX 8 1 7 2 6 3 5 4 4 5 2 6 1 7 3 8 10 9 11 10 9 11
REMARK H PARENT
REMARK Flexibility Score: inf
ROOT
ATOM      1  C   UNL     1     -13.348  30.626  19.126  1.00  0.00     0.008 C 
ATOM      2  C   UNL     1     -13.499  29.152  18.733  1.00  0.00    -0.006 C 
ATOM      3  C   UNL     1     -13.937  29.027  17.265  1.00  0.00     0.008 C 
ATOM      4  C   UNL     1     -13.994  27.558  16.824  1.00  0.00     0.039 C 
ATOM      5  C   UNL     1     -14.833  26.699  17.760  1.00  0.00    -0.006 C 
ATOM      6  C   UNL     1     -15.537  25.624  17.298  1.00  0.00    -0.070 C 
ATOM      7  C   UNL     1     -15.497  25.230  15.838  1.00  0.00     0.039 C 
ATOM      8  C   UNL     1     -16.417  24.798  18.206  1.00  0.00     0.039 C 
ATOM      9  C   UNL     1     -14.744  27.033  19.212  1.00  0.00     0.159 C 
ATOM     10  O   UNL     1     -14.851  26.142  20.098  1.00  0.00    -0.295 OA
ATOM     11  C   UNL     1     -14.517  28.452  19.646  1.00  0.00     0.084 C 
ENDROOT
TORSDOF 0
ENDMDL
MODEL 6
REMARK VINA RESULT:    -3.972      2.834      4.441
REMARK INTER + INTRA:          -3.972
REMARK INTER:                  -3.972
REMARK INTRA:                   0.000
REMARK UNBOUND:                 0.000
REMARK SMILES CC(C)=C1CC[C@@H](C)CC1=O
REMARK SMILES IDX 8 1 7 2 6 3 5 4 4 5 2 6 1 7 3 8 10 9 11 10 9 11
REMARK H PARENT
REMARK Flexibility Score: inf
ROOT
ATOM      1  C   UNL     1     -14.032  28.747  13.993  1.00  0.00     0.008 C 
ATOM      2  C   UNL     1     -13.982  29.188  15.460  1.00  0.00    -0.006 C 
ATOM      3  C   UNL     1     -13.725  27.983  16.379  1.00  0.00     0.008 C 
ATOM      4  C   UNL     1     -13.570  28.420  17.841  1.00  0.00     0.039 C 
ATOM      5  C   UNL     1     -14.730  29.283  18.320  1.00  0.00    -0.006 C 
ATOM      6  C   UNL     1     -15.148  29.253  19.619  1.00  0.00    -0.070 C 
ATOM      7  C   UNL     1     -14.464  28.374  20.643  1.00  0.00     0.039 C 
ATOM      8  C   UNL     1     -16.334  30.060  20.093  1.00  0.00     0.039 C 
ATOM      9  C   UNL     1     -15.295  30.235  17.318  1.00  0.00     0.159 C 
ATOM     10  O   UNL     1     -15.776  31.346  17.670  1.00  0.00    -0.295 OA
ATOM     11  C   UNL     1     -15.294  29.882  15.860  1.00  0.00     0.084 C 
ENDROOT
TORSDOF 0
ENDMDL
MODEL 7
REMARK VINA RESULT:    -3.960      1.475      4.088
REMARK INTER + INTRA:          -3.960
REMARK INTER:                  -3.960
REMARK INTRA:                   0.000
REMARK UNBOUND:                 0.000
REMARK SMILES CC(C)=C1CC[C@@H](C)CC1=O
REMARK SMILES IDX 8 1 7 2 6 3 5 4 4 5 2 6 1 7 3 8 10 9 11 10 9 11
REMARK H PARENT
REMARK Flexibility Score: inf
ROOT
ATOM      1  C   UNL     1     -14.074  28.907  13.761  1.00  0.00     0.008 C 
ATOM      2  C   UNL     1     -13.807  28.360  15.167  1.00  0.00    -0.006 C 
ATOM      3  C   UNL     1     -14.783  27.219  15.497  1.00  0.00     0.008 C 
ATOM      4  C   UNL     1     -14.464  26.589  16.860  1.00  0.00     0.039 C 
ATOM      5  C   UNL     1     -14.376  27.624  17.974  1.00  0.00    -0.006 C 
ATOM      6  C   UNL     1     -14.737  27.319  19.255  1.00  0.00    -0.070 C 
ATOM      7  C   UNL     1     -15.223  25.936  19.625  1.00  0.00     0.039 C 
ATOM      8  C   UNL     1     -14.707  28.352  20.358  1.00  0.00     0.039 C 
ATOM      9  C   UNL     1     -13.768  28.936  17.604  1.00  0.00     0.159 C 
ATOM     10  O   UNL     1     -13.104  29.609  18.438  1.00  0.00    -0.295 OA
ATOM     11  C   UNL     1     -13.934  29.477  16.214  1.00  0.00     0.084 C 
ENDROOT
TORSDOF 0
ENDMDL
MODEL 8
REMARK VINA RESULT:    -3.922      2.178      3.747
REMARK INTER + INTRA:          -3.922
REMARK INTER:                  -3.922
REMARK INTRA:                   0.000
REMARK UNBOUND:                 0.000
REMARK SMILES CC(C)=C1CC[C@@H](C)CC1=O
REMARK SMILES IDX 8 1 7 2 6 3 5 4 4 5 2 6 1 7 3 8 10 9 11 10 9 11
REMARK H PARENT
REMARK Flexibility Score: inf
ROOT
ATOM      1  C   UNL     1     -14.295  28.734  20.636  1.00  0.00     0.008 C 
ATOM      2  C   UNL     1     -14.660  28.338  19.201  1.00  0.00    -0.006 C 
ATOM      3  C   UNL     1     -14.810  26.812  19.082  1.00  0.00     0.008 C 
ATOM      4  C   UNL     1     -15.275  26.405  17.678  1.00  0.00     0.039 C 
ATOM      5  C   UNL     1     -14.401  26.994  16.579  1.00  0.00    -0.006 C 
ATOM      6  C   UNL     1     -14.193  26.329  15.405  1.00  0.00    -0.070 C 
ATOM      7  C   UNL     1     -14.837  24.986  15.140  1.00  0.00     0.039 C 
ATOM      8  C   UNL     1     -13.282  26.875  14.331  1.00  0.00     0.039 C 
ATOM      9  C   UNL     1     -13.889  28.376  16.818  1.00  0.00     0.159 C 
ATOM     10  O   UNL     1     -13.702  29.179  15.865  1.00  0.00    -0.295 OA
ATOM     11  C   UNL     1     -13.592  28.838  18.215  1.00  0.00     0.084 C 
ENDROOT
TORSDOF 0
ENDMDL
