MODEL 1
REMARK VINA RESULT:    -4.233      0.000      0.000
REMARK INTER + INTRA:          -6.584
REMARK INTER:                  -6.461
REMARK INTRA:                  -0.123
REMARK UNBOUND:                -0.123
REMARK SMILES CC1=CCC[C@@H](C)C(=O)C[C@H](C(C)C)C(=O)C1
REMARK SMILES IDX 8 1 9 2 6 3 7 4 5 5 4 6 3 7 2 8 1 9 10 11 11 12 15 13 16 14
REMARK SMILES IDX 17 15 12 17 13 18 14 19
REMARK H PARENT
REMARK Flexibility Score: 70.00
ROOT
ATOM      1  C   UNL     1      18.879 -13.216  67.049  1.00  0.00     0.136 C 
ATOM      2  O   UNL     1      17.922 -13.460  67.771  1.00  0.00    -0.299 OA
ENDROOT
BRANCH   1   3
ATOM      3  C   UNL     1      20.295 -13.441  67.554  1.00  0.00     0.053 C 
ATOM      4  C   UNL     1      20.621 -12.585  68.788  1.00  0.00     0.016 C 
BRANCH   3   5
ATOM      5  C   UNL     1      21.332 -13.236  66.431  1.00  0.00     0.015 C 
BRANCH   5   6
ATOM      6  C   UNL     1      21.945 -11.821  66.402  1.00  0.00     0.028 C 
BRANCH   6   7
ATOM      7  C   UNL     1      22.430 -11.477  65.017  1.00  0.00    -0.028 C 
ATOM      8  C   UNL     1      21.812 -10.610  64.178  1.00  0.00    -0.070 CG0
ATOM      9  C   UNL     1      22.397 -10.421  62.802  1.00  0.00     0.039 C 
ATOM     10  G   UNL     1      20.576  -9.814  64.570  1.00  0.00     0.000 G0
ENDBRANCH   6   7
ENDBRANCH   5   6
ENDBRANCH   3   5
ENDBRANCH   1   3
BRANCH   1  11
ATOM     11  C   UNL     1      18.628 -12.685  65.659  1.00  0.00     0.087 C 
BRANCH  11  12
ATOM     12  C   UNL     1      18.575 -11.134  65.627  1.00  0.00     0.066 C 
BRANCH  12  13
ATOM     13  C   UNL     1      19.293 -10.583  64.404  1.00  0.00     0.140 C 
ATOM     14  O   UNL     1      18.797 -10.718  63.295  1.00  0.00    -0.299 OA
BRANCH  13  15
ATOM     15  C   UNL     1      20.572  -9.793  64.547  1.00  0.00     0.106 CG0
ATOM     16  G   UNL     1      21.804 -10.613  64.196  1.00  0.00     0.000 G0
ENDBRANCH  13  15
ENDBRANCH  12  13
BRANCH  12  17
ATOM     17  C   UNL     1      17.124 -10.560  65.723  1.00  0.00    -0.006 C 
ATOM     18  C   UNL     1      16.794 -10.094  67.151  1.00  0.00     0.008 C 
ATOM     19  C   UNL     1      16.033 -11.525  65.224  1.00  0.00     0.008 C 
ENDBRANCH  12  17
ENDBRANCH  11  12
ENDBRANCH   1  11
TORSDOF 1
ENDMDL
MODEL 2
REMARK VINA RESULT:    -4.137      1.841      2.763
REMARK INTER + INTRA:          -6.437
REMARK INTER:                  -6.460
REMARK INTRA:                   0.023
REMARK UNBOUND:                -0.123
REMARK SMILES CC1=CCC[C@@H](C)C(=O)C[C@H](C(C)C)C(=O)C1
REMARK SMILES IDX 8 1 9 2 6 3 7 4 5 5 4 6 3 7 2 8 1 9 10 11 11 12 15 13 16 14
REMARK SMILES IDX 17 15 12 17 13 18 14 19
REMARK H PARENT
REMARK Flexibility Score: 70.00
ROOT
ATOM      1  C   UNL     1      17.937 -12.698  65.779  1.00  0.00     0.136 C 
ATOM      2  O   UNL     1      18.926 -13.418  65.791  1.00  0.00    -0.299 OA
ENDROOT
BRANCH   1   3
ATOM      3  C   UNL     1      17.163 -12.438  67.061  1.00  0.00     0.053 C 
ATOM      4  C   UNL     1      16.024 -11.424  66.863  1.00  0.00     0.016 C 
BRANCH   3   5
ATOM      5  C   UNL     1      18.102 -12.019  68.210  1.00  0.00     0.015 C 
BRANCH   5   6
ATOM      6  C   UNL     1      18.782 -10.652  67.991  1.00  0.00     0.028 C 
BRANCH   6   7
ATOM      7  C   UNL     1      20.206 -10.831  67.532  1.00  0.00    -0.028 C 
ATOM      8  C   UNL     1      20.713 -10.329  66.380  1.00  0.00    -0.070 CG0
ATOM      9  C   UNL     1      22.146 -10.649  66.040  1.00  0.00     0.039 C 
ATOM     10  G   UNL     1      19.910  -9.448  65.435  1.00  0.00     0.000 G0
ENDBRANCH   6   7
ENDBRANCH   5   6
ENDBRANCH   3   5
ENDBRANCH   1   3
BRANCH   1  11
ATOM     11  C   UNL     1      17.499 -12.081  64.473  1.00  0.00     0.087 C 
BRANCH  11  12
ATOM     12  C   UNL     1      17.727 -10.546  64.446  1.00  0.00     0.066 C 
BRANCH  12  13
ATOM     13  C   UNL     1      19.208 -10.211  64.342  1.00  0.00     0.140 C 
ATOM     14  O   UNL     1      19.830 -10.511  63.334  1.00  0.00    -0.299 OA
BRANCH  13  15
ATOM     15  C   UNL     1      19.904  -9.433  65.433  1.00  0.00     0.106 CG0
ATOM     16  G   UNL     1      20.713 -10.328  66.359  1.00  0.00     0.000 G0
ENDBRANCH  13  15
ENDBRANCH  12  13
BRANCH  12  17
ATOM     17  C   UNL     1      16.913  -9.816  63.328  1.00  0.00    -0.006 C 
ATOM     18  C   UNL     1      16.216  -8.557  63.867  1.00  0.00     0.008 C 
ATOM     19  C   UNL     1      15.888 -10.713  62.611  1.00  0.00     0.008 C 
ENDBRANCH  12  17
ENDBRANCH  11  12
ENDBRANCH   1  11
TORSDOF 1
ENDMDL
MODEL 3
REMARK VINA RESULT:    -4.025      1.769      4.182
REMARK INTER + INTRA:          -6.265
REMARK INTER:                  -6.127
REMARK INTRA:                  -0.138
REMARK UNBOUND:                -0.123
REMARK SMILES CC1=CCC[C@@H](C)C(=O)C[C@H](C(C)C)C(=O)C1
REMARK SMILES IDX 8 1 9 2 6 3 7 4 5 5 4 6 3 7 2 8 1 9 10 11 11 12 15 13 16 14
REMARK SMILES IDX 17 15 12 17 13 18 14 19
REMARK H PARENT
REMARK Flexibility Score: 70.00
ROOT
ATOM      1  C   UNL     1      18.461  -9.712  64.153  1.00  0.00     0.136 C 
ATOM      2  O   UNL     1      17.926  -9.628  63.056  1.00  0.00    -0.299 OA
ENDROOT
BRANCH   1   3
ATOM      3  C   UNL     1      19.888  -9.225  64.348  1.00  0.00     0.053 C 
ATOM      4  C   UNL     1      20.823  -9.681  63.217  1.00  0.00     0.016 C 
BRANCH   3   5
ATOM      5  C   UNL     1      20.436  -9.625  65.733  1.00  0.00     0.015 C 
BRANCH   5   6
ATOM      6  C   UNL     1      21.240 -10.941  65.727  1.00  0.00     0.028 C 
BRANCH   6   7
ATOM      7  C   UNL     1      21.203 -11.597  67.083  1.00  0.00    -0.028 C 
ATOM      8  C   UNL     1      20.364 -12.603  67.429  1.00  0.00    -0.070 CG0
ATOM      9  C   UNL     1      20.415 -13.110  68.848  1.00  0.00     0.039 C 
ATOM     10  G   UNL     1      19.395 -13.250  66.450  1.00  0.00     0.000 G0
ENDBRANCH   6   7
ENDBRANCH   5   6
ENDBRANCH   3   5
ENDBRANCH   1   3
BRANCH   1  11
ATOM     11  C   UNL     1      17.685 -10.310  65.301  1.00  0.00     0.087 C 
BRANCH  11  12
ATOM     12  C   UNL     1      17.548 -11.851  65.174  1.00  0.00     0.066 C 
BRANCH  12  13
ATOM     13  C   UNL     1      18.036 -12.553  66.433  1.00  0.00     0.140 C 
ATOM     14  O   UNL     1      17.307 -12.623  67.412  1.00  0.00    -0.299 OA
BRANCH  13  15
ATOM     15  C   UNL     1      19.378 -13.243  66.463  1.00  0.00     0.106 CG0
ATOM     16  G   UNL     1      20.346 -12.589  67.439  1.00  0.00     0.000 G0
ENDBRANCH  13  15
ENDBRANCH  12  13
BRANCH  12  17
ATOM     17  C   UNL     1      16.102 -12.318  64.803  1.00  0.00    -0.006 C 
ATOM     18  C   UNL     1      16.109 -13.272  63.598  1.00  0.00     0.008 C 
ATOM     19  C   UNL     1      15.116 -11.164  64.550  1.00  0.00     0.008 C 
ENDBRANCH  12  17
ENDBRANCH  11  12
ENDBRANCH   1  11
TORSDOF 1
ENDMDL
MODEL 4
REMARK VINA RESULT:    -3.948      1.721      2.629
REMARK INTER + INTRA:          -6.149
REMARK INTER:                  -6.647
REMARK INTRA:                   0.499
REMARK UNBOUND:                -0.123
REMARK SMILES CC1=CCC[C@@H](C)C(=O)C[C@H](C(C)C)C(=O)C1
REMARK SMILES IDX 8 1 9 2 6 3 7 4 5 5 4 6 3 7 2 8 1 9 10 11 11 12 15 13 16 14
REMARK SMILES IDX 17 15 12 17 13 18 14 19
REMARK H PARENT
REMARK Flexibility Score: 70.00
ROOT
ATOM      1  C   UNL     1      17.418 -12.451  65.706  1.00  0.00     0.136 C 
ATOM      2  O   UNL     1      17.135 -13.369  64.948  1.00  0.00    -0.299 OA
ENDROOT
BRANCH   1   3
ATOM      3  C   UNL     1      18.775 -12.414  66.389  1.00  0.00     0.053 C 
ATOM      4  C   UNL     1      19.236 -13.806  66.853  1.00  0.00     0.016 C 
BRANCH   3   5
ATOM      5  C   UNL     1      18.796 -11.395  67.546  1.00  0.00     0.015 C 
BRANCH   5   6
ATOM      6  C   UNL     1      19.238  -9.981  67.120  1.00  0.00     0.028 C 
BRANCH   6   7
ATOM      7  C   UNL     1      20.196 -10.047  65.958  1.00  0.00    -0.028 C 
ATOM      8  C   UNL     1      19.875  -9.746  64.677  1.00  0.00    -0.070 CG0
ATOM      9  C   UNL     1      20.938  -9.922  63.622  1.00  0.00     0.039 C 
ATOM     10  G   UNL     1      18.506  -9.226  64.265  1.00  0.00     0.000 G0
ENDBRANCH   6   7
ENDBRANCH   5   6
ENDBRANCH   3   5
ENDBRANCH   1   3
BRANCH   1  11
ATOM     11  C   UNL     1      16.398 -11.367  65.953  1.00  0.00     0.087 C 
BRANCH  11  12
ATOM     12  C   UNL     1      16.214 -10.446  64.717  1.00  0.00     0.066 C 
BRANCH  12  13
ATOM     13  C   UNL     1      17.508 -10.317  63.927  1.00  0.00     0.140 C 
ATOM     14  O   UNL     1      17.723 -11.066  62.985  1.00  0.00    -0.299 OA
BRANCH  13  15
ATOM     15  C   UNL     1      18.498  -9.219  64.236  1.00  0.00     0.106 CG0
ATOM     16  G   UNL     1      19.849  -9.762  64.677  1.00  0.00     0.000 G0
ENDBRANCH  13  15
ENDBRANCH  12  13
BRANCH  12  17
ATOM     17  C   UNL     1      15.037 -10.884  63.785  1.00  0.00    -0.006 C 
ATOM     18  C   UNL     1      14.382  -9.675  63.097  1.00  0.00     0.008 C 
ATOM     19  C   UNL     1      13.961 -11.729  64.490  1.00  0.00     0.008 C 
ENDBRANCH  12  17
ENDBRANCH  11  12
ENDBRANCH   1  11
TORSDOF 1
ENDMDL
MODEL 5
REMARK VINA RESULT:    -3.936      3.997      6.483
REMARK INTER + INTRA:          -6.130
REMARK INTER:                  -5.923
REMARK INTRA:                  -0.208
REMARK UNBOUND:                -0.123
REMARK SMILES CC1=CCC[C@@H](C)C(=O)C[C@H](C(C)C)C(=O)C1
REMARK SMILES IDX 8 1 9 2 6 3 7 4 5 5 4 6 3 7 2 8 1 9 10 11 11 12 15 13 16 14
REMARK SMILES IDX 17 15 12 17 13 18 14 19
REMARK H PARENT
REMARK Flexibility Score: 70.00
ROOT
ATOM      1  C   UNL     1      13.137 -11.205  62.469  1.00  0.00     0.136 C 
ATOM      2  O   UNL     1      12.075 -10.648  62.714  1.00  0.00    -0.299 OA
ENDROOT
BRANCH   1   3
ATOM      3  C   UNL     1      13.340 -12.663  62.845  1.00  0.00     0.053 C 
ATOM      4  C   UNL     1      12.344 -13.596  62.137  1.00  0.00     0.016 C 
BRANCH   3   5
ATOM      5  C   UNL     1      13.312 -12.861  64.375  1.00  0.00     0.015 C 
BRANCH   5   6
ATOM      6  C   UNL     1      14.182 -11.848  65.148  1.00  0.00     0.028 C 
BRANCH   6   7
ATOM      7  C   UNL     1      15.644 -12.186  65.011  1.00  0.00    -0.028 C 
ATOM      8  C   UNL     1      16.620 -11.288  64.736  1.00  0.00    -0.070 CG0
ATOM      9  C   UNL     1      18.028 -11.801  64.574  1.00  0.00     0.039 C 
ATOM     10  G   UNL     1      16.359  -9.794  64.603  1.00  0.00     0.000 G0
ENDBRANCH   6   7
ENDBRANCH   5   6
ENDBRANCH   3   5
ENDBRANCH   1   3
BRANCH   1  11
ATOM     11  C   UNL     1      14.236 -10.419  61.797  1.00  0.00     0.087 C 
BRANCH  11  12
ATOM     12  C   UNL     1      14.687  -9.201  62.647  1.00  0.00     0.066 C 
BRANCH  12  13
ATOM     13  C   UNL     1      16.108  -9.382  63.160  1.00  0.00     0.140 C 
ATOM     14  O   UNL     1      17.055  -9.128  62.431  1.00  0.00    -0.299 OA
BRANCH  13  15
ATOM     15  C   UNL     1      16.368  -9.790  64.590  1.00  0.00     0.106 CG0
ATOM     16  G   UNL     1      16.643 -11.280  64.728  1.00  0.00     0.000 G0
ENDBRANCH  13  15
ENDBRANCH  12  13
BRANCH  12  17
ATOM     17  C   UNL     1      14.536  -7.834  61.901  1.00  0.00    -0.006 C 
ATOM     18  C   UNL     1      13.482  -6.938  62.573  1.00  0.00     0.008 C 
ATOM     19  C   UNL     1      14.227  -7.969  60.400  1.00  0.00     0.008 C 
ENDBRANCH  12  17
ENDBRANCH  11  12
ENDBRANCH   1  11
TORSDOF 1
ENDMDL
MODEL 6
REMARK VINA RESULT:    -3.706      7.645      9.973
REMARK INTER + INTRA:          -5.780
REMARK INTER:                  -5.550
REMARK INTRA:                  -0.229
REMARK UNBOUND:                -0.123
REMARK SMILES CC1=CCC[C@@H](C)C(=O)C[C@H](C(C)C)C(=O)C1
REMARK SMILES IDX 8 1 9 2 6 3 7 4 5 5 4 6 3 7 2 8 1 9 10 11 11 12 15 13 16 14
REMARK SMILES IDX 17 15 12 17 13 18 14 19
REMARK H PARENT
REMARK Flexibility Score: 70.00
ROOT
ATOM      1  C   UNL     1      12.347  -6.476  62.877  1.00  0.00     0.136 C 
ATOM      2  O   UNL     1      11.591  -7.016  63.672  1.00  0.00    -0.299 OA
ENDROOT
BRANCH   1   3
ATOM      3  C   UNL     1      11.903  -5.236  62.119  1.00  0.00     0.053 C 
ATOM      4  C   UNL     1      11.266  -4.182  63.040  1.00  0.00     0.016 C 
BRANCH   3   5
ATOM      5  C   UNL     1      10.973  -5.597  60.943  1.00  0.00     0.015 C 
BRANCH   5   6
ATOM      6  C   UNL     1      11.600  -5.347  59.556  1.00  0.00     0.028 C 
BRANCH   6   7
ATOM      7  C   UNL     1      12.828  -4.482  59.673  1.00  0.00    -0.028 C 
ATOM      8  C   UNL     1      14.100  -4.929  59.543  1.00  0.00    -0.070 CG0
ATOM      9  C   UNL     1      15.221  -3.941  59.747  1.00  0.00     0.039 C 
ATOM     10  G   UNL     1      14.442  -6.368  59.186  1.00  0.00     0.000 G0
ENDBRANCH   6   7
ENDBRANCH   5   6
ENDBRANCH   3   5
ENDBRANCH   1   3
BRANCH   1  11
ATOM     11  C   UNL     1      13.720  -7.064  62.659  1.00  0.00     0.087 C 
BRANCH  11  12
ATOM     12  C   UNL     1      13.824  -7.823  61.309  1.00  0.00     0.066 C 
BRANCH  12  13
ATOM     13  C   UNL     1      14.866  -7.189  60.400  1.00  0.00     0.140 C 
ATOM     14  O   UNL     1      16.055  -7.391  60.603  1.00  0.00    -0.299 OA
BRANCH  13  15
ATOM     15  C   UNL     1      14.453  -6.383  59.192  1.00  0.00     0.106 CG0
ATOM     16  G   UNL     1      14.101  -4.945  59.546  1.00  0.00     0.000 G0
ENDBRANCH  13  15
ENDBRANCH  12  13
BRANCH  12  17
ATOM     17  C   UNL     1      14.090  -9.354  61.476  1.00  0.00    -0.006 C 
ATOM     18  C   UNL     1      12.833 -10.183  61.166  1.00  0.00     0.008 C 
ATOM     19  C   UNL     1      14.648  -9.748  62.856  1.00  0.00     0.008 C 
ENDBRANCH  12  17
ENDBRANCH  11  12
ENDBRANCH   1  11
TORSDOF 1
ENDMDL
MODEL 7
REMARK VINA RESULT:    -3.699      4.251      6.279
REMARK INTER + INTRA:          -5.769
REMARK INTER:                  -5.669
REMARK INTRA:                  -0.100
REMARK UNBOUND:                -0.123
REMARK SMILES CC1=CCC[C@@H](C)C(=O)C[C@H](C(C)C)C(=O)C1
REMARK SMILES IDX 8 1 9 2 6 3 7 4 5 5 4 6 3 7 2 8 1 9 10 11 11 12 15 13 16 14
REMARK SMILES IDX 17 15 12 17 13 18 14 19
REMARK H PARENT
REMARK Flexibility Score: 70.00
ROOT
ATOM      1  C   UNL     1      16.041 -10.013  64.387  1.00  0.00     0.136 C 
ATOM      2  O   UNL     1      16.796  -9.057  64.279  1.00  0.00    -0.299 OA
ENDROOT
BRANCH   1   3
ATOM      3  C   UNL     1      16.448 -11.219  65.219  1.00  0.00     0.053 C 
ATOM      4  C   UNL     1      16.856 -10.833  66.650  1.00  0.00     0.016 C 
BRANCH   3   5
ATOM      5  C   UNL     1      17.548 -12.042  64.517  1.00  0.00     0.015 C 
BRANCH   5   6
ATOM      6  C   UNL     1      17.137 -12.571  63.128  1.00  0.00     0.028 C 
BRANCH   6   7
ATOM      7  C   UNL     1      15.875 -13.390  63.220  1.00  0.00    -0.028 C 
ATOM      8  C   UNL     1      14.815 -13.269  62.384  1.00  0.00    -0.070 CG0
ATOM      9  C   UNL     1      13.604 -14.125  62.650  1.00  0.00     0.039 C 
ATOM     10  G   UNL     1      14.805 -12.326  61.190  1.00  0.00     0.000 G0
ENDBRANCH   6   7
ENDBRANCH   5   6
ENDBRANCH   3   5
ENDBRANCH   1   3
BRANCH   1  11
ATOM     11  C   UNL     1      14.709  -9.976  63.679  1.00  0.00     0.087 C 
BRANCH  11  12
ATOM     12  C   UNL     1      14.869  -9.889  62.138  1.00  0.00     0.066 C 
BRANCH  12  13
ATOM     13  C   UNL     1      14.129 -11.022  61.442  1.00  0.00     0.140 C 
ATOM     14  O   UNL     1      12.993 -10.844  61.027  1.00  0.00    -0.299 OA
BRANCH  13  15
ATOM     15  C   UNL     1      14.810 -12.344  61.178  1.00  0.00     0.106 CG0
ATOM     16  G   UNL     1      14.804 -13.255  62.397  1.00  0.00     0.000 G0
ENDBRANCH  13  15
ENDBRANCH  12  13
BRANCH  12  17
ATOM     17  C   UNL     1      14.446  -8.505  61.546  1.00  0.00    -0.006 C 
ATOM     18  C   UNL     1      15.666  -7.612  61.269  1.00  0.00     0.008 C 
ATOM     19  C   UNL     1      13.425  -7.740  62.408  1.00  0.00     0.008 C 
ENDBRANCH  12  17
ENDBRANCH  11  12
ENDBRANCH   1  11
TORSDOF 1
ENDMDL
MODEL 8
REMARK VINA RESULT:    -3.622     12.349     14.767
REMARK INTER + INTRA:          -5.650
REMARK INTER:                  -5.684
REMARK INTRA:                   0.034
REMARK UNBOUND:                -0.123
REMARK SMILES CC1=CCC[C@@H](C)C(=O)C[C@H](C(C)C)C(=O)C1
REMARK SMILES IDX 8 1 9 2 6 3 7 4 5 5 4 6 3 7 2 8 1 9 10 11 11 12 15 13 16 14
REMARK SMILES IDX 17 15 12 17 13 18 14 19
REMARK H PARENT
REMARK Flexibility Score: 70.00
ROOT
ATOM      1  C   UNL     1       7.155  -8.261  54.857  1.00  0.00     0.136 C 
ATOM      2  O   UNL     1       6.000  -8.318  54.457  1.00  0.00    -0.299 OA
ENDROOT
BRANCH   1   3
ATOM      3  C   UNL     1       8.150  -9.346  54.479  1.00  0.00     0.053 C 
ATOM      4  C   UNL     1       7.996 -10.609  55.341  1.00  0.00     0.016 C 
BRANCH   3   5
ATOM      5  C   UNL     1       9.598  -8.815  54.503  1.00  0.00     0.015 C 
BRANCH   5   6
ATOM      6  C   UNL     1      10.519  -9.568  55.485  1.00  0.00     0.028 C 
BRANCH   6   7
ATOM      7  C   UNL     1      11.651  -8.684  55.941  1.00  0.00    -0.028 C 
ATOM      8  C   UNL     1      11.619  -7.899  57.045  1.00  0.00    -0.070 CG0
ATOM      9  C   UNL     1      12.816  -7.029  57.329  1.00  0.00     0.039 C 
ATOM     10  G   UNL     1      10.443  -7.875  58.012  1.00  0.00     0.000 G0
ENDBRANCH   6   7
ENDBRANCH   5   6
ENDBRANCH   3   5
ENDBRANCH   1   3
BRANCH   1  11
ATOM     11  C   UNL     1       7.568  -7.104  55.732  1.00  0.00     0.087 C 
BRANCH  11  12
ATOM     12  C   UNL     1       7.977  -7.565  57.157  1.00  0.00     0.066 C 
BRANCH  12  13
ATOM     13  C   UNL     1       9.322  -6.978  57.561  1.00  0.00     0.140 C 
ATOM     14  O   UNL     1       9.475  -5.765  57.581  1.00  0.00    -0.299 OA
BRANCH  13  15
ATOM     15  C   UNL     1      10.448  -7.871  58.024  1.00  0.00     0.106 CG0
ATOM     16  G   UNL     1      11.621  -7.876  57.054  1.00  0.00     0.000 G0
ENDBRANCH  13  15
ENDBRANCH  12  13
BRANCH  12  17
ATOM     17  C   UNL     1       6.892  -7.266  58.242  1.00  0.00    -0.006 C 
ATOM     18  C   UNL     1       6.399  -8.555  58.918  1.00  0.00     0.008 C 
ATOM     19  C   UNL     1       5.690  -6.457  57.722  1.00  0.00     0.008 C 
ENDBRANCH  12  17
ENDBRANCH  11  12
ENDBRANCH   1  11
TORSDOF 1
ENDMDL
MODEL 9
REMARK VINA RESULT:    -3.516      5.204      7.289
REMARK INTER + INTRA:          -5.489
REMARK INTER:                  -5.219
REMARK INTRA:                  -0.269
REMARK UNBOUND:                -0.123
REMARK SMILES CC1=CCC[C@@H](C)C(=O)C[C@H](C(C)C)C(=O)C1
REMARK SMILES IDX 8 1 9 2 6 3 7 4 5 5 4 6 3 7 2 8 1 9 10 11 11 12 15 13 16 14
REMARK SMILES IDX 17 15 12 17 13 18 14 19
REMARK H PARENT
REMARK Flexibility Score: 70.00
ROOT
ATOM      1  C   UNL     1      16.148 -11.709  62.256  1.00  0.00     0.136 C 
ATOM      2  O   UNL     1      16.675 -12.810  62.168  1.00  0.00    -0.299 OA
ENDROOT
BRANCH   1   3
ATOM      3  C   UNL     1      16.678 -10.683  63.244  1.00  0.00     0.053 C 
ATOM      4  C   UNL     1      15.930 -10.719  64.586  1.00  0.00     0.016 C 
BRANCH   3   5
ATOM      5  C   UNL     1      16.685  -9.266  62.635  1.00  0.00     0.015 C 
BRANCH   5   6
ATOM      6  C   UNL     1      15.664  -8.308  63.282  1.00  0.00     0.028 C 
BRANCH   6   7
ATOM      7  C   UNL     1      14.946  -7.503  62.231  1.00  0.00    -0.028 C 
ATOM      8  C   UNL     1      13.675  -7.731  61.821  1.00  0.00    -0.070 CG0
ATOM      9  C   UNL     1      13.123  -6.868  60.714  1.00  0.00     0.039 C 
ATOM     10  G   UNL     1      12.783  -8.798  62.437  1.00  0.00     0.000 G0
ENDBRANCH   6   7
ENDBRANCH   5   6
ENDBRANCH   3   5
ENDBRANCH   1   3
BRANCH   1  11
ATOM     11  C   UNL     1      14.964 -11.394  61.375  1.00  0.00     0.087 C 
BRANCH  11  12
ATOM     12  C   UNL     1      13.647 -11.269  62.188  1.00  0.00     0.066 C 
BRANCH  12  13
ATOM     13  C   UNL     1      12.804 -10.103  61.694  1.00  0.00     0.140 C 
ATOM     14  O   UNL     1      12.086 -10.243  60.715  1.00  0.00    -0.299 OA
BRANCH  13  15
ATOM     15  C   UNL     1      12.773  -8.796  62.449  1.00  0.00     0.106 CG0
ATOM     16  G   UNL     1      13.679  -7.743  61.826  1.00  0.00     0.000 G0
ENDBRANCH  13  15
ENDBRANCH  12  13
BRANCH  12  17
ATOM     17  C   UNL     1      12.808 -12.588  62.218  1.00  0.00    -0.006 C 
ATOM     18  C   UNL     1      12.752 -13.189  63.632  1.00  0.00     0.008 C 
ATOM     19  C   UNL     1      13.280 -13.655  61.215  1.00  0.00     0.008 C 
ENDBRANCH  12  17
ENDBRANCH  11  12
ENDBRANCH   1  11
TORSDOF 1
ENDMDL
