MODEL 1
REMARK VINA RESULT:    74.685      0.000      0.000
REMARK INTER + INTRA:         107.083
REMARK INTER:                 107.430
REMARK INTRA:                  -0.348
REMARK UNBOUND:                -0.348
REMARK SMILES O=c1c(O[C@H]2O[C@H](CO)[C@@H](O)[C@H](O)[C@@H]2O)c(-c2ccc(O)cc2)oc2cc(O)cc(O)c12
REMARK SMILES IDX 4 1 3 2 16 3 24 4 2 5 25 6 1 7 32 8 26 9 30 10 27 11 29 12
REMARK SMILES IDX 17 13 18 14 19 15 20 16 23 17 22 18 21 19 31 21 28 23 5 25
REMARK SMILES IDX 14 26 6 27 12 28 7 29 10 30 15 31 13 33 8 35 9 36 11 38
REMARK H PARENT 21 20 31 22 28 24 15 32 13 34 9 37 11 39
REMARK Flexibility Score: inf
ROOT
ATOM      1  O   UNL     1      -0.621  10.767   8.237  1.00  0.00    -0.454 OA
ENDROOT
BRANCH   1   2
ATOM      2  C   UNL     1      -1.498  11.673   7.626  1.00  0.00     0.214 A 
ATOM      3  C   UNL     1      -2.542  12.275   8.356  1.00  0.00     0.180 A 
ATOM      4  O   UNL     1      -3.371  13.112   7.745  1.00  0.00    -0.452 OA
ATOM      5  C   UNL     1      -1.312  12.035   6.287  1.00  0.00     0.239 A 
ATOM      6  C   UNL     1      -3.270  13.437   6.462  1.00  0.00     0.146 A 
ATOM      7  O   UNL     1      -0.286  11.618   5.688  1.00  0.00    -0.285 OA
ATOM      8  C   UNL     1      -2.245  12.885   5.650  1.00  0.00     0.111 A 
ATOM      9  C   UNL     1      -4.185  14.346   5.928  1.00  0.00     0.094 A 
ATOM     10  C   UNL     1      -2.203  13.242   4.269  1.00  0.00     0.134 A 
ATOM     11  C   UNL     1      -4.097  14.734   4.589  1.00  0.00     0.123 A 
ATOM     12  C   UNL     1      -3.109  14.186   3.773  1.00  0.00     0.093 A 
BRANCH   3  13
ATOM     13  C   UNL     1      -2.770  11.992   9.792  1.00  0.00     0.021 A 
ATOM     14  C   UNL     1      -3.785  11.092  10.162  1.00  0.00     0.016 A 
ATOM     15  C   UNL     1      -4.019  10.804  11.510  1.00  0.00     0.047 A 
ATOM     16  C   UNL     1      -3.253  11.425  12.504  1.00  0.00     0.115 A 
ATOM     17  C   UNL     1      -2.023  12.630  10.798  1.00  0.00     0.016 A 
ATOM     18  C   UNL     1      -2.260  12.340  12.144  1.00  0.00     0.047 A 
BRANCH  16  19
ATOM     19  O   UNL     1      -3.475  11.142  13.851  1.00  0.00    -0.508 OA
ATOM     20  H   UNL     1      -2.813  11.417  14.565  1.00  0.00     0.293 HD
ENDBRANCH  16  19
ENDBRANCH   3  13
BRANCH  10  21
ATOM     21  O   UNL     1      -1.319  12.675   3.346  1.00  0.00    -0.507 OA
ATOM     22  H   UNL     1      -0.444  13.089   3.063  1.00  0.00     0.293 HD
ENDBRANCH  10  21
BRANCH  11  23
ATOM     23  O   UNL     1      -4.995  15.658   4.057  1.00  0.00    -0.508 OA
ATOM     24  H   UNL     1      -5.146  16.561   4.492  1.00  0.00     0.293 HD
ENDBRANCH  11  23
ENDBRANCH   1   2
BRANCH   1  25
ATOM     25  C   UNL     1       0.443  10.047   7.595  1.00  0.00     0.339 C 
ATOM     26  C   UNL     1       0.299   8.504   7.686  1.00  0.00     0.214 C 
ATOM     27  O   UNL     1       1.735  10.552   7.913  1.00  0.00    -0.332 OA
ATOM     28  C   UNL     1       0.985   7.918   8.933  1.00  0.00     0.180 C 
ATOM     29  C   UNL     1       2.295  10.039   9.114  1.00  0.00     0.179 C 
ATOM     30  C   UNL     1       2.390   8.498   9.095  1.00  0.00     0.177 C 
BRANCH  26  31
ATOM     31  O   UNL     1       0.785   7.885   6.517  1.00  0.00    -0.384 OA
ATOM     32  H   UNL     1       1.170   8.588   5.932  1.00  0.00     0.211 HD
ENDBRANCH  26  31
BRANCH  28  33
ATOM     33  O   UNL     1       1.065   6.519   8.835  1.00  0.00    -0.387 OA
ATOM     34  H   UNL     1       2.024   6.280   8.927  1.00  0.00     0.211 HD
ENDBRANCH  28  33
BRANCH  29  35
ATOM     35  C   UNL     1       3.684  10.681   9.283  1.00  0.00     0.191 C 
BRANCH  35  36
ATOM     36  O   UNL     1       4.657   9.994   8.542  1.00  0.00    -0.394 OA
ATOM     37  H   UNL     1       4.422  10.112   7.584  1.00  0.00     0.210 HD
ENDBRANCH  35  36
ENDBRANCH  29  35
BRANCH  30  38
ATOM     38  O   UNL     1       2.929   8.027  10.305  1.00  0.00    -0.387 OA
ATOM     39  H   UNL     1       3.504   7.248  10.088  1.00  0.00     0.211 HD
ENDBRANCH  30  38
ENDBRANCH   1  25
TORSDOF 11
ENDMDL
MODEL 2
REMARK VINA RESULT:    74.785     11.421     15.566
REMARK INTER + INTRA:         107.227
REMARK INTER:                 107.363
REMARK INTRA:                  -0.137
REMARK UNBOUND:                -0.348
REMARK SMILES O=c1c(O[C@H]2O[C@H](CO)[C@@H](O)[C@H](O)[C@@H]2O)c(-c2ccc(O)cc2)oc2cc(O)cc(O)c12
REMARK SMILES IDX 4 1 3 2 16 3 24 4 2 5 25 6 1 7 32 8 26 9 30 10 27 11 29 12
REMARK SMILES IDX 17 13 18 14 19 15 20 16 23 17 22 18 21 19 31 21 28 23 5 25
REMARK SMILES IDX 14 26 6 27 12 28 7 29 10 30 15 31 13 33 8 35 9 36 11 38
REMARK H PARENT 21 20 31 22 28 24 15 32 13 34 9 37 11 39
REMARK Flexibility Score: inf
ROOT
ATOM      1  O   UNL     1      -0.201  -0.549   1.968  1.00  0.00    -0.454 OA
ENDROOT
BRANCH   1   2
ATOM      2  C   UNL     1       1.112  -0.815   1.559  1.00  0.00     0.214 A 
ATOM      3  C   UNL     1       1.372  -1.460   0.333  1.00  0.00     0.180 A 
ATOM      4  O   UNL     1       2.626  -1.718  -0.018  1.00  0.00    -0.452 OA
ATOM      5  C   UNL     1       2.191  -0.390   2.343  1.00  0.00     0.239 A 
ATOM      6  C   UNL     1       3.677  -1.389   0.723  1.00  0.00     0.146 A 
ATOM      7  O   UNL     1       1.957   0.324   3.353  1.00  0.00    -0.285 OA
ATOM      8  C   UNL     1       3.512  -0.730   1.968  1.00  0.00     0.111 A 
ATOM      9  C   UNL     1       4.954  -1.691   0.245  1.00  0.00     0.094 A 
ATOM     10  C   UNL     1       4.674  -0.429   2.740  1.00  0.00     0.134 A 
ATOM     11  C   UNL     1       6.086  -1.337   0.981  1.00  0.00     0.123 A 
ATOM     12  C   UNL     1       5.941  -0.708   2.216  1.00  0.00     0.093 A 
BRANCH   3  13
ATOM     13  C   UNL     1       0.290  -1.888  -0.582  1.00  0.00     0.021 A 
ATOM     14  C   UNL     1      -0.897  -2.415  -0.044  1.00  0.00     0.016 A 
ATOM     15  C   UNL     1      -1.936  -2.822  -0.885  1.00  0.00     0.047 A 
ATOM     16  C   UNL     1      -1.795  -2.725  -2.275  1.00  0.00     0.115 A 
ATOM     17  C   UNL     1       0.434  -1.817  -1.979  1.00  0.00     0.016 A 
ATOM     18  C   UNL     1      -0.607  -2.226  -2.818  1.00  0.00     0.047 A 
BRANCH  16  19
ATOM     19  O   UNL     1      -2.825  -3.125  -3.123  1.00  0.00    -0.508 OA
ATOM     20  H   UNL     1      -3.654  -2.558  -3.254  1.00  0.00     0.293 HD
ENDBRANCH  16  19
ENDBRANCH   3  13
BRANCH  10  21
ATOM     21  O   UNL     1       4.633   0.108   4.031  1.00  0.00    -0.507 OA
ATOM     22  H   UNL     1       5.285  -0.118   4.766  1.00  0.00     0.293 HD
ENDBRANCH  10  21
BRANCH  11  23
ATOM     23  O   UNL     1       7.364  -1.617   0.498  1.00  0.00    -0.508 OA
ATOM     24  H   UNL     1       7.884  -0.938  -0.046  1.00  0.00     0.293 HD
ENDBRANCH  11  23
ENDBRANCH   1   2
BRANCH   1  25
ATOM     25  C   UNL     1      -0.644   0.593   2.718  1.00  0.00     0.339 C 
ATOM     26  C   UNL     1      -1.736   0.265   3.772  1.00  0.00     0.214 C 
ATOM     27  O   UNL     1      -0.914   1.729   1.904  1.00  0.00    -0.332 OA
ATOM     28  C   UNL     1      -3.161   0.389   3.208  1.00  0.00     0.180 C 
ATOM     29  C   UNL     1      -2.219   1.761   1.343  1.00  0.00     0.179 C 
ATOM     30  C   UNL     1      -3.317   1.694   2.427  1.00  0.00     0.177 C 
BRANCH  26  31
ATOM     31  O   UNL     1      -1.584   1.071   4.918  1.00  0.00    -0.384 OA
ATOM     32  H   UNL     1      -1.250   0.499   5.657  1.00  0.00     0.211 HD
ENDBRANCH  26  31
BRANCH  28  33
ATOM     33  O   UNL     1      -4.104   0.352   4.249  1.00  0.00    -0.387 OA
ATOM     34  H   UNL     1      -4.965   0.065   3.845  1.00  0.00     0.211 HD
ENDBRANCH  28  33
BRANCH  29  35
ATOM     35  C   UNL     1      -2.331   3.055   0.516  1.00  0.00     0.191 C 
BRANCH  35  36
ATOM     36  O   UNL     1      -2.731   4.137   1.314  1.00  0.00    -0.394 OA
ATOM     37  H   UNL     1      -1.999   4.297   1.966  1.00  0.00     0.210 HD
ENDBRANCH  35  36
ENDBRANCH  29  35
BRANCH  30  38
ATOM     38  O   UNL     1      -4.591   1.707   1.833  1.00  0.00    -0.387 OA
ATOM     39  H   UNL     1      -4.933   0.775   1.849  1.00  0.00     0.211 HD
ENDBRANCH  30  38
ENDBRANCH   1  25
TORSDOF 11
ENDMDL
MODEL 3
REMARK VINA RESULT:    76.195     12.299     14.964
REMARK INTER + INTRA:         109.255
REMARK INTER:                 108.964
REMARK INTRA:                   0.292
REMARK UNBOUND:                -0.348
REMARK SMILES O=c1c(O[C@H]2O[C@H](CO)[C@@H](O)[C@H](O)[C@@H]2O)c(-c2ccc(O)cc2)oc2cc(O)cc(O)c12
REMARK SMILES IDX 4 1 3 2 16 3 24 4 2 5 25 6 1 7 32 8 26 9 30 10 27 11 29 12
REMARK SMILES IDX 17 13 18 14 19 15 20 16 23 17 22 18 21 19 31 21 28 23 5 25
REMARK SMILES IDX 14 26 6 27 12 28 7 29 10 30 15 31 13 33 8 35 9 36 11 38
REMARK H PARENT 21 20 31 22 28 24 15 32 13 34 9 37 11 39
REMARK Flexibility Score: inf
ROOT
ATOM      1  O   UNL     1       0.186  -0.384   1.110  1.00  0.00    -0.454 OA
ENDROOT
BRANCH   1   2
ATOM      2  C   UNL     1       0.462   0.791   0.400  1.00  0.00     0.214 A 
ATOM      3  C   UNL     1       1.784   1.133   0.051  1.00  0.00     0.180 A 
ATOM      4  O   UNL     1       2.017   2.264  -0.603  1.00  0.00    -0.452 OA
ATOM      5  C   UNL     1      -0.585   1.618  -0.024  1.00  0.00     0.239 A 
ATOM      6  C   UNL     1       1.062   3.108  -0.971  1.00  0.00     0.146 A 
ATOM      7  O   UNL     1      -1.769   1.227   0.151  1.00  0.00    -0.285 OA
ATOM      8  C   UNL     1      -0.299   2.843  -0.670  1.00  0.00     0.111 A 
ATOM      9  C   UNL     1       1.420   4.259  -1.676  1.00  0.00     0.094 A 
ATOM     10  C   UNL     1      -1.283   3.801  -1.058  1.00  0.00     0.134 A 
ATOM     11  C   UNL     1       0.443   5.160  -2.103  1.00  0.00     0.123 A 
ATOM     12  C   UNL     1      -0.897   4.925  -1.798  1.00  0.00     0.093 A 
BRANCH   3  13
ATOM     13  C   UNL     1       2.942   0.282   0.409  1.00  0.00     0.021 A 
ATOM     14  C   UNL     1       3.083  -0.165   1.734  1.00  0.00     0.016 A 
ATOM     15  C   UNL     1       4.165  -0.972   2.097  1.00  0.00     0.047 A 
ATOM     16  C   UNL     1       5.128  -1.328   1.145  1.00  0.00     0.115 A 
ATOM     17  C   UNL     1       3.927  -0.058  -0.535  1.00  0.00     0.016 A 
ATOM     18  C   UNL     1       5.008  -0.865  -0.169  1.00  0.00     0.047 A 
BRANCH  16  19
ATOM     19  O   UNL     1       6.209  -2.135   1.495  1.00  0.00    -0.508 OA
ATOM     20  H   UNL     1       7.110  -1.739   1.732  1.00  0.00     0.293 HD
ENDBRANCH  16  19
ENDBRANCH   3  13
BRANCH  10  21
ATOM     21  O   UNL     1      -2.635   3.711  -0.715  1.00  0.00    -0.507 OA
ATOM     22  H   UNL     1      -3.018   3.039  -0.067  1.00  0.00     0.293 HD
ENDBRANCH  10  21
BRANCH  11  23
ATOM     23  O   UNL     1       0.794   6.299  -2.826  1.00  0.00    -0.508 OA
ATOM     24  H   UNL     1       0.133   7.053  -2.979  1.00  0.00     0.293 HD
ENDBRANCH  11  23
ENDBRANCH   1   2
BRANCH   1  25
ATOM     25  C   UNL     1       0.255  -1.724   0.599  1.00  0.00     0.339 C 
ATOM     26  C   UNL     1       1.163  -1.873  -0.652  1.00  0.00     0.214 C 
ATOM     27  O   UNL     1      -1.018  -2.354   0.498  1.00  0.00    -0.332 OA
ATOM     28  C   UNL     1       0.394  -1.673  -1.969  1.00  0.00     0.180 C 
ATOM     29  C   UNL     1      -1.723  -2.077  -0.703  1.00  0.00     0.179 C 
ATOM     30  C   UNL     1      -0.910  -2.471  -1.955  1.00  0.00     0.177 C 
BRANCH  26  31
ATOM     31  O   UNL     1       1.823  -3.118  -0.648  1.00  0.00    -0.384 OA
ATOM     32  H   UNL     1       2.231  -3.254  -1.542  1.00  0.00     0.211 HD
ENDBRANCH  26  31
BRANCH  28  33
ATOM     33  O   UNL     1       1.180  -2.078  -3.060  1.00  0.00    -0.387 OA
ATOM     34  H   UNL     1       1.917  -1.418  -3.142  1.00  0.00     0.211 HD
ENDBRANCH  28  33
BRANCH  29  35
ATOM     35  C   UNL     1      -3.055  -2.846  -0.640  1.00  0.00     0.191 C 
BRANCH  35  36
ATOM     36  O   UNL     1      -3.940  -2.261   0.278  1.00  0.00    -0.394 OA
ATOM     37  H   UNL     1      -3.387  -1.715   0.897  1.00  0.00     0.210 HD
ENDBRANCH  35  36
ENDBRANCH  29  35
BRANCH  30  38
ATOM     38  O   UNL     1      -1.631  -2.164  -3.123  1.00  0.00    -0.387 OA
ATOM     39  H   UNL     1      -0.968  -1.988  -3.841  1.00  0.00     0.211 HD
ENDBRANCH  30  38
ENDBRANCH   1  25
TORSDOF 11
ENDMDL
MODEL 4
REMARK VINA RESULT:    76.912     11.196     14.157
REMARK INTER + INTRA:         110.287
REMARK INTER:                 107.390
REMARK INTRA:                   2.897
REMARK UNBOUND:                -0.348
REMARK SMILES O=c1c(O[C@H]2O[C@H](CO)[C@@H](O)[C@H](O)[C@@H]2O)c(-c2ccc(O)cc2)oc2cc(O)cc(O)c12
REMARK SMILES IDX 4 1 3 2 16 3 24 4 2 5 25 6 1 7 32 8 26 9 30 10 27 11 29 12
REMARK SMILES IDX 17 13 18 14 19 15 20 16 23 17 22 18 21 19 31 21 28 23 5 25
REMARK SMILES IDX 14 26 6 27 12 28 7 29 10 30 15 31 13 33 8 35 9 36 11 38
REMARK H PARENT 21 20 31 22 28 24 15 32 13 34 9 37 11 39
REMARK Flexibility Score: inf
ROOT
ATOM      1  O   UNL     1      -0.081   1.123  -1.023  1.00  0.00    -0.454 OA
ENDROOT
BRANCH   1   2
ATOM      2  C   UNL     1       0.561   2.367  -1.002  1.00  0.00     0.214 A 
ATOM      3  C   UNL     1       1.920   2.476  -0.646  1.00  0.00     0.180 A 
ATOM      4  O   UNL     1       2.495   3.671  -0.613  1.00  0.00    -0.452 OA
ATOM      5  C   UNL     1      -0.131   3.521  -1.390  1.00  0.00     0.239 A 
ATOM      6  C   UNL     1       1.862   4.798  -0.914  1.00  0.00     0.146 A 
ATOM      7  O   UNL     1      -1.293   3.397  -1.858  1.00  0.00    -0.285 OA
ATOM      8  C   UNL     1       0.494   4.785  -1.291  1.00  0.00     0.111 A 
ATOM      9  C   UNL     1       2.573   5.999  -0.867  1.00  0.00     0.094 A 
ATOM     10  C   UNL     1      -0.147   6.029  -1.571  1.00  0.00     0.134 A 
ATOM     11  C   UNL     1       1.951   7.203  -1.202  1.00  0.00     0.123 A 
ATOM     12  C   UNL     1       0.602   7.211  -1.554  1.00  0.00     0.093 A 
BRANCH   3  13
ATOM     13  C   UNL     1       2.738   1.297  -0.280  1.00  0.00     0.021 A 
ATOM     14  C   UNL     1       2.629   0.760   1.015  1.00  0.00     0.016 A 
ATOM     15  C   UNL     1       3.388  -0.355   1.385  1.00  0.00     0.047 A 
ATOM     16  C   UNL     1       4.277  -0.935   0.472  1.00  0.00     0.115 A 
ATOM     17  C   UNL     1       3.653   0.725  -1.182  1.00  0.00     0.016 A 
ATOM     18  C   UNL     1       4.410  -0.389  -0.809  1.00  0.00     0.047 A 
BRANCH  16  19
ATOM     19  O   UNL     1       5.035  -2.048   0.829  1.00  0.00    -0.508 OA
ATOM     20  H   UNL     1       5.790  -2.384   0.243  1.00  0.00     0.293 HD
ENDBRANCH  16  19
ENDBRANCH   3  13
BRANCH  10  21
ATOM     21  O   UNL     1      -1.515   6.157  -1.835  1.00  0.00    -0.507 OA
ATOM     22  H   UNL     1      -2.020   7.029  -1.829  1.00  0.00     0.293 HD
ENDBRANCH  10  21
BRANCH  11  23
ATOM     23  O   UNL     1       2.662   8.401  -1.178  1.00  0.00    -0.508 OA
ATOM     24  H   UNL     1       2.711   9.004  -1.991  1.00  0.00     0.293 HD
ENDBRANCH  11  23
ENDBRANCH   1   2
BRANCH   1  25
ATOM     25  C   UNL     1       0.555  -0.164  -0.978  1.00  0.00     0.339 C 
ATOM     26  C   UNL     1      -0.091  -1.216  -1.921  1.00  0.00     0.214 C 
ATOM     27  O   UNL     1       0.810  -0.619   0.346  1.00  0.00    -0.332 OA
ATOM     28  C   UNL     1      -1.210  -2.018  -1.236  1.00  0.00     0.180 C 
ATOM     29  C   UNL     1      -0.280  -1.286   0.966  1.00  0.00     0.179 C 
ATOM     30  C   UNL     1      -0.757  -2.502   0.142  1.00  0.00     0.177 C 
BRANCH  26  31
ATOM     31  O   UNL     1       0.887  -2.082  -2.449  1.00  0.00    -0.384 OA
ATOM     32  H   UNL     1       0.598  -2.357  -3.358  1.00  0.00     0.211 HD
ENDBRANCH  26  31
BRANCH  28  33
ATOM     33  O   UNL     1      -1.573  -3.122  -2.024  1.00  0.00    -0.387 OA
ATOM     34  H   UNL     1      -2.157  -2.777  -2.749  1.00  0.00     0.211 HD
ENDBRANCH  28  33
BRANCH  29  35
ATOM     35  C   UNL     1       0.183  -1.714   2.371  1.00  0.00     0.191 C 
BRANCH  35  36
ATOM     36  O   UNL     1       0.035  -3.096   2.559  1.00  0.00    -0.394 OA
ATOM     37  H   UNL     1       0.357  -3.533   1.727  1.00  0.00     0.210 HD
ENDBRANCH  35  36
ENDBRANCH  29  35
BRANCH  30  38
ATOM     38  O   UNL     1      -1.848  -3.124   0.776  1.00  0.00    -0.387 OA
ATOM     39  H   UNL     1      -2.037  -3.963   0.280  1.00  0.00     0.211 HD
ENDBRANCH  30  38
ENDBRANCH   1  25
TORSDOF 11
ENDMDL
