MODEL 1
REMARK VINA RESULT:    -4.071      0.000      0.000
REMARK INTER + INTRA:          -6.251
REMARK INTER:                  -5.618
REMARK INTRA:                  -0.633
REMARK UNBOUND:                -0.633
REMARK SMILES OC[C@@H](O)[C@@H](O)[C@@H](O)CO
REMARK SMILES IDX 5 1 3 2 2 3 1 4 4 6 7 8 9 9 10 10 8 12 6 14
REMARK H PARENT 1 5 4 7 10 11 8 13 6 15
REMARK Flexibility Score: inf
ROOT
ATOM      1  C   UNL     1      -3.033  10.038  17.428  1.00  0.00     0.176 C 
ENDROOT
BRANCH   1   2
ATOM      2  C   UNL     1      -2.081   9.033  18.145  1.00  0.00     0.171 C 
BRANCH   2   3
ATOM      3  C   UNL     1      -1.404   8.025  17.194  1.00  0.00     0.190 C 
BRANCH   3   4
ATOM      4  O   UNL     1      -1.581   8.443  15.870  1.00  0.00    -0.394 OA
ATOM      5  H   UNL     1      -0.880   9.125  15.699  1.00  0.00     0.210 HD
ENDBRANCH   3   4
ENDBRANCH   2   3
BRANCH   2   6
ATOM      6  O   UNL     1      -1.137   9.695  18.950  1.00  0.00    -0.388 OA
ATOM      7  H   UNL     1      -1.494   9.729  19.877  1.00  0.00     0.211 HD
ENDBRANCH   2   6
ENDBRANCH   1   2
BRANCH   1   8
ATOM      8  C   UNL     1      -3.168  11.423  18.125  1.00  0.00     0.171 C 
BRANCH   8   9
ATOM      9  C   UNL     1      -4.325  12.246  17.531  1.00  0.00     0.190 C 
BRANCH   9  10
ATOM     10  O   UNL     1      -4.266  12.237  16.132  1.00  0.00    -0.394 OA
ATOM     11  H   UNL     1      -5.191  12.060  15.817  1.00  0.00     0.210 HD
ENDBRANCH   9  10
ENDBRANCH   8   9
BRANCH   8  12
ATOM     12  O   UNL     1      -1.978  12.150  17.966  1.00  0.00    -0.388 OA
ATOM     13  H   UNL     1      -1.253  11.490  17.808  1.00  0.00     0.211 HD
ENDBRANCH   8  12
ENDBRANCH   1   8
BRANCH   1  14
ATOM     14  O   UNL     1      -4.296   9.442  17.267  1.00  0.00    -0.388 OA
ATOM     15  H   UNL     1      -4.273   8.917  16.425  1.00  0.00     0.211 HD
ENDBRANCH   1  14
TORSDOF 9
ENDMDL
MODEL 2
REMARK VINA RESULT:    -3.930      1.648      4.367
REMARK INTER + INTRA:          -6.056
REMARK INTER:                  -5.645
REMARK INTRA:                  -0.411
REMARK UNBOUND:                -0.633
REMARK SMILES OC[C@@H](O)[C@@H](O)[C@@H](O)CO
REMARK SMILES IDX 5 1 3 2 2 3 1 4 4 6 7 8 9 9 10 10 8 12 6 14
REMARK H PARENT 1 5 4 7 10 11 8 13 6 15
REMARK Flexibility Score: inf
ROOT
ATOM      1  C   UNL     1      -4.692  11.218  17.404  1.00  0.00     0.176 C 
ENDROOT
BRANCH   1   2
ATOM      2  C   UNL     1      -5.479  12.132  16.416  1.00  0.00     0.171 C 
BRANCH   2   3
ATOM      3  C   UNL     1      -6.402  13.154  17.109  1.00  0.00     0.190 C 
BRANCH   3   4
ATOM      4  O   UNL     1      -7.355  12.475  17.878  1.00  0.00    -0.394 OA
ATOM      5  H   UNL     1      -7.593  13.084  18.625  1.00  0.00     0.210 HD
ENDBRANCH   3   4
ENDBRANCH   2   3
BRANCH   2   6
ATOM      6  O   UNL     1      -4.623  12.755  15.491  1.00  0.00    -0.388 OA
ATOM      7  H   UNL     1      -4.438  12.109  14.760  1.00  0.00     0.211 HD
ENDBRANCH   2   6
ENDBRANCH   1   2
BRANCH   1   8
ATOM      8  C   UNL     1      -3.148  11.415  17.390  1.00  0.00     0.171 C 
BRANCH   8   9
ATOM      9  C   UNL     1      -2.411  10.151  17.864  1.00  0.00     0.190 C 
BRANCH   9  10
ATOM     10  O   UNL     1      -1.996   9.384  16.767  1.00  0.00    -0.394 OA
ATOM     11  H   UNL     1      -2.798   9.264  16.195  1.00  0.00     0.210 HD
ENDBRANCH   9  10
ENDBRANCH   8   9
BRANCH   8  12
ATOM     12  O   UNL     1      -2.800  12.477  18.239  1.00  0.00    -0.388 OA
ATOM     13  H   UNL     1      -2.112  12.133  18.867  1.00  0.00     0.211 HD
ENDBRANCH   8  12
ENDBRANCH   1   8
BRANCH   1  14
ATOM     14  O   UNL     1      -5.019   9.875  17.150  1.00  0.00    -0.388 OA
ATOM     15  H   UNL     1      -4.170   9.384  17.000  1.00  0.00     0.211 HD
ENDBRANCH   1  14
TORSDOF 9
ENDMDL
MODEL 3
REMARK VINA RESULT:    -3.929      1.491      4.301
REMARK INTER + INTRA:          -6.055
REMARK INTER:                  -5.364
REMARK INTRA:                  -0.691
REMARK UNBOUND:                -0.633
REMARK SMILES OC[C@@H](O)[C@@H](O)[C@@H](O)CO
REMARK SMILES IDX 5 1 3 2 2 3 1 4 4 6 7 8 9 9 10 10 8 12 6 14
REMARK H PARENT 1 5 4 7 10 11 8 13 6 15
REMARK Flexibility Score: inf
ROOT
ATOM      1  C   UNL     1      -4.055  11.268  17.138  1.00  0.00     0.176 C 
ENDROOT
BRANCH   1   2
ATOM      2  C   UNL     1      -5.398  12.051  17.244  1.00  0.00     0.171 C 
BRANCH   2   3
ATOM      3  C   UNL     1      -5.780  12.818  15.962  1.00  0.00     0.190 C 
BRANCH   3   4
ATOM      4  O   UNL     1      -4.649  12.952  15.146  1.00  0.00    -0.394 OA
ATOM      5  H   UNL     1      -4.806  13.757  14.586  1.00  0.00     0.210 HD
ENDBRANCH   3   4
ENDBRANCH   2   3
BRANCH   2   6
ATOM      6  O   UNL     1      -6.449  11.223  17.680  1.00  0.00    -0.388 OA
ATOM      7  H   UNL     1      -6.205  10.283  17.473  1.00  0.00     0.211 HD
ENDBRANCH   2   6
ENDBRANCH   1   2
BRANCH   1   8
ATOM      8  C   UNL     1      -3.994   9.954  17.969  1.00  0.00     0.171 C 
BRANCH   8   9
ATOM      9  C   UNL     1      -2.570   9.372  18.008  1.00  0.00     0.190 C 
BRANCH   9  10
ATOM     10  O   UNL     1      -1.982   9.427  16.738  1.00  0.00    -0.394 OA
ATOM     11  H   UNL     1      -2.716   9.275  16.087  1.00  0.00     0.210 HD
ENDBRANCH   9  10
ENDBRANCH   8   9
BRANCH   8  12
ATOM     12  O   UNL     1      -4.849   8.996  17.400  1.00  0.00    -0.388 OA
ATOM     13  H   UNL     1      -5.469   9.483  16.796  1.00  0.00     0.211 HD
ENDBRANCH   8  12
ENDBRANCH   1   8
BRANCH   1  14
ATOM     14  O   UNL     1      -2.995  12.122  17.490  1.00  0.00    -0.388 OA
ATOM     15  H   UNL     1      -2.865  12.048  18.472  1.00  0.00     0.211 HD
ENDBRANCH   1  14
TORSDOF 9
ENDMDL
MODEL 4
REMARK VINA RESULT:    -3.907      1.538      4.487
REMARK INTER + INTRA:          -6.024
REMARK INTER:                  -5.712
REMARK INTRA:                  -0.313
REMARK UNBOUND:                -0.633
REMARK SMILES OC[C@@H](O)[C@@H](O)[C@@H](O)CO
REMARK SMILES IDX 5 1 3 2 2 3 1 4 4 6 7 8 9 9 10 10 8 12 6 14
REMARK H PARENT 1 5 4 7 10 11 8 13 6 15
REMARK Flexibility Score: inf
ROOT
ATOM      1  C   UNL     1      -3.749  11.689  17.315  1.00  0.00     0.176 C 
ENDROOT
BRANCH   1   2
ATOM      2  C   UNL     1      -4.989  12.084  16.456  1.00  0.00     0.171 C 
BRANCH   2   3
ATOM      3  C   UNL     1      -6.105  12.788  17.253  1.00  0.00     0.190 C 
BRANCH   3   4
ATOM      4  O   UNL     1      -7.004  11.831  17.739  1.00  0.00    -0.394 OA
ATOM      5  H   UNL     1      -7.735  12.337  18.182  1.00  0.00     0.210 HD
ENDBRANCH   3   4
ENDBRANCH   2   3
BRANCH   2   6
ATOM      6  O   UNL     1      -4.618  12.829  15.321  1.00  0.00    -0.388 OA
ATOM      7  H   UNL     1      -5.432  12.980  14.773  1.00  0.00     0.211 HD
ENDBRANCH   2   6
ENDBRANCH   1   2
BRANCH   1   8
ATOM      8  C   UNL     1      -3.853  10.305  18.017  1.00  0.00     0.171 C 
BRANCH   8   9
ATOM      9  C   UNL     1      -2.508   9.557  17.999  1.00  0.00     0.190 C 
BRANCH   9  10
ATOM     10  O   UNL     1      -2.032   9.434  16.688  1.00  0.00    -0.394 OA
ATOM     11  H   UNL     1      -2.102   8.471  16.458  1.00  0.00     0.210 HD
ENDBRANCH   9  10
ENDBRANCH   8   9
BRANCH   8  12
ATOM     12  O   UNL     1      -4.809   9.513  17.362  1.00  0.00    -0.388 OA
ATOM     13  H   UNL     1      -4.394   9.194  16.518  1.00  0.00     0.211 HD
ENDBRANCH   8  12
ENDBRANCH   1   8
BRANCH   1  14
ATOM     14  O   UNL     1      -3.501  12.702  18.258  1.00  0.00    -0.388 OA
ATOM     15  H   UNL     1      -2.940  13.392  17.814  1.00  0.00     0.211 HD
ENDBRANCH   1  14
TORSDOF 9
ENDMDL
MODEL 5
REMARK VINA RESULT:    -3.844      1.683      2.547
REMARK INTER + INTRA:          -5.937
REMARK INTER:                  -5.457
REMARK INTRA:                  -0.481
REMARK UNBOUND:                -0.633
REMARK SMILES OC[C@@H](O)[C@@H](O)[C@@H](O)CO
REMARK SMILES IDX 5 1 3 2 2 3 1 4 4 6 7 8 9 9 10 10 8 12 6 14
REMARK H PARENT 1 5 4 7 10 11 8 13 6 15
REMARK Flexibility Score: inf
ROOT
ATOM      1  C   UNL     1      -5.195  10.702  17.220  1.00  0.00     0.176 C 
ENDROOT
BRANCH   1   2
ATOM      2  C   UNL     1      -3.738  10.881  17.744  1.00  0.00     0.171 C 
BRANCH   2   3
ATOM      3  C   UNL     1      -2.960   9.558  17.897  1.00  0.00     0.190 C 
BRANCH   3   4
ATOM      4  O   UNL     1      -2.258   9.292  16.715  1.00  0.00    -0.394 OA
ATOM      5  H   UNL     1      -1.322   9.102  16.986  1.00  0.00     0.210 HD
ENDBRANCH   3   4
ENDBRANCH   2   3
BRANCH   2   6
ATOM      6  O   UNL     1      -3.021  11.814  16.974  1.00  0.00    -0.388 OA
ATOM      7  H   UNL     1      -2.308  11.326  16.485  1.00  0.00     0.211 HD
ENDBRANCH   2   6
ENDBRANCH   1   2
BRANCH   1   8
ATOM      8  C   UNL     1      -5.975  12.027  16.984  1.00  0.00     0.171 C 
BRANCH   8   9
ATOM      9  C   UNL     1      -6.024  12.400  15.492  1.00  0.00     0.190 C 
BRANCH   9  10
ATOM     10  O   UNL     1      -4.812  12.977  15.091  1.00  0.00    -0.394 OA
ATOM     11  H   UNL     1      -5.047  13.683  14.433  1.00  0.00     0.210 HD
ENDBRANCH   9  10
ENDBRANCH   8   9
BRANCH   8  12
ATOM     12  O   UNL     1      -5.350  13.073  17.683  1.00  0.00    -0.388 OA
ATOM     13  H   UNL     1      -5.922  13.877  17.574  1.00  0.00     0.211 HD
ENDBRANCH   8  12
ENDBRANCH   1   8
BRANCH   1  14
ATOM     14  O   UNL     1      -5.902   9.865  18.101  1.00  0.00    -0.388 OA
ATOM     15  H   UNL     1      -5.794   8.932  17.778  1.00  0.00     0.211 HD
ENDBRANCH   1  14
TORSDOF 9
ENDMDL
MODEL 6
REMARK VINA RESULT:    -3.804      0.905      3.873
REMARK INTER + INTRA:          -5.882
REMARK INTER:                  -5.282
REMARK INTRA:                  -0.600
REMARK UNBOUND:                -0.633
REMARK SMILES OC[C@@H](O)[C@@H](O)[C@@H](O)CO
REMARK SMILES IDX 5 1 3 2 2 3 1 4 4 6 7 8 9 9 10 10 8 12 6 14
REMARK H PARENT 1 5 4 7 10 11 8 13 6 15
REMARK Flexibility Score: inf
ROOT
ATOM      1  C   UNL     1      -2.733  10.479  17.499  1.00  0.00     0.176 C 
ENDROOT
BRANCH   1   2
ATOM      2  C   UNL     1      -4.261  10.683  17.730  1.00  0.00     0.171 C 
BRANCH   2   3
ATOM      3  C   UNL     1      -4.788  12.052  17.254  1.00  0.00     0.190 C 
BRANCH   3   4
ATOM      4  O   UNL     1      -4.268  12.336  15.986  1.00  0.00    -0.394 OA
ATOM      5  H   UNL     1      -4.256  13.325  15.906  1.00  0.00     0.210 HD
ENDBRANCH   3   4
ENDBRANCH   2   3
BRANCH   2   6
ATOM      6  O   UNL     1      -5.013   9.625  17.189  1.00  0.00    -0.388 OA
ATOM      7  H   UNL     1      -5.116   8.931  17.891  1.00  0.00     0.211 HD
ENDBRANCH   2   6
ENDBRANCH   1   2
BRANCH   1   8
ATOM      8  C   UNL     1      -2.110   9.272  18.260  1.00  0.00     0.171 C 
BRANCH   8   9
ATOM      9  C   UNL     1      -1.682   8.153  17.296  1.00  0.00     0.190 C 
BRANCH   9  10
ATOM     10  O   UNL     1      -1.651   8.625  15.978  1.00  0.00    -0.394 OA
ATOM     11  H   UNL     1      -1.532   7.827  15.400  1.00  0.00     0.210 HD
ENDBRANCH   9  10
ENDBRANCH   8   9
BRANCH   8  12
ATOM     12  O   UNL     1      -3.050   8.747  19.161  1.00  0.00    -0.388 OA
ATOM     13  H   UNL     1      -2.568   8.102  19.742  1.00  0.00     0.211 HD
ENDBRANCH   8  12
ENDBRANCH   1   8
BRANCH   1  14
ATOM     14  O   UNL     1      -2.055  11.667  17.823  1.00  0.00    -0.388 OA
ATOM     15  H   UNL     1      -1.160  11.627  17.395  1.00  0.00     0.211 HD
ENDBRANCH   1  14
TORSDOF 9
ENDMDL
MODEL 7
REMARK VINA RESULT:    -3.755      1.631      2.659
REMARK INTER + INTRA:          -5.815
REMARK INTER:                  -5.191
REMARK INTRA:                  -0.624
REMARK UNBOUND:                -0.633
REMARK SMILES OC[C@@H](O)[C@@H](O)[C@@H](O)CO
REMARK SMILES IDX 5 1 3 2 2 3 1 4 4 6 7 8 9 9 10 10 8 12 6 14
REMARK H PARENT 1 5 4 7 10 11 8 13 6 15
REMARK Flexibility Score: inf
ROOT
ATOM      1  C   UNL     1      -4.298  11.303  17.537  1.00  0.00     0.176 C 
ENDROOT
BRANCH   1   2
ATOM      2  C   UNL     1      -3.997   9.797  17.806  1.00  0.00     0.171 C 
BRANCH   2   3
ATOM      3  C   UNL     1      -2.497   9.477  17.969  1.00  0.00     0.190 C 
BRANCH   3   4
ATOM      4  O   UNL     1      -1.920   9.295  16.706  1.00  0.00    -0.394 OA
ATOM      5  H   UNL     1      -1.770   8.319  16.608  1.00  0.00     0.210 HD
ENDBRANCH   3   4
ENDBRANCH   2   3
BRANCH   2   6
ATOM      6  O   UNL     1      -4.749   9.302  18.887  1.00  0.00    -0.388 OA
ATOM      7  H   UNL     1      -4.614   8.319  18.931  1.00  0.00     0.211 HD
ENDBRANCH   2   6
ENDBRANCH   1   2
BRANCH   1   8
ATOM      8  C   UNL     1      -5.630  11.580  16.783  1.00  0.00     0.171 C 
BRANCH   8   9
ATOM      9  C   UNL     1      -5.657  12.996  16.181  1.00  0.00     0.190 C 
BRANCH   9  10
ATOM     10  O   UNL     1      -4.845  13.061  15.042  1.00  0.00    -0.394 OA
ATOM     11  H   UNL     1      -4.825  14.015  14.769  1.00  0.00     0.210 HD
ENDBRANCH   9  10
ENDBRANCH   8   9
BRANCH   8  12
ATOM     12  O   UNL     1      -6.710  11.455  17.671  1.00  0.00    -0.388 OA
ATOM     13  H   UNL     1      -7.010  10.509  17.631  1.00  0.00     0.211 HD
ENDBRANCH   8  12
ENDBRANCH   1   8
BRANCH   1  14
ATOM     14  O   UNL     1      -3.213  11.873  16.848  1.00  0.00    -0.388 OA
ATOM     15  H   UNL     1      -2.913  12.665  17.366  1.00  0.00     0.211 HD
ENDBRANCH   1  14
TORSDOF 9
ENDMDL
MODEL 8
REMARK VINA RESULT:    -3.728      1.210      3.685
REMARK INTER + INTRA:          -5.778
REMARK INTER:                  -5.471
REMARK INTRA:                  -0.307
REMARK UNBOUND:                -0.633
REMARK SMILES OC[C@@H](O)[C@@H](O)[C@@H](O)CO
REMARK SMILES IDX 5 1 3 2 2 3 1 4 4 6 7 8 9 9 10 10 8 12 6 14
REMARK H PARENT 1 5 4 7 10 11 8 13 6 15
REMARK Flexibility Score: inf
ROOT
ATOM      1  C   UNL     1      -4.025  10.233  17.981  1.00  0.00     0.176 C 
ENDROOT
BRANCH   1   2
ATOM      2  C   UNL     1      -3.813  11.632  17.326  1.00  0.00     0.171 C 
BRANCH   2   3
ATOM      3  C   UNL     1      -5.042  12.156  16.556  1.00  0.00     0.190 C 
BRANCH   3   4
ATOM      4  O   UNL     1      -4.621  12.767  15.368  1.00  0.00    -0.394 OA
ATOM      5  H   UNL     1      -5.222  12.430  14.655  1.00  0.00     0.210 HD
ENDBRANCH   3   4
ENDBRANCH   2   3
BRANCH   2   6
ATOM      6  O   UNL     1      -3.349  12.577  18.260  1.00  0.00    -0.388 OA
ATOM      7  H   UNL     1      -3.899  12.491  19.082  1.00  0.00     0.211 HD
ENDBRANCH   2   6
ENDBRANCH   1   2
BRANCH   1   8
ATOM      8  C   UNL     1      -2.810   9.267  17.871  1.00  0.00     0.171 C 
BRANCH   8   9
ATOM      9  C   UNL     1      -1.935   9.310  19.136  1.00  0.00     0.190 C 
BRANCH   9  10
ATOM     10  O   UNL     1      -1.384  10.586  19.308  1.00  0.00    -0.394 OA
ATOM     11  H   UNL     1      -2.089  11.135  19.741  1.00  0.00     0.210 HD
ENDBRANCH   9  10
ENDBRANCH   8   9
BRANCH   8  12
ATOM     12  O   UNL     1      -2.017   9.629  16.770  1.00  0.00    -0.388 OA
ATOM     13  H   UNL     1      -1.972   8.837  16.172  1.00  0.00     0.211 HD
ENDBRANCH   8  12
ENDBRANCH   1   8
BRANCH   1  14
ATOM     14  O   UNL     1      -5.177   9.640  17.435  1.00  0.00    -0.388 OA
ATOM     15  H   UNL     1      -4.952   9.341  16.515  1.00  0.00     0.211 HD
ENDBRANCH   1  14
TORSDOF 9
ENDMDL
MODEL 9
REMARK VINA RESULT:    -3.637      1.195      3.886
REMARK INTER + INTRA:          -5.653
REMARK INTER:                  -5.130
REMARK INTRA:                  -0.522
REMARK UNBOUND:                -0.633
REMARK SMILES OC[C@@H](O)[C@@H](O)[C@@H](O)CO
REMARK SMILES IDX 5 1 3 2 2 3 1 4 4 6 7 8 9 9 10 10 8 12 6 14
REMARK H PARENT 1 5 4 7 10 11 8 13 6 15
REMARK Flexibility Score: inf
ROOT
ATOM      1  C   UNL     1      -2.198   9.742  18.727  1.00  0.00     0.176 C 
ENDROOT
BRANCH   1   2
ATOM      2  C   UNL     1      -3.078  10.916  18.201  1.00  0.00     0.171 C 
BRANCH   2   3
ATOM      3  C   UNL     1      -2.696  12.293  18.779  1.00  0.00     0.190 C 
BRANCH   3   4
ATOM      4  O   UNL     1      -1.446  12.677  18.279  1.00  0.00    -0.394 OA
ATOM      5  H   UNL     1      -1.462  13.668  18.222  1.00  0.00     0.210 HD
ENDBRANCH   3   4
ENDBRANCH   2   3
BRANCH   2   6
ATOM      6  O   UNL     1      -3.124  10.942  16.796  1.00  0.00    -0.388 OA
ATOM      7  H   UNL     1      -3.893  10.386  16.503  1.00  0.00     0.211 HD
ENDBRANCH   2   6
ENDBRANCH   1   2
BRANCH   1   8
ATOM      8  C   UNL     1      -2.539   8.347  18.128  1.00  0.00     0.171 C 
BRANCH   8   9
ATOM      9  C   UNL     1      -1.472   7.884  17.122  1.00  0.00     0.190 C 
BRANCH   9  10
ATOM     10  O   UNL     1      -1.640   8.534  15.893  1.00  0.00    -0.394 OA
ATOM     11  H   UNL     1      -0.808   8.372  15.378  1.00  0.00     0.210 HD
ENDBRANCH   9  10
ENDBRANCH   8   9
BRANCH   8  12
ATOM     12  O   UNL     1      -3.776   8.407  17.467  1.00  0.00    -0.388 OA
ATOM     13  H   UNL     1      -3.656   7.966  16.585  1.00  0.00     0.211 HD
ENDBRANCH   8  12
ENDBRANCH   1   8
BRANCH   1  14
ATOM     14  O   UNL     1      -2.269   9.706  20.131  1.00  0.00    -0.388 OA
ATOM     15  H   UNL     1      -1.417  10.075  20.482  1.00  0.00     0.211 HD
ENDBRANCH   1  14
TORSDOF 9
ENDMDL
