MODEL 1
REMARK VINA RESULT:    -2.975      0.000      0.000
REMARK INTER + INTRA:          -7.775
REMARK INTER:                  -5.585
REMARK INTRA:                  -2.191
REMARK UNBOUND:                -2.191
REMARK SMILES O=C([O-])CCCCCCCCCCCCCCC(=O)[O-]
REMARK SMILES IDX 10 1 9 2 8 3 7 4 6 5 5 6 4 7 2 8 1 9 3 10 11 11 12 12 13 13
REMARK SMILES IDX 14 14 15 15 16 16 17 17 18 18 19 19 20 20
REMARK H PARENT
REMARK Flexibility Score: inf
ROOT
ATOM      1  C   UNL     1      30.889  12.927  20.304  1.00  0.00     0.000 C 
ENDROOT
BRANCH   1   2
ATOM      2  C   UNL     1      30.103  13.370  19.060  1.00  0.00     0.000 C 
BRANCH   2   3
ATOM      3  C   UNL     1      28.700  13.895  19.397  1.00  0.00     0.000 C 
BRANCH   3   4
ATOM      4  C   UNL     1      28.512  14.022  20.916  1.00  0.00     0.000 C 
BRANCH   4   5
ATOM      5  C   UNL     1      27.214  13.364  21.411  1.00  0.00     0.000 C 
BRANCH   5   6
ATOM      6  C   UNL     1      27.464  12.043  22.152  1.00  0.00     0.006 C 
BRANCH   6   7
ATOM      7  C   UNL     1      27.821  10.923  21.171  1.00  0.00     0.053 C 
BRANCH   7   8
ATOM      8  C   UNL     1      28.552   9.822  21.873  1.00  0.00     0.041 C 
ATOM      9  O   UNL     1      29.763   9.967  22.189  1.00  0.00    -0.550 OA
ATOM     10  O   UNL     1      27.883   8.657  22.224  1.00  0.00    -0.550 OA
ENDBRANCH   7   8
ENDBRANCH   6   7
ENDBRANCH   5   6
ENDBRANCH   4   5
ENDBRANCH   3   4
ENDBRANCH   2   3
ENDBRANCH   1   2
BRANCH   1  11
ATOM     11  C   UNL     1      32.183  13.736  20.507  1.00  0.00     0.000 C 
BRANCH  11  12
ATOM     12  C   UNL     1      32.093  14.702  21.699  1.00  0.00     0.000 C 
BRANCH  12  13
ATOM     13  C   UNL     1      32.672  16.090  21.383  1.00  0.00     0.000 C 
BRANCH  13  14
ATOM     14  C   UNL     1      32.369  16.492  19.931  1.00  0.00     0.000 C 
BRANCH  14  15
ATOM     15  C   UNL     1      30.977  17.122  19.770  1.00  0.00     0.000 C 
BRANCH  15  16
ATOM     16  C   UNL     1      30.409  16.952  18.354  1.00  0.00     0.006 C 
BRANCH  16  17
ATOM     17  C   UNL     1      31.452  16.340  17.415  1.00  0.00     0.053 C 
BRANCH  17  18
ATOM     18  C   UNL     1      30.791  15.743  16.214  1.00  0.00     0.041 C 
ATOM     19  O   UNL     1      29.553  15.888  16.033  1.00  0.00    -0.550 OA
ATOM     20  O   UNL     1      31.551  15.067  15.265  1.00  0.00    -0.550 OA
ENDBRANCH  17  18
ENDBRANCH  16  17
ENDBRANCH  15  16
ENDBRANCH  14  15
ENDBRANCH  13  14
ENDBRANCH  12  13
ENDBRANCH  11  12
ENDBRANCH   1  11
TORSDOF 15
ENDMDL
MODEL 2
REMARK VINA RESULT:    -2.863      2.480      6.291
REMARK INTER + INTRA:          -7.565
REMARK INTER:                  -5.591
REMARK INTRA:                  -1.974
REMARK UNBOUND:                -2.191
REMARK SMILES O=C([O-])CCCCCCCCCCCCCCC(=O)[O-]
REMARK SMILES IDX 10 1 9 2 8 3 7 4 6 5 5 6 4 7 2 8 1 9 3 10 11 11 12 12 13 13
REMARK SMILES IDX 14 14 15 15 16 16 17 17 18 18 19 19 20 20
REMARK H PARENT
REMARK Flexibility Score: inf
ROOT
ATOM      1  C   UNL     1      30.323  13.393  17.564  1.00  0.00     0.000 C 
ENDROOT
BRANCH   1   2
ATOM      2  C   UNL     1      30.112  14.690  16.767  1.00  0.00     0.000 C 
BRANCH   2   3
ATOM      3  C   UNL     1      29.505  15.818  17.614  1.00  0.00     0.000 C 
BRANCH   3   4
ATOM      4  C   UNL     1      30.428  17.046  17.635  1.00  0.00     0.000 C 
BRANCH   4   5
ATOM      5  C   UNL     1      31.755  16.778  18.363  1.00  0.00     0.000 C 
BRANCH   5   6
ATOM      6  C   UNL     1      31.608  16.803  19.891  1.00  0.00     0.006 C 
BRANCH   6   7
ATOM      7  C   UNL     1      32.895  16.330  20.574  1.00  0.00     0.053 C 
BRANCH   7   8
ATOM      8  C   UNL     1      32.634  15.988  22.007  1.00  0.00     0.041 C 
ATOM      9  O   UNL     1      33.393  15.188  22.616  1.00  0.00    -0.550 OA
ATOM     10  O   UNL     1      31.584  16.592  22.685  1.00  0.00    -0.550 OA
ENDBRANCH   7   8
ENDBRANCH   6   7
ENDBRANCH   5   6
ENDBRANCH   4   5
ENDBRANCH   3   4
ENDBRANCH   2   3
ENDBRANCH   1   2
BRANCH   1  11
ATOM     11  C   UNL     1      30.033  13.568  19.066  1.00  0.00     0.000 C 
BRANCH  11  12
ATOM     12  C   UNL     1      31.146  12.985  19.953  1.00  0.00     0.000 C 
BRANCH  12  13
ATOM     13  C   UNL     1      30.797  13.031  21.449  1.00  0.00     0.000 C 
BRANCH  13  14
ATOM     14  C   UNL     1      29.342  13.476  21.659  1.00  0.00     0.000 C 
BRANCH  14  15
ATOM     15  C   UNL     1      28.684  12.797  22.871  1.00  0.00     0.000 C 
BRANCH  15  16
ATOM     16  C   UNL     1      27.510  11.889  22.478  1.00  0.00     0.006 C 
BRANCH  16  17
ATOM     17  C   UNL     1      27.899  10.958  21.327  1.00  0.00     0.053 C 
BRANCH  17  18
ATOM     18  C   UNL     1      28.540   9.713  21.852  1.00  0.00     0.041 C 
ATOM     19  O   UNL     1      27.836   8.710  22.141  1.00  0.00    -0.550 OA
ATOM     20  O   UNL     1      29.923   9.642  21.976  1.00  0.00    -0.550 OA
ENDBRANCH  17  18
ENDBRANCH  16  17
ENDBRANCH  15  16
ENDBRANCH  14  15
ENDBRANCH  13  14
ENDBRANCH  12  13
ENDBRANCH  11  12
ENDBRANCH   1  11
TORSDOF 15
ENDMDL
MODEL 3
REMARK VINA RESULT:    -2.842      2.659      5.811
REMARK INTER + INTRA:          -7.524
REMARK INTER:                  -5.627
REMARK INTRA:                  -1.897
REMARK UNBOUND:                -2.191
REMARK SMILES O=C([O-])CCCCCCCCCCCCCCC(=O)[O-]
REMARK SMILES IDX 10 1 9 2 8 3 7 4 6 5 5 6 4 7 2 8 1 9 3 10 11 11 12 12 13 13
REMARK SMILES IDX 14 14 15 15 16 16 17 17 18 18 19 19 20 20
REMARK H PARENT
REMARK Flexibility Score: inf
ROOT
ATOM      1  C   UNL     1      28.706  12.424  20.053  1.00  0.00     0.000 C 
ENDROOT
BRANCH   1   2
ATOM      2  C   UNL     1      28.457  13.855  19.550  1.00  0.00     0.000 C 
BRANCH   2   3
ATOM      3  C   UNL     1      28.540  14.902  20.671  1.00  0.00     0.000 C 
BRANCH   3   4
ATOM      4  C   UNL     1      28.734  16.311  20.091  1.00  0.00     0.000 C 
BRANCH   4   5
ATOM      5  C   UNL     1      28.186  16.444  18.661  1.00  0.00     0.000 C 
BRANCH   5   6
ATOM      6  C   UNL     1      29.248  16.924  17.661  1.00  0.00     0.006 C 
BRANCH   6   7
ATOM      7  C   UNL     1      29.294  16.013  16.430  1.00  0.00     0.053 C 
BRANCH   7   8
ATOM      8  C   UNL     1      30.557  15.211  16.417  1.00  0.00     0.041 C 
ATOM      9  O   UNL     1      30.562  14.030  16.855  1.00  0.00    -0.550 OA
ATOM     10  O   UNL     1      31.716  15.749  15.873  1.00  0.00    -0.550 OA
ENDBRANCH   7   8
ENDBRANCH   6   7
ENDBRANCH   5   6
ENDBRANCH   4   5
ENDBRANCH   3   4
ENDBRANCH   2   3
ENDBRANCH   1   2
BRANCH   1  11
ATOM     11  C   UNL     1      27.534  11.876  20.887  1.00  0.00     0.000 C 
BRANCH  11  12
ATOM     12  C   UNL     1      27.985  10.843  21.931  1.00  0.00     0.000 C 
BRANCH  12  13
ATOM     13  C   UNL     1      29.493  10.553  21.866  1.00  0.00     0.000 C 
BRANCH  13  14
ATOM     14  C   UNL     1      30.205  11.071  23.125  1.00  0.00     0.000 C 
BRANCH  14  15
ATOM     15  C   UNL     1      30.531  12.572  23.046  1.00  0.00     0.000 C 
BRANCH  15  16
ATOM     16  C   UNL     1      31.984  12.842  22.632  1.00  0.00     0.006 C 
BRANCH  16  17
ATOM     17  C   UNL     1      32.080  13.142  21.133  1.00  0.00     0.053 C 
BRANCH  17  18
ATOM     18  C   UNL     1      32.455  14.573  20.907  1.00  0.00     0.041 C 
ATOM     19  O   UNL     1      33.209  15.167  21.722  1.00  0.00    -0.550 OA
ATOM     20  O   UNL     1      32.013  15.236  19.768  1.00  0.00    -0.550 OA
ENDBRANCH  17  18
ENDBRANCH  16  17
ENDBRANCH  15  16
ENDBRANCH  14  15
ENDBRANCH  13  14
ENDBRANCH  12  13
ENDBRANCH  11  12
ENDBRANCH   1  11
TORSDOF 15
ENDMDL
MODEL 4
REMARK VINA RESULT:    -2.772      1.401      2.468
REMARK INTER + INTRA:          -7.393
REMARK INTER:                  -5.625
REMARK INTRA:                  -1.769
REMARK UNBOUND:                -2.191
REMARK SMILES O=C([O-])CCCCCCCCCCCCCCC(=O)[O-]
REMARK SMILES IDX 10 1 9 2 8 3 7 4 6 5 5 6 4 7 2 8 1 9 3 10 11 11 12 12 13 13
REMARK SMILES IDX 14 14 15 15 16 16 17 17 18 18 19 19 20 20
REMARK H PARENT
REMARK Flexibility Score: inf
ROOT
ATOM      1  C   UNL     1      30.665  15.740  22.852  1.00  0.00     0.000 C 
ENDROOT
BRANCH   1   2
ATOM      2  C   UNL     1      29.400  15.917  21.997  1.00  0.00     0.000 C 
BRANCH   2   3
ATOM      3  C   UNL     1      28.121  16.030  22.842  1.00  0.00     0.000 C 
BRANCH   3   4
ATOM      4  C   UNL     1      27.457  14.656  23.017  1.00  0.00     0.000 C 
BRANCH   4   5
ATOM      5  C   UNL     1      27.844  13.665  21.908  1.00  0.00     0.000 C 
BRANCH   5   6
ATOM      6  C   UNL     1      28.298  12.306  22.460  1.00  0.00     0.006 C 
BRANCH   6   7
ATOM      7  C   UNL     1      27.837  11.163  21.550  1.00  0.00     0.053 C 
BRANCH   7   8
ATOM      8  C   UNL     1      28.576   9.903  21.873  1.00  0.00     0.041 C 
ATOM      9  O   UNL     1      29.828   9.920  22.008  1.00  0.00    -0.550 OA
ATOM     10  O   UNL     1      27.878   8.720  22.075  1.00  0.00    -0.550 OA
ENDBRANCH   7   8
ENDBRANCH   6   7
ENDBRANCH   5   6
ENDBRANCH   4   5
ENDBRANCH   3   4
ENDBRANCH   2   3
ENDBRANCH   1   2
BRANCH   1  11
ATOM     11  C   UNL     1      31.927  15.512  22.001  1.00  0.00     0.000 C 
BRANCH  11  12
ATOM     12  C   UNL     1      32.465  14.077  22.116  1.00  0.00     0.000 C 
BRANCH  12  13
ATOM     13  C   UNL     1      31.664  13.074  21.269  1.00  0.00     0.000 C 
BRANCH  13  14
ATOM     14  C   UNL     1      31.677  13.475  19.787  1.00  0.00     0.000 C 
BRANCH  14  15
ATOM     15  C   UNL     1      30.264  13.600  19.194  1.00  0.00     0.000 C 
BRANCH  15  16
ATOM     16  C   UNL     1      30.244  13.434  17.668  1.00  0.00     0.006 C 
BRANCH  16  17
ATOM     17  C   UNL     1      29.928  14.763  16.976  1.00  0.00     0.053 C 
BRANCH  17  18
ATOM     18  C   UNL     1      31.146  15.303  16.295  1.00  0.00     0.041 C 
ATOM     19  O   UNL     1      31.484  14.868  15.162  1.00  0.00    -0.550 OA
ATOM     20  O   UNL     1      31.881  16.322  16.888  1.00  0.00    -0.550 OA
ENDBRANCH  17  18
ENDBRANCH  16  17
ENDBRANCH  15  16
ENDBRANCH  14  15
ENDBRANCH  13  14
ENDBRANCH  12  13
ENDBRANCH  11  12
ENDBRANCH   1  11
TORSDOF 15
ENDMDL
MODEL 5
REMARK VINA RESULT:    -2.669      1.759      7.509
REMARK INTER + INTRA:          -7.201
REMARK INTER:                  -6.394
REMARK INTRA:                  -0.806
REMARK UNBOUND:                -2.191
REMARK SMILES O=C([O-])CCCCCCCCCCCCCCC(=O)[O-]
REMARK SMILES IDX 10 1 9 2 8 3 7 4 6 5 5 6 4 7 2 8 1 9 3 10 11 11 12 12 13 13
REMARK SMILES IDX 14 14 15 15 16 16 17 17 18 18 19 19 20 20
REMARK H PARENT
REMARK Flexibility Score: inf
ROOT
ATOM      1  C   UNL     1      30.361  13.182  18.217  1.00  0.00     0.000 C 
ENDROOT
BRANCH   1   2
ATOM      2  C   UNL     1      30.161  14.159  17.047  1.00  0.00     0.000 C 
BRANCH   2   3
ATOM      3  C   UNL     1      29.941  15.607  17.512  1.00  0.00     0.000 C 
BRANCH   3   4
ATOM      4  C   UNL     1      31.282  16.312  17.761  1.00  0.00     0.000 C 
BRANCH   4   5
ATOM      5  C   UNL     1      32.007  16.684  16.458  1.00  0.00     0.000 C 
BRANCH   5   6
ATOM      6  C   UNL     1      31.063  16.734  15.248  1.00  0.00     0.006 C 
BRANCH   6   7
ATOM      7  C   UNL     1      31.377  15.607  14.260  1.00  0.00     0.053 C 
BRANCH   7   8
ATOM      8  C   UNL     1      31.062  16.031  12.860  1.00  0.00     0.041 C 
ATOM      9  O   UNL     1      31.511  15.376  11.883  1.00  0.00    -0.550 OA
ATOM     10  O   UNL     1      30.231  17.121  12.635  1.00  0.00    -0.550 OA
ENDBRANCH   7   8
ENDBRANCH   6   7
ENDBRANCH   5   6
ENDBRANCH   4   5
ENDBRANCH   3   4
ENDBRANCH   2   3
ENDBRANCH   1   2
BRANCH   1  11
ATOM     11  C   UNL     1      29.725  13.685  19.525  1.00  0.00     0.000 C 
BRANCH  11  12
ATOM     12  C   UNL     1      30.729  13.733  20.688  1.00  0.00     0.000 C 
BRANCH  12  13
ATOM     13  C   UNL     1      30.084  14.183  22.009  1.00  0.00     0.000 C 
BRANCH  13  14
ATOM     14  C   UNL     1      28.572  13.915  22.001  1.00  0.00     0.000 C 
BRANCH  14  15
ATOM     15  C   UNL     1      28.142  12.916  23.087  1.00  0.00     0.000 C 
BRANCH  15  16
ATOM     16  C   UNL     1      27.159  11.857  22.564  1.00  0.00     0.006 C 
BRANCH  16  17
ATOM     17  C   UNL     1      27.769  11.071  21.400  1.00  0.00     0.053 C 
BRANCH  17  18
ATOM     18  C   UNL     1      28.591   9.930  21.911  1.00  0.00     0.041 C 
ATOM     19  O   UNL     1      28.089   8.778  22.001  1.00  0.00    -0.550 OA
ATOM     20  O   UNL     1      29.926  10.127  22.242  1.00  0.00    -0.550 OA
ENDBRANCH  17  18
ENDBRANCH  16  17
ENDBRANCH  15  16
ENDBRANCH  14  15
ENDBRANCH  13  14
ENDBRANCH  12  13
ENDBRANCH  11  12
ENDBRANCH   1  11
TORSDOF 15
ENDMDL
MODEL 6
REMARK VINA RESULT:    -2.650      1.790      7.075
REMARK INTER + INTRA:          -7.165
REMARK INTER:                  -5.442
REMARK INTRA:                  -1.723
REMARK UNBOUND:                -2.191
REMARK SMILES O=C([O-])CCCCCCCCCCCCCCC(=O)[O-]
REMARK SMILES IDX 10 1 9 2 8 3 7 4 6 5 5 6 4 7 2 8 1 9 3 10 11 11 12 12 13 13
REMARK SMILES IDX 14 14 15 15 16 16 17 17 18 18 19 19 20 20
REMARK H PARENT
REMARK Flexibility Score: inf
ROOT
ATOM      1  C   UNL     1      29.587  13.617  19.048  1.00  0.00     0.000 C 
ENDROOT
BRANCH   1   2
ATOM      2  C   UNL     1      30.123  14.333  17.798  1.00  0.00     0.000 C 
BRANCH   2   3
ATOM      3  C   UNL     1      30.921  15.602  18.134  1.00  0.00     0.000 C 
BRANCH   3   4
ATOM      4  C   UNL     1      30.265  16.843  17.510  1.00  0.00     0.000 C 
BRANCH   4   5
ATOM      5  C   UNL     1      29.139  16.487  16.526  1.00  0.00     0.000 C 
BRANCH   5   6
ATOM      6  C   UNL     1      29.337  17.125  15.143  1.00  0.00     0.006 C 
BRANCH   6   7
ATOM      7  C   UNL     1      30.804  17.048  14.709  1.00  0.00     0.053 C 
BRANCH   7   8
ATOM      8  C   UNL     1      31.000  15.951  13.711  1.00  0.00     0.041 C 
ATOM      9  O   UNL     1      30.868  16.182  12.480  1.00  0.00    -0.550 OA
ATOM     10  O   UNL     1      31.379  14.684  14.138  1.00  0.00    -0.550 OA
ENDBRANCH   7   8
ENDBRANCH   6   7
ENDBRANCH   5   6
ENDBRANCH   4   5
ENDBRANCH   3   4
ENDBRANCH   2   3
ENDBRANCH   1   2
BRANCH   1  11
ATOM     11  C   UNL     1      28.474  14.412  19.754  1.00  0.00     0.000 C 
BRANCH  11  12
ATOM     12  C   UNL     1      28.718  14.554  21.265  1.00  0.00     0.000 C 
BRANCH  12  13
ATOM     13  C   UNL     1      30.199  14.777  21.609  1.00  0.00     0.000 C 
BRANCH  13  14
ATOM     14  C   UNL     1      30.625  13.899  22.795  1.00  0.00     0.000 C 
BRANCH  14  15
ATOM     15  C   UNL     1      31.206  12.547  22.352  1.00  0.00     0.000 C 
BRANCH  15  16
ATOM     16  C   UNL     1      30.359  11.354  22.818  1.00  0.00     0.006 C 
BRANCH  16  17
ATOM     17  C   UNL     1      29.870  10.529  21.625  1.00  0.00     0.053 C 
BRANCH  17  18
ATOM     18  C   UNL     1      28.390  10.323  21.699  1.00  0.00     0.041 C 
ATOM     19  O   UNL     1      27.606  11.169  21.194  1.00  0.00    -0.550 OA
ATOM     20  O   UNL     1      27.877   9.171  22.282  1.00  0.00    -0.550 OA
ENDBRANCH  17  18
ENDBRANCH  16  17
ENDBRANCH  15  16
ENDBRANCH  14  15
ENDBRANCH  13  14
ENDBRANCH  12  13
ENDBRANCH  11  12
ENDBRANCH   1  11
TORSDOF 15
ENDMDL
MODEL 7
REMARK VINA RESULT:    -2.470      0.990      6.767
REMARK INTER + INTRA:          -6.827
REMARK INTER:                  -4.984
REMARK INTRA:                  -1.843
REMARK UNBOUND:                -2.191
REMARK SMILES O=C([O-])CCCCCCCCCCCCCCC(=O)[O-]
REMARK SMILES IDX 10 1 9 2 8 3 7 4 6 5 5 6 4 7 2 8 1 9 3 10 11 11 12 12 13 13
REMARK SMILES IDX 14 14 15 15 16 16 17 17 18 18 19 19 20 20
REMARK H PARENT
REMARK Flexibility Score: inf
ROOT
ATOM      1  C   UNL     1      30.637  13.294  19.514  1.00  0.00     0.000 C 
ENDROOT
BRANCH   1   2
ATOM      2  C   UNL     1      31.427  13.715  20.763  1.00  0.00     0.000 C 
BRANCH   2   3
ATOM      3  C   UNL     1      32.433  14.841  20.480  1.00  0.00     0.000 C 
BRANCH   3   4
ATOM      4  C   UNL     1      31.762  16.217  20.595  1.00  0.00     0.000 C 
BRANCH   4   5
ATOM      5  C   UNL     1      31.920  17.062  19.321  1.00  0.00     0.000 C 
BRANCH   5   6
ATOM      6  C   UNL     1      30.985  16.610  18.190  1.00  0.00     0.006 C 
BRANCH   6   7
ATOM      7  C   UNL     1      31.756  16.429  16.879  1.00  0.00     0.053 C 
BRANCH   7   8
ATOM      8  C   UNL     1      30.933  15.672  15.885  1.00  0.00     0.041 C 
ATOM      9  O   UNL     1      30.907  16.033  14.679  1.00  0.00    -0.550 OA
ATOM     10  O   UNL     1      30.236  14.538  16.280  1.00  0.00    -0.550 OA
ENDBRANCH   7   8
ENDBRANCH   6   7
ENDBRANCH   5   6
ENDBRANCH   4   5
ENDBRANCH   3   4
ENDBRANCH   2   3
ENDBRANCH   1   2
BRANCH   1  11
ATOM     11  C   UNL     1      29.132  13.131  19.792  1.00  0.00     0.000 C 
BRANCH  11  12
ATOM     12  C   UNL     1      28.376  14.469  19.745  1.00  0.00     0.000 C 
BRANCH  12  13
ATOM     13  C   UNL     1      28.083  15.033  21.144  1.00  0.00     0.000 C 
BRANCH  13  14
ATOM     14  C   UNL     1      28.177  13.932  22.210  1.00  0.00     0.000 C 
BRANCH  14  15
ATOM     15  C   UNL     1      26.875  13.126  22.347  1.00  0.00     0.000 C 
BRANCH  15  16
ATOM     16  C   UNL     1      27.085  11.773  23.042  1.00  0.00     0.006 C 
BRANCH  16  17
ATOM     17  C   UNL     1      28.569  11.398  23.074  1.00  0.00     0.053 C 
BRANCH  17  18
ATOM     18  C   UNL     1      28.813  10.153  22.282  1.00  0.00     0.041 C 
ATOM     19  O   UNL     1      29.897   9.998  21.660  1.00  0.00    -0.550 OA
ATOM     20  O   UNL     1      27.862   9.138  22.271  1.00  0.00    -0.550 OA
ENDBRANCH  17  18
ENDBRANCH  16  17
ENDBRANCH  15  16
ENDBRANCH  14  15
ENDBRANCH  13  14
ENDBRANCH  12  13
ENDBRANCH  11  12
ENDBRANCH   1  11
TORSDOF 15
ENDMDL
MODEL 8
REMARK VINA RESULT:    -2.261      2.314      4.018
REMARK INTER + INTRA:          -6.434
REMARK INTER:                  -4.461
REMARK INTRA:                  -1.973
REMARK UNBOUND:                -2.191
REMARK SMILES O=C([O-])CCCCCCCCCCCCCCC(=O)[O-]
REMARK SMILES IDX 10 1 9 2 8 3 7 4 6 5 5 6 4 7 2 8 1 9 3 10 11 11 12 12 13 13
REMARK SMILES IDX 14 14 15 15 16 16 17 17 18 18 19 19 20 20
REMARK H PARENT
REMARK Flexibility Score: inf
ROOT
ATOM      1  C   UNL     1      30.533  15.334  16.597  1.00  0.00     0.000 C 
ENDROOT
BRANCH   1   2
ATOM      2  C   UNL     1      29.146  14.918  17.112  1.00  0.00     0.000 C 
BRANCH   2   3
ATOM      3  C   UNL     1      28.425  16.048  17.863  1.00  0.00     0.000 C 
BRANCH   3   4
ATOM      4  C   UNL     1      27.953  15.574  19.245  1.00  0.00     0.000 C 
BRANCH   4   5
ATOM      5  C   UNL     1      28.777  14.393  19.781  1.00  0.00     0.000 C 
BRANCH   5   6
ATOM      6  C   UNL     1      27.989  13.519  20.767  1.00  0.00     0.006 C 
BRANCH   6   7
ATOM      7  C   UNL     1      28.143  12.033  20.427  1.00  0.00     0.053 C 
BRANCH   7   8
ATOM      8  C   UNL     1      28.247  11.216  21.676  1.00  0.00     0.041 C 
ATOM      9  O   UNL     1      28.252   9.959  21.612  1.00  0.00    -0.550 OA
ATOM     10  O   UNL     1      28.391  11.844  22.906  1.00  0.00    -0.550 OA
ENDBRANCH   7   8
ENDBRANCH   6   7
ENDBRANCH   5   6
ENDBRANCH   4   5
ENDBRANCH   3   4
ENDBRANCH   2   3
ENDBRANCH   1   2
BRANCH   1  11
ATOM     11  C   UNL     1      31.210  16.382  17.498  1.00  0.00     0.000 C 
BRANCH  11  12
ATOM     12  C   UNL     1      31.818  15.763  18.768  1.00  0.00     0.000 C 
BRANCH  12  13
ATOM     13  C   UNL     1      31.806  16.729  19.963  1.00  0.00     0.000 C 
BRANCH  13  14
ATOM     14  C   UNL     1      33.015  16.484  20.878  1.00  0.00     0.000 C 
BRANCH  14  15
ATOM     15  C   UNL     1      32.615  15.896  22.242  1.00  0.00     0.000 C 
BRANCH  15  16
ATOM     16  C   UNL     1      31.163  15.399  22.271  1.00  0.00     0.006 C 
BRANCH  16  17
ATOM     17  C   UNL     1      31.034  14.134  23.125  1.00  0.00     0.053 C 
BRANCH  17  18
ATOM     18  C   UNL     1      31.685  12.972  22.444  1.00  0.00     0.041 C 
ATOM     19  O   UNL     1      32.276  12.090  23.121  1.00  0.00    -0.550 OA
ATOM     20  O   UNL     1      31.596  12.836  21.063  1.00  0.00    -0.550 OA
ENDBRANCH  17  18
ENDBRANCH  16  17
ENDBRANCH  15  16
ENDBRANCH  14  15
ENDBRANCH  13  14
ENDBRANCH  12  13
ENDBRANCH  11  12
ENDBRANCH   1  11
TORSDOF 15
ENDMDL
MODEL 9
REMARK VINA RESULT:    -2.229      2.838      6.681
REMARK INTER + INTRA:          -6.374
REMARK INTER:                  -4.940
REMARK INTRA:                  -1.434
REMARK UNBOUND:                -2.191
REMARK SMILES O=C([O-])CCCCCCCCCCCCCCC(=O)[O-]
REMARK SMILES IDX 10 1 9 2 8 3 7 4 6 5 5 6 4 7 2 8 1 9 3 10 11 11 12 12 13 13
REMARK SMILES IDX 14 14 15 15 16 16 17 17 18 18 19 19 20 20
REMARK H PARENT
REMARK Flexibility Score: inf
ROOT
ATOM      1  C   UNL     1      29.756  13.399  18.425  1.00  0.00     0.000 C 
ENDROOT
BRANCH   1   2
ATOM      2  C   UNL     1      30.753  14.502  18.814  1.00  0.00     0.000 C 
BRANCH   2   3
ATOM      3  C   UNL     1      31.134  15.406  17.631  1.00  0.00     0.000 C 
BRANCH   3   4
ATOM      4  C   UNL     1      30.464  16.782  17.755  1.00  0.00     0.000 C 
BRANCH   4   5
ATOM      5  C   UNL     1      29.084  16.833  17.079  1.00  0.00     0.000 C 
BRANCH   5   6
ATOM      6  C   UNL     1      29.159  16.608  15.562  1.00  0.00     0.006 C 
BRANCH   6   7
ATOM      7  C   UNL     1      30.485  17.124  14.995  1.00  0.00     0.053 C 
BRANCH   7   8
ATOM      8  C   UNL     1      30.902  16.311  13.810  1.00  0.00     0.041 C 
ATOM      9  O   UNL     1      30.810  16.791  12.650  1.00  0.00    -0.550 OA
ATOM     10  O   UNL     1      31.440  15.044  13.992  1.00  0.00    -0.550 OA
ENDBRANCH   7   8
ENDBRANCH   6   7
ENDBRANCH   5   6
ENDBRANCH   4   5
ENDBRANCH   3   4
ENDBRANCH   2   3
ENDBRANCH   1   2
BRANCH   1  11
ATOM     11  C   UNL     1      28.847  12.982  19.595  1.00  0.00     0.000 C 
BRANCH  11  12
ATOM     12  C   UNL     1      28.555  14.144  20.558  1.00  0.00     0.000 C 
BRANCH  12  13
ATOM     13  C   UNL     1      29.095  13.891  21.975  1.00  0.00     0.000 C 
BRANCH  13  14
ATOM     14  C   UNL     1      29.451  12.409  22.168  1.00  0.00     0.000 C 
BRANCH  14  15
ATOM     15  C   UNL     1      30.897  12.205  22.647  1.00  0.00     0.000 C 
BRANCH  15  16
ATOM     16  C   UNL     1      31.929  12.846  21.708  1.00  0.00     0.006 C 
BRANCH  16  17
ATOM     17  C   UNL     1      32.854  13.795  22.476  1.00  0.00     0.053 C 
BRANCH  17  18
ATOM     18  C   UNL     1      32.614  15.212  22.060  1.00  0.00     0.041 C 
ATOM     19  O   UNL     1      31.752  15.910  22.656  1.00  0.00    -0.550 OA
ATOM     20  O   UNL     1      33.380  15.779  21.048  1.00  0.00    -0.550 OA
ENDBRANCH  17  18
ENDBRANCH  16  17
ENDBRANCH  15  16
ENDBRANCH  14  15
ENDBRANCH  13  14
ENDBRANCH  12  13
ENDBRANCH  11  12
ENDBRANCH   1  11
TORSDOF 15
ENDMDL
