MODEL 1
REMARK VINA RESULT:    -5.557      0.000      0.000
REMARK INTER + INTRA:          -7.438
REMARK INTER:                  -7.831
REMARK INTRA:                   0.393
REMARK UNBOUND:                 0.393
REMARK SMILES CC1=CCC(=C(C)C)C(=O)CC(C)=CCC1
REMARK SMILES IDX 12 1 14 2 13 3 15 4 16 5 2 6 1 7 3 8 11 10 9 11 10 12 5 13
REMARK SMILES IDX 6 14 7 15 8 16 4 17
REMARK H PARENT
REMARK Flexibility Score: 60.00
ROOT
ATOM      1  C   UNL     1     -13.563 -37.717  41.437  1.00  0.00    -0.070 C 
ATOM      2  C   UNL     1     -13.428 -38.794  42.245  1.00  0.00    -0.027 C 
ATOM      3  C   UNL     1     -14.553 -36.652  41.835  1.00  0.00     0.039 C 
ENDROOT
BRANCH   2   4
ATOM      4  C   UNL     1     -12.532 -39.980  41.972  1.00  0.00     0.032 C 
BRANCH   4   5
ATOM      5  C   UNL     1     -13.252 -41.057  41.146  1.00  0.00     0.034 C 
BRANCH   5   6
ATOM      6  C   UNL     1     -12.422 -41.592  39.990  1.00  0.00    -0.077 C 
ATOM      7  C   UNL     1     -11.322 -42.582  40.280  1.00  0.00     0.039 C 
ATOM      8  C   UNL     1     -12.604 -41.211  38.703  1.00  0.00    -0.023 CG0
ATOM      9  G   UNL     1     -13.693 -40.289  38.210  1.00  0.00     0.000 G0
ENDBRANCH   5   6
ENDBRANCH   4   5
ENDBRANCH   2   4
BRANCH   1  10
ATOM     10  C   UNL     1     -12.763 -37.537  40.161  1.00  0.00     0.111 C 
BRANCH  10  11
ATOM     11  C   UNL     1     -13.608 -37.814  38.949  1.00  0.00     0.163 C 
ATOM     12  O   UNL     1     -14.670 -37.158  38.773  1.00  0.00    -0.294 OA
BRANCH  11  13
ATOM     13  C   UNL     1     -13.228 -38.861  37.967  1.00  0.00    -0.002 C 
ATOM     14  C   UNL     1     -12.482 -38.540  36.875  1.00  0.00    -0.069 C 
ATOM     15  C   UNL     1     -12.042 -39.601  35.893  1.00  0.00     0.039 C 
ATOM     16  C   UNL     1     -12.101 -37.106  36.582  1.00  0.00     0.039 C 
BRANCH  13  17
ATOM     17  C   UNL     1     -13.686 -40.297  38.199  1.00  0.00     0.066 CG0
ATOM     18  G   UNL     1     -12.598 -41.205  38.720  1.00  0.00     0.000 G0
ENDBRANCH  13  17
ENDBRANCH  11  13
ENDBRANCH  10  11
ENDBRANCH   1  10
TORSDOF 0
ENDMDL
MODEL 2
REMARK VINA RESULT:    -5.514      2.772      4.916
REMARK INTER + INTRA:          -7.377
REMARK INTER:                  -8.210
REMARK INTRA:                   0.833
REMARK UNBOUND:                 0.393
REMARK SMILES CC1=CCC(=C(C)C)C(=O)CC(C)=CCC1
REMARK SMILES IDX 12 1 14 2 13 3 15 4 16 5 2 6 1 7 3 8 11 10 9 11 10 12 5 13
REMARK SMILES IDX 6 14 7 15 8 16 4 17
REMARK H PARENT
REMARK Flexibility Score: 60.00
ROOT
ATOM      1  C   UNL     1     -13.861 -37.495  39.806  1.00  0.00    -0.070 C 
ATOM      2  C   UNL     1     -14.450 -36.388  39.295  1.00  0.00    -0.027 C 
ATOM      3  C   UNL     1     -13.632 -37.552  41.295  1.00  0.00     0.039 C 
ENDROOT
BRANCH   2   4
ATOM      4  C   UNL     1     -14.700 -36.135  37.826  1.00  0.00     0.032 C 
BRANCH   4   5
ATOM      5  C   UNL     1     -13.393 -36.140  37.019  1.00  0.00     0.034 C 
BRANCH   5   6
ATOM      6  C   UNL     1     -12.261 -35.377  37.691  1.00  0.00    -0.077 C 
ATOM      7  C   UNL     1     -12.447 -33.910  37.986  1.00  0.00     0.039 C 
ATOM      8  C   UNL     1     -11.078 -35.943  38.025  1.00  0.00    -0.023 CG0
ATOM      9  G   UNL     1     -10.733 -37.405  37.874  1.00  0.00     0.000 G0
ENDBRANCH   5   6
ENDBRANCH   4   5
ENDBRANCH   2   4
BRANCH   1  10
ATOM     10  C   UNL     1     -13.431 -38.671  38.951  1.00  0.00     0.111 C 
BRANCH  10  11
ATOM     11  C   UNL     1     -12.042 -39.120  39.308  1.00  0.00     0.163 C 
ATOM     12  O   UNL     1     -11.864 -40.289  39.746  1.00  0.00    -0.294 OA
BRANCH  11  13
ATOM     13  C   UNL     1     -10.879 -38.207  39.178  1.00  0.00    -0.002 C 
ATOM     14  C   UNL     1      -9.983 -38.085  40.196  1.00  0.00    -0.069 C 
ATOM     15  C   UNL     1      -8.765 -37.201  40.061  1.00  0.00     0.039 C 
ATOM     16  C   UNL     1     -10.195 -38.798  41.513  1.00  0.00     0.039 C 
BRANCH  13  17
ATOM     17  C   UNL     1     -10.703 -37.409  37.891  1.00  0.00     0.066 CG0
ATOM     18  G   UNL     1     -11.090 -35.955  38.019  1.00  0.00     0.000 G0
ENDBRANCH  13  17
ENDBRANCH  11  13
ENDBRANCH  10  11
ENDBRANCH   1  10
TORSDOF 0
ENDMDL
MODEL 3
REMARK VINA RESULT:    -5.477      2.052      3.423
REMARK INTER + INTRA:          -7.325
REMARK INTER:                  -8.228
REMARK INTRA:                   0.903
REMARK UNBOUND:                 0.393
REMARK SMILES CC1=CCC(=C(C)C)C(=O)CC(C)=CCC1
REMARK SMILES IDX 12 1 14 2 13 3 15 4 16 5 2 6 1 7 3 8 11 10 9 11 10 12 5 13
REMARK SMILES IDX 6 14 7 15 8 16 4 17
REMARK H PARENT
REMARK Flexibility Score: 60.00
ROOT
ATOM      1  C   UNL     1     -13.088 -39.454  37.940  1.00  0.00    -0.070 C 
ATOM      2  C   UNL     1     -13.285 -40.768  38.199  1.00  0.00    -0.027 C 
ATOM      3  C   UNL     1     -12.324 -39.084  36.694  1.00  0.00     0.039 C 
ENDROOT
BRANCH   2   4
ATOM      4  C   UNL     1     -13.972 -41.320  39.426  1.00  0.00     0.032 C 
BRANCH   4   5
ATOM      5  C   UNL     1     -13.355 -40.766  40.719  1.00  0.00     0.034 C 
BRANCH   5   6
ATOM      6  C   UNL     1     -11.842 -40.915  40.782  1.00  0.00    -0.077 C 
ATOM      7  C   UNL     1     -11.238 -42.286  40.617  1.00  0.00     0.039 C 
ATOM      8  C   UNL     1     -11.000 -39.877  40.999  1.00  0.00    -0.023 CG0
ATOM      9  G   UNL     1     -11.410 -38.428  41.118  1.00  0.00     0.000 G0
ENDBRANCH   5   6
ENDBRANCH   4   5
ENDBRANCH   2   4
BRANCH   1  10
ATOM     10  C   UNL     1     -13.603 -38.349  38.841  1.00  0.00     0.111 C 
BRANCH  10  11
ATOM     11  C   UNL     1     -12.546 -37.307  39.077  1.00  0.00     0.163 C 
ATOM     12  O   UNL     1     -12.704 -36.148  38.605  1.00  0.00    -0.294 OA
BRANCH  11  13
ATOM     13  C   UNL     1     -11.308 -37.621  39.835  1.00  0.00    -0.002 C 
ATOM     14  C   UNL     1     -10.097 -37.203  39.376  1.00  0.00    -0.069 C 
ATOM     15  C   UNL     1      -8.833 -37.468  40.161  1.00  0.00     0.039 C 
ATOM     16  C   UNL     1      -9.966 -36.494  38.047  1.00  0.00     0.039 C 
BRANCH  13  17
ATOM     17  C   UNL     1     -11.414 -38.418  41.131  1.00  0.00     0.066 CG0
ATOM     18  G   UNL     1     -10.983 -39.859  40.995  1.00  0.00     0.000 G0
ENDBRANCH  13  17
ENDBRANCH  11  13
ENDBRANCH  10  11
ENDBRANCH   1  10
TORSDOF 0
ENDMDL
MODEL 4
REMARK VINA RESULT:    -5.258      2.248      3.693
REMARK INTER + INTRA:          -7.016
REMARK INTER:                  -7.416
REMARK INTRA:                   0.399
REMARK UNBOUND:                 0.393
REMARK SMILES CC1=CCC(=C(C)C)C(=O)CC(C)=CCC1
REMARK SMILES IDX 12 1 14 2 13 3 15 4 16 5 2 6 1 7 3 8 11 10 9 11 10 12 5 13
REMARK SMILES IDX 6 14 7 15 8 16 4 17
REMARK H PARENT
REMARK Flexibility Score: 60.00
ROOT
ATOM      1  C   UNL     1     -12.506 -40.295  40.788  1.00  0.00    -0.070 C 
ATOM      2  C   UNL     1     -13.403 -40.962  40.025  1.00  0.00    -0.027 C 
ATOM      3  C   UNL     1     -12.778 -40.179  42.266  1.00  0.00     0.039 C 
ENDROOT
BRANCH   2   4
ATOM      4  C   UNL     1     -13.322 -41.122  38.525  1.00  0.00     0.032 C 
BRANCH   4   5
ATOM      5  C   UNL     1     -13.650 -39.810  37.796  1.00  0.00     0.034 C 
BRANCH   5   6
ATOM      6  C   UNL     1     -12.692 -39.493  36.656  1.00  0.00    -0.077 C 
ATOM      7  C   UNL     1     -12.590 -40.457  35.502  1.00  0.00     0.039 C 
ATOM      8  C   UNL     1     -11.905 -38.392  36.630  1.00  0.00    -0.023 CG0
ATOM      9  G   UNL     1     -11.918 -37.282  37.655  1.00  0.00     0.000 G0
ENDBRANCH   5   6
ENDBRANCH   4   5
ENDBRANCH   2   4
BRANCH   1  10
ATOM     10  C   UNL     1     -11.245 -39.669  40.222  1.00  0.00     0.111 C 
BRANCH  10  11
ATOM     11  C   UNL     1     -11.410 -38.185  40.048  1.00  0.00     0.163 C 
ATOM     12  O   UNL     1     -11.973 -37.515  40.956  1.00  0.00    -0.294 OA
BRANCH  11  13
ATOM     13  C   UNL     1     -10.942 -37.496  38.819  1.00  0.00    -0.002 C 
ATOM     14  C   UNL     1      -9.656 -37.061  38.723  1.00  0.00    -0.069 C 
ATOM     15  C   UNL     1      -9.148 -36.404  37.460  1.00  0.00     0.039 C 
ATOM     16  C   UNL     1      -8.701 -37.180  39.889  1.00  0.00     0.039 C 
BRANCH  13  17
ATOM     17  C   UNL     1     -11.921 -37.283  37.669  1.00  0.00     0.066 CG0
ATOM     18  G   UNL     1     -11.900 -38.388  36.640  1.00  0.00     0.000 G0
ENDBRANCH  13  17
ENDBRANCH  11  13
ENDBRANCH  10  11
ENDBRANCH   1  10
TORSDOF 0
ENDMDL
MODEL 5
REMARK VINA RESULT:    -5.187      2.514      3.382
REMARK INTER + INTRA:          -6.918
REMARK INTER:                  -7.532
REMARK INTRA:                   0.614
REMARK UNBOUND:                 0.393
REMARK SMILES CC1=CCC(=C(C)C)C(=O)CC(C)=CCC1
REMARK SMILES IDX 12 1 14 2 13 3 15 4 16 5 2 6 1 7 3 8 11 10 9 11 10 12 5 13
REMARK SMILES IDX 6 14 7 15 8 16 4 17
REMARK H PARENT
REMARK Flexibility Score: 60.00
ROOT
ATOM      1  C   UNL     1     -13.840 -37.002  39.438  1.00  0.00    -0.070 C 
ATOM      2  C   UNL     1     -14.144 -37.462  40.674  1.00  0.00    -0.027 C 
ATOM      3  C   UNL     1     -14.919 -37.033  38.385  1.00  0.00     0.039 C 
ENDROOT
BRANCH   2   4
ATOM      4  C   UNL     1     -13.173 -37.561  41.828  1.00  0.00     0.032 C 
BRANCH   4   5
ATOM      5  C   UNL     1     -13.089 -38.993  42.377  1.00  0.00     0.034 C 
BRANCH   5   6
ATOM      6  C   UNL     1     -12.498 -39.988  41.389  1.00  0.00    -0.077 C 
ATOM      7  C   UNL     1     -13.275 -41.239  41.062  1.00  0.00     0.039 C 
ATOM      8  C   UNL     1     -11.293 -39.821  40.795  1.00  0.00    -0.023 CG0
ATOM      9  G   UNL     1     -10.406 -38.608  40.942  1.00  0.00     0.000 G0
ENDBRANCH   5   6
ENDBRANCH   4   5
ENDBRANCH   2   4
BRANCH   1  10
ATOM     10  C   UNL     1     -12.473 -36.457  39.072  1.00  0.00     0.111 C 
BRANCH  10  11
ATOM     11  C   UNL     1     -11.498 -37.573  38.816  1.00  0.00     0.163 C 
ATOM     12  O   UNL     1     -11.719 -38.384  37.878  1.00  0.00    -0.294 OA
BRANCH  11  13
ATOM     13  C   UNL     1     -10.290 -37.750  39.662  1.00  0.00    -0.002 C 
ATOM     14  C   UNL     1      -9.113 -37.164  39.310  1.00  0.00    -0.069 C 
ATOM     15  C   UNL     1      -7.888 -37.290  40.186  1.00  0.00     0.039 C 
ATOM     16  C   UNL     1      -8.977 -36.402  38.011  1.00  0.00     0.039 C 
BRANCH  13  17
ATOM     17  C   UNL     1     -10.388 -38.596  40.927  1.00  0.00     0.066 CG0
ATOM     18  G   UNL     1     -11.277 -39.808  40.782  1.00  0.00     0.000 G0
ENDBRANCH  13  17
ENDBRANCH  11  13
ENDBRANCH  10  11
ENDBRANCH   1  10
TORSDOF 0
ENDMDL
MODEL 6
REMARK VINA RESULT:    -5.182      2.131      5.603
REMARK INTER + INTRA:          -6.909
REMARK INTER:                  -7.233
REMARK INTRA:                   0.323
REMARK UNBOUND:                 0.393
REMARK SMILES CC1=CCC(=C(C)C)C(=O)CC(C)=CCC1
REMARK SMILES IDX 12 1 14 2 13 3 15 4 16 5 2 6 1 7 3 8 11 10 9 11 10 12 5 13
REMARK SMILES IDX 6 14 7 15 8 16 4 17
REMARK H PARENT
REMARK Flexibility Score: 60.00
ROOT
ATOM      1  C   UNL     1     -12.018 -38.786  36.192  1.00  0.00    -0.070 C 
ATOM      2  C   UNL     1     -12.118 -37.658  35.451  1.00  0.00    -0.027 C 
ATOM      3  C   UNL     1     -12.110 -40.112  35.479  1.00  0.00     0.039 C 
ENDROOT
BRANCH   2   4
ATOM      4  C   UNL     1     -12.110 -36.251  36.003  1.00  0.00     0.032 C 
BRANCH   4   5
ATOM      5  C   UNL     1     -13.474 -35.866  36.596  1.00  0.00     0.034 C 
BRANCH   5   6
ATOM      6  C   UNL     1     -13.374 -35.158  37.939  1.00  0.00    -0.077 C 
ATOM      7  C   UNL     1     -12.754 -33.784  37.994  1.00  0.00     0.039 C 
ATOM      8  C   UNL     1     -13.796 -35.706  39.103  1.00  0.00    -0.023 CG0
ATOM      9  G   UNL     1     -14.501 -37.034  39.239  1.00  0.00     0.000 G0
ENDBRANCH   5   6
ENDBRANCH   4   5
ENDBRANCH   2   4
BRANCH   1  10
ATOM     10  C   UNL     1     -11.815 -38.772  37.694  1.00  0.00     0.111 C 
BRANCH  10  11
ATOM     11  C   UNL     1     -13.102 -39.057  38.417  1.00  0.00     0.163 C 
ATOM     12  O   UNL     1     -13.818 -40.026  38.047  1.00  0.00    -0.294 OA
BRANCH  11  13
ATOM     13  C   UNL     1     -13.559 -38.204  39.543  1.00  0.00    -0.002 C 
ATOM     14  C   UNL     1     -13.141 -38.461  40.813  1.00  0.00    -0.069 C 
ATOM     15  C   UNL     1     -13.554 -37.573  41.964  1.00  0.00     0.039 C 
ATOM     16  C   UNL     1     -12.285 -39.668  41.125  1.00  0.00     0.039 C 
BRANCH  13  17
ATOM     17  C   UNL     1     -14.500 -37.038  39.258  1.00  0.00     0.066 CG0
ATOM     18  G   UNL     1     -13.796 -35.711  39.107  1.00  0.00     0.000 G0
ENDBRANCH  13  17
ENDBRANCH  11  13
ENDBRANCH  10  11
ENDBRANCH   1  10
TORSDOF 0
ENDMDL
MODEL 7
REMARK VINA RESULT:    -5.101      1.747      2.927
REMARK INTER + INTRA:          -6.795
REMARK INTER:                  -7.260
REMARK INTRA:                   0.464
REMARK UNBOUND:                 0.393
REMARK SMILES CC1=CCC(=C(C)C)C(=O)CC(C)=CCC1
REMARK SMILES IDX 12 1 14 2 13 3 15 4 16 5 2 6 1 7 3 8 11 10 9 11 10 12 5 13
REMARK SMILES IDX 6 14 7 15 8 16 4 17
REMARK H PARENT
REMARK Flexibility Score: 60.00
ROOT
ATOM      1  C   UNL     1     -13.135 -39.315  41.482  1.00  0.00    -0.070 C 
ATOM      2  C   UNL     1     -13.187 -40.596  41.047  1.00  0.00    -0.027 C 
ATOM      3  C   UNL     1     -12.705 -39.067  42.905  1.00  0.00     0.039 C 
ENDROOT
BRANCH   2   4
ATOM      4  C   UNL     1     -13.653 -41.031  39.676  1.00  0.00     0.032 C 
BRANCH   4   5
ATOM      5  C   UNL     1     -12.530 -40.918  38.633  1.00  0.00     0.034 C 
BRANCH   5   6
ATOM      6  C   UNL     1     -13.008 -40.415  37.279  1.00  0.00    -0.077 C 
ATOM      7  C   UNL     1     -13.979 -41.257  36.491  1.00  0.00     0.039 C 
ATOM      8  C   UNL     1     -12.591 -39.251  36.729  1.00  0.00    -0.023 CG0
ATOM      9  G   UNL     1     -11.681 -38.245  37.392  1.00  0.00     0.000 G0
ENDBRANCH   5   6
ENDBRANCH   4   5
ENDBRANCH   2   4
BRANCH   1  10
ATOM     10  C   UNL     1     -13.485 -38.130  40.603  1.00  0.00     0.111 C 
BRANCH  10  11
ATOM     11  C   UNL     1     -12.285 -37.655  39.832  1.00  0.00     0.163 C 
ATOM     12  O   UNL     1     -11.182 -37.518  40.428  1.00  0.00    -0.294 OA
BRANCH  11  13
ATOM     13  C   UNL     1     -12.378 -37.323  38.388  1.00  0.00    -0.002 C 
ATOM     14  C   UNL     1     -13.074 -36.228  37.979  1.00  0.00    -0.069 C 
ATOM     15  C   UNL     1     -13.137 -35.845  36.518  1.00  0.00     0.039 C 
ATOM     16  C   UNL     1     -13.846 -35.378  38.964  1.00  0.00     0.039 C 
BRANCH  13  17
ATOM     17  C   UNL     1     -11.683 -38.225  37.373  1.00  0.00     0.066 CG0
ATOM     18  G   UNL     1     -12.597 -39.250  36.745  1.00  0.00     0.000 G0
ENDBRANCH  13  17
ENDBRANCH  11  13
ENDBRANCH  10  11
ENDBRANCH   1  10
TORSDOF 0
ENDMDL
MODEL 8
REMARK VINA RESULT:    -5.000      2.194      5.157
REMARK INTER + INTRA:          -6.654
REMARK INTER:                  -7.375
REMARK INTRA:                   0.721
REMARK UNBOUND:                 0.393
REMARK SMILES CC1=CCC(=C(C)C)C(=O)CC(C)=CCC1
REMARK SMILES IDX 12 1 14 2 13 3 15 4 16 5 2 6 1 7 3 8 11 10 9 11 10 12 5 13
REMARK SMILES IDX 6 14 7 15 8 16 4 17
REMARK H PARENT
REMARK Flexibility Score: 60.00
ROOT
ATOM      1  C   UNL     1     -12.789 -39.179  36.815  1.00  0.00    -0.070 C 
ATOM      2  C   UNL     1     -12.496 -37.886  36.544  1.00  0.00    -0.027 C 
ATOM      3  C   UNL     1     -12.303 -40.233  35.852  1.00  0.00     0.039 C 
ENDROOT
BRANCH   2   4
ATOM      4  C   UNL     1     -12.953 -36.700  37.362  1.00  0.00     0.032 C 
BRANCH   4   5
ATOM      5  C   UNL     1     -11.763 -35.921  37.944  1.00  0.00     0.034 C 
BRANCH   5   6
ATOM      6  C   UNL     1     -10.628 -36.814  38.422  1.00  0.00    -0.077 C 
ATOM      7  C   UNL     1      -9.297 -36.739  37.718  1.00  0.00     0.039 C 
ATOM      8  C   UNL     1     -10.753 -37.695  39.442  1.00  0.00    -0.023 CG0
ATOM      9  G   UNL     1     -11.979 -37.863  40.308  1.00  0.00     0.000 G0
ENDBRANCH   5   6
ENDBRANCH   4   5
ENDBRANCH   2   4
BRANCH   1  10
ATOM     10  C   UNL     1     -13.576 -39.608  38.038  1.00  0.00     0.111 C 
BRANCH  10  11
ATOM     11  C   UNL     1     -12.659 -40.084  39.131  1.00  0.00     0.163 C 
ATOM     12  O   UNL     1     -12.034 -41.169  38.985  1.00  0.00    -0.294 OA
BRANCH  11  13
ATOM     13  C   UNL     1     -12.491 -39.311  40.387  1.00  0.00    -0.002 C 
ATOM     14  C   UNL     1     -12.792 -39.878  41.588  1.00  0.00    -0.069 C 
ATOM     15  C   UNL     1     -12.579 -39.124  42.881  1.00  0.00     0.039 C 
ATOM     16  C   UNL     1     -13.389 -41.265  41.670  1.00  0.00     0.039 C 
BRANCH  13  17
ATOM     17  C   UNL     1     -11.980 -37.876  40.314  1.00  0.00     0.066 CG0
ATOM     18  G   UNL     1     -10.764 -37.708  39.434  1.00  0.00     0.000 G0
ENDBRANCH  13  17
ENDBRANCH  11  13
ENDBRANCH  10  11
ENDBRANCH   1  10
TORSDOF 0
ENDMDL
MODEL 9
REMARK VINA RESULT:    -4.967      2.152      3.445
REMARK INTER + INTRA:          -6.607
REMARK INTER:                  -7.246
REMARK INTRA:                   0.640
REMARK UNBOUND:                 0.393
REMARK SMILES CC1=CCC(=C(C)C)C(=O)CC(C)=CCC1
REMARK SMILES IDX 12 1 14 2 13 3 15 4 16 5 2 6 1 7 3 8 11 10 9 11 10 12 5 13
REMARK SMILES IDX 6 14 7 15 8 16 4 17
REMARK H PARENT
REMARK Flexibility Score: 60.00
ROOT
ATOM      1  C   UNL     1     -10.547 -37.332  38.670  1.00  0.00    -0.070 C 
ATOM      2  C   UNL     1     -10.054 -37.621  39.896  1.00  0.00    -0.027 C 
ATOM      3  C   UNL     1     -10.399 -35.920  38.161  1.00  0.00     0.039 C 
ENDROOT
BRANCH   2   4
ATOM      4  C   UNL     1     -10.168 -38.961  40.586  1.00  0.00     0.032 C 
BRANCH   4   5
ATOM      5  C   UNL     1     -11.155 -38.912  41.763  1.00  0.00     0.034 C 
BRANCH   5   6
ATOM      6  C   UNL     1     -12.491 -39.575  41.462  1.00  0.00    -0.077 C 
ATOM      7  C   UNL     1     -12.707 -41.005  41.890  1.00  0.00     0.039 C 
ATOM      8  C   UNL     1     -13.500 -38.953  40.809  1.00  0.00    -0.023 CG0
ATOM      9  G   UNL     1     -13.498 -37.509  40.366  1.00  0.00     0.000 G0
ENDBRANCH   5   6
ENDBRANCH   4   5
ENDBRANCH   2   4
BRANCH   1  10
ATOM     10  C   UNL     1     -11.232 -38.361  37.791  1.00  0.00     0.111 C 
BRANCH  10  11
ATOM     11  C   UNL     1     -12.713 -38.388  38.044  1.00  0.00     0.163 C 
ATOM     12  O   UNL     1     -13.408 -39.319  37.553  1.00  0.00    -0.294 OA
BRANCH  11  13
ATOM     13  C   UNL     1     -13.378 -37.329  38.844  1.00  0.00    -0.002 C 
ATOM     14  C   UNL     1     -13.867 -36.214  38.235  1.00  0.00    -0.069 C 
ATOM     15  C   UNL     1     -14.593 -35.149  39.025  1.00  0.00     0.039 C 
ATOM     16  C   UNL     1     -13.666 -35.979  36.755  1.00  0.00     0.039 C 
BRANCH  13  17
ATOM     17  C   UNL     1     -13.505 -37.507  40.353  1.00  0.00     0.066 CG0
ATOM     18  G   UNL     1     -13.490 -38.949  40.799  1.00  0.00     0.000 G0
ENDBRANCH  13  17
ENDBRANCH  11  13
ENDBRANCH  10  11
ENDBRANCH   1  10
TORSDOF 0
ENDMDL
