MODEL 1
REMARK VINA RESULT:    -2.552      0.000      0.000
REMARK INTER + INTRA:          -3.107
REMARK INTER:                  -2.850
REMARK INTRA:                  -0.257
REMARK UNBOUND:                -0.257
REMARK SMILES O=C([O-])C=Cc1ccccc1
REMARK SMILES IDX 4 1 5 2 2 3 1 4 3 5 6 6 7 7 11 8 8 9 10 10 9 11
REMARK H PARENT
REMARK Flexibility Score: inf
ROOT
ATOM      1  C   UNL     1      93.862   7.278  62.141  1.00  0.00     0.025 C 
ATOM      2  C   UNL     1      95.126   7.639  61.875  1.00  0.00     0.010 C 
ENDROOT
BRANCH   1   3
ATOM      3  C   UNL     1      92.909   8.047  62.965  1.00  0.00     0.064 C 
ATOM      4  O   UNL     1      92.051   8.771  62.399  1.00  0.00    -0.545 OA
ATOM      5  O   UNL     1      92.984   8.046  64.353  1.00  0.00    -0.545 OA
ENDBRANCH   1   3
BRANCH   2   6
ATOM      6  C   UNL     1      95.847   8.762  62.509  1.00  0.00    -0.026 A 
ATOM      7  C   UNL     1      96.472   8.565  63.750  1.00  0.00     0.008 A 
ATOM      8  C   UNL     1      95.832  10.050  61.944  1.00  0.00     0.008 A 
ATOM      9  C   UNL     1      97.118   9.628  64.391  1.00  0.00     0.001 A 
ATOM     10  C   UNL     1      96.478  11.110  62.588  1.00  0.00     0.001 A 
ATOM     11  C   UNL     1      97.125  10.897  63.808  1.00  0.00     0.000 A 
ENDBRANCH   2   6
TORSDOF 2
ENDMDL
MODEL 2
REMARK VINA RESULT:    -0.361      2.157      4.041
REMARK INTER + INTRA:          -0.660
REMARK INTER:                  -0.533
REMARK INTRA:                  -0.127
REMARK UNBOUND:                -0.257
REMARK SMILES O=C([O-])C=Cc1ccccc1
REMARK SMILES IDX 4 1 5 2 2 3 1 4 3 5 6 6 7 7 11 8 8 9 10 10 9 11
REMARK H PARENT
REMARK Flexibility Score: inf
ROOT
ATOM      1  C   UNL     1      97.082   9.067  62.680  1.00  0.00     0.025 C 
ATOM      2  C   UNL     1      96.173   8.495  61.877  1.00  0.00     0.010 C 
ENDROOT
BRANCH   1   3
ATOM      3  C   UNL     1      96.794   9.706  63.979  1.00  0.00     0.064 C 
ATOM      4  O   UNL     1      96.350   9.006  64.924  1.00  0.00    -0.545 OA
ATOM      5  O   UNL     1      96.932  11.077  64.159  1.00  0.00    -0.545 OA
ENDBRANCH   1   3
BRANCH   2   6
ATOM      6  C   UNL     1      94.708   8.571  62.051  1.00  0.00    -0.026 A 
ATOM      7  C   UNL     1      93.984   7.394  62.295  1.00  0.00     0.008 A 
ATOM      8  C   UNL     1      94.014   9.781  61.876  1.00  0.00     0.008 A 
ATOM      9  C   UNL     1      92.590   7.435  62.414  1.00  0.00     0.001 A 
ATOM     10  C   UNL     1      92.621   9.819  61.995  1.00  0.00     0.001 A 
ATOM     11  C   UNL     1      91.911   8.647  62.269  1.00  0.00     0.000 A 
ENDBRANCH   2   6
TORSDOF 2
ENDMDL
MODEL 3
REMARK VINA RESULT:    -0.271      1.537      1.929
REMARK INTER + INTRA:          -0.559
REMARK INTER:                  -1.179
REMARK INTRA:                   0.620
REMARK UNBOUND:                -0.257
REMARK SMILES O=C([O-])C=Cc1ccccc1
REMARK SMILES IDX 4 1 5 2 2 3 1 4 3 5 6 6 7 7 11 8 8 9 10 10 9 11
REMARK H PARENT
REMARK Flexibility Score: inf
ROOT
ATOM      1  C   UNL     1      92.468   7.581  61.937  1.00  0.00     0.025 C 
ATOM      2  C   UNL     1      93.637   7.001  62.243  1.00  0.00     0.010 C 
ENDROOT
BRANCH   1   3
ATOM      3  C   UNL     1      92.225   9.036  61.875  1.00  0.00     0.064 C 
ATOM      4  O   UNL     1      93.206   9.824  61.876  1.00  0.00    -0.545 OA
ATOM      5  O   UNL     1      90.938   9.558  61.890  1.00  0.00    -0.545 OA
ENDBRANCH   1   3
BRANCH   2   6
ATOM      6  C   UNL     1      94.833   7.702  62.755  1.00  0.00    -0.026 A 
ATOM      7  C   UNL     1      94.987   7.876  64.140  1.00  0.00     0.008 A 
ATOM      8  C   UNL     1      95.766   8.288  61.881  1.00  0.00     0.008 A 
ATOM      9  C   UNL     1      96.085   8.580  64.644  1.00  0.00     0.001 A 
ATOM     10  C   UNL     1      96.863   8.991  62.388  1.00  0.00     0.001 A 
ATOM     11  C   UNL     1      97.025   9.132  63.769  1.00  0.00     0.000 A 
ENDBRANCH   2   6
TORSDOF 2
ENDMDL
