MODEL 1
REMARK VINA RESULT:    -7.582      0.000      0.000
REMARK INTER + INTRA:         -13.359
REMARK INTER:                 -12.457
REMARK INTRA:                  -0.902
REMARK UNBOUND:                -0.902
REMARK SMILES C[C@@H]1O[C@H](OC[C@@H]2O[C@H](Oc3c(-c4ccc(O)c(O)c4)oc4cc(O)cc(O)c4c3=O)[C@H](O)[C@H](O)[C@@H]2O)[C@@H](O)[C@H](O)[C@H]1O
REMARK SMILES IDX 7 1 36 2 34 3 32 4 9 5 8 6 6 7 5 8 4 9 1 10 2 11 42 12 3 13
REMARK SMILES IDX 40 14 38 15 43 16 41 18 39 20 37 22 35 24 10 26 11 27 12 28
REMARK SMILES IDX 30 29 21 30 29 31 31 32 22 33 27 34 23 35 26 36 24 37 13 38
REMARK SMILES IDX 20 39 14 40 18 41 15 42 16 43 19 44 17 46 28 48 25 50 33 52
REMARK H PARENT 43 17 41 19 39 21 37 23 35 25 19 45 17 47 28 49 25 51 33 53
REMARK Flexibility Score: inf
ROOT
ATOM      1  C   UNL     1     -44.767  -5.935  80.488  1.00  0.00     0.180 C 
ATOM      2  C   UNL     1     -45.157  -7.448  80.475  1.00  0.00     0.177 C 
ATOM      3  C   UNL     1     -44.341  -8.304  81.494  1.00  0.00     0.180 C 
ATOM      4  C   UNL     1     -44.154  -7.470  82.800  1.00  0.00     0.214 C 
ATOM      5  C   UNL     1     -43.482  -6.092  82.502  1.00  0.00     0.339 C 
ATOM      6  O   UNL     1     -44.429  -5.367  81.734  1.00  0.00    -0.332 OA
ENDROOT
BRANCH   1   7
ATOM      7  C   UNL     1     -43.808  -5.536  79.386  1.00  0.00     0.198 C 
BRANCH   7   8
ATOM      8  O   UNL     1     -44.423  -4.677  78.438  1.00  0.00    -0.347 OA
BRANCH   8   9
ATOM      9  C   UNL     1     -45.001  -5.450  77.388  1.00  0.00     0.281 C 
ATOM     10  C   UNL     1     -47.059  -2.861  76.012  1.00  0.00     0.041 C 
ATOM     11  C   UNL     1     -46.432  -4.236  75.792  1.00  0.00     0.150 C 
ATOM     12  C   UNL     1     -45.264  -4.303  74.748  1.00  0.00     0.174 C 
ATOM     13  O   UNL     1     -46.239  -4.885  77.034  1.00  0.00    -0.344 OA
ATOM     14  C   UNL     1     -43.890  -4.429  75.399  1.00  0.00     0.179 C 
ATOM     15  C   UNL     1     -43.962  -5.674  76.275  1.00  0.00     0.202 C 
BRANCH  12  16
ATOM     16  O   UNL     1     -45.429  -5.339  73.795  1.00  0.00    -0.388 OA
ATOM     17  H   UNL     1     -44.570  -5.665  73.413  1.00  0.00     0.211 HD
ENDBRANCH  12  16
BRANCH  14  18
ATOM     18  O   UNL     1     -43.559  -3.272  76.074  1.00  0.00    -0.387 OA
ATOM     19  H   UNL     1     -44.352  -2.651  76.029  1.00  0.00     0.211 HD
ENDBRANCH  14  18
BRANCH  15  20
ATOM     20  O   UNL     1     -44.107  -6.858  75.517  1.00  0.00    -0.385 OA
ATOM     21  H   UNL     1     -44.122  -6.641  74.541  1.00  0.00     0.211 HD
ENDBRANCH  15  20
ENDBRANCH   8   9
ENDBRANCH   7   8
ENDBRANCH   1   7
BRANCH   2  22
ATOM     22  O   UNL     1     -45.107  -8.045  79.196  1.00  0.00    -0.387 OA
ATOM     23  H   UNL     1     -44.259  -7.736  78.779  1.00  0.00     0.211 HD
ENDBRANCH   2  22
BRANCH   3  24
ATOM     24  O   UNL     1     -43.181  -8.834  80.904  1.00  0.00    -0.387 OA
ATOM     25  H   UNL     1     -43.321  -9.002  79.949  1.00  0.00     0.211 HD
ENDBRANCH   3  24
BRANCH   5  26
ATOM     26  O   UNL     1     -42.213  -6.012  81.837  1.00  0.00    -0.454 OA
BRANCH  26  27
ATOM     27  C   UNL     1     -41.124  -5.194  82.115  1.00  0.00     0.214 A 
ATOM     28  C   UNL     1     -39.858  -5.778  82.190  1.00  0.00     0.180 A 
ATOM     29  C   UNL     1     -41.232  -3.854  82.486  1.00  0.00     0.239 A 
ATOM     30  O   UNL     1     -38.838  -5.033  82.638  1.00  0.00    -0.452 OA
ATOM     31  C   UNL     1     -40.098  -3.068  82.802  1.00  0.00     0.111 A 
ATOM     32  O   UNL     1     -42.320  -3.476  82.919  1.00  0.00    -0.285 OA
ATOM     33  C   UNL     1     -38.904  -3.750  82.948  1.00  0.00     0.146 A 
ATOM     34  C   UNL     1     -40.222  -1.744  83.356  1.00  0.00     0.134 A 
ATOM     35  C   UNL     1     -37.838  -3.144  83.613  1.00  0.00     0.094 A 
ATOM     36  C   UNL     1     -39.233  -1.235  84.156  1.00  0.00     0.093 A 
ATOM     37  C   UNL     1     -38.031  -1.920  84.282  1.00  0.00     0.123 A 
BRANCH  28  38
ATOM     38  C   UNL     1     -39.574  -6.996  81.378  1.00  0.00     0.025 A 
ATOM     39  C   UNL     1     -38.391  -7.743  81.616  1.00  0.00     0.062 A 
ATOM     40  C   UNL     1     -40.263  -7.202  80.159  1.00  0.00     0.016 A 
ATOM     41  C   UNL     1     -37.952  -8.714  80.700  1.00  0.00     0.158 A 
ATOM     42  C   UNL     1     -39.932  -8.265  79.346  1.00  0.00     0.051 A 
ATOM     43  C   UNL     1     -38.816  -9.065  79.638  1.00  0.00     0.157 A 
BRANCH  41  44
ATOM     44  O   UNL     1     -36.718  -9.303  80.885  1.00  0.00    -0.504 OA
ATOM     45  H   UNL     1     -36.549 -10.283  80.716  1.00  0.00     0.293 HD
ENDBRANCH  41  44
BRANCH  43  46
ATOM     46  O   UNL     1     -38.547 -10.123  78.774  1.00  0.00    -0.504 OA
ATOM     47  H   UNL     1     -38.091 -10.983  79.040  1.00  0.00     0.293 HD
ENDBRANCH  43  46
ENDBRANCH  28  38
BRANCH  34  48
ATOM     48  O   UNL     1     -41.355  -0.958  83.136  1.00  0.00    -0.507 OA
ATOM     49  H   UNL     1     -41.423  -0.427  82.292  1.00  0.00     0.293 HD
ENDBRANCH  34  48
BRANCH  37  50
ATOM     50  O   UNL     1     -37.037  -1.424  85.124  1.00  0.00    -0.508 OA
ATOM     51  H   UNL     1     -37.029  -0.450  85.428  1.00  0.00     0.293 HD
ENDBRANCH  37  50
ENDBRANCH  26  27
ENDBRANCH   5  26
BRANCH   4  52
ATOM     52  O   UNL     1     -43.562  -8.151  83.893  1.00  0.00    -0.384 OA
ATOM     53  H   UNL     1     -44.295  -8.714  84.267  1.00  0.00     0.211 HD
ENDBRANCH   4  52
TORSDOF 16
ENDMDL
MODEL 2
REMARK VINA RESULT:    -7.491      2.282      8.249
REMARK INTER + INTRA:         -13.209
REMARK INTER:                 -10.599
REMARK INTRA:                  -2.611
REMARK UNBOUND:                -0.902
REMARK SMILES C[C@@H]1O[C@H](OC[C@@H]2O[C@H](Oc3c(-c4ccc(O)c(O)c4)oc4cc(O)cc(O)c4c3=O)[C@H](O)[C@H](O)[C@@H]2O)[C@@H](O)[C@H](O)[C@H]1O
REMARK SMILES IDX 7 1 36 2 34 3 32 4 9 5 8 6 6 7 5 8 4 9 1 10 2 11 42 12 3 13
REMARK SMILES IDX 40 14 38 15 43 16 41 18 39 20 37 22 35 24 10 26 11 27 12 28
REMARK SMILES IDX 30 29 21 30 29 31 31 32 22 33 27 34 23 35 26 36 24 37 13 38
REMARK SMILES IDX 20 39 14 40 18 41 15 42 16 43 19 44 17 46 28 48 25 50 33 52
REMARK H PARENT 43 17 41 19 39 21 37 23 35 25 19 45 17 47 28 49 25 51 33 53
REMARK Flexibility Score: inf
ROOT
ATOM      1  C   UNL     1     -40.482  -5.111  83.678  1.00  0.00     0.180 C 
ATOM      2  C   UNL     1     -40.704  -3.650  84.184  1.00  0.00     0.177 C 
ATOM      3  C   UNL     1     -42.000  -2.991  83.618  1.00  0.00     0.180 C 
ATOM      4  C   UNL     1     -43.126  -4.072  83.578  1.00  0.00     0.214 C 
ATOM      5  C   UNL     1     -42.681  -5.322  82.754  1.00  0.00     0.339 C 
ATOM      6  O   UNL     1     -41.629  -5.913  83.500  1.00  0.00    -0.332 OA
ENDROOT
BRANCH   1   7
ATOM      7  C   UNL     1     -39.509  -5.223  82.523  1.00  0.00     0.198 C 
BRANCH   7   8
ATOM      8  O   UNL     1     -38.496  -6.183  82.779  1.00  0.00    -0.347 OA
BRANCH   8   9
ATOM      9  C   UNL     1     -37.714  -5.774  83.900  1.00  0.00     0.281 C 
ATOM     10  C   UNL     1     -36.377  -8.998  84.708  1.00  0.00     0.041 C 
ATOM     11  C   UNL     1     -36.257  -7.489  84.905  1.00  0.00     0.150 C 
ATOM     12  C   UNL     1     -35.029  -6.798  84.216  1.00  0.00     0.174 C 
ATOM     13  O   UNL     1     -37.523  -6.878  84.750  1.00  0.00    -0.344 OA
ATOM     14  C   UNL     1     -35.410  -6.014  82.965  1.00  0.00     0.179 C 
ATOM     15  C   UNL     1     -36.468  -5.012  83.413  1.00  0.00     0.202 C 
BRANCH  12  16
ATOM     16  O   UNL     1     -34.301  -5.956  85.095  1.00  0.00    -0.388 OA
ATOM     17  H   UNL     1     -33.348  -5.842  84.833  1.00  0.00     0.211 HD
ENDBRANCH  12  16
BRANCH  14  18
ATOM     18  O   UNL     1     -35.818  -6.865  81.958  1.00  0.00    -0.387 OA
ATOM     19  H   UNL     1     -36.542  -6.398  81.434  1.00  0.00     0.211 HD
ENDBRANCH  14  18
BRANCH  15  20
ATOM     20  O   UNL     1     -35.948  -4.040  84.298  1.00  0.00    -0.385 OA
ATOM     21  H   UNL     1     -36.199  -3.123  83.987  1.00  0.00     0.211 HD
ENDBRANCH  15  20
ENDBRANCH   8   9
ENDBRANCH   7   8
ENDBRANCH   1   7
BRANCH   2  22
ATOM     22  O   UNL     1     -39.599  -2.795  83.978  1.00  0.00    -0.387 OA
ATOM     23  H   UNL     1     -39.939  -1.868  84.097  1.00  0.00     0.211 HD
ENDBRANCH   2  22
BRANCH   3  24
ATOM     24  O   UNL     1     -41.742  -2.294  82.426  1.00  0.00    -0.387 OA
ATOM     25  H   UNL     1     -41.313  -1.433  82.612  1.00  0.00     0.211 HD
ENDBRANCH   3  24
BRANCH   5  26
ATOM     26  O   UNL     1     -42.247  -5.200  81.392  1.00  0.00    -0.454 OA
BRANCH  26  27
ATOM     27  C   UNL     1     -42.905  -5.564  80.222  1.00  0.00     0.214 A 
ATOM     28  C   UNL     1     -42.306  -6.514  79.393  1.00  0.00     0.180 A 
ATOM     29  C   UNL     1     -44.044  -4.922  79.738  1.00  0.00     0.239 A 
ATOM     30  O   UNL     1     -42.839  -6.730  78.182  1.00  0.00    -0.452 OA
ATOM     31  C   UNL     1     -44.658  -5.298  78.520  1.00  0.00     0.111 A 
ATOM     32  O   UNL     1     -44.276  -3.790  80.164  1.00  0.00    -0.285 OA
ATOM     33  C   UNL     1     -43.944  -6.172  77.721  1.00  0.00     0.146 A 
ATOM     34  C   UNL     1     -45.722  -4.522  77.935  1.00  0.00     0.134 A 
ATOM     35  C   UNL     1     -44.273  -6.302  76.372  1.00  0.00     0.094 A 
ATOM     36  C   UNL     1     -45.915  -4.528  76.578  1.00  0.00     0.093 A 
ATOM     37  C   UNL     1     -45.205  -5.422  75.788  1.00  0.00     0.123 A 
BRANCH  28  38
ATOM     38  C   UNL     1     -41.425  -7.552  80.001  1.00  0.00     0.025 A 
ATOM     39  C   UNL     1     -41.914  -8.360  81.062  1.00  0.00     0.062 A 
ATOM     40  C   UNL     1     -40.027  -7.495  79.793  1.00  0.00     0.016 A 
ATOM     41  C   UNL     1     -41.041  -9.139  81.839  1.00  0.00     0.158 A 
ATOM     42  C   UNL     1     -39.192  -8.382  80.438  1.00  0.00     0.051 A 
ATOM     43  C   UNL     1     -39.696  -9.251  81.419  1.00  0.00     0.157 A 
BRANCH  41  44
ATOM     44  O   UNL     1     -41.529  -9.782  82.958  1.00  0.00    -0.504 OA
ATOM     45  H   UNL     1     -42.500  -9.747  83.230  1.00  0.00     0.293 HD
ENDBRANCH  41  44
BRANCH  43  46
ATOM     46  O   UNL     1     -38.793 -10.121  82.024  1.00  0.00    -0.504 OA
ATOM     47  H   UNL     1     -38.183 -10.754  81.529  1.00  0.00     0.293 HD
ENDBRANCH  43  46
ENDBRANCH  28  38
BRANCH  34  48
ATOM     48  O   UNL     1     -46.557  -3.716  78.711  1.00  0.00    -0.507 OA
ATOM     49  H   UNL     1     -46.156  -3.150  79.431  1.00  0.00     0.293 HD
ENDBRANCH  34  48
BRANCH  37  50
ATOM     50  O   UNL     1     -45.372  -5.406  74.404  1.00  0.00    -0.508 OA
ATOM     51  H   UNL     1     -46.240  -5.087  73.972  1.00  0.00     0.293 HD
ENDBRANCH  37  50
ENDBRANCH  26  27
ENDBRANCH   5  26
BRANCH   4  52
ATOM     52  O   UNL     1     -44.419  -3.610  83.229  1.00  0.00    -0.384 OA
ATOM     53  H   UNL     1     -44.960  -4.439  83.110  1.00  0.00     0.211 HD
ENDBRANCH   4  52
TORSDOF 16
ENDMDL
MODEL 3
REMARK VINA RESULT:    -7.487      2.069      5.065
REMARK INTER + INTRA:         -13.203
REMARK INTER:                 -12.075
REMARK INTRA:                  -1.128
REMARK UNBOUND:                -0.902
REMARK SMILES C[C@@H]1O[C@H](OC[C@@H]2O[C@H](Oc3c(-c4ccc(O)c(O)c4)oc4cc(O)cc(O)c4c3=O)[C@H](O)[C@H](O)[C@@H]2O)[C@@H](O)[C@H](O)[C@H]1O
REMARK SMILES IDX 7 1 36 2 34 3 32 4 9 5 8 6 6 7 5 8 4 9 1 10 2 11 42 12 3 13
REMARK SMILES IDX 40 14 38 15 43 16 41 18 39 20 37 22 35 24 10 26 11 27 12 28
REMARK SMILES IDX 30 29 21 30 29 31 31 32 22 33 27 34 23 35 26 36 24 37 13 38
REMARK SMILES IDX 20 39 14 40 18 41 15 42 16 43 19 44 17 46 28 48 25 50 33 52
REMARK H PARENT 43 17 41 19 39 21 37 23 35 25 19 45 17 47 28 49 25 51 33 53
REMARK Flexibility Score: inf
ROOT
ATOM      1  C   UNL     1     -43.134  -6.020  81.505  1.00  0.00     0.180 C 
ATOM      2  C   UNL     1     -43.504  -7.538  81.532  1.00  0.00     0.177 C 
ATOM      3  C   UNL     1     -42.564  -8.386  82.444  1.00  0.00     0.180 C 
ATOM      4  C   UNL     1     -42.237  -7.553  83.724  1.00  0.00     0.214 C 
ATOM      5  C   UNL     1     -41.621  -6.166  83.355  1.00  0.00     0.339 C 
ATOM      6  O   UNL     1     -42.660  -5.451  82.705  1.00  0.00    -0.332 OA
ENDROOT
BRANCH   1   7
ATOM      7  C   UNL     1     -42.315  -5.606  80.300  1.00  0.00     0.198 C 
BRANCH   7   8
ATOM      8  O   UNL     1     -43.005  -5.852  79.085  1.00  0.00    -0.347 OA
BRANCH   8   9
ATOM      9  C   UNL     1     -43.909  -4.782  78.817  1.00  0.00     0.281 C 
ATOM     10  C   UNL     1     -42.847  -4.132  75.458  1.00  0.00     0.041 C 
ATOM     11  C   UNL     1     -43.932  -3.915  76.511  1.00  0.00     0.150 C 
ATOM     12  C   UNL     1     -45.283  -4.675  76.276  1.00  0.00     0.174 C 
ATOM     13  O   UNL     1     -43.367  -3.968  77.806  1.00  0.00    -0.344 OA
ATOM     14  C   UNL     1     -45.456  -5.881  77.194  1.00  0.00     0.179 C 
ATOM     15  C   UNL     1     -45.329  -5.340  78.613  1.00  0.00     0.202 C 
BRANCH  12  16
ATOM     16  O   UNL     1     -46.420  -3.834  76.386  1.00  0.00    -0.388 OA
ATOM     17  H   UNL     1     -47.034  -3.897  75.606  1.00  0.00     0.211 HD
ENDBRANCH  12  16
BRANCH  14  18
ATOM     18  O   UNL     1     -44.551  -6.873  76.876  1.00  0.00    -0.387 OA
ATOM     19  H   UNL     1     -44.030  -7.094  77.711  1.00  0.00     0.211 HD
ENDBRANCH  14  18
BRANCH  15  20
ATOM     20  O   UNL     1     -46.394  -4.476  78.956  1.00  0.00    -0.385 OA
ATOM     21  H   UNL     1     -46.155  -3.943  79.768  1.00  0.00     0.211 HD
ENDBRANCH  15  20
ENDBRANCH   8   9
ENDBRANCH   7   8
ENDBRANCH   1   7
BRANCH   2  22
ATOM     22  O   UNL     1     -43.596  -8.131  80.253  1.00  0.00    -0.387 OA
ATOM     23  H   UNL     1     -43.345  -7.423  79.601  1.00  0.00     0.211 HD
ENDBRANCH   2  22
BRANCH   3  24
ATOM     24  O   UNL     1     -41.474  -8.900  81.722  1.00  0.00    -0.387 OA
ATOM     25  H   UNL     1     -41.782  -9.405  80.941  1.00  0.00     0.211 HD
ENDBRANCH   3  24
BRANCH   5  26
ATOM     26  O   UNL     1     -40.440  -6.068  82.547  1.00  0.00    -0.454 OA
BRANCH  26  27
ATOM     27  C   UNL     1     -39.106  -6.195  82.919  1.00  0.00     0.214 A 
ATOM     28  C   UNL     1     -38.267  -5.090  82.764  1.00  0.00     0.180 A 
ATOM     29  C   UNL     1     -38.511  -7.402  83.282  1.00  0.00     0.239 A 
ATOM     30  O   UNL     1     -36.949  -5.261  82.943  1.00  0.00    -0.452 OA
ATOM     31  C   UNL     1     -37.138  -7.495  83.612  1.00  0.00     0.111 A 
ATOM     32  O   UNL     1     -39.080  -8.437  82.933  1.00  0.00    -0.285 OA
ATOM     33  C   UNL     1     -36.367  -6.380  83.334  1.00  0.00     0.146 A 
ATOM     34  C   UNL     1     -36.488  -8.765  83.811  1.00  0.00     0.134 A 
ATOM     35  C   UNL     1     -34.979  -6.498  83.267  1.00  0.00     0.094 A 
ATOM     36  C   UNL     1     -35.147  -8.900  83.567  1.00  0.00     0.093 A 
ATOM     37  C   UNL     1     -34.379  -7.772  83.306  1.00  0.00     0.123 A 
BRANCH  28  38
ATOM     38  C   UNL     1     -38.848  -3.720  82.863  1.00  0.00     0.025 A 
ATOM     39  C   UNL     1     -38.157  -2.711  83.584  1.00  0.00     0.062 A 
ATOM     40  C   UNL     1     -40.217  -3.517  82.570  1.00  0.00     0.016 A 
ATOM     41  C   UNL     1     -38.795  -1.510  83.936  1.00  0.00     0.158 A 
ATOM     42  C   UNL     1     -40.792  -2.280  82.764  1.00  0.00     0.051 A 
ATOM     43  C   UNL     1     -40.073  -1.249  83.390  1.00  0.00     0.157 A 
BRANCH  41  44
ATOM     44  O   UNL     1     -38.146  -0.624  84.771  1.00  0.00    -0.504 OA
ATOM     45  H   UNL     1     -37.175  -0.376  84.659  1.00  0.00     0.293 HD
ENDBRANCH  41  44
BRANCH  43  46
ATOM     46  O   UNL     1     -40.718  -0.025  83.546  1.00  0.00    -0.504 OA
ATOM     47  H   UNL     1     -40.392   0.850  83.165  1.00  0.00     0.293 HD
ENDBRANCH  43  46
ENDBRANCH  28  38
BRANCH  34  48
ATOM     48  O   UNL     1     -37.197  -9.898  84.214  1.00  0.00    -0.507 OA
ATOM     49  H   UNL     1     -37.463 -10.576  83.528  1.00  0.00     0.293 HD
ENDBRANCH  34  48
BRANCH  37  50
ATOM     50  O   UNL     1     -33.022  -7.909  83.021  1.00  0.00    -0.508 OA
ATOM     51  H   UNL     1     -32.670  -7.882  82.064  1.00  0.00     0.293 HD
ENDBRANCH  37  50
ENDBRANCH  26  27
ENDBRANCH   5  26
BRANCH   4  52
ATOM     52  O   UNL     1     -41.513  -8.229  84.737  1.00  0.00    -0.384 OA
ATOM     53  H   UNL     1     -41.506  -7.595  85.507  1.00  0.00     0.211 HD
ENDBRANCH   4  52
TORSDOF 16
ENDMDL
MODEL 4
REMARK VINA RESULT:    -7.425      9.737     14.121
REMARK INTER + INTRA:         -13.102
REMARK INTER:                 -10.506
REMARK INTRA:                  -2.596
REMARK UNBOUND:                -0.902
REMARK SMILES C[C@@H]1O[C@H](OC[C@@H]2O[C@H](Oc3c(-c4ccc(O)c(O)c4)oc4cc(O)cc(O)c4c3=O)[C@H](O)[C@H](O)[C@@H]2O)[C@@H](O)[C@H](O)[C@H]1O
REMARK SMILES IDX 7 1 36 2 34 3 32 4 9 5 8 6 6 7 5 8 4 9 1 10 2 11 42 12 3 13
REMARK SMILES IDX 40 14 38 15 43 16 41 18 39 20 37 22 35 24 10 26 11 27 12 28
REMARK SMILES IDX 30 29 21 30 29 31 31 32 22 33 27 34 23 35 26 36 24 37 13 38
REMARK SMILES IDX 20 39 14 40 18 41 15 42 16 43 19 44 17 46 28 48 25 50 33 52
REMARK H PARENT 43 17 41 19 39 21 37 23 35 25 19 45 17 47 28 49 25 51 33 53
REMARK Flexibility Score: inf
ROOT
ATOM      1  C   UNL     1     -37.371   4.902  82.395  1.00  0.00     0.180 C 
ATOM      2  C   UNL     1     -37.114   4.317  83.821  1.00  0.00     0.177 C 
ATOM      3  C   UNL     1     -36.054   5.122  84.636  1.00  0.00     0.180 C 
ATOM      4  C   UNL     1     -36.262   6.642  84.350  1.00  0.00     0.214 C 
ATOM      5  C   UNL     1     -36.196   6.945  82.819  1.00  0.00     0.339 C 
ATOM      6  O   UNL     1     -37.330   6.305  82.256  1.00  0.00    -0.332 OA
ENDROOT
BRANCH   1   7
ATOM      7  C   UNL     1     -36.620   4.186  81.291  1.00  0.00     0.198 C 
BRANCH   7   8
ATOM      8  O   UNL     1     -37.299   4.279  80.048  1.00  0.00    -0.347 OA
BRANCH   8   9
ATOM      9  C   UNL     1     -38.161   3.154  79.882  1.00  0.00     0.281 C 
ATOM     10  C   UNL     1     -41.048   4.572  81.460  1.00  0.00     0.041 C 
ATOM     11  C   UNL     1     -40.511   3.464  80.557  1.00  0.00     0.150 C 
ATOM     12  C   UNL     1     -40.896   3.563  79.040  1.00  0.00     0.174 C 
ATOM     13  O   UNL     1     -39.159   3.195  80.873  1.00  0.00    -0.344 OA
ATOM     14  C   UNL     1     -39.742   4.035  78.161  1.00  0.00     0.179 C 
ATOM     15  C   UNL     1     -38.604   3.052  78.412  1.00  0.00     0.202 C 
BRANCH  12  16
ATOM     16  O   UNL     1     -41.418   2.352  78.519  1.00  0.00    -0.388 OA
ATOM     17  H   UNL     1     -40.939   1.543  78.845  1.00  0.00     0.211 HD
ENDBRANCH  12  16
BRANCH  14  18
ATOM     18  O   UNL     1     -39.429   5.352  78.428  1.00  0.00    -0.387 OA
ATOM     19  H   UNL     1     -40.173   5.738  78.988  1.00  0.00     0.211 HD
ENDBRANCH  14  18
BRANCH  15  20
ATOM     20  O   UNL     1     -38.903   1.752  77.941  1.00  0.00    -0.385 OA
ATOM     21  H   UNL     1     -38.419   1.069  78.488  1.00  0.00     0.211 HD
ENDBRANCH  15  20
ENDBRANCH   8   9
ENDBRANCH   7   8
ENDBRANCH   1   7
BRANCH   2  22
ATOM     22  O   UNL     1     -36.787   2.943  83.830  1.00  0.00    -0.387 OA
ATOM     23  H   UNL     1     -36.547   2.709  82.893  1.00  0.00     0.211 HD
ENDBRANCH   2  22
BRANCH   3  24
ATOM     24  O   UNL     1     -34.761   4.608  84.443  1.00  0.00    -0.387 OA
ATOM     25  H   UNL     1     -34.085   5.302  84.589  1.00  0.00     0.211 HD
ENDBRANCH   3  24
BRANCH   5  26
ATOM     26  O   UNL     1     -35.048   6.583  82.038  1.00  0.00    -0.454 OA
BRANCH  26  27
ATOM     27  C   UNL     1     -33.909   7.327  81.750  1.00  0.00     0.214 A 
ATOM     28  C   UNL     1     -33.543   7.488  80.413  1.00  0.00     0.180 A 
ATOM     29  C   UNL     1     -33.014   7.785  82.716  1.00  0.00     0.239 A 
ATOM     30  O   UNL     1     -32.353   8.041  80.140  1.00  0.00    -0.452 OA
ATOM     31  C   UNL     1     -31.843   8.503  82.376  1.00  0.00     0.111 A 
ATOM     32  O   UNL     1     -33.038   7.229  83.814  1.00  0.00    -0.285 OA
ATOM     33  C   UNL     1     -31.510   8.527  81.034  1.00  0.00     0.146 A 
ATOM     34  C   UNL     1     -30.834   8.818  83.354  1.00  0.00     0.134 A 
ATOM     35  C   UNL     1     -30.214   8.870  80.648  1.00  0.00     0.094 A 
ATOM     36  C   UNL     1     -29.528   8.977  82.973  1.00  0.00     0.093 A 
ATOM     37  C   UNL     1     -29.207   9.017  81.622  1.00  0.00     0.123 A 
BRANCH  28  38
ATOM     38  C   UNL     1     -34.605   7.483  79.366  1.00  0.00     0.025 A 
ATOM     39  C   UNL     1     -35.680   8.407  79.446  1.00  0.00     0.062 A 
ATOM     40  C   UNL     1     -34.752   6.357  78.522  1.00  0.00     0.016 A 
ATOM     41  C   UNL     1     -36.830   8.249  78.655  1.00  0.00     0.158 A 
ATOM     42  C   UNL     1     -35.797   6.292  77.626  1.00  0.00     0.051 A 
ATOM     43  C   UNL     1     -36.810   7.265  77.641  1.00  0.00     0.157 A 
BRANCH  41  44
ATOM     44  O   UNL     1     -37.915   9.072  78.875  1.00  0.00    -0.504 OA
ATOM     45  H   UNL     1     -37.824  10.048  79.114  1.00  0.00     0.293 HD
ENDBRANCH  41  44
BRANCH  43  46
ATOM     46  O   UNL     1     -37.831   7.136  76.703  1.00  0.00    -0.504 OA
ATOM     47  H   UNL     1     -38.688   7.667  76.709  1.00  0.00     0.293 HD
ENDBRANCH  43  46
ENDBRANCH  28  38
BRANCH  34  48
ATOM     48  O   UNL     1     -31.136   8.931  84.713  1.00  0.00    -0.507 OA
ATOM     49  H   UNL     1     -31.476   8.129  85.205  1.00  0.00     0.293 HD
ENDBRANCH  34  48
BRANCH  37  50
ATOM     50  O   UNL     1     -27.875   9.141  81.230  1.00  0.00    -0.508 OA
ATOM     51  H   UNL     1     -27.229   8.353  81.269  1.00  0.00     0.293 HD
ENDBRANCH  37  50
ENDBRANCH  26  27
ENDBRANCH   5  26
BRANCH   4  52
ATOM     52  O   UNL     1     -35.480   7.534  85.125  1.00  0.00    -0.384 OA
ATOM     53  H   UNL     1     -35.107   6.971  85.858  1.00  0.00     0.211 HD
ENDBRANCH   4  52
TORSDOF 16
ENDMDL
MODEL 5
REMARK VINA RESULT:    -7.374      9.327     14.677
REMARK INTER + INTRA:         -13.018
REMARK INTER:                 -11.050
REMARK INTRA:                  -1.968
REMARK UNBOUND:                -0.902
REMARK SMILES C[C@@H]1O[C@H](OC[C@@H]2O[C@H](Oc3c(-c4ccc(O)c(O)c4)oc4cc(O)cc(O)c4c3=O)[C@H](O)[C@H](O)[C@@H]2O)[C@@H](O)[C@H](O)[C@H]1O
REMARK SMILES IDX 7 1 36 2 34 3 32 4 9 5 8 6 6 7 5 8 4 9 1 10 2 11 42 12 3 13
REMARK SMILES IDX 40 14 38 15 43 16 41 18 39 20 37 22 35 24 10 26 11 27 12 28
REMARK SMILES IDX 30 29 21 30 29 31 31 32 22 33 27 34 23 35 26 36 24 37 13 38
REMARK SMILES IDX 20 39 14 40 18 41 15 42 16 43 19 44 17 46 28 48 25 50 33 52
REMARK H PARENT 43 17 41 19 39 21 37 23 35 25 19 45 17 47 28 49 25 51 33 53
REMARK Flexibility Score: inf
ROOT
ATOM      1  C   UNL     1     -38.152   8.160  83.490  1.00  0.00     0.180 C 
ATOM      2  C   UNL     1     -37.166   9.331  83.178  1.00  0.00     0.177 C 
ATOM      3  C   UNL     1     -37.108   9.702  81.664  1.00  0.00     0.180 C 
ATOM      4  C   UNL     1     -38.552   9.609  81.078  1.00  0.00     0.214 C 
ATOM      5  C   UNL     1     -39.174   8.198  81.325  1.00  0.00     0.339 C 
ATOM      6  O   UNL     1     -39.339   8.096  82.730  1.00  0.00    -0.332 OA
ENDROOT
BRANCH   1   7
ATOM      7  C   UNL     1     -37.481   6.810  83.634  1.00  0.00     0.198 C 
BRANCH   7   8
ATOM      8  O   UNL     1     -36.416   6.849  84.573  1.00  0.00    -0.347 OA
BRANCH   8   9
ATOM      9  C   UNL     1     -35.841   5.551  84.706  1.00  0.00     0.281 C 
ATOM     10  C   UNL     1     -37.060   4.206  81.618  1.00  0.00     0.041 C 
ATOM     11  C   UNL     1     -36.070   4.045  82.769  1.00  0.00     0.150 C 
ATOM     12  C   UNL     1     -34.564   4.315  82.427  1.00  0.00     0.174 C 
ATOM     13  O   UNL     1     -36.591   4.639  83.943  1.00  0.00    -0.344 OA
ATOM     14  C   UNL     1     -34.062   5.654  82.957  1.00  0.00     0.179 C 
ATOM     15  C   UNL     1     -34.324   5.628  84.458  1.00  0.00     0.202 C 
BRANCH  12  16
ATOM     16  O   UNL     1     -33.700   3.281  82.870  1.00  0.00    -0.388 OA
ATOM     17  H   UNL     1     -33.551   3.286  83.853  1.00  0.00     0.211 HD
ENDBRANCH  12  16
BRANCH  14  18
ATOM     18  O   UNL     1     -34.663   6.701  82.289  1.00  0.00    -0.387 OA
ATOM     19  H   UNL     1     -34.170   7.546  82.533  1.00  0.00     0.211 HD
ENDBRANCH  14  18
BRANCH  15  20
ATOM     20  O   UNL     1     -33.535   4.663  85.124  1.00  0.00    -0.385 OA
ATOM     21  H   UNL     1     -32.667   5.068  85.413  1.00  0.00     0.211 HD
ENDBRANCH  15  20
ENDBRANCH   8   9
ENDBRANCH   7   8
ENDBRANCH   1   7
BRANCH   2  22
ATOM     22  O   UNL     1     -35.859   9.131  83.676  1.00  0.00    -0.387 OA
ATOM     23  H   UNL     1     -35.258   9.130  82.883  1.00  0.00     0.211 HD
ENDBRANCH   2  22
BRANCH   3  24
ATOM     24  O   UNL     1     -36.101   8.982  80.998  1.00  0.00    -0.387 OA
ATOM     25  H   UNL     1     -35.269   8.990  81.514  1.00  0.00     0.211 HD
ENDBRANCH   3  24
BRANCH   5  26
ATOM     26  O   UNL     1     -38.519   7.006  80.867  1.00  0.00    -0.454 OA
BRANCH  26  27
ATOM     27  C   UNL     1     -39.012   5.984  80.062  1.00  0.00     0.214 A 
ATOM     28  C   UNL     1     -38.614   5.943  78.725  1.00  0.00     0.180 A 
ATOM     29  C   UNL     1     -40.006   5.091  80.460  1.00  0.00     0.239 A 
ATOM     30  O   UNL     1     -39.227   5.078  77.904  1.00  0.00    -0.452 OA
ATOM     31  C   UNL     1     -40.510   4.092  79.594  1.00  0.00     0.111 A 
ATOM     32  O   UNL     1     -40.713   5.425  81.411  1.00  0.00    -0.285 OA
ATOM     33  C   UNL     1     -40.135   4.190  78.266  1.00  0.00     0.146 A 
ATOM     34  C   UNL     1     -41.656   3.292  79.942  1.00  0.00     0.134 A 
ATOM     35  C   UNL     1     -40.859   3.504  77.291  1.00  0.00     0.094 A 
ATOM     36  C   UNL     1     -42.458   2.771  78.962  1.00  0.00     0.093 A 
ATOM     37  C   UNL     1     -42.064   2.861  77.633  1.00  0.00     0.123 A 
BRANCH  28  38
ATOM     38  C   UNL     1     -37.277   6.487  78.350  1.00  0.00     0.025 A 
ATOM     39  C   UNL     1     -36.099   5.853  78.827  1.00  0.00     0.062 A 
ATOM     40  C   UNL     1     -37.172   7.805  77.846  1.00  0.00     0.016 A 
ATOM     41  C   UNL     1     -34.850   6.489  78.735  1.00  0.00     0.158 A 
ATOM     42  C   UNL     1     -35.934   8.358  77.601  1.00  0.00     0.051 A 
ATOM     43  C   UNL     1     -34.763   7.683  77.985  1.00  0.00     0.157 A 
BRANCH  41  44
ATOM     44  O   UNL     1     -33.757   5.914  79.351  1.00  0.00    -0.504 OA
ATOM     45  H   UNL     1     -33.671   4.919  79.497  1.00  0.00     0.293 HD
ENDBRANCH  41  44
BRANCH  43  46
ATOM     46  O   UNL     1     -33.549   8.302  77.700  1.00  0.00    -0.504 OA
ATOM     47  H   UNL     1     -33.228   8.542  76.774  1.00  0.00     0.293 HD
ENDBRANCH  43  46
ENDBRANCH  28  38
BRANCH  34  48
ATOM     48  O   UNL     1     -42.010   3.054  81.272  1.00  0.00    -0.507 OA
ATOM     49  H   UNL     1     -42.968   3.141  81.544  1.00  0.00     0.293 HD
ENDBRANCH  34  48
BRANCH  37  50
ATOM     50  O   UNL     1     -42.896   2.365  76.629  1.00  0.00    -0.508 OA
ATOM     51  H   UNL     1     -43.045   2.874  75.757  1.00  0.00     0.293 HD
ENDBRANCH  37  50
ENDBRANCH  26  27
ENDBRANCH   5  26
BRANCH   4  52
ATOM     52  O   UNL     1     -38.712  10.059  79.744  1.00  0.00    -0.384 OA
ATOM     53  H   UNL     1     -39.699  10.091  79.605  1.00  0.00     0.211 HD
ENDBRANCH   4  52
TORSDOF 16
ENDMDL
MODEL 6
REMARK VINA RESULT:    -7.300      9.643     14.290
REMARK INTER + INTRA:         -12.897
REMARK INTER:                 -10.198
REMARK INTRA:                  -2.698
REMARK UNBOUND:                -0.902
REMARK SMILES C[C@@H]1O[C@H](OC[C@@H]2O[C@H](Oc3c(-c4ccc(O)c(O)c4)oc4cc(O)cc(O)c4c3=O)[C@H](O)[C@H](O)[C@@H]2O)[C@@H](O)[C@H](O)[C@H]1O
REMARK SMILES IDX 7 1 36 2 34 3 32 4 9 5 8 6 6 7 5 8 4 9 1 10 2 11 42 12 3 13
REMARK SMILES IDX 40 14 38 15 43 16 41 18 39 20 37 22 35 24 10 26 11 27 12 28
REMARK SMILES IDX 30 29 21 30 29 31 31 32 22 33 27 34 23 35 26 36 24 37 13 38
REMARK SMILES IDX 20 39 14 40 18 41 15 42 16 43 19 44 17 46 28 48 25 50 33 52
REMARK H PARENT 43 17 41 19 39 21 37 23 35 25 19 45 17 47 28 49 25 51 33 53
REMARK Flexibility Score: inf
ROOT
ATOM      1  C   UNL     1     -35.355   7.838  77.806  1.00  0.00     0.180 C 
ATOM      2  C   UNL     1     -33.837   8.148  78.009  1.00  0.00     0.177 C 
ATOM      3  C   UNL     1     -33.147   7.202  79.041  1.00  0.00     0.180 C 
ATOM      4  C   UNL     1     -33.717   5.762  78.848  1.00  0.00     0.214 C 
ATOM      5  C   UNL     1     -35.274   5.747  78.970  1.00  0.00     0.339 C 
ATOM      6  O   UNL     1     -35.749   6.485  77.856  1.00  0.00    -0.332 OA
ENDROOT
BRANCH   1   7
ATOM      7  C   UNL     1     -36.279   8.743  78.594  1.00  0.00     0.198 C 
BRANCH   7   8
ATOM      8  O   UNL     1     -37.619   8.275  78.571  1.00  0.00    -0.347 OA
BRANCH   8   9
ATOM      9  C   UNL     1     -38.509   9.340  78.900  1.00  0.00     0.281 C 
ATOM     10  C   UNL     1     -40.047   9.645  75.679  1.00  0.00     0.041 C 
ATOM     11  C   UNL     1     -40.133   9.988  77.164  1.00  0.00     0.150 C 
ATOM     12  C   UNL     1     -41.248   9.246  77.981  1.00  0.00     0.174 C 
ATOM     13  O   UNL     1     -38.836  10.041  77.726  1.00  0.00    -0.344 OA
ATOM     14  C   UNL     1     -40.697   8.137  78.870  1.00  0.00     0.179 C 
ATOM     15  C   UNL     1     -39.662   8.803  79.768  1.00  0.00     0.202 C 
BRANCH  12  16
ATOM     16  O   UNL     1     -42.041  10.125  78.763  1.00  0.00    -0.388 OA
ATOM     17  H   UNL     1     -42.149   9.825  79.705  1.00  0.00     0.211 HD
ENDBRANCH  12  16
BRANCH  14  18
ATOM     18  O   UNL     1     -40.208   7.095  78.108  1.00  0.00    -0.387 OA
ATOM     19  H   UNL     1     -40.361   6.240  78.620  1.00  0.00     0.211 HD
ENDBRANCH  14  18
BRANCH  15  20
ATOM     20  O   UNL     1     -40.244   9.725  80.668  1.00  0.00    -0.385 OA
ATOM     21  H   UNL     1     -40.711  10.451  80.163  1.00  0.00     0.211 HD
ENDBRANCH  15  20
ENDBRANCH   8   9
ENDBRANCH   7   8
ENDBRANCH   1   7
BRANCH   2  22
ATOM     22  O   UNL     1     -33.562   9.495  78.331  1.00  0.00    -0.387 OA
ATOM     23  H   UNL     1     -34.407   9.870  78.698  1.00  0.00     0.211 HD
ENDBRANCH   2  22
BRANCH   3  24
ATOM     24  O   UNL     1     -33.193   7.738  80.339  1.00  0.00    -0.387 OA
ATOM     25  H   UNL     1     -32.369   7.538  80.827  1.00  0.00     0.211 HD
ENDBRANCH   3  24
BRANCH   5  26
ATOM     26  O   UNL     1     -35.932   6.243  80.145  1.00  0.00    -0.454 OA
BRANCH  26  27
ATOM     27  C   UNL     1     -36.845   5.606  80.978  1.00  0.00     0.214 A 
ATOM     28  C   UNL     1     -36.366   4.970  82.124  1.00  0.00     0.180 A 
ATOM     29  C   UNL     1     -38.190   5.419  80.659  1.00  0.00     0.239 A 
ATOM     30  O   UNL     1     -37.211   4.201  82.827  1.00  0.00    -0.452 OA
ATOM     31  C   UNL     1     -39.077   4.727  81.517  1.00  0.00     0.111 A 
ATOM     32  O   UNL     1     -38.504   5.506  79.472  1.00  0.00    -0.285 OA
ATOM     33  C   UNL     1     -38.498   4.048  82.573  1.00  0.00     0.146 A 
ATOM     34  C   UNL     1     -40.414   4.380  81.108  1.00  0.00     0.134 A 
ATOM     35  C   UNL     1     -39.219   3.053  83.234  1.00  0.00     0.094 A 
ATOM     36  C   UNL     1     -41.039   3.287  81.647  1.00  0.00     0.093 A 
ATOM     37  C   UNL     1     -40.457   2.622  82.719  1.00  0.00     0.123 A 
BRANCH  28  38
ATOM     38  C   UNL     1     -35.134   5.493  82.781  1.00  0.00     0.025 A 
ATOM     39  C   UNL     1     -34.094   4.598  83.146  1.00  0.00     0.062 A 
ATOM     40  C   UNL     1     -35.144   6.782  83.365  1.00  0.00     0.016 A 
ATOM     41  C   UNL     1     -33.061   5.003  84.007  1.00  0.00     0.158 A 
ATOM     42  C   UNL     1     -34.049   7.233  84.070  1.00  0.00     0.051 A 
ATOM     43  C   UNL     1     -32.975   6.372  84.346  1.00  0.00     0.157 A 
BRANCH  41  44
ATOM     44  O   UNL     1     -32.161   4.062  84.466  1.00  0.00    -0.504 OA
ATOM     45  H   UNL     1     -31.214   3.998  84.123  1.00  0.00     0.293 HD
ENDBRANCH  41  44
BRANCH  43  46
ATOM     46  O   UNL     1     -31.901   6.900  85.059  1.00  0.00    -0.504 OA
ATOM     47  H   UNL     1     -31.002   7.127  84.662  1.00  0.00     0.293 HD
ENDBRANCH  43  46
ENDBRANCH  28  38
BRANCH  34  48
ATOM     48  O   UNL     1     -41.097   5.109  80.133  1.00  0.00    -0.507 OA
ATOM     49  H   UNL     1     -41.051   6.108  80.149  1.00  0.00     0.293 HD
ENDBRANCH  34  48
BRANCH  37  50
ATOM     50  O   UNL     1     -41.071   1.487  83.245  1.00  0.00    -0.508 OA
ATOM     51  H   UNL     1     -40.867   1.156  84.189  1.00  0.00     0.293 HD
ENDBRANCH  37  50
ENDBRANCH  26  27
ENDBRANCH   5  26
BRANCH   4  52
ATOM     52  O   UNL     1     -33.092   4.739  79.603  1.00  0.00    -0.384 OA
ATOM     53  H   UNL     1     -32.770   5.196  80.429  1.00  0.00     0.211 HD
ENDBRANCH   4  52
TORSDOF 16
ENDMDL
MODEL 7
REMARK VINA RESULT:    -7.235      2.278      8.198
REMARK INTER + INTRA:         -12.790
REMARK INTER:                 -10.301
REMARK INTRA:                  -2.489
REMARK UNBOUND:                -0.902
REMARK SMILES C[C@@H]1O[C@H](OC[C@@H]2O[C@H](Oc3c(-c4ccc(O)c(O)c4)oc4cc(O)cc(O)c4c3=O)[C@H](O)[C@H](O)[C@@H]2O)[C@@H](O)[C@H](O)[C@H]1O
REMARK SMILES IDX 7 1 36 2 34 3 32 4 9 5 8 6 6 7 5 8 4 9 1 10 2 11 42 12 3 13
REMARK SMILES IDX 40 14 38 15 43 16 41 18 39 20 37 22 35 24 10 26 11 27 12 28
REMARK SMILES IDX 30 29 21 30 29 31 31 32 22 33 27 34 23 35 26 36 24 37 13 38
REMARK SMILES IDX 20 39 14 40 18 41 15 42 16 43 19 44 17 46 28 48 25 50 33 52
REMARK H PARENT 43 17 41 19 39 21 37 23 35 25 19 45 17 47 28 49 25 51 33 53
REMARK Flexibility Score: inf
ROOT
ATOM      1  C   UNL     1     -40.481  -9.334  82.668  1.00  0.00     0.180 C 
ATOM      2  C   UNL     1     -40.340  -9.181  84.217  1.00  0.00     0.177 C 
ATOM      3  C   UNL     1     -41.413  -8.238  84.844  1.00  0.00     0.180 C 
ATOM      4  C   UNL     1     -42.773  -8.490  84.121  1.00  0.00     0.214 C 
ATOM      5  C   UNL     1     -42.638  -8.299  82.577  1.00  0.00     0.339 C 
ATOM      6  O   UNL     1     -41.788  -9.346  82.138  1.00  0.00    -0.332 OA
ENDROOT
BRANCH   1   7
ATOM      7  C   UNL     1     -39.539  -8.454  81.873  1.00  0.00     0.198 C 
BRANCH   7   8
ATOM      8  O   UNL     1     -38.183  -8.826  82.067  1.00  0.00    -0.347 OA
BRANCH   8   9
ATOM      9  C   UNL     1     -37.332  -7.714  81.790  1.00  0.00     0.281 C 
ATOM     10  C   UNL     1     -37.501  -6.208  85.036  1.00  0.00     0.041 C 
ATOM     11  C   UNL     1     -36.762  -6.267  83.701  1.00  0.00     0.150 C 
ATOM     12  C   UNL     1     -35.339  -6.925  83.729  1.00  0.00     0.174 C 
ATOM     13  O   UNL     1     -37.648  -6.667  82.674  1.00  0.00    -0.344 OA
ATOM     14  C   UNL     1     -35.319  -8.329  83.134  1.00  0.00     0.179 C 
ATOM     15  C   UNL     1     -35.869  -8.185  81.720  1.00  0.00     0.202 C 
BRANCH  12  16
ATOM     16  O   UNL     1     -34.348  -6.133  83.095  1.00  0.00    -0.388 OA
ATOM     17  H   UNL     1     -34.261  -5.222  83.487  1.00  0.00     0.211 HD
ENDBRANCH  12  16
BRANCH  14  18
ATOM     18  O   UNL     1     -36.020  -9.210  83.933  1.00  0.00    -0.387 OA
ATOM     19  H   UNL     1     -35.380  -9.579  84.620  1.00  0.00     0.211 HD
ENDBRANCH  14  18
BRANCH  15  20
ATOM     20  O   UNL     1     -35.012  -7.433  80.884  1.00  0.00    -0.385 OA
ATOM     21  H   UNL     1     -35.549  -6.924  80.211  1.00  0.00     0.211 HD
ENDBRANCH  15  20
ENDBRANCH   8   9
ENDBRANCH   7   8
ENDBRANCH   1   7
BRANCH   2  22
ATOM     22  O   UNL     1     -39.050  -8.792  84.642  1.00  0.00    -0.387 OA
ATOM     23  H   UNL     1     -39.073  -8.797  85.636  1.00  0.00     0.211 HD
ENDBRANCH   2  22
BRANCH   3  24
ATOM     24  O   UNL     1     -40.958  -6.910  84.903  1.00  0.00    -0.387 OA
ATOM     25  H   UNL     1     -41.703  -6.282  84.803  1.00  0.00     0.211 HD
ENDBRANCH   3  24
BRANCH   5  26
ATOM     26  O   UNL     1     -42.154  -7.069  82.019  1.00  0.00    -0.454 OA
BRANCH  26  27
ATOM     27  C   UNL     1     -42.735  -6.247  81.060  1.00  0.00     0.214 A 
ATOM     28  C   UNL     1     -42.902  -4.894  81.359  1.00  0.00     0.180 A 
ATOM     29  C   UNL     1     -43.314  -6.716  79.881  1.00  0.00     0.239 A 
ATOM     30  O   UNL     1     -43.626  -4.140  80.519  1.00  0.00    -0.452 OA
ATOM     31  C   UNL     1     -43.933  -5.849  78.951  1.00  0.00     0.111 A 
ATOM     32  O   UNL     1     -43.631  -7.905  79.845  1.00  0.00    -0.285 OA
ATOM     33  C   UNL     1     -44.142  -4.549  79.374  1.00  0.00     0.146 A 
ATOM     34  C   UNL     1     -44.684  -6.350  77.828  1.00  0.00     0.134 A 
ATOM     35  C   UNL     1     -45.059  -3.741  78.702  1.00  0.00     0.094 A 
ATOM     36  C   UNL     1     -45.704  -5.608  77.293  1.00  0.00     0.093 A 
ATOM     37  C   UNL     1     -45.894  -4.298  77.713  1.00  0.00     0.123 A 
BRANCH  28  38
ATOM     38  C   UNL     1     -41.944  -4.236  82.293  1.00  0.00     0.025 A 
ATOM     39  C   UNL     1     -40.585  -4.075  81.913  1.00  0.00     0.062 A 
ATOM     40  C   UNL     1     -42.277  -4.107  83.662  1.00  0.00     0.016 A 
ATOM     41  C   UNL     1     -39.607  -3.726  82.859  1.00  0.00     0.158 A 
ATOM     42  C   UNL     1     -41.357  -3.602  84.556  1.00  0.00     0.051 A 
ATOM     43  C   UNL     1     -40.035  -3.350  84.152  1.00  0.00     0.157 A 
BRANCH  41  44
ATOM     44  O   UNL     1     -38.278  -3.737  82.487  1.00  0.00    -0.504 OA
ATOM     45  H   UNL     1     -37.733  -4.584  82.429  1.00  0.00     0.293 HD
ENDBRANCH  41  44
BRANCH  43  46
ATOM     46  O   UNL     1     -39.164  -2.835  85.108  1.00  0.00    -0.504 OA
ATOM     47  H   UNL     1     -38.504  -3.382  85.640  1.00  0.00     0.293 HD
ENDBRANCH  43  46
ENDBRANCH  28  38
BRANCH  34  48
ATOM     48  O   UNL     1     -44.432  -7.608  77.278  1.00  0.00    -0.507 OA
ATOM     49  H   UNL     1     -43.513  -7.995  77.347  1.00  0.00     0.293 HD
ENDBRANCH  34  48
BRANCH  37  50
ATOM     50  O   UNL     1     -46.953  -3.552  77.198  1.00  0.00    -0.508 OA
ATOM     51  H   UNL     1     -47.628  -3.957  76.550  1.00  0.00     0.293 HD
ENDBRANCH  37  50
ENDBRANCH  26  27
ENDBRANCH   5  26
BRANCH   4  52
ATOM     52  O   UNL     1     -43.900  -7.824  84.665  1.00  0.00    -0.384 OA
ATOM     53  H   UNL     1     -43.589  -6.889  84.821  1.00  0.00     0.211 HD
ENDBRANCH   4  52
TORSDOF 16
ENDMDL
MODEL 8
REMARK VINA RESULT:    -4.996      2.298      7.446
REMARK INTER + INTRA:          -9.111
REMARK INTER:                  -6.966
REMARK INTRA:                  -2.145
REMARK UNBOUND:                -0.902
REMARK SMILES C[C@@H]1O[C@H](OC[C@@H]2O[C@H](Oc3c(-c4ccc(O)c(O)c4)oc4cc(O)cc(O)c4c3=O)[C@H](O)[C@H](O)[C@@H]2O)[C@@H](O)[C@H](O)[C@H]1O
REMARK SMILES IDX 7 1 36 2 34 3 32 4 9 5 8 6 6 7 5 8 4 9 1 10 2 11 42 12 3 13
REMARK SMILES IDX 40 14 38 15 43 16 41 18 39 20 37 22 35 24 10 26 11 27 12 28
REMARK SMILES IDX 30 29 21 30 29 31 31 32 22 33 27 34 23 35 26 36 24 37 13 38
REMARK SMILES IDX 20 39 14 40 18 41 15 42 16 43 19 44 17 46 28 48 25 50 33 52
REMARK H PARENT 43 17 41 19 39 21 37 23 35 25 19 45 17 47 28 49 25 51 33 53
REMARK Flexibility Score: inf
ROOT
ATOM      1  C   UNL     1     -39.593  -9.716  81.386  1.00  0.00     0.180 C 
ATOM      2  C   UNL     1     -39.597 -10.045  82.913  1.00  0.00     0.177 C 
ATOM      3  C   UNL     1     -40.504  -9.088  83.748  1.00  0.00     0.180 C 
ATOM      4  C   UNL     1     -41.796  -8.790  82.924  1.00  0.00     0.214 C 
ATOM      5  C   UNL     1     -41.450  -8.210  81.516  1.00  0.00     0.339 C 
ATOM      6  O   UNL     1     -40.803  -9.263  80.820  1.00  0.00    -0.332 OA
ENDROOT
BRANCH   1   7
ATOM      7  C   UNL     1     -38.399  -8.902  80.934  1.00  0.00     0.198 C 
BRANCH   7   8
ATOM      8  O   UNL     1     -37.820  -8.176  82.008  1.00  0.00    -0.347 OA
BRANCH   8   9
ATOM      9  C   UNL     1     -36.414  -8.051  81.805  1.00  0.00     0.281 C 
ATOM     10  C   UNL     1     -36.120  -4.632  82.832  1.00  0.00     0.041 C 
ATOM     11  C   UNL     1     -35.383  -5.937  82.540  1.00  0.00     0.150 C 
ATOM     12  C   UNL     1     -34.801  -6.694  83.784  1.00  0.00     0.174 C 
ATOM     13  O   UNL     1     -36.103  -6.697  81.588  1.00  0.00    -0.344 OA
ATOM     14  C   UNL     1     -35.617  -7.924  84.168  1.00  0.00     0.179 C 
ATOM     15  C   UNL     1     -35.660  -8.798  82.920  1.00  0.00     0.202 C 
BRANCH  12  16
ATOM     16  O   UNL     1     -33.441  -7.064  83.622  1.00  0.00    -0.388 OA
ATOM     17  H   UNL     1     -32.804  -6.374  83.947  1.00  0.00     0.211 HD
ENDBRANCH  12  16
BRANCH  14  18
ATOM     18  O   UNL     1     -36.856  -7.558  84.653  1.00  0.00    -0.387 OA
ATOM     19  H   UNL     1     -36.810  -7.574  85.660  1.00  0.00     0.211 HD
ENDBRANCH  14  18
BRANCH  15  20
ATOM     20  O   UNL     1     -34.387  -9.308  82.577  1.00  0.00    -0.385 OA
ATOM     21  H   UNL     1     -34.352  -9.515  81.599  1.00  0.00     0.211 HD
ENDBRANCH  15  20
ENDBRANCH   8   9
ENDBRANCH   7   8
ENDBRANCH   1   7
BRANCH   2  22
ATOM     22  O   UNL     1     -38.310 -10.115  83.491  1.00  0.00    -0.387 OA
ATOM     23  H   UNL     1     -37.696  -9.660  82.855  1.00  0.00     0.211 HD
ENDBRANCH   2  22
BRANCH   3  24
ATOM     24  O   UNL     1     -39.780  -7.981  84.223  1.00  0.00    -0.387 OA
ATOM     25  H   UNL     1     -38.956  -8.269  84.666  1.00  0.00     0.211 HD
ENDBRANCH   3  24
BRANCH   5  26
ATOM     26  O   UNL     1     -40.650  -7.027  81.376  1.00  0.00    -0.454 OA
BRANCH  26  27
ATOM     27  C   UNL     1     -40.847  -5.761  81.916  1.00  0.00     0.214 A 
ATOM     28  C   UNL     1     -41.799  -4.929  81.325  1.00  0.00     0.180 A 
ATOM     29  C   UNL     1     -40.041  -5.205  82.909  1.00  0.00     0.239 A 
ATOM     30  O   UNL     1     -41.861  -3.649  81.721  1.00  0.00    -0.452 OA
ATOM     31  C   UNL     1     -40.251  -3.895  83.401  1.00  0.00     0.111 A 
ATOM     32  O   UNL     1     -38.923  -5.697  83.067  1.00  0.00    -0.285 OA
ATOM     33  C   UNL     1     -41.143  -3.112  82.692  1.00  0.00     0.146 A 
ATOM     34  C   UNL     1     -39.314  -3.259  84.291  1.00  0.00     0.134 A 
ATOM     35  C   UNL     1     -41.135  -1.728  82.860  1.00  0.00     0.094 A 
ATOM     36  C   UNL     1     -39.198  -1.894  84.312  1.00  0.00     0.093 A 
ATOM     37  C   UNL     1     -40.111  -1.117  83.609  1.00  0.00     0.123 A 
BRANCH  28  38
ATOM     38  C   UNL     1     -42.976  -5.543  80.647  1.00  0.00     0.025 A 
ATOM     39  C   UNL     1     -42.909  -5.857  79.263  1.00  0.00     0.062 A 
ATOM     40  C   UNL     1     -44.250  -5.479  81.258  1.00  0.00     0.016 A 
ATOM     41  C   UNL     1     -44.070  -6.166  78.536  1.00  0.00     0.158 A 
ATOM     42  C   UNL     1     -45.364  -5.944  80.593  1.00  0.00     0.051 A 
ATOM     43  C   UNL     1     -45.276  -6.348  79.251  1.00  0.00     0.157 A 
BRANCH  41  44
ATOM     44  O   UNL     1     -43.987  -6.307  77.166  1.00  0.00    -0.504 OA
ATOM     45  H   UNL     1     -44.583  -5.803  76.526  1.00  0.00     0.293 HD
ENDBRANCH  41  44
BRANCH  43  46
ATOM     46  O   UNL     1     -46.441  -6.811  78.647  1.00  0.00    -0.504 OA
ATOM     47  H   UNL     1     -46.600  -6.845  77.651  1.00  0.00     0.293 HD
ENDBRANCH  43  46
ENDBRANCH  28  38
BRANCH  34  48
ATOM     48  O   UNL     1     -38.473  -3.999  85.125  1.00  0.00    -0.507 OA
ATOM     49  H   UNL     1     -38.120  -3.577  85.960  1.00  0.00     0.293 HD
ENDBRANCH  34  48
BRANCH  37  50
ATOM     50  O   UNL     1     -39.974   0.270  83.598  1.00  0.00    -0.508 OA
ATOM     51  H   UNL     1     -40.731   0.886  83.896  1.00  0.00     0.293 HD
ENDBRANCH  37  50
ENDBRANCH  26  27
ENDBRANCH   5  26
BRANCH   4  52
ATOM     52  O   UNL     1     -42.804  -8.054  83.594  1.00  0.00    -0.384 OA
ATOM     53  H   UNL     1     -43.650  -8.543  83.392  1.00  0.00     0.211 HD
ENDBRANCH   4  52
TORSDOF 16
ENDMDL
