MODEL 1
REMARK VINA RESULT:    -5.175      0.000      0.000
REMARK INTER + INTRA:          -6.336
REMARK INTER:                  -6.083
REMARK INTRA:                  -0.254
REMARK UNBOUND:                -0.254
REMARK SMILES O=c1c(O)c(-c2ccc(O)cc2)oc2cc(O)cc(O)c12
REMARK SMILES IDX 5 1 3 2 2 3 1 4 21 5 19 6 18 7 16 8 15 9 14 10 13 11 6 12
REMARK SMILES IDX 7 13 8 14 9 15 12 16 11 17 10 18 4 20 20 22 17 24
REMARK H PARENT 10 19 4 21 20 23 17 25
REMARK Flexibility Score: inf
ROOT
ATOM      1  C   UNL     1     133.107 138.138 137.596  1.00  0.00     0.180 A 
ATOM      2  C   UNL     1     134.225 138.587 136.872  1.00  0.00     0.208 A 
ATOM      3  C   UNL     1     135.495 138.523 137.471  1.00  0.00     0.238 A 
ATOM      4  O   UNL     1     136.485 138.976 136.840  1.00  0.00    -0.285 OA
ATOM      5  C   UNL     1     135.631 137.994 138.778  1.00  0.00     0.111 A 
ATOM      6  C   UNL     1     136.872 137.844 139.465  1.00  0.00     0.134 A 
ATOM      7  C   UNL     1     136.875 137.433 140.804  1.00  0.00     0.093 A 
ATOM      8  C   UNL     1     135.686 137.102 141.458  1.00  0.00     0.123 A 
ATOM      9  C   UNL     1     134.474 137.189 140.777  1.00  0.00     0.094 A 
ATOM     10  C   UNL     1     134.436 137.632 139.453  1.00  0.00     0.146 A 
ATOM     11  O   UNL     1     133.259 137.709 138.844  1.00  0.00    -0.452 OA
ENDROOT
BRANCH   1  12
ATOM     12  C   UNL     1     131.741 138.151 137.022  1.00  0.00     0.021 A 
ATOM     13  C   UNL     1     131.332 137.188 136.082  1.00  0.00     0.016 A 
ATOM     14  C   UNL     1     130.029 137.207 135.574  1.00  0.00     0.047 A 
ATOM     15  C   UNL     1     129.118 138.175 136.007  1.00  0.00     0.115 A 
ATOM     16  C   UNL     1     130.814 139.107 137.469  1.00  0.00     0.016 A 
ATOM     17  C   UNL     1     129.513 139.124 136.958  1.00  0.00     0.047 A 
BRANCH  15  18
ATOM     18  O   UNL     1     127.824 138.181 135.490  1.00  0.00    -0.508 OA
ATOM     19  H   UNL     1     127.449 138.993 135.012  1.00  0.00     0.293 HD
ENDBRANCH  15  18
ENDBRANCH   1  12
BRANCH   2  20
ATOM     20  O   UNL     1     134.066 139.125 135.593  1.00  0.00    -0.502 OA
ATOM     21  H   UNL     1     134.558 139.956 135.287  1.00  0.00     0.293 HD
ENDBRANCH   2  20
BRANCH   6  22
ATOM     22  O   UNL     1     138.122 138.059 138.877  1.00  0.00    -0.507 OA
ATOM     23  H   UNL     1     138.264 138.362 137.925  1.00  0.00     0.293 HD
ENDBRANCH   6  22
BRANCH   8  24
ATOM     24  O   UNL     1     135.699 136.678 142.785  1.00  0.00    -0.508 OA
ATOM     25  H   UNL     1     135.234 137.205 143.515  1.00  0.00     0.293 HD
ENDBRANCH   8  24
TORSDOF 5
ENDMDL
MODEL 2
REMARK VINA RESULT:    -5.119     14.332     18.874
REMARK INTER + INTRA:          -6.271
REMARK INTER:                  -6.003
REMARK INTRA:                  -0.268
REMARK UNBOUND:                -0.254
REMARK SMILES O=c1c(O)c(-c2ccc(O)cc2)oc2cc(O)cc(O)c12
REMARK SMILES IDX 5 1 3 2 2 3 1 4 21 5 19 6 18 7 16 8 15 9 14 10 13 11 6 12
REMARK SMILES IDX 7 13 8 14 9 15 12 16 11 17 10 18 4 20 20 22 17 24
REMARK H PARENT 10 19 4 21 20 23 17 25
REMARK Flexibility Score: inf
ROOT
ATOM      1  C   UNL     1     122.253 128.044 129.618  1.00  0.00     0.180 A 
ATOM      2  C   UNL     1     120.924 128.486 129.730  1.00  0.00     0.208 A 
ATOM      3  C   UNL     1     119.888 127.537 129.737  1.00  0.00     0.238 A 
ATOM      4  O   UNL     1     118.697 127.942 129.784  1.00  0.00    -0.285 OA
ATOM      5  C   UNL     1     120.197 126.158 129.650  1.00  0.00     0.111 A 
ATOM      6  C   UNL     1     119.231 125.108 129.689  1.00  0.00     0.134 A 
ATOM      7  C   UNL     1     119.637 123.787 129.462  1.00  0.00     0.093 A 
ATOM      8  C   UNL     1     120.984 123.472 129.263  1.00  0.00     0.123 A 
ATOM      9  C   UNL     1     121.941 124.483 129.282  1.00  0.00     0.094 A 
ATOM     10  C   UNL     1     121.562 125.814 129.469  1.00  0.00     0.146 A 
ATOM     11  O   UNL     1     122.506 126.748 129.471  1.00  0.00    -0.452 OA
ENDROOT
BRANCH   1  12
ATOM     12  C   UNL     1     123.399 128.983 129.628  1.00  0.00     0.021 A 
ATOM     13  C   UNL     1     124.155 129.204 130.793  1.00  0.00     0.016 A 
ATOM     14  C   UNL     1     125.247 130.076 130.771  1.00  0.00     0.047 A 
ATOM     15  C   UNL     1     125.606 130.727 129.586  1.00  0.00     0.115 A 
ATOM     16  C   UNL     1     123.778 129.623 128.436  1.00  0.00     0.016 A 
ATOM     17  C   UNL     1     124.870 130.495 128.418  1.00  0.00     0.047 A 
BRANCH  15  18
ATOM     18  O   UNL     1     126.696 131.594 129.580  1.00  0.00    -0.508 OA
ATOM     19  H   UNL     1     126.759 132.368 130.231  1.00  0.00     0.293 HD
ENDBRANCH  15  18
ENDBRANCH   1  12
BRANCH   2  20
ATOM     20  O   UNL     1     120.640 129.853 129.793  1.00  0.00    -0.502 OA
ATOM     21  H   UNL     1     119.847 130.267 129.317  1.00  0.00     0.293 HD
ENDBRANCH   2  20
BRANCH   6  22
ATOM     22  O   UNL     1     117.876 125.303 129.971  1.00  0.00    -0.507 OA
ATOM     23  H   UNL     1     117.209 125.709 129.332  1.00  0.00     0.293 HD
ENDBRANCH   6  22
BRANCH   8  24
ATOM     24  O   UNL     1     121.382 122.154 129.053  1.00  0.00    -0.508 OA
ATOM     25  H   UNL     1     122.134 121.922 128.415  1.00  0.00     0.293 HD
ENDBRANCH   8  24
TORSDOF 5
ENDMDL
MODEL 3
REMARK VINA RESULT:    -4.914      3.109      5.087
REMARK INTER + INTRA:          -6.030
REMARK INTER:                  -5.741
REMARK INTRA:                  -0.289
REMARK UNBOUND:                -0.254
REMARK SMILES O=c1c(O)c(-c2ccc(O)cc2)oc2cc(O)cc(O)c12
REMARK SMILES IDX 5 1 3 2 2 3 1 4 21 5 19 6 18 7 16 8 15 9 14 10 13 11 6 12
REMARK SMILES IDX 7 13 8 14 9 15 12 16 11 17 10 18 4 20 20 22 17 24
REMARK H PARENT 10 19 4 21 20 23 17 25
REMARK Flexibility Score: inf
ROOT
ATOM      1  C   UNL     1     136.174 137.659 136.442  1.00  0.00     0.180 A 
ATOM      2  C   UNL     1     134.992 138.248 136.924  1.00  0.00     0.208 A 
ATOM      3  C   UNL     1     134.665 138.103 138.283  1.00  0.00     0.238 A 
ATOM      4  O   UNL     1     133.579 138.586 138.698  1.00  0.00    -0.285 OA
ATOM      5  C   UNL     1     135.531 137.386 139.144  1.00  0.00     0.111 A 
ATOM      6  C   UNL     1     135.319 137.212 140.544  1.00  0.00     0.134 A 
ATOM      7  C   UNL     1     136.172 136.374 141.273  1.00  0.00     0.093 A 
ATOM      8  C   UNL     1     137.268 135.757 140.664  1.00  0.00     0.123 A 
ATOM      9  C   UNL     1     137.517 135.969 139.310  1.00  0.00     0.094 A 
ATOM     10  C   UNL     1     136.663 136.770 138.550  1.00  0.00     0.146 A 
ATOM     11  O   UNL     1     136.931 136.937 137.260  1.00  0.00    -0.452 OA
ENDROOT
BRANCH   1  12
ATOM     12  C   UNL     1     136.598 137.789 135.029  1.00  0.00     0.021 A 
ATOM     13  C   UNL     1     136.192 136.860 134.053  1.00  0.00     0.016 A 
ATOM     14  C   UNL     1     136.584 137.019 132.721  1.00  0.00     0.047 A 
ATOM     15  C   UNL     1     137.374 138.110 132.344  1.00  0.00     0.115 A 
ATOM     16  C   UNL     1     137.372 138.894 134.638  1.00  0.00     0.016 A 
ATOM     17  C   UNL     1     137.764 139.049 133.306  1.00  0.00     0.047 A 
BRANCH  15  18
ATOM     18  O   UNL     1     137.758 138.253 131.012  1.00  0.00    -0.508 OA
ATOM     19  H   UNL     1     137.778 139.161 130.562  1.00  0.00     0.293 HD
ENDBRANCH  15  18
ENDBRANCH   1  12
BRANCH   2  20
ATOM     20  O   UNL     1     134.141 138.932 136.054  1.00  0.00    -0.502 OA
ATOM     21  H   UNL     1     134.024 139.938 136.085  1.00  0.00     0.293 HD
ENDBRANCH   2  20
BRANCH   6  22
ATOM     22  O   UNL     1     134.310 137.855 141.267  1.00  0.00    -0.507 OA
ATOM     23  H   UNL     1     133.325 137.657 141.179  1.00  0.00     0.293 HD
ENDBRANCH   6  22
BRANCH   8  24
ATOM     24  O   UNL     1     138.121 134.937 141.400  1.00  0.00    -0.508 OA
ATOM     25  H   UNL     1     138.048 134.866 142.408  1.00  0.00     0.293 HD
ENDBRANCH   8  24
TORSDOF 5
ENDMDL
MODEL 4
REMARK VINA RESULT:    -4.881      4.580      7.106
REMARK INTER + INTRA:          -5.991
REMARK INTER:                  -5.738
REMARK INTRA:                  -0.253
REMARK UNBOUND:                -0.254
REMARK SMILES O=c1c(O)c(-c2ccc(O)cc2)oc2cc(O)cc(O)c12
REMARK SMILES IDX 5 1 3 2 2 3 1 4 21 5 19 6 18 7 16 8 15 9 14 10 13 11 6 12
REMARK SMILES IDX 7 13 8 14 9 15 12 16 11 17 10 18 4 20 20 22 17 24
REMARK H PARENT 10 19 4 21 20 23 17 25
REMARK Flexibility Score: inf
ROOT
ATOM      1  C   UNL     1     137.020 136.519 137.646  1.00  0.00     0.180 A 
ATOM      2  C   UNL     1     137.498 137.762 137.197  1.00  0.00     0.208 A 
ATOM      3  C   UNL     1     137.504 138.032 135.818  1.00  0.00     0.238 A 
ATOM      4  O   UNL     1     137.982 139.125 135.417  1.00  0.00    -0.285 OA
ATOM      5  C   UNL     1     137.016 137.062 134.909  1.00  0.00     0.111 A 
ATOM      6  C   UNL     1     136.938 137.244 133.495  1.00  0.00     0.134 A 
ATOM      7  C   UNL     1     136.562 136.169 132.680  1.00  0.00     0.093 A 
ATOM      8  C   UNL     1     136.199 134.939 133.233  1.00  0.00     0.123 A 
ATOM      9  C   UNL     1     136.215 134.770 134.616  1.00  0.00     0.094 A 
ATOM     10  C   UNL     1     136.621 135.812 135.452  1.00  0.00     0.146 A 
ATOM     11  O   UNL     1     136.632 135.605 136.763  1.00  0.00    -0.452 OA
ENDROOT
BRANCH   1  12
ATOM     12  C   UNL     1     136.960 136.172 139.084  1.00  0.00     0.021 A 
ATOM     13  C   UNL     1     135.748 136.210 139.797  1.00  0.00     0.016 A 
ATOM     14  C   UNL     1     135.712 135.853 141.149  1.00  0.00     0.047 A 
ATOM     15  C   UNL     1     136.879 135.443 141.800  1.00  0.00     0.115 A 
ATOM     16  C   UNL     1     138.124 135.737 139.740  1.00  0.00     0.016 A 
ATOM     17  C   UNL     1     138.085 135.383 141.091  1.00  0.00     0.047 A 
BRANCH  15  18
ATOM     18  O   UNL     1     136.828 135.092 143.148  1.00  0.00    -0.508 OA
ATOM     19  H   UNL     1     136.050 134.567 143.528  1.00  0.00     0.293 HD
ENDBRANCH  15  18
ENDBRANCH   1  12
BRANCH   2  20
ATOM     20  O   UNL     1     137.994 138.696 138.109  1.00  0.00    -0.502 OA
ATOM     21  H   UNL     1     138.985 138.803 138.293  1.00  0.00     0.293 HD
ENDBRANCH   2  20
BRANCH   6  22
ATOM     22  O   UNL     1     137.190 138.457 132.849  1.00  0.00    -0.507 OA
ATOM     23  H   UNL     1     137.418 138.551 131.871  1.00  0.00     0.293 HD
ENDBRANCH   6  22
BRANCH   8  24
ATOM     24  O   UNL     1     135.811 133.879 132.416  1.00  0.00    -0.508 OA
ATOM     25  H   UNL     1     136.411 133.533 131.676  1.00  0.00     0.293 HD
ENDBRANCH   8  24
TORSDOF 5
ENDMDL
MODEL 5
REMARK VINA RESULT:    -4.871     15.445     20.064
REMARK INTER + INTRA:          -5.979
REMARK INTER:                  -5.707
REMARK INTRA:                  -0.272
REMARK UNBOUND:                -0.254
REMARK SMILES O=c1c(O)c(-c2ccc(O)cc2)oc2cc(O)cc(O)c12
REMARK SMILES IDX 5 1 3 2 2 3 1 4 21 5 19 6 18 7 16 8 15 9 14 10 13 11 6 12
REMARK SMILES IDX 7 13 8 14 9 15 12 16 11 17 10 18 4 20 20 22 17 24
REMARK H PARENT 10 19 4 21 20 23 17 25
REMARK Flexibility Score: inf
ROOT
ATOM      1  C   UNL     1     122.642 125.996 129.376  1.00  0.00     0.180 A 
ATOM      2  C   UNL     1     122.132 124.707 129.611  1.00  0.00     0.208 A 
ATOM      3  C   UNL     1     120.825 124.406 129.192  1.00  0.00     0.238 A 
ATOM      4  O   UNL     1     120.353 123.268 129.453  1.00  0.00    -0.285 OA
ATOM      5  C   UNL     1     120.053 125.391 128.530  1.00  0.00     0.111 A 
ATOM      6  C   UNL     1     118.734 125.183 128.027  1.00  0.00     0.134 A 
ATOM      7  C   UNL     1     118.015 126.265 127.506  1.00  0.00     0.093 A 
ATOM      8  C   UNL     1     118.592 127.534 127.409  1.00  0.00     0.123 A 
ATOM      9  C   UNL     1     119.901 127.733 127.843  1.00  0.00     0.094 A 
ATOM     10  C   UNL     1     120.630 126.681 128.401  1.00  0.00     0.146 A 
ATOM     11  O   UNL     1     121.870 126.917 128.812  1.00  0.00    -0.452 OA
ENDROOT
BRANCH   1  12
ATOM     12  C   UNL     1     124.019 126.380 129.766  1.00  0.00     0.021 A 
ATOM     13  C   UNL     1     125.071 126.381 128.833  1.00  0.00     0.016 A 
ATOM     14  C   UNL     1     126.357 126.772 129.220  1.00  0.00     0.047 A 
ATOM     15  C   UNL     1     126.604 127.178 130.535  1.00  0.00     0.115 A 
ATOM     16  C   UNL     1     124.270 126.810 131.080  1.00  0.00     0.016 A 
ATOM     17  C   UNL     1     125.556 127.199 131.463  1.00  0.00     0.047 A 
BRANCH  15  18
ATOM     18  O   UNL     1     127.891 127.563 130.905  1.00  0.00    -0.508 OA
ATOM     19  H   UNL     1     128.447 128.179 130.323  1.00  0.00     0.293 HD
ENDBRANCH  15  18
ENDBRANCH   1  12
BRANCH   2  20
ATOM     20  O   UNL     1     122.902 123.757 130.286  1.00  0.00    -0.502 OA
ATOM     21  H   UNL     1     122.494 123.060 130.897  1.00  0.00     0.293 HD
ENDBRANCH   2  20
BRANCH   6  22
ATOM     22  O   UNL     1     118.099 123.938 127.991  1.00  0.00    -0.507 OA
ATOM     23  H   UNL     1     118.504 123.077 128.328  1.00  0.00     0.293 HD
ENDBRANCH   6  22
BRANCH   8  24
ATOM     24  O   UNL     1     117.875 128.602 126.875  1.00  0.00    -0.508 OA
ATOM     25  H   UNL     1     117.785 128.733 125.874  1.00  0.00     0.293 HD
ENDBRANCH   8  24
TORSDOF 5
ENDMDL
MODEL 6
REMARK VINA RESULT:    -4.830      1.905      3.947
REMARK INTER + INTRA:          -5.931
REMARK INTER:                  -5.825
REMARK INTRA:                  -0.106
REMARK UNBOUND:                -0.254
REMARK SMILES O=c1c(O)c(-c2ccc(O)cc2)oc2cc(O)cc(O)c12
REMARK SMILES IDX 5 1 3 2 2 3 1 4 21 5 19 6 18 7 16 8 15 9 14 10 13 11 6 12
REMARK SMILES IDX 7 13 8 14 9 15 12 16 11 17 10 18 4 20 20 22 17 24
REMARK H PARENT 10 19 4 21 20 23 17 25
REMARK Flexibility Score: inf
ROOT
ATOM      1  C   UNL     1     133.125 137.750 136.412  1.00  0.00     0.180 A 
ATOM      2  C   UNL     1     133.630 137.663 137.721  1.00  0.00     0.208 A 
ATOM      3  C   UNL     1     134.988 137.945 137.947  1.00  0.00     0.238 A 
ATOM      4  O   UNL     1     135.447 137.813 139.112  1.00  0.00    -0.285 OA
ATOM      5  C   UNL     1     135.818 138.326 136.865  1.00  0.00     0.111 A 
ATOM      6  C   UNL     1     137.197 138.673 136.986  1.00  0.00     0.134 A 
ATOM      7  C   UNL     1     137.954 138.907 135.831  1.00  0.00     0.093 A 
ATOM      8  C   UNL     1     137.364 138.871 134.564  1.00  0.00     0.123 A 
ATOM      9  C   UNL     1     136.006 138.592 134.441  1.00  0.00     0.094 A 
ATOM     10  C   UNL     1     135.234 138.318 135.572  1.00  0.00     0.146 A 
ATOM     11  O   UNL     1     133.944 138.046 135.409  1.00  0.00    -0.452 OA
ENDROOT
BRANCH   1  12
ATOM     12  C   UNL     1     131.701 137.492 136.099  1.00  0.00     0.021 A 
ATOM     13  C   UNL     1     130.673 138.253 136.684  1.00  0.00     0.016 A 
ATOM     14  C   UNL     1     129.337 138.008 136.353  1.00  0.00     0.047 A 
ATOM     15  C   UNL     1     129.012 137.011 135.428  1.00  0.00     0.115 A 
ATOM     16  C   UNL     1     131.368 136.507 135.154  1.00  0.00     0.016 A 
ATOM     17  C   UNL     1     130.032 136.263 134.827  1.00  0.00     0.047 A 
BRANCH  15  18
ATOM     18  O   UNL     1     127.675 136.777 135.110  1.00  0.00    -0.508 OA
ATOM     19  H   UNL     1     126.978 137.508 135.184  1.00  0.00     0.293 HD
ENDBRANCH  15  18
ENDBRANCH   1  12
BRANCH   2  20
ATOM     20  O   UNL     1     132.799 137.264 138.770  1.00  0.00    -0.502 OA
ATOM     21  H   UNL     1     131.811 137.485 138.796  1.00  0.00     0.293 HD
ENDBRANCH   2  20
BRANCH   6  22
ATOM     22  O   UNL     1     137.860 138.827 138.206  1.00  0.00    -0.507 OA
ATOM     23  H   UNL     1     138.858 138.747 138.332  1.00  0.00     0.293 HD
ENDBRANCH   6  22
BRANCH   8  24
ATOM     24  O   UNL     1     138.121 139.121 133.422  1.00  0.00    -0.508 OA
ATOM     25  H   UNL     1     137.960 139.940 132.847  1.00  0.00     0.293 HD
ENDBRANCH   8  24
TORSDOF 5
ENDMDL
MODEL 7
REMARK VINA RESULT:    -4.797      3.173      7.145
REMARK INTER + INTRA:          -5.892
REMARK INTER:                  -5.596
REMARK INTRA:                  -0.296
REMARK UNBOUND:                -0.254
REMARK SMILES O=c1c(O)c(-c2ccc(O)cc2)oc2cc(O)cc(O)c12
REMARK SMILES IDX 5 1 3 2 2 3 1 4 21 5 19 6 18 7 16 8 15 9 14 10 13 11 6 12
REMARK SMILES IDX 7 13 8 14 9 15 12 16 11 17 10 18 4 20 20 22 17 24
REMARK H PARENT 10 19 4 21 20 23 17 25
REMARK Flexibility Score: inf
ROOT
ATOM      1  C   UNL     1     136.274 136.921 140.042  1.00  0.00     0.180 A 
ATOM      2  C   UNL     1     135.119 137.715 139.934  1.00  0.00     0.208 A 
ATOM      3  C   UNL     1     134.733 138.188 138.668  1.00  0.00     0.238 A 
ATOM      4  O   UNL     1     133.729 138.943 138.585  1.00  0.00    -0.285 OA
ATOM      5  C   UNL     1     135.495 137.844 137.526  1.00  0.00     0.111 A 
ATOM      6  C   UNL     1     135.174 138.233 136.191  1.00  0.00     0.134 A 
ATOM      7  C   UNL     1     136.070 137.948 135.154  1.00  0.00     0.093 A 
ATOM      8  C   UNL     1     137.245 137.231 135.394  1.00  0.00     0.123 A 
ATOM      9  C   UNL     1     137.538 136.796 136.685  1.00  0.00     0.094 A 
ATOM     10  C   UNL     1     136.682 137.097 137.745  1.00  0.00     0.146 A 
ATOM     11  O   UNL     1     137.004 136.672 138.961  1.00  0.00    -0.452 OA
ENDROOT
BRANCH   1  12
ATOM     12  C   UNL     1     136.730 136.367 141.338  1.00  0.00     0.021 A 
ATOM     13  C   UNL     1     136.300 135.106 141.787  1.00  0.00     0.016 A 
ATOM     14  C   UNL     1     136.764 134.593 143.002  1.00  0.00     0.047 A 
ATOM     15  C   UNL     1     137.671 135.325 143.775  1.00  0.00     0.115 A 
ATOM     16  C   UNL     1     137.658 137.087 142.109  1.00  0.00     0.016 A 
ATOM     17  C   UNL     1     138.119 136.573 143.323  1.00  0.00     0.047 A 
BRANCH  15  18
ATOM     18  O   UNL     1     138.124 134.802 144.985  1.00  0.00    -0.508 OA
ATOM     19  H   UNL     1     137.478 134.518 145.712  1.00  0.00     0.293 HD
ENDBRANCH  15  18
ENDBRANCH   1  12
BRANCH   2  20
ATOM     20  O   UNL     1     134.393 138.060 141.077  1.00  0.00    -0.502 OA
ATOM     21  H   UNL     1     134.418 138.991 141.477  1.00  0.00     0.293 HD
ENDBRANCH   2  20
BRANCH   6  22
ATOM     22  O   UNL     1     133.984 138.871 135.829  1.00  0.00    -0.507 OA
ATOM     23  H   UNL     1     133.155 138.397 135.501  1.00  0.00     0.293 HD
ENDBRANCH   6  22
BRANCH   8  24
ATOM     24  O   UNL     1     138.124 136.938 134.354  1.00  0.00    -0.508 OA
ATOM     25  H   UNL     1     137.789 136.649 133.442  1.00  0.00     0.293 HD
ENDBRANCH   8  24
TORSDOF 5
ENDMDL
MODEL 8
REMARK VINA RESULT:    -4.737      2.405      7.380
REMARK INTER + INTRA:          -5.821
REMARK INTER:                  -5.533
REMARK INTRA:                  -0.288
REMARK UNBOUND:                -0.254
REMARK SMILES O=c1c(O)c(-c2ccc(O)cc2)oc2cc(O)cc(O)c12
REMARK SMILES IDX 5 1 3 2 2 3 1 4 21 5 19 6 18 7 16 8 15 9 14 10 13 11 6 12
REMARK SMILES IDX 7 13 8 14 9 15 12 16 11 17 10 18 4 20 20 22 17 24
REMARK H PARENT 10 19 4 21 20 23 17 25
REMARK Flexibility Score: inf
ROOT
ATOM      1  C   UNL     1     132.808 136.863 136.404  1.00  0.00     0.180 A 
ATOM      2  C   UNL     1     132.060 137.949 136.892  1.00  0.00     0.208 A 
ATOM      3  C   UNL     1     130.738 138.120 136.448  1.00  0.00     0.238 A 
ATOM      4  O   UNL     1     130.092 139.125 136.846  1.00  0.00    -0.285 OA
ATOM      5  C   UNL     1     130.176 137.194 135.537  1.00  0.00     0.111 A 
ATOM      6  C   UNL     1     128.835 137.247 135.053  1.00  0.00     0.134 A 
ATOM      7  C   UNL     1     128.425 136.354 134.054  1.00  0.00     0.093 A 
ATOM      8  C   UNL     1     129.290 135.369 133.570  1.00  0.00     0.123 A 
ATOM      9  C   UNL     1     130.582 135.272 134.080  1.00  0.00     0.094 A 
ATOM     10  C   UNL     1     131.031 136.171 135.049  1.00  0.00     0.146 A 
ATOM     11  O   UNL     1     132.274 136.050 135.500  1.00  0.00    -0.452 OA
ENDROOT
BRANCH   1  12
ATOM     12  C   UNL     1     134.198 136.604 136.844  1.00  0.00     0.021 A 
ATOM     13  C   UNL     1     135.298 137.153 136.160  1.00  0.00     0.016 A 
ATOM     14  C   UNL     1     136.600 136.914 136.610  1.00  0.00     0.047 A 
ATOM     15  C   UNL     1     136.820 136.138 137.752  1.00  0.00     0.115 A 
ATOM     16  C   UNL     1     134.426 135.843 138.003  1.00  0.00     0.016 A 
ATOM     17  C   UNL     1     135.728 135.605 138.449  1.00  0.00     0.047 A 
BRANCH  15  18
ATOM     18  O   UNL     1     138.123 135.908 138.186  1.00  0.00    -0.508 OA
ATOM     19  H   UNL     1     138.329 135.705 139.158  1.00  0.00     0.293 HD
ENDBRANCH  15  18
ENDBRANCH   1  12
BRANCH   2  20
ATOM     20  O   UNL     1     132.642 138.865 137.773  1.00  0.00    -0.502 OA
ATOM     21  H   UNL     1     132.349 138.951 138.739  1.00  0.00     0.293 HD
ENDBRANCH   2  20
BRANCH   6  22
ATOM     22  O   UNL     1     127.865 138.130 135.534  1.00  0.00    -0.507 OA
ATOM     23  H   UNL     1     127.173 137.899 136.232  1.00  0.00     0.293 HD
ENDBRANCH   6  22
BRANCH   8  24
ATOM     24  O   UNL     1     128.870 134.476 132.588  1.00  0.00    -0.508 OA
ATOM     25  H   UNL     1     128.396 134.793 131.750  1.00  0.00     0.293 HD
ENDBRANCH   8  24
TORSDOF 5
ENDMDL
MODEL 9
REMARK VINA RESULT:    -4.698     14.343     18.872
REMARK INTER + INTRA:          -5.776
REMARK INTER:                  -5.507
REMARK INTRA:                  -0.269
REMARK UNBOUND:                -0.254
REMARK SMILES O=c1c(O)c(-c2ccc(O)cc2)oc2cc(O)cc(O)c12
REMARK SMILES IDX 5 1 3 2 2 3 1 4 21 5 19 6 18 7 16 8 15 9 14 10 13 11 6 12
REMARK SMILES IDX 7 13 8 14 9 15 12 16 11 17 10 18 4 20 20 22 17 24
REMARK H PARENT 10 19 4 21 20 23 17 25
REMARK Flexibility Score: inf
ROOT
ATOM      1  C   UNL     1     123.201 126.220 130.815  1.00  0.00     0.180 A 
ATOM      2  C   UNL     1     122.784 124.996 130.263  1.00  0.00     0.208 A 
ATOM      3  C   UNL     1     121.606 124.959 129.499  1.00  0.00     0.238 A 
ATOM      4  O   UNL     1     121.209 123.851 129.053  1.00  0.00    -0.285 OA
ATOM      5  C   UNL     1     120.871 126.149 129.281  1.00  0.00     0.111 A 
ATOM      6  C   UNL     1     119.686 126.235 128.490  1.00  0.00     0.134 A 
ATOM      7  C   UNL     1     118.968 127.437 128.451  1.00  0.00     0.093 A 
ATOM      8  C   UNL     1     119.428 128.573 129.122  1.00  0.00     0.123 A 
ATOM      9  C   UNL     1     120.614 128.514 129.849  1.00  0.00     0.094 A 
ATOM     10  C   UNL     1     121.333 127.320 129.936  1.00  0.00     0.146 A 
ATOM     11  O   UNL     1     122.454 127.305 130.647  1.00  0.00    -0.452 OA
ENDROOT
BRANCH   1  12
ATOM     12  C   UNL     1     124.444 126.342 131.611  1.00  0.00     0.021 A 
ATOM     13  C   UNL     1     125.707 126.401 130.993  1.00  0.00     0.016 A 
ATOM     14  C   UNL     1     126.864 126.542 131.765  1.00  0.00     0.047 A 
ATOM     15  C   UNL     1     126.775 126.639 133.157  1.00  0.00     0.115 A 
ATOM     16  C   UNL     1     124.361 126.463 133.008  1.00  0.00     0.016 A 
ATOM     17  C   UNL     1     125.520 126.602 133.776  1.00  0.00     0.047 A 
BRANCH  15  18
ATOM     18  O   UNL     1     127.938 126.778 133.913  1.00  0.00    -0.508 OA
ATOM     19  H   UNL     1     128.473 127.638 133.906  1.00  0.00     0.293 HD
ENDBRANCH  15  18
ENDBRANCH   1  12
BRANCH   2  20
ATOM     20  O   UNL     1     123.513 123.829 130.509  1.00  0.00    -0.502 OA
ATOM     21  H   UNL     1     123.122 122.905 130.373  1.00  0.00     0.293 HD
ENDBRANCH   2  20
BRANCH   6  22
ATOM     22  O   UNL     1     119.191 125.188 127.708  1.00  0.00    -0.507 OA
ATOM     23  H   UNL     1     118.514 125.294 126.968  1.00  0.00     0.293 HD
ENDBRANCH   6  22
BRANCH   8  24
ATOM     24  O   UNL     1     118.715 129.768 129.065  1.00  0.00    -0.508 OA
ATOM     25  H   UNL     1     117.709 129.792 129.184  1.00  0.00     0.293 HD
ENDBRANCH   8  24
TORSDOF 5
ENDMDL
