MODEL 1
REMARK VINA RESULT:    -4.938      0.000      0.000
REMARK INTER + INTRA:          -7.820
REMARK INTER:                  -7.248
REMARK INTRA:                  -0.573
REMARK UNBOUND:                -0.573
REMARK SMILES O=C([O-])CCCCCCCC(=O)[O-]
REMARK SMILES IDX 7 1 6 2 5 3 4 4 2 5 1 6 3 7 8 8 9 9 10 10 11 11 12 12 13 13
REMARK H PARENT
REMARK Flexibility Score: inf
ROOT
ATOM      1  C   UNL     1      41.529  58.427  49.107  1.00  0.00     0.000 C 
ENDROOT
BRANCH   1   2
ATOM      2  C   UNL     1      40.358  57.879  48.275  1.00  0.00     0.000 C 
BRANCH   2   3
ATOM      3  C   UNL     1      40.857  56.891  47.211  1.00  0.00     0.006 C 
BRANCH   3   4
ATOM      4  C   UNL     1      41.206  57.589  45.889  1.00  0.00     0.053 C 
BRANCH   4   5
ATOM      5  C   UNL     1      42.596  57.258  45.438  1.00  0.00     0.041 C 
ATOM      6  O   UNL     1      43.562  57.348  46.241  1.00  0.00    -0.550 OA
ATOM      7  O   UNL     1      42.828  56.881  44.122  1.00  0.00    -0.550 OA
ENDBRANCH   4   5
ENDBRANCH   3   4
ENDBRANCH   2   3
ENDBRANCH   1   2
BRANCH   1   8
ATOM      8  C   UNL     1      41.896  59.874  48.714  1.00  0.00     0.000 C 
BRANCH   8   9
ATOM      9  C   UNL     1      43.360  60.040  48.274  1.00  0.00     0.006 C 
BRANCH   9  10
ATOM     10  C   UNL     1      44.311  60.300  49.448  1.00  0.00     0.053 C 
BRANCH  10  11
ATOM     11  C   UNL     1      45.157  59.095  49.712  1.00  0.00     0.041 C 
ATOM     12  O   UNL     1      45.356  58.248  48.802  1.00  0.00    -0.550 OA
ATOM     13  O   UNL     1      45.686  58.882  50.978  1.00  0.00    -0.550 OA
ENDBRANCH  10  11
ENDBRANCH   9  10
ENDBRANCH   8   9
ENDBRANCH   1   8
TORSDOF 8
ENDMDL
MODEL 2
REMARK VINA RESULT:    -4.932      0.145      4.811
REMARK INTER + INTRA:          -7.811
REMARK INTER:                  -7.238
REMARK INTRA:                  -0.573
REMARK UNBOUND:                -0.573
REMARK SMILES O=C([O-])CCCCCCCC(=O)[O-]
REMARK SMILES IDX 7 1 6 2 5 3 4 4 2 5 1 6 3 7 8 8 9 9 10 10 11 11 12 12 13 13
REMARK H PARENT
REMARK Flexibility Score: inf
ROOT
ATOM      1  C   UNL     1      41.704  58.486  49.108  1.00  0.00     0.000 C 
ENDROOT
BRANCH   1   2
ATOM      2  C   UNL     1      42.047  59.947  48.775  1.00  0.00     0.000 C 
BRANCH   2   3
ATOM      3  C   UNL     1      43.472  60.063  48.215  1.00  0.00     0.006 C 
BRANCH   3   4
ATOM      4  C   UNL     1      44.513  60.291  49.320  1.00  0.00     0.053 C 
BRANCH   4   5
ATOM      5  C   UNL     1      45.257  59.033  49.648  1.00  0.00     0.041 C 
ATOM      6  O   UNL     1      45.496  58.184  48.749  1.00  0.00    -0.550 OA
ATOM      7  O   UNL     1      45.660  58.784  50.954  1.00  0.00    -0.550 OA
ENDBRANCH   4   5
ENDBRANCH   3   4
ENDBRANCH   2   3
ENDBRANCH   1   2
BRANCH   1   8
ATOM      8  C   UNL     1      40.471  57.985  48.327  1.00  0.00     0.000 C 
BRANCH   8   9
ATOM      9  C   UNL     1      40.816  57.007  47.191  1.00  0.00     0.006 C 
BRANCH   9  10
ATOM     10  C   UNL     1      41.217  57.717  45.893  1.00  0.00     0.053 C 
BRANCH  10  11
ATOM     11  C   UNL     1      42.586  57.292  45.467  1.00  0.00     0.041 C 
ATOM     12  O   UNL     1      43.533  57.274  46.297  1.00  0.00    -0.550 OA
ATOM     13  O   UNL     1      42.829  56.960  44.140  1.00  0.00    -0.550 OA
ENDBRANCH  10  11
ENDBRANCH   9  10
ENDBRANCH   8   9
ENDBRANCH   1   8
TORSDOF 8
ENDMDL
MODEL 3
REMARK VINA RESULT:    -4.930      2.566      3.288
REMARK INTER + INTRA:          -7.808
REMARK INTER:                  -7.070
REMARK INTRA:                  -0.738
REMARK UNBOUND:                -0.573
REMARK SMILES O=C([O-])CCCCCCCC(=O)[O-]
REMARK SMILES IDX 7 1 6 2 5 3 4 4 2 5 1 6 3 7 8 8 9 9 10 10 11 11 12 12 13 13
REMARK H PARENT
REMARK Flexibility Score: inf
ROOT
ATOM      1  C   UNL     1      44.500  57.994  47.150  1.00  0.00     0.000 C 
ENDROOT
BRANCH   1   2
ATOM      2  C   UNL     1      43.605  58.346  45.950  1.00  0.00     0.000 C 
BRANCH   2   3
ATOM      3  C   UNL     1      42.582  57.233  45.682  1.00  0.00     0.006 C 
BRANCH   3   4
ATOM      4  C   UNL     1      41.137  57.745  45.755  1.00  0.00     0.053 C 
BRANCH   4   5
ATOM      5  C   UNL     1      40.366  57.075  46.852  1.00  0.00     0.041 C 
ATOM      6  O   UNL     1      40.048  57.718  47.887  1.00  0.00    -0.550 OA
ATOM      7  O   UNL     1      40.029  55.733  46.744  1.00  0.00    -0.550 OA
ENDBRANCH   4   5
ENDBRANCH   3   4
ENDBRANCH   2   3
ENDBRANCH   1   2
BRANCH   1   8
ATOM      8  C   UNL     1      43.723  57.249  48.256  1.00  0.00     0.000 C 
BRANCH   8   9
ATOM      9  C   UNL     1      43.202  58.172  49.371  1.00  0.00     0.006 C 
BRANCH   9  10
ATOM     10  C   UNL     1      43.871  59.551  49.365  1.00  0.00     0.053 C 
BRANCH  10  11
ATOM     11  C   UNL     1      42.851  60.625  49.155  1.00  0.00     0.041 C 
ATOM     12  O   UNL     1      42.863  61.660  49.870  1.00  0.00    -0.550 OA
ATOM     13  O   UNL     1      41.857  60.461  48.199  1.00  0.00    -0.550 OA
ENDBRANCH  10  11
ENDBRANCH   9  10
ENDBRANCH   8   9
ENDBRANCH   1   8
TORSDOF 8
ENDMDL
MODEL 4
REMARK VINA RESULT:    -4.911      2.578      5.117
REMARK INTER + INTRA:          -7.781
REMARK INTER:                  -7.110
REMARK INTRA:                  -0.671
REMARK UNBOUND:                -0.573
REMARK SMILES O=C([O-])CCCCCCCC(=O)[O-]
REMARK SMILES IDX 7 1 6 2 5 3 4 4 2 5 1 6 3 7 8 8 9 9 10 10 11 11 12 12 13 13
REMARK H PARENT
REMARK Flexibility Score: inf
ROOT
ATOM      1  C   UNL     1      44.486  57.922  47.141  1.00  0.00     0.000 C 
ENDROOT
BRANCH   1   2
ATOM      2  C   UNL     1      43.762  57.161  48.264  1.00  0.00     0.000 C 
BRANCH   2   3
ATOM      3  C   UNL     1      43.245  58.128  49.338  1.00  0.00     0.006 C 
BRANCH   3   4
ATOM      4  C   UNL     1      43.865  59.527  49.206  1.00  0.00     0.053 C 
BRANCH   4   5
ATOM      5  C   UNL     1      42.814  60.590  49.105  1.00  0.00     0.041 C 
ATOM      6  O   UNL     1      41.868  60.472  48.283  1.00  0.00    -0.550 OA
ATOM      7  O   UNL     1      42.899  61.728  49.898  1.00  0.00    -0.550 OA
ENDBRANCH   4   5
ENDBRANCH   3   4
ENDBRANCH   2   3
ENDBRANCH   1   2
BRANCH   1   8
ATOM      8  C   UNL     1      43.527  58.325  46.000  1.00  0.00     0.000 C 
BRANCH   8   9
ATOM      9  C   UNL     1      42.521  57.224  45.623  1.00  0.00     0.006 C 
BRANCH   9  10
ATOM     10  C   UNL     1      41.065  57.696  45.696  1.00  0.00     0.053 C 
BRANCH  10  11
ATOM     11  C   UNL     1      40.360  57.043  46.842  1.00  0.00     0.041 C 
ATOM     12  O   UNL     1      40.120  57.694  47.893  1.00  0.00    -0.550 OA
ATOM     13  O   UNL     1      40.010  55.701  46.769  1.00  0.00    -0.550 OA
ENDBRANCH  10  11
ENDBRANCH   9  10
ENDBRANCH   8   9
ENDBRANCH   1   8
TORSDOF 8
ENDMDL
MODEL 5
REMARK VINA RESULT:    -4.873      1.569      4.236
REMARK INTER + INTRA:          -7.724
REMARK INTER:                  -7.015
REMARK INTRA:                  -0.710
REMARK UNBOUND:                -0.573
REMARK SMILES O=C([O-])CCCCCCCC(=O)[O-]
REMARK SMILES IDX 7 1 6 2 5 3 4 4 2 5 1 6 3 7 8 8 9 9 10 10 11 11 12 12 13 13
REMARK H PARENT
REMARK Flexibility Score: inf
ROOT
ATOM      1  C   UNL     1      39.949  57.805  48.040  1.00  0.00     0.000 C 
ENDROOT
BRANCH   1   2
ATOM      2  C   UNL     1      40.503  58.001  49.461  1.00  0.00     0.000 C 
BRANCH   2   3
ATOM      3  C   UNL     1      41.948  58.520  49.420  1.00  0.00     0.006 C 
BRANCH   3   4
ATOM      4  C   UNL     1      42.031  59.964  48.905  1.00  0.00     0.053 C 
BRANCH   4   5
ATOM      5  C   UNL     1      43.268  60.655  49.391  1.00  0.00     0.041 C 
ATOM      6  O   UNL     1      44.362  60.034  49.446  1.00  0.00    -0.550 OA
ATOM      7  O   UNL     1      43.206  61.977  49.812  1.00  0.00    -0.550 OA
ENDBRANCH   4   5
ENDBRANCH   3   4
ENDBRANCH   2   3
ENDBRANCH   1   2
BRANCH   1   8
ATOM      8  C   UNL     1      40.880  56.936  47.168  1.00  0.00     0.000 C 
BRANCH   8   9
ATOM      9  C   UNL     1      41.287  57.607  45.845  1.00  0.00     0.006 C 
BRANCH   9  10
ATOM     10  C   UNL     1      42.704  57.231  45.397  1.00  0.00     0.053 C 
BRANCH  10  11
ATOM     11  C   UNL     1      43.716  57.774  46.355  1.00  0.00     0.041 C 
ATOM     12  O   UNL     1      44.093  58.973  46.268  1.00  0.00    -0.550 OA
ATOM     13  O   UNL     1      44.278  56.944  47.316  1.00  0.00    -0.550 OA
ENDBRANCH  10  11
ENDBRANCH   9  10
ENDBRANCH   8   9
ENDBRANCH   1   8
TORSDOF 8
ENDMDL
MODEL 6
REMARK VINA RESULT:    -4.853      1.843      4.911
REMARK INTER + INTRA:          -7.695
REMARK INTER:                  -7.014
REMARK INTRA:                  -0.681
REMARK UNBOUND:                -0.573
REMARK SMILES O=C([O-])CCCCCCCC(=O)[O-]
REMARK SMILES IDX 7 1 6 2 5 3 4 4 2 5 1 6 3 7 8 8 9 9 10 10 11 11 12 12 13 13
REMARK H PARENT
REMARK Flexibility Score: inf
ROOT
ATOM      1  C   UNL     1      42.990  59.893  46.946  1.00  0.00     0.000 C 
ENDROOT
BRANCH   1   2
ATOM      2  C   UNL     1      42.187  60.298  48.193  1.00  0.00     0.000 C 
BRANCH   2   3
ATOM      3  C   UNL     1      43.059  60.225  49.455  1.00  0.00     0.006 C 
BRANCH   3   4
ATOM      4  C   UNL     1      44.558  60.191  49.124  1.00  0.00     0.053 C 
BRANCH   4   5
ATOM      5  C   UNL     1      45.206  58.932  49.613  1.00  0.00     0.041 C 
ATOM      6  O   UNL     1      45.374  57.960  48.831  1.00  0.00    -0.550 OA
ATOM      7  O   UNL     1      45.595  58.823  50.942  1.00  0.00    -0.550 OA
ENDBRANCH   4   5
ENDBRANCH   3   4
ENDBRANCH   2   3
ENDBRANCH   1   2
BRANCH   1   8
ATOM      8  C   UNL     1      42.328  58.727  46.181  1.00  0.00     0.000 C 
BRANCH   8   9
ATOM      9  C   UNL     1      42.770  57.338  46.673  1.00  0.00     0.006 C 
BRANCH   9  10
ATOM     10  C   UNL     1      41.991  56.866  47.906  1.00  0.00     0.053 C 
BRANCH  10  11
ATOM     11  C   UNL     1      40.524  56.833  47.616  1.00  0.00     0.041 C 
ATOM     12  O   UNL     1      40.073  56.084  46.710  1.00  0.00    -0.550 OA
ATOM     13  O   UNL     1      39.659  57.666  48.314  1.00  0.00    -0.550 OA
ENDBRANCH  10  11
ENDBRANCH   9  10
ENDBRANCH   8   9
ENDBRANCH   1   8
TORSDOF 8
ENDMDL
MODEL 7
REMARK VINA RESULT:    -4.843      1.836      2.497
REMARK INTER + INTRA:          -7.681
REMARK INTER:                  -7.019
REMARK INTRA:                  -0.661
REMARK UNBOUND:                -0.573
REMARK SMILES O=C([O-])CCCCCCCC(=O)[O-]
REMARK SMILES IDX 7 1 6 2 5 3 4 4 2 5 1 6 3 7 8 8 9 9 10 10 11 11 12 12 13 13
REMARK H PARENT
REMARK Flexibility Score: inf
ROOT
ATOM      1  C   UNL     1      42.993  59.885  46.947  1.00  0.00     0.000 C 
ENDROOT
BRANCH   1   2
ATOM      2  C   UNL     1      42.299  58.732  46.205  1.00  0.00     0.000 C 
BRANCH   2   3
ATOM      3  C   UNL     1      42.821  57.372  46.691  1.00  0.00     0.006 C 
BRANCH   3   4
ATOM      4  C   UNL     1      42.034  56.849  47.901  1.00  0.00     0.053 C 
BRANCH   4   5
ATOM      5  C   UNL     1      40.559  56.843  47.642  1.00  0.00     0.041 C 
ATOM      6  O   UNL     1      40.068  56.065  46.782  1.00  0.00    -0.550 OA
ATOM      7  O   UNL     1      39.729  57.721  48.329  1.00  0.00    -0.550 OA
ENDBRANCH   4   5
ENDBRANCH   3   4
ENDBRANCH   2   3
ENDBRANCH   1   2
BRANCH   1   8
ATOM      8  C   UNL     1      42.242  60.284  48.235  1.00  0.00     0.000 C 
BRANCH   8   9
ATOM      9  C   UNL     1      43.134  60.303  49.488  1.00  0.00     0.006 C 
BRANCH   9  10
ATOM     10  C   UNL     1      44.630  60.270  49.156  1.00  0.00     0.053 C 
BRANCH  10  11
ATOM     11  C   UNL     1      45.245  58.996  49.642  1.00  0.00     0.041 C 
ATOM     12  O   UNL     1      45.394  58.023  48.857  1.00  0.00    -0.550 OA
ATOM     13  O   UNL     1      45.612  58.866  50.975  1.00  0.00    -0.550 OA
ENDBRANCH  10  11
ENDBRANCH   9  10
ENDBRANCH   8   9
ENDBRANCH   1   8
TORSDOF 8
ENDMDL
MODEL 8
REMARK VINA RESULT:    -4.772      0.883      1.335
REMARK INTER + INTRA:          -7.576
REMARK INTER:                  -6.945
REMARK INTRA:                  -0.632
REMARK UNBOUND:                -0.573
REMARK SMILES O=C([O-])CCCCCCCC(=O)[O-]
REMARK SMILES IDX 7 1 6 2 5 3 4 4 2 5 1 6 3 7 8 8 9 9 10 10 11 11 12 12 13 13
REMARK H PARENT
REMARK Flexibility Score: inf
ROOT
ATOM      1  C   UNL     1      41.596  59.556  48.991  1.00  0.00     0.000 C 
ENDROOT
BRANCH   1   2
ATOM      2  C   UNL     1      41.424  58.032  48.892  1.00  0.00     0.000 C 
BRANCH   2   3
ATOM      3  C   UNL     1      40.223  57.671  48.006  1.00  0.00     0.006 C 
BRANCH   3   4
ATOM      4  C   UNL     1      40.598  56.678  46.897  1.00  0.00     0.053 C 
BRANCH   4   5
ATOM      5  C   UNL     1      41.354  57.345  45.788  1.00  0.00     0.041 C 
ATOM      6  O   UNL     1      40.740  58.005  44.910  1.00  0.00    -0.550 OA
ATOM      7  O   UNL     1      42.734  57.211  45.709  1.00  0.00    -0.550 OA
ENDBRANCH   4   5
ENDBRANCH   3   4
ENDBRANCH   2   3
ENDBRANCH   1   2
BRANCH   1   8
ATOM      8  C   UNL     1      42.327  60.140  47.764  1.00  0.00     0.000 C 
BRANCH   8   9
ATOM      9  C   UNL     1      43.849  59.913  47.788  1.00  0.00     0.006 C 
BRANCH   9  10
ATOM     10  C   UNL     1      44.458  60.101  49.182  1.00  0.00     0.053 C 
BRANCH  10  11
ATOM     11  C   UNL     1      45.199  58.870  49.599  1.00  0.00     0.041 C 
ATOM     12  O   UNL     1      45.326  57.906  48.800  1.00  0.00    -0.550 OA
ATOM     13  O   UNL     1      45.709  58.769  50.886  1.00  0.00    -0.550 OA
ENDBRANCH  10  11
ENDBRANCH   9  10
ENDBRANCH   8   9
ENDBRANCH   1   8
TORSDOF 8
ENDMDL
MODEL 9
REMARK VINA RESULT:    -4.654      1.913      5.120
REMARK INTER + INTRA:          -7.404
REMARK INTER:                  -6.745
REMARK INTRA:                  -0.659
REMARK UNBOUND:                -0.573
REMARK SMILES O=C([O-])CCCCCCCC(=O)[O-]
REMARK SMILES IDX 7 1 6 2 5 3 4 4 2 5 1 6 3 7 8 8 9 9 10 10 11 11 12 12 13 13
REMARK H PARENT
REMARK Flexibility Score: inf
ROOT
ATOM      1  C   UNL     1      42.461  57.400  49.235  1.00  0.00     0.000 C 
ENDROOT
BRANCH   1   2
ATOM      2  C   UNL     1      43.814  57.267  48.518  1.00  0.00     0.000 C 
BRANCH   2   3
ATOM      3  C   UNL     1      44.349  58.644  48.095  1.00  0.00     0.006 C 
BRANCH   3   4
ATOM      4  C   UNL     1      44.985  59.403  49.268  1.00  0.00     0.053 C 
BRANCH   4   5
ATOM      5  C   UNL     1      44.577  60.845  49.280  1.00  0.00     0.041 C 
ATOM      6  O   UNL     1      45.428  61.747  49.059  1.00  0.00    -0.550 OA
ATOM      7  O   UNL     1      43.263  61.194  49.566  1.00  0.00    -0.550 OA
ENDBRANCH   4   5
ENDBRANCH   3   4
ENDBRANCH   2   3
ENDBRANCH   1   2
BRANCH   1   8
ATOM      8  C   UNL     1      41.507  58.368  48.503  1.00  0.00     0.000 C 
BRANCH   8   9
ATOM      9  C   UNL     1      40.258  57.681  47.924  1.00  0.00     0.006 C 
BRANCH   9  10
ATOM     10  C   UNL     1      40.589  56.677  46.814  1.00  0.00     0.053 C 
BRANCH  10  11
ATOM     11  C   UNL     1      41.188  57.379  45.637  1.00  0.00     0.041 C 
ATOM     12  O   UNL     1      40.462  58.070  44.874  1.00  0.00    -0.550 OA
ATOM     13  O   UNL     1      42.539  57.233  45.354  1.00  0.00    -0.550 OA
ENDBRANCH  10  11
ENDBRANCH   9  10
ENDBRANCH   8   9
ENDBRANCH   1   8
TORSDOF 8
ENDMDL
