MODEL 1
REMARK VINA RESULT:    -3.901      0.000      0.000
REMARK INTER + INTRA:          -4.626
REMARK INTER:                  -4.586
REMARK INTRA:                  -0.040
REMARK UNBOUND:                -0.040
REMARK SMILES CCCCC(=O)[O-]
REMARK SMILES IDX 4 1 5 2 6 3 7 4 3 5 2 6 1 7
REMARK H PARENT
REMARK Flexibility Score: inf
ROOT
ATOM      1  C   UNL     1      29.617  57.940  -6.636  1.00  0.00     0.053 C 
ENDROOT
BRANCH   1   2
ATOM      2  C   UNL     1      30.730  58.260  -5.686  1.00  0.00     0.041 C 
ATOM      3  O   UNL     1      31.264  57.347  -5.004  1.00  0.00    -0.550 OA
ATOM      4  O   UNL     1      31.156  59.574  -5.532  1.00  0.00    -0.550 OA
ENDBRANCH   1   2
BRANCH   1   5
ATOM      5  C   UNL     1      28.937  56.604  -6.295  1.00  0.00     0.006 C 
BRANCH   5   6
ATOM      6  C   UNL     1      28.297  55.898  -7.503  1.00  0.00    -0.003 C 
ATOM      7  C   UNL     1      28.262  56.773  -8.755  1.00  0.00     0.004 C 
ENDBRANCH   5   6
ENDBRANCH   1   5
TORSDOF 3
ENDMDL
MODEL 2
REMARK VINA RESULT:    -3.775      3.063      3.830
REMARK INTER + INTRA:          -4.477
REMARK INTER:                  -4.451
REMARK INTRA:                  -0.026
REMARK UNBOUND:                -0.040
REMARK SMILES CCCCC(=O)[O-]
REMARK SMILES IDX 4 1 5 2 6 3 7 4 3 5 2 6 1 7
REMARK H PARENT
REMARK Flexibility Score: inf
ROOT
ATOM      1  C   UNL     1      28.879  57.768  -7.687  1.00  0.00     0.053 C 
ENDROOT
BRANCH   1   2
ATOM      2  C   UNL     1      28.231  57.749  -9.037  1.00  0.00     0.041 C 
ATOM      3  O   UNL     1      28.117  56.666  -9.671  1.00  0.00    -0.550 OA
ATOM      4  O   UNL     1      27.782  58.932  -9.610  1.00  0.00    -0.550 OA
ENDBRANCH   1   2
BRANCH   1   5
ATOM      5  C   UNL     1      28.615  56.472  -6.904  1.00  0.00     0.006 C 
BRANCH   5   6
ATOM      6  C   UNL     1      29.112  56.503  -5.448  1.00  0.00    -0.003 C 
ATOM      7  C   UNL     1      30.353  57.376  -5.262  1.00  0.00     0.004 C 
ENDBRANCH   5   6
ENDBRANCH   1   5
TORSDOF 3
ENDMDL
MODEL 3
REMARK VINA RESULT:    -3.772      1.549      2.194
REMARK INTER + INTRA:          -4.473
REMARK INTER:                  -4.456
REMARK INTRA:                  -0.018
REMARK UNBOUND:                -0.040
REMARK SMILES CCCCC(=O)[O-]
REMARK SMILES IDX 4 1 5 2 6 3 7 4 3 5 2 6 1 7
REMARK H PARENT
REMARK Flexibility Score: inf
ROOT
ATOM      1  C   UNL     1      28.602  56.221  -6.551  1.00  0.00     0.053 C 
ENDROOT
BRANCH   1   2
ATOM      2  C   UNL     1      29.201  56.567  -5.223  1.00  0.00     0.041 C 
ATOM      3  O   UNL     1      28.594  56.276  -4.158  1.00  0.00    -0.550 OA
ATOM      4  O   UNL     1      30.416  57.239  -5.161  1.00  0.00    -0.550 OA
ENDBRANCH   1   2
BRANCH   1   5
ATOM      5  C   UNL     1      28.817  57.338  -7.586  1.00  0.00     0.006 C 
BRANCH   5   6
ATOM      6  C   UNL     1      28.240  57.026  -8.978  1.00  0.00    -0.003 C 
ATOM      7  C   UNL     1      28.095  58.269  -9.854  1.00  0.00     0.004 C 
ENDBRANCH   5   6
ENDBRANCH   1   5
TORSDOF 3
ENDMDL
MODEL 4
REMARK VINA RESULT:    -3.652     17.262     18.053
REMARK INTER + INTRA:          -4.333
REMARK INTER:                  -4.314
REMARK INTRA:                  -0.019
REMARK UNBOUND:                -0.040
REMARK SMILES CCCCC(=O)[O-]
REMARK SMILES IDX 4 1 5 2 6 3 7 4 3 5 2 6 1 7
REMARK H PARENT
REMARK Flexibility Score: inf
ROOT
ATOM      1  C   UNL     1      37.440  66.140   6.914  1.00  0.00     0.053 C 
ENDROOT
BRANCH   1   2
ATOM      2  C   UNL     1      37.445  67.051   5.724  1.00  0.00     0.041 C 
ATOM      3  O   UNL     1      36.801  68.132   5.751  1.00  0.00    -0.550 OA
ATOM      4  O   UNL     1      38.136  66.689   4.574  1.00  0.00    -0.550 OA
ENDBRANCH   1   2
BRANCH   1   5
ATOM      5  C   UNL     1      38.659  65.203   6.925  1.00  0.00     0.006 C 
BRANCH   5   6
ATOM      6  C   UNL     1      39.083  64.739   8.329  1.00  0.00    -0.003 C 
ATOM      7  C   UNL     1      39.626  63.311   8.345  1.00  0.00     0.004 C 
ENDBRANCH   5   6
ENDBRANCH   1   5
TORSDOF 3
ENDMDL
MODEL 5
REMARK VINA RESULT:    -3.462     18.447     18.914
REMARK INTER + INTRA:          -4.109
REMARK INTER:                  -4.058
REMARK INTRA:                  -0.051
REMARK UNBOUND:                -0.040
REMARK SMILES CCCCC(=O)[O-]
REMARK SMILES IDX 4 1 5 2 6 3 7 4 3 5 2 6 1 7
REMARK H PARENT
REMARK Flexibility Score: inf
ROOT
ATOM      1  C   UNL     1      39.512  63.464   8.556  1.00  0.00     0.053 C 
ENDROOT
BRANCH   1   2
ATOM      2  C   UNL     1      39.185  64.730   7.825  1.00  0.00     0.041 C 
ATOM      3  O   UNL     1      38.377  65.559   8.321  1.00  0.00    -0.550 OA
ATOM      4  O   UNL     1      39.748  64.979   6.579  1.00  0.00    -0.550 OA
ENDBRANCH   1   2
BRANCH   1   5
ATOM      5  C   UNL     1      41.008  63.122   8.470  1.00  0.00     0.006 C 
BRANCH   5   6
ATOM      6  C   UNL     1      41.298  61.657   8.097  1.00  0.00    -0.003 C 
ATOM      7  C   UNL     1      40.140  60.717   8.431  1.00  0.00     0.004 C 
ENDBRANCH   5   6
ENDBRANCH   1   5
TORSDOF 3
ENDMDL
MODEL 6
REMARK VINA RESULT:    -3.387     18.149     18.694
REMARK INTER + INTRA:          -4.021
REMARK INTER:                  -3.966
REMARK INTRA:                  -0.055
REMARK UNBOUND:                -0.040
REMARK SMILES CCCCC(=O)[O-]
REMARK SMILES IDX 4 1 5 2 6 3 7 4 3 5 2 6 1 7
REMARK H PARENT
REMARK Flexibility Score: inf
ROOT
ATOM      1  C   UNL     1      39.011  64.381   8.500  1.00  0.00     0.053 C 
ENDROOT
BRANCH   1   2
ATOM      2  C   UNL     1      38.942  65.083   7.179  1.00  0.00     0.041 C 
ATOM      3  O   UNL     1      39.903  65.006   6.368  1.00  0.00    -0.550 OA
ATOM      4  O   UNL     1      37.830  65.851   6.856  1.00  0.00    -0.550 OA
ENDBRANCH   1   2
BRANCH   1   5
ATOM      5  C   UNL     1      40.308  63.570   8.653  1.00  0.00     0.006 C 
BRANCH   5   6
ATOM      6  C   UNL     1      40.144  62.064   8.385  1.00  0.00    -0.003 C 
ATOM      7  C   UNL     1      41.455  61.383   7.995  1.00  0.00     0.004 C 
ENDBRANCH   5   6
ENDBRANCH   1   5
TORSDOF 3
ENDMDL
MODEL 7
REMARK VINA RESULT:    -3.267     17.585     18.617
REMARK INTER + INTRA:          -3.879
REMARK INTER:                  -3.772
REMARK INTRA:                  -0.107
REMARK UNBOUND:                -0.040
REMARK SMILES CCCCC(=O)[O-]
REMARK SMILES IDX 4 1 5 2 6 3 7 4 3 5 2 6 1 7
REMARK H PARENT
REMARK Flexibility Score: inf
ROOT
ATOM      1  C   UNL     1      41.123  61.664   8.322  1.00  0.00     0.053 C 
ENDROOT
BRANCH   1   2
ATOM      2  C   UNL     1      40.030  61.000   7.543  1.00  0.00     0.041 C 
ATOM      3  O   UNL     1      39.365  60.061   8.055  1.00  0.00    -0.550 OA
ATOM      4  O   UNL     1      39.768  61.396   6.237  1.00  0.00    -0.550 OA
ENDBRANCH   1   2
BRANCH   1   5
ATOM      5  C   UNL     1      40.964  63.193   8.346  1.00  0.00     0.006 C 
BRANCH   5   6
ATOM      6  C   UNL     1      39.605  63.676   8.882  1.00  0.00    -0.003 C 
ATOM      7  C   UNL     1      39.075  64.903   8.140  1.00  0.00     0.004 C 
ENDBRANCH   5   6
ENDBRANCH   1   5
TORSDOF 3
ENDMDL
MODEL 8
REMARK VINA RESULT:    -3.237     18.176     18.777
REMARK INTER + INTRA:          -3.845
REMARK INTER:                  -3.828
REMARK INTRA:                  -0.017
REMARK UNBOUND:                -0.040
REMARK SMILES CCCCC(=O)[O-]
REMARK SMILES IDX 4 1 5 2 6 3 7 4 3 5 2 6 1 7
REMARK H PARENT
REMARK Flexibility Score: inf
ROOT
ATOM      1  C   UNL     1      41.047  59.505   8.097  1.00  0.00     0.053 C 
ENDROOT
BRANCH   1   2
ATOM      2  C   UNL     1      40.364  58.210   8.410  1.00  0.00     0.041 C 
ATOM      3  O   UNL     1      41.010  57.259   8.924  1.00  0.00    -0.550 OA
ATOM      4  O   UNL     1      39.019  58.041   8.103  1.00  0.00    -0.550 OA
ENDBRANCH   1   2
BRANCH   1   5
ATOM      5  C   UNL     1      40.156  60.717   8.416  1.00  0.00     0.006 C 
BRANCH   5   6
ATOM      6  C   UNL     1      40.879  62.072   8.320  1.00  0.00    -0.003 C 
ATOM      7  C   UNL     1      39.965  63.257   8.632  1.00  0.00     0.004 C 
ENDBRANCH   5   6
ENDBRANCH   1   5
TORSDOF 3
ENDMDL
MODEL 9
REMARK VINA RESULT:    -3.193     17.823     18.797
REMARK INTER + INTRA:          -3.793
REMARK INTER:                  -3.763
REMARK INTRA:                  -0.030
REMARK UNBOUND:                -0.040
REMARK SMILES CCCCC(=O)[O-]
REMARK SMILES IDX 4 1 5 2 6 3 7 4 3 5 2 6 1 7
REMARK H PARENT
REMARK Flexibility Score: inf
ROOT
ATOM      1  C   UNL     1      39.731  62.135   8.063  1.00  0.00     0.053 C 
ENDROOT
BRANCH   1   2
ATOM      2  C   UNL     1      39.924  63.511   8.623  1.00  0.00     0.041 C 
ATOM      3  O   UNL     1      38.932  64.182   9.014  1.00  0.00    -0.550 OA
ATOM      4  O   UNL     1      41.196  64.066   8.681  1.00  0.00    -0.550 OA
ENDBRANCH   1   2
BRANCH   1   5
ATOM      5  C   UNL     1      40.941  61.228   8.341  1.00  0.00     0.006 C 
BRANCH   5   6
ATOM      6  C   UNL     1      40.619  59.724   8.315  1.00  0.00    -0.003 C 
ATOM      7  C   UNL     1      39.244  59.420   7.721  1.00  0.00     0.004 C 
ENDBRANCH   5   6
ENDBRANCH   1   5
TORSDOF 3
ENDMDL
