MODEL 1
REMARK VINA RESULT:     7.986      0.000      0.000
REMARK INTER + INTRA:           8.429
REMARK INTER:                   8.452
REMARK INTRA:                  -0.024
REMARK UNBOUND:                -0.024
REMARK SMILES O=C([O-])c1cccnc1
REMARK SMILES IDX 4 1 5 2 9 3 6 4 8 5 7 6 2 7 1 8 3 9
REMARK H PARENT
REMARK Flexibility Score: inf
ROOT
ATOM      1  C   UNL     1     -28.434 -19.382  -8.572  1.00  0.00     0.016 A 
ATOM      2  C   UNL     1     -29.140 -19.382  -7.356  1.00  0.00     0.013 A 
ATOM      3  C   UNL     1     -29.120 -19.750  -9.742  1.00  0.00     0.120 A 
ATOM      4  C   UNL     1     -30.488 -19.742  -7.329  1.00  0.00     0.021 A 
ATOM      5  N   UNL     1     -30.434 -20.096  -9.687  1.00  0.00    -0.264 NA
ATOM      6  C   UNL     1     -31.125 -20.100  -8.518  1.00  0.00     0.111 A 
ENDROOT
BRANCH   1   7
ATOM      7  C   UNL     1     -27.006 -19.004  -8.623  1.00  0.00     0.073 C 
ATOM      8  O   UNL     1     -26.379 -19.015  -9.716  1.00  0.00    -0.545 OA
ATOM      9  O   UNL     1     -26.335 -18.631  -7.464  1.00  0.00    -0.545 OA
ENDBRANCH   1   7
TORSDOF 1
ENDMDL
MODEL 2
REMARK VINA RESULT:     9.678      2.811      3.886
REMARK INTER + INTRA:          10.220
REMARK INTER:                  10.244
REMARK INTRA:                  -0.024
REMARK UNBOUND:                -0.024
REMARK SMILES O=C([O-])c1cccnc1
REMARK SMILES IDX 4 1 5 2 9 3 6 4 8 5 7 6 2 7 1 8 3 9
REMARK H PARENT
REMARK Flexibility Score: inf
ROOT
ATOM      1  C   UNL     1     -29.025 -19.538  -8.451  1.00  0.00     0.016 A 
ATOM      2  C   UNL     1     -28.390 -19.410  -9.699  1.00  0.00     0.013 A 
ATOM      3  C   UNL     1     -28.253 -19.369  -7.289  1.00  0.00     0.120 A 
ATOM      4  C   UNL     1     -27.025 -19.124  -9.764  1.00  0.00     0.021 A 
ATOM      5  N   UNL     1     -26.926 -19.091  -7.381  1.00  0.00    -0.264 NA
ATOM      6  C   UNL     1     -26.302 -18.966  -8.582  1.00  0.00     0.111 A 
ENDROOT
BRANCH   1   7
ATOM      7  C   UNL     1     -30.469 -19.840  -8.360  1.00  0.00     0.073 C 
ATOM      8  O   UNL     1     -31.125 -20.153  -9.391  1.00  0.00    -0.545 OA
ATOM      9  O   UNL     1     -31.124 -19.785  -7.135  1.00  0.00    -0.545 OA
ENDBRANCH   1   7
TORSDOF 1
ENDMDL
