MODEL 1
REMARK VINA RESULT:    -3.862      0.000      0.000
REMARK INTER + INTRA:          -5.514
REMARK INTER:                  -5.217
REMARK INTRA:                  -0.297
REMARK UNBOUND:                -0.297
REMARK SMILES O=C[C@@H](O)[C@@H](O)[C@H](O)CO
REMARK SMILES IDX 7 1 9 2 10 3 5 5 3 6 2 7 1 8 4 9 6 11 8 13
REMARK H PARENT 10 4 4 10 6 12 8 14
REMARK Flexibility Score: inf
ROOT
ATOM      1  C   UNL     1      26.628 -12.384 -19.896  1.00  0.00     0.171 C 
ENDROOT
BRANCH   1   2
ATOM      2  C   UNL     1      27.940 -12.644 -20.660  1.00  0.00     0.190 C 
BRANCH   2   3
ATOM      3  O   UNL     1      27.838 -13.780 -21.478  1.00  0.00    -0.394 OA
ATOM      4  H   UNL     1      27.605 -13.458 -22.387  1.00  0.00     0.210 HD
ENDBRANCH   2   3
ENDBRANCH   1   2
BRANCH   1   5
ATOM      5  C   UNL     1      26.893 -12.042 -18.403  1.00  0.00     0.181 C 
BRANCH   5   6
ATOM      6  C   UNL     1      27.066 -10.523 -18.123  1.00  0.00     0.209 C 
BRANCH   6   7
ATOM      7  C   UNL     1      25.768  -9.761 -18.252  1.00  0.00     0.258 C 
ATOM      8  O   UNL     1      24.960  -9.772 -17.337  1.00  0.00    -0.300 OA
ENDBRANCH   6   7
BRANCH   6   9
ATOM      9  O   UNL     1      27.672 -10.290 -16.875  1.00  0.00    -0.383 OA
ATOM     10  H   UNL     1      28.314 -11.026 -16.702  1.00  0.00     0.211 HD
ENDBRANCH   6   9
ENDBRANCH   5   6
BRANCH   5  11
ATOM     11  O   UNL     1      25.894 -12.585 -17.575  1.00  0.00    -0.387 OA
ATOM     12  H   UNL     1      25.703 -13.507 -17.890  1.00  0.00     0.211 HD
ENDBRANCH   5  11
ENDBRANCH   1   5
BRANCH   1  13
ATOM     13  O   UNL     1      25.784 -13.503 -20.002  1.00  0.00    -0.388 OA
ATOM     14  H   UNL     1      25.060 -13.384 -19.334  1.00  0.00     0.211 HD
ENDBRANCH   1  13
TORSDOF 8
ENDMDL
MODEL 2
REMARK VINA RESULT:    -3.832      2.791      4.233
REMARK INTER + INTRA:          -5.473
REMARK INTER:                  -4.799
REMARK INTRA:                  -0.674
REMARK UNBOUND:                -0.297
REMARK SMILES O=C[C@@H](O)[C@@H](O)[C@H](O)CO
REMARK SMILES IDX 7 1 9 2 10 3 5 5 3 6 2 7 1 8 4 9 6 11 8 13
REMARK H PARENT 10 4 4 10 6 12 8 14
REMARK Flexibility Score: inf
ROOT
ATOM      1  C   UNL     1      29.018 -12.620 -21.904  1.00  0.00     0.171 C 
ENDROOT
BRANCH   1   2
ATOM      2  C   UNL     1      30.369 -13.325 -22.131  1.00  0.00     0.190 C 
BRANCH   2   3
ATOM      3  O   UNL     1      30.717 -14.127 -21.034  1.00  0.00    -0.394 OA
ATOM      4  H   UNL     1      30.288 -15.011 -21.178  1.00  0.00     0.210 HD
ENDBRANCH   2   3
ENDBRANCH   1   2
BRANCH   1   5
ATOM      5  C   UNL     1      28.022 -13.529 -21.131  1.00  0.00     0.181 C 
BRANCH   5   6
ATOM      6  C   UNL     1      26.647 -12.863 -20.846  1.00  0.00     0.209 C 
BRANCH   6   7
ATOM      7  C   UNL     1      25.563 -13.357 -21.773  1.00  0.00     0.258 C 
ATOM      8  O   UNL     1      25.516 -12.958 -22.926  1.00  0.00    -0.300 OA
ENDBRANCH   6   7
BRANCH   6   9
ATOM      9  O   UNL     1      26.270 -13.005 -19.499  1.00  0.00    -0.383 OA
ATOM     10  H   UNL     1      25.857 -12.152 -19.203  1.00  0.00     0.211 HD
ENDBRANCH   6   9
ENDBRANCH   5   6
BRANCH   5  11
ATOM     11  O   UNL     1      27.845 -14.760 -21.789  1.00  0.00    -0.387 OA
ATOM     12  H   UNL     1      27.845 -15.477 -21.102  1.00  0.00     0.211 HD
ENDBRANCH   5  11
ENDBRANCH   1   5
BRANCH   1  13
ATOM     13  O   UNL     1      28.471 -12.229 -23.138  1.00  0.00    -0.388 OA
ATOM     14  H   UNL     1      27.528 -12.539 -23.148  1.00  0.00     0.211 HD
ENDBRANCH   1  13
TORSDOF 8
ENDMDL
MODEL 3
REMARK VINA RESULT:    -3.825      1.190      1.942
REMARK INTER + INTRA:          -5.463
REMARK INTER:                  -4.992
REMARK INTRA:                  -0.471
REMARK UNBOUND:                -0.297
REMARK SMILES O=C[C@@H](O)[C@@H](O)[C@H](O)CO
REMARK SMILES IDX 7 1 9 2 10 3 5 5 3 6 2 7 1 8 4 9 6 11 8 13
REMARK H PARENT 10 4 4 10 6 12 8 14
REMARK Flexibility Score: inf
ROOT
ATOM      1  C   UNL     1      26.554 -12.342 -20.400  1.00  0.00     0.171 C 
ENDROOT
BRANCH   1   2
ATOM      2  C   UNL     1      28.020 -12.744 -20.650  1.00  0.00     0.190 C 
BRANCH   2   3
ATOM      3  O   UNL     1      28.115 -13.750 -21.623  1.00  0.00    -0.394 OA
ATOM      4  H   UNL     1      27.377 -13.595 -22.268  1.00  0.00     0.210 HD
ENDBRANCH   2   3
ENDBRANCH   1   2
BRANCH   1   5
ATOM      5  C   UNL     1      26.446 -11.188 -19.365  1.00  0.00     0.181 C 
BRANCH   5   6
ATOM      6  C   UNL     1      26.742 -11.618 -17.903  1.00  0.00     0.209 C 
BRANCH   6   7
ATOM      7  C   UNL     1      26.883 -10.439 -16.970  1.00  0.00     0.258 C 
ATOM      8  O   UNL     1      27.953  -9.860 -16.875  1.00  0.00    -0.300 OA
ENDBRANCH   6   7
BRANCH   6   9
ATOM      9  O   UNL     1      25.786 -12.534 -17.426  1.00  0.00    -0.383 OA
ATOM     10  H   UNL     1      26.087 -13.448 -17.669  1.00  0.00     0.211 HD
ENDBRANCH   6   9
ENDBRANCH   5   6
BRANCH   5  11
ATOM     11  O   UNL     1      27.262 -10.101 -19.733  1.00  0.00    -0.387 OA
ATOM     12  H   UNL     1      28.190 -10.304 -19.443  1.00  0.00     0.211 HD
ENDBRANCH   5  11
ENDBRANCH   1   5
BRANCH   1  13
ATOM     13  O   UNL     1      25.821 -13.460 -19.969  1.00  0.00    -0.388 OA
ATOM     14  H   UNL     1      24.877 -13.309 -20.238  1.00  0.00     0.211 HD
ENDBRANCH   1  13
TORSDOF 8
ENDMDL
MODEL 4
REMARK VINA RESULT:    -3.778     17.952     19.640
REMARK INTER + INTRA:          -5.400
REMARK INTER:                  -4.686
REMARK INTRA:                  -0.714
REMARK UNBOUND:                -0.297
REMARK SMILES O=C[C@@H](O)[C@@H](O)[C@H](O)CO
REMARK SMILES IDX 7 1 9 2 10 3 5 5 3 6 2 7 1 8 4 9 6 11 8 13
REMARK H PARENT 10 4 4 10 6 12 8 14
REMARK Flexibility Score: inf
ROOT
ATOM      1  C   UNL     1      36.609  -6.979 -33.547  1.00  0.00     0.171 C 
ENDROOT
BRANCH   1   2
ATOM      2  C   UNL     1      36.512  -8.512 -33.659  1.00  0.00     0.190 C 
BRANCH   2   3
ATOM      3  O   UNL     1      37.078  -8.973 -34.858  1.00  0.00    -0.394 OA
ATOM      4  H   UNL     1      37.121  -9.962 -34.791  1.00  0.00     0.210 HD
ENDBRANCH   2   3
ENDBRANCH   1   2
BRANCH   1   5
ATOM      5  C   UNL     1      37.762  -6.413 -34.421  1.00  0.00     0.181 C 
BRANCH   5   6
ATOM      6  C   UNL     1      37.783  -4.862 -34.516  1.00  0.00     0.209 C 
BRANCH   6   7
ATOM      7  C   UNL     1      38.827  -4.242 -33.619  1.00  0.00     0.258 C 
ATOM      8  O   UNL     1      38.669  -4.240 -32.408  1.00  0.00    -0.300 OA
ENDBRANCH   6   7
BRANCH   6   9
ATOM      9  O   UNL     1      37.927  -4.424 -35.845  1.00  0.00    -0.383 OA
ATOM     10  H   UNL     1      37.270  -4.914 -36.404  1.00  0.00     0.211 HD
ENDBRANCH   6   9
ENDBRANCH   5   6
BRANCH   5  11
ATOM     11  O   UNL     1      39.010  -6.895 -33.984  1.00  0.00    -0.387 OA
ATOM     12  H   UNL     1      39.280  -7.636 -34.588  1.00  0.00     0.211 HD
ENDBRANCH   5  11
ENDBRANCH   1   5
BRANCH   1  13
ATOM     13  O   UNL     1      36.783  -6.609 -32.202  1.00  0.00    -0.388 OA
ATOM     14  H   UNL     1      36.605  -7.418 -31.654  1.00  0.00     0.211 HD
ENDBRANCH   1  13
TORSDOF 8
ENDMDL
MODEL 5
REMARK VINA RESULT:    -3.771     13.232     15.312
REMARK INTER + INTRA:          -5.391
REMARK INTER:                  -4.885
REMARK INTRA:                  -0.506
REMARK UNBOUND:                -0.297
REMARK SMILES O=C[C@@H](O)[C@@H](O)[C@H](O)CO
REMARK SMILES IDX 7 1 9 2 10 3 5 5 3 6 2 7 1 8 4 9 6 11 8 13
REMARK H PARENT 10 4 4 10 6 12 8 14
REMARK Flexibility Score: inf
ROOT
ATOM      1  C   UNL     1      27.504 -12.110 -34.006  1.00  0.00     0.171 C 
ENDROOT
BRANCH   1   2
ATOM      2  C   UNL     1      27.781 -11.108 -35.143  1.00  0.00     0.190 C 
BRANCH   2   3
ATOM      3  O   UNL     1      27.191 -11.525 -36.347  1.00  0.00    -0.394 OA
ATOM      4  H   UNL     1      27.885 -12.029 -36.846  1.00  0.00     0.210 HD
ENDBRANCH   2   3
ENDBRANCH   1   2
BRANCH   1   5
ATOM      5  C   UNL     1      28.791 -12.421 -33.192  1.00  0.00     0.181 C 
BRANCH   5   6
ATOM      6  C   UNL     1      28.650 -13.626 -32.222  1.00  0.00     0.209 C 
BRANCH   6   7
ATOM      7  C   UNL     1      29.346 -14.864 -32.733  1.00  0.00     0.258 C 
ATOM      8  O   UNL     1      28.899 -15.461 -33.699  1.00  0.00    -0.300 OA
ENDBRANCH   6   7
BRANCH   6   9
ATOM      9  O   UNL     1      29.079 -13.300 -30.922  1.00  0.00    -0.383 OA
ATOM     10  H   UNL     1      28.479 -13.755 -30.276  1.00  0.00     0.211 HD
ENDBRANCH   6   9
ENDBRANCH   5   6
BRANCH   5  11
ATOM     11  O   UNL     1      29.896 -12.602 -34.045  1.00  0.00    -0.387 OA
ATOM     12  H   UNL     1      29.813 -11.957 -34.795  1.00  0.00     0.211 HD
ENDBRANCH   5  11
ENDBRANCH   1   5
BRANCH   1  13
ATOM     13  O   UNL     1      26.957 -13.291 -34.535  1.00  0.00    -0.388 OA
ATOM     14  H   UNL     1      27.010 -13.218 -35.523  1.00  0.00     0.211 HD
ENDBRANCH   1  13
TORSDOF 8
ENDMDL
MODEL 6
REMARK VINA RESULT:    -3.753      4.065      5.866
REMARK INTER + INTRA:          -5.366
REMARK INTER:                  -4.690
REMARK INTRA:                  -0.677
REMARK UNBOUND:                -0.297
REMARK SMILES O=C[C@@H](O)[C@@H](O)[C@H](O)CO
REMARK SMILES IDX 7 1 9 2 10 3 5 5 3 6 2 7 1 8 4 9 6 11 8 13
REMARK H PARENT 10 4 4 10 6 12 8 14
REMARK Flexibility Score: inf
ROOT
ATOM      1  C   UNL     1      28.665 -13.884 -21.221  1.00  0.00     0.171 C 
ENDROOT
BRANCH   1   2
ATOM      2  C   UNL     1      27.278 -13.217 -21.168  1.00  0.00     0.190 C 
BRANCH   2   3
ATOM      3  O   UNL     1      26.442 -13.694 -22.190  1.00  0.00    -0.394 OA
ATOM      4  H   UNL     1      26.289 -14.658 -22.007  1.00  0.00     0.210 HD
ENDBRANCH   2   3
ENDBRANCH   1   2
BRANCH   1   5
ATOM      5  C   UNL     1      29.660 -13.067 -22.091  1.00  0.00     0.181 C 
BRANCH   5   6
ATOM      6  C   UNL     1      30.945 -13.846 -22.485  1.00  0.00     0.209 C 
BRANCH   6   7
ATOM      7  C   UNL     1      31.995 -12.954 -23.104  1.00  0.00     0.258 C 
ATOM      8  O   UNL     1      32.014 -11.762 -22.843  1.00  0.00    -0.300 OA
ENDBRANCH   6   7
BRANCH   6   9
ATOM      9  O   UNL     1      31.468 -14.571 -21.400  1.00  0.00    -0.383 OA
ATOM     10  H   UNL     1      31.368 -14.018 -20.582  1.00  0.00     0.211 HD
ENDBRANCH   6   9
ENDBRANCH   5   6
BRANCH   5  11
ATOM     11  O   UNL     1      29.025 -12.551 -23.236  1.00  0.00    -0.387 OA
ATOM     12  H   UNL     1      29.134 -11.565 -23.228  1.00  0.00     0.211 HD
ENDBRANCH   5  11
ENDBRANCH   1   5
BRANCH   1  13
ATOM     13  O   UNL     1      28.545 -15.196 -21.712  1.00  0.00    -0.388 OA
ATOM     14  H   UNL     1      29.384 -15.399 -22.203  1.00  0.00     0.211 HD
ENDBRANCH   1  13
TORSDOF 8
ENDMDL
MODEL 7
REMARK VINA RESULT:    -3.658      1.255      4.142
REMARK INTER + INTRA:          -5.238
REMARK INTER:                  -4.505
REMARK INTRA:                  -0.733
REMARK UNBOUND:                -0.297
REMARK SMILES O=C[C@@H](O)[C@@H](O)[C@H](O)CO
REMARK SMILES IDX 7 1 9 2 10 3 5 5 3 6 2 7 1 8 4 9 6 11 8 13
REMARK H PARENT 10 4 4 10 6 12 8 14
REMARK Flexibility Score: inf
ROOT
ATOM      1  C   UNL     1      26.603 -11.374 -17.820  1.00  0.00     0.171 C 
ENDROOT
BRANCH   1   2
ATOM      2  C   UNL     1      25.658 -10.175 -18.028  1.00  0.00     0.190 C 
BRANCH   2   3
ATOM      3  O   UNL     1      26.365  -8.963 -18.031  1.00  0.00    -0.394 OA
ATOM      4  H   UNL     1      27.007  -9.008 -18.786  1.00  0.00     0.210 HD
ENDBRANCH   2   3
ENDBRANCH   1   2
BRANCH   1   5
ATOM      5  C   UNL     1      27.382 -11.720 -19.119  1.00  0.00     0.181 C 
BRANCH   5   6
ATOM      6  C   UNL     1      26.482 -12.217 -20.284  1.00  0.00     0.209 C 
BRANCH   6   7
ATOM      7  C   UNL     1      27.228 -12.300 -21.595  1.00  0.00     0.258 C 
ATOM      8  O   UNL     1      28.379 -12.706 -21.619  1.00  0.00    -0.300 OA
ENDBRANCH   6   7
BRANCH   6   9
ATOM      9  O   UNL     1      25.857 -13.438 -19.975  1.00  0.00    -0.383 OA
ATOM     10  H   UNL     1      25.617 -13.886 -20.828  1.00  0.00     0.211 HD
ENDBRANCH   6   9
ENDBRANCH   5   6
BRANCH   5  11
ATOM     11  O   UNL     1      28.175 -10.635 -19.538  1.00  0.00    -0.387 OA
ATOM     12  H   UNL     1      27.961  -9.858 -18.957  1.00  0.00     0.211 HD
ENDBRANCH   5  11
ENDBRANCH   1   5
BRANCH   1  13
ATOM     13  O   UNL     1      25.870 -12.487 -17.375  1.00  0.00    -0.388 OA
ATOM     14  H   UNL     1      25.570 -12.979 -18.183  1.00  0.00     0.211 HD
ENDBRANCH   1  13
TORSDOF 8
ENDMDL
MODEL 8
REMARK VINA RESULT:    -3.607      9.210     10.226
REMARK INTER + INTRA:          -5.170
REMARK INTER:                  -4.476
REMARK INTRA:                  -0.693
REMARK UNBOUND:                -0.297
REMARK SMILES O=C[C@@H](O)[C@@H](O)[C@H](O)CO
REMARK SMILES IDX 7 1 9 2 10 3 5 5 3 6 2 7 1 8 4 9 6 11 8 13
REMARK H PARENT 10 4 4 10 6 12 8 14
REMARK Flexibility Score: inf
ROOT
ATOM      1  C   UNL     1      26.191  -2.564 -17.832  1.00  0.00     0.171 C 
ENDROOT
BRANCH   1   2
ATOM      2  C   UNL     1      27.440  -3.340 -17.373  1.00  0.00     0.190 C 
BRANCH   2   3
ATOM      3  O   UNL     1      28.546  -2.488 -17.226  1.00  0.00    -0.394 OA
ATOM      4  H   UNL     1      28.922  -2.350 -18.134  1.00  0.00     0.210 HD
ENDBRANCH   2   3
ENDBRANCH   1   2
BRANCH   1   5
ATOM      5  C   UNL     1      26.064  -2.550 -19.380  1.00  0.00     0.181 C 
BRANCH   5   6
ATOM      6  C   UNL     1      25.177  -1.399 -19.932  1.00  0.00     0.209 C 
BRANCH   6   7
ATOM      7  C   UNL     1      24.992  -1.480 -21.429  1.00  0.00     0.258 C 
ATOM      8  O   UNL     1      25.038  -2.561 -21.993  1.00  0.00    -0.300 OA
ENDBRANCH   6   7
BRANCH   6   9
ATOM      9  O   UNL     1      23.939  -1.332 -19.269  1.00  0.00    -0.383 OA
ATOM     10  H   UNL     1      24.115  -1.235 -18.297  1.00  0.00     0.211 HD
ENDBRANCH   6   9
ENDBRANCH   5   6
BRANCH   5  11
ATOM     11  O   UNL     1      27.331  -2.531 -19.991  1.00  0.00    -0.387 OA
ATOM     12  H   UNL     1      27.432  -3.370 -20.513  1.00  0.00     0.211 HD
ENDBRANCH   5  11
ENDBRANCH   1   5
BRANCH   1  13
ATOM     13  O   UNL     1      26.233  -1.252 -17.329  1.00  0.00    -0.388 OA
ATOM     14  H   UNL     1      27.088  -1.159 -16.834  1.00  0.00     0.211 HD
ENDBRANCH   1  13
TORSDOF 8
ENDMDL
MODEL 9
REMARK VINA RESULT:    -3.581      1.737      2.801
REMARK INTER + INTRA:          -5.135
REMARK INTER:                  -4.359
REMARK INTRA:                  -0.775
REMARK UNBOUND:                -0.297
REMARK SMILES O=C[C@@H](O)[C@@H](O)[C@H](O)CO
REMARK SMILES IDX 7 1 9 2 10 3 5 5 3 6 2 7 1 8 4 9 6 11 8 13
REMARK H PARENT 10 4 4 10 6 12 8 14
REMARK Flexibility Score: inf
ROOT
ATOM      1  C   UNL     1      28.057 -12.056 -21.734  1.00  0.00     0.171 C 
ENDROOT
BRANCH   1   2
ATOM      2  C   UNL     1      29.229 -12.965 -21.318  1.00  0.00     0.190 C 
BRANCH   2   3
ATOM      3  O   UNL     1      30.327 -12.211 -20.875  1.00  0.00    -0.394 OA
ATOM      4  H   UNL     1      31.016 -12.859 -20.575  1.00  0.00     0.210 HD
ENDBRANCH   2   3
ENDBRANCH   1   2
BRANCH   1   5
ATOM      5  C   UNL     1      27.382 -11.393 -20.501  1.00  0.00     0.181 C 
BRANCH   5   6
ATOM      6  C   UNL     1      26.984 -12.395 -19.382  1.00  0.00     0.209 C 
BRANCH   6   7
ATOM      7  C   UNL     1      26.607 -11.702 -18.094  1.00  0.00     0.258 C 
ATOM      8  O   UNL     1      25.897 -10.709 -18.120  1.00  0.00    -0.300 OA
ENDBRANCH   6   7
BRANCH   6   9
ATOM      9  O   UNL     1      25.970 -13.272 -19.805  1.00  0.00    -0.383 OA
ATOM     10  H   UNL     1      25.462 -12.829 -20.533  1.00  0.00     0.211 HD
ENDBRANCH   6   9
ENDBRANCH   5   6
BRANCH   5  11
ATOM     11  O   UNL     1      28.186 -10.363 -19.978  1.00  0.00    -0.387 OA
ATOM     12  H   UNL     1      27.730  -9.499 -20.156  1.00  0.00     0.211 HD
ENDBRANCH   5  11
ENDBRANCH   1   5
BRANCH   1  13
ATOM     13  O   UNL     1      27.117 -12.798 -22.471  1.00  0.00    -0.388 OA
ATOM     14  H   UNL     1      27.023 -13.676 -22.019  1.00  0.00     0.211 HD
ENDBRANCH   1  13
TORSDOF 8
ENDMDL
