MODEL 1
REMARK VINA RESULT:    -5.296      0.000      0.000
REMARK INTER + INTRA:          -5.698
REMARK INTER:                  -5.606
REMARK INTRA:                  -0.093
REMARK UNBOUND:                -0.093
REMARK SMILES C=C(C)[C@@H]1CC=C(C)C(=O)C1
REMARK SMILES IDX 8 1 7 2 6 3 5 4 4 5 11 6 9 7 10 8 2 9 1 10 3 11
REMARK H PARENT
REMARK Flexibility Score: inf
ROOT
ATOM      1  C   UNL     1      -5.653  -6.753  11.113  1.00  0.00     0.048 C 
ATOM      2  C   UNL     1      -5.455  -6.076  12.441  1.00  0.00    -0.012 C 
ATOM      3  C   UNL     1      -6.477  -5.970  13.306  1.00  0.00    -0.019 C 
ATOM      4  C   UNL     1      -6.307  -5.372  14.677  1.00  0.00     0.036 C 
ATOM      5  C   UNL     1      -5.202  -4.299  14.684  1.00  0.00     0.025 C 
ATOM      6  C   UNL     1      -3.887  -4.883  14.133  1.00  0.00     0.089 C 
ATOM      7  C   UNL     1      -4.116  -5.545  12.803  1.00  0.00     0.158 C 
ATOM      8  O   UNL     1      -3.145  -5.687  12.012  1.00  0.00    -0.295 OA
ENDROOT
BRANCH   5   9
ATOM      9  C   UNL     1      -5.011  -3.695  16.069  1.00  0.00    -0.077 C 
ATOM     10  C   UNL     1      -4.693  -4.460  17.128  1.00  0.00     0.008 C 
ATOM     11  C   UNL     1      -5.181  -2.212  16.277  1.00  0.00     0.039 C 
ENDBRANCH   5   9
TORSDOF 1
ENDMDL
MODEL 2
REMARK VINA RESULT:    -5.137      2.092      3.841
REMARK INTER + INTRA:          -5.530
REMARK INTER:                  -5.435
REMARK INTRA:                  -0.096
REMARK UNBOUND:                -0.093
REMARK SMILES C=C(C)[C@@H]1CC=C(C)C(=O)C1
REMARK SMILES IDX 8 1 7 2 6 3 5 4 4 5 11 6 9 7 10 8 2 9 1 10 3 11
REMARK H PARENT
REMARK Flexibility Score: inf
ROOT
ATOM      1  C   UNL     1      -3.570  -4.145  11.831  1.00  0.00     0.048 C 
ATOM      2  C   UNL     1      -4.555  -5.091  12.461  1.00  0.00    -0.012 C 
ATOM      3  C   UNL     1      -4.890  -6.233  11.836  1.00  0.00    -0.019 C 
ATOM      4  C   UNL     1      -5.809  -7.248  12.463  1.00  0.00     0.036 C 
ATOM      5  C   UNL     1      -6.832  -6.572  13.395  1.00  0.00     0.025 C 
ATOM      6  C   UNL     1      -6.108  -5.711  14.448  1.00  0.00     0.089 C 
ATOM      7  C   UNL     1      -5.138  -4.770  13.788  1.00  0.00     0.158 C 
ATOM      8  O   UNL     1      -4.787  -3.723  14.396  1.00  0.00    -0.295 OA
ENDROOT
BRANCH   5   9
ATOM      9  C   UNL     1      -7.760  -7.590  14.045  1.00  0.00    -0.077 C 
ATOM     10  C   UNL     1      -7.473  -8.904  14.038  1.00  0.00     0.008 C 
ATOM     11  C   UNL     1      -9.032  -7.134  14.713  1.00  0.00     0.039 C 
ENDBRANCH   5   9
TORSDOF 1
ENDMDL
MODEL 3
REMARK VINA RESULT:    -5.003      3.083      4.182
REMARK INTER + INTRA:          -5.389
REMARK INTER:                  -5.298
REMARK INTRA:                  -0.090
REMARK UNBOUND:                -0.093
REMARK SMILES C=C(C)[C@@H]1CC=C(C)C(=O)C1
REMARK SMILES IDX 8 1 7 2 6 3 5 4 4 5 11 6 9 7 10 8 2 9 1 10 3 11
REMARK H PARENT
REMARK Flexibility Score: inf
ROOT
ATOM      1  C   UNL     1      -8.480  -9.914  14.268  1.00  0.00     0.048 C 
ATOM      2  C   UNL     1      -7.775  -8.622  13.963  1.00  0.00    -0.012 C 
ATOM      3  C   UNL     1      -6.602  -8.630  13.307  1.00  0.00    -0.019 C 
ATOM      4  C   UNL     1      -5.899  -7.359  12.909  1.00  0.00     0.036 C 
ATOM      5  C   UNL     1      -6.196  -6.223  13.906  1.00  0.00     0.025 C 
ATOM      6  C   UNL     1      -7.717  -6.027  14.054  1.00  0.00     0.089 C 
ATOM      7  C   UNL     1      -8.392  -7.334  14.368  1.00  0.00     0.158 C 
ATOM      8  O   UNL     1      -9.515  -7.323  14.940  1.00  0.00    -0.295 OA
ENDROOT
BRANCH   5   9
ATOM      9  C   UNL     1      -5.500  -4.928  13.506  1.00  0.00    -0.077 C 
ATOM     10  C   UNL     1      -4.911  -4.138  14.421  1.00  0.00     0.008 C 
ATOM     11  C   UNL     1      -5.463  -4.506  12.060  1.00  0.00     0.039 C 
ENDBRANCH   5   9
TORSDOF 1
ENDMDL
MODEL 4
REMARK VINA RESULT:    -4.957      2.172      3.991
REMARK INTER + INTRA:          -5.339
REMARK INTER:                  -5.245
REMARK INTRA:                  -0.094
REMARK UNBOUND:                -0.093
REMARK SMILES C=C(C)[C@@H]1CC=C(C)C(=O)C1
REMARK SMILES IDX 8 1 7 2 6 3 5 4 4 5 11 6 9 7 10 8 2 9 1 10 3 11
REMARK H PARENT
REMARK Flexibility Score: inf
ROOT
ATOM      1  C   UNL     1      -7.580  -6.661  14.222  1.00  0.00     0.048 C 
ATOM      2  C   UNL     1      -6.292  -6.185  13.610  1.00  0.00    -0.012 C 
ATOM      3  C   UNL     1      -5.941  -6.586  12.377  1.00  0.00    -0.019 C 
ATOM      4  C   UNL     1      -4.701  -6.074  11.691  1.00  0.00     0.036 C 
ATOM      5  C   UNL     1      -3.601  -5.732  12.714  1.00  0.00     0.025 C 
ATOM      6  C   UNL     1      -4.138  -4.742  13.765  1.00  0.00     0.089 C 
ATOM      7  C   UNL     1      -5.421  -5.250  14.365  1.00  0.00     0.158 C 
ATOM      8  O   UNL     1      -5.773  -4.835  15.501  1.00  0.00    -0.295 OA
ENDROOT
BRANCH   5   9
ATOM      9  C   UNL     1      -2.346  -5.201  12.033  1.00  0.00    -0.077 C 
ATOM     10  C   UNL     1      -2.200  -3.893  11.755  1.00  0.00     0.008 C 
ATOM     11  C   UNL     1      -1.235  -6.146  11.653  1.00  0.00     0.039 C 
ENDBRANCH   5   9
TORSDOF 1
ENDMDL
MODEL 5
REMARK VINA RESULT:    -4.823      2.171      4.504
REMARK INTER + INTRA:          -5.198
REMARK INTER:                  -5.101
REMARK INTRA:                  -0.097
REMARK UNBOUND:                -0.093
REMARK SMILES C=C(C)[C@@H]1CC=C(C)C(=O)C1
REMARK SMILES IDX 8 1 7 2 6 3 5 4 4 5 11 6 9 7 10 8 2 9 1 10 3 11
REMARK H PARENT
REMARK Flexibility Score: inf
ROOT
ATOM      1  C   UNL     1      -2.905  -1.852  15.593  1.00  0.00     0.048 C 
ATOM      2  C   UNL     1      -3.671  -3.046  15.096  1.00  0.00    -0.012 C 
ATOM      3  C   UNL     1      -3.384  -3.584  13.899  1.00  0.00    -0.019 C 
ATOM      4  C   UNL     1      -4.069  -4.826  13.395  1.00  0.00     0.036 C 
ATOM      5  C   UNL     1      -5.505  -4.932  13.942  1.00  0.00     0.025 C 
ATOM      6  C   UNL     1      -5.498  -4.852  15.481  1.00  0.00     0.089 C 
ATOM      7  C   UNL     1      -4.731  -3.644  15.946  1.00  0.00     0.158 C 
ATOM      8  O   UNL     1      -4.968  -3.169  17.089  1.00  0.00    -0.295 OA
ENDROOT
BRANCH   5   9
ATOM      9  C   UNL     1      -6.205  -6.192  13.449  1.00  0.00    -0.077 C 
ATOM     10  C   UNL     1      -7.353  -6.618  14.003  1.00  0.00     0.008 C 
ATOM     11  C   UNL     1      -5.609  -6.993  12.319  1.00  0.00     0.039 C 
ENDBRANCH   5   9
TORSDOF 1
ENDMDL
MODEL 6
REMARK VINA RESULT:    -4.812      1.504      2.102
REMARK INTER + INTRA:          -5.186
REMARK INTER:                  -5.093
REMARK INTRA:                  -0.093
REMARK UNBOUND:                -0.093
REMARK SMILES C=C(C)[C@@H]1CC=C(C)C(=O)C1
REMARK SMILES IDX 8 1 7 2 6 3 5 4 4 5 11 6 9 7 10 8 2 9 1 10 3 11
REMARK H PARENT
REMARK Flexibility Score: inf
ROOT
ATOM      1  C   UNL     1      -5.521  -7.112  11.357  1.00  0.00     0.048 C 
ATOM      2  C   UNL     1      -5.312  -6.192  12.527  1.00  0.00    -0.012 C 
ATOM      3  C   UNL     1      -4.237  -5.387  12.570  1.00  0.00    -0.019 C 
ATOM      4  C   UNL     1      -4.027  -4.392  13.681  1.00  0.00     0.036 C 
ATOM      5  C   UNL     1      -4.647  -4.891  15.000  1.00  0.00     0.025 C 
ATOM      6  C   UNL     1      -6.135  -5.232  14.796  1.00  0.00     0.089 C 
ATOM      7  C   UNL     1      -6.311  -6.159  13.625  1.00  0.00     0.158 C 
ATOM      8  O   UNL     1      -7.343  -6.879  13.562  1.00  0.00    -0.295 OA
ENDROOT
BRANCH   5   9
ATOM      9  C   UNL     1      -4.451  -3.887  16.129  1.00  0.00    -0.077 C 
ATOM     10  C   UNL     1      -4.440  -4.274  17.417  1.00  0.00     0.008 C 
ATOM     11  C   UNL     1      -4.266  -2.424  15.815  1.00  0.00     0.039 C 
ENDBRANCH   5   9
TORSDOF 1
ENDMDL
MODEL 7
REMARK VINA RESULT:    -4.730     12.205     13.793
REMARK INTER + INTRA:          -5.099
REMARK INTER:                  -5.006
REMARK INTRA:                  -0.094
REMARK UNBOUND:                -0.093
REMARK SMILES C=C(C)[C@@H]1CC=C(C)C(=O)C1
REMARK SMILES IDX 8 1 7 2 6 3 5 4 4 5 11 6 9 7 10 8 2 9 1 10 3 11
REMARK H PARENT
REMARK Flexibility Score: inf
ROOT
ATOM      1  C   UNL     1       3.097   6.736  18.165  1.00  0.00     0.048 C 
ATOM      2  C   UNL     1       1.773   6.483  18.832  1.00  0.00    -0.012 C 
ATOM      3  C   UNL     1       1.602   5.399  19.607  1.00  0.00    -0.019 C 
ATOM      4  C   UNL     1       0.322   5.146  20.358  1.00  0.00     0.036 C 
ATOM      5  C   UNL     1      -0.889   5.733  19.608  1.00  0.00     0.025 C 
ATOM      6  C   UNL     1      -0.666   7.230  19.321  1.00  0.00     0.089 C 
ATOM      7  C   UNL     1       0.661   7.449  18.648  1.00  0.00     0.158 C 
ATOM      8  O   UNL     1       0.835   8.491  17.960  1.00  0.00    -0.295 OA
ENDROOT
BRANCH   5   9
ATOM      9  C   UNL     1      -2.190   5.494  20.364  1.00  0.00    -0.077 C 
ATOM     10  C   UNL     1      -2.566   4.258  20.737  1.00  0.00     0.008 C 
ATOM     11  C   UNL     1      -3.086   6.655  20.709  1.00  0.00     0.039 C 
ENDBRANCH   5   9
TORSDOF 1
ENDMDL
MODEL 8
REMARK VINA RESULT:    -4.678     10.841     11.546
REMARK INTER + INTRA:          -5.044
REMARK INTER:                  -4.947
REMARK INTRA:                  -0.097
REMARK UNBOUND:                -0.093
REMARK SMILES C=C(C)[C@@H]1CC=C(C)C(=O)C1
REMARK SMILES IDX 8 1 7 2 6 3 5 4 4 5 11 6 9 7 10 8 2 9 1 10 3 11
REMARK H PARENT
REMARK Flexibility Score: inf
ROOT
ATOM      1  C   UNL     1      -1.481  -7.604   3.756  1.00  0.00     0.048 C 
ATOM      2  C   UNL     1      -2.737  -6.879   3.359  1.00  0.00    -0.012 C 
ATOM      3  C   UNL     1      -2.668  -5.764   2.612  1.00  0.00    -0.019 C 
ATOM      4  C   UNL     1      -3.900  -5.049   2.124  1.00  0.00     0.036 C 
ATOM      5  C   UNL     1      -5.071  -5.223   3.110  1.00  0.00     0.025 C 
ATOM      6  C   UNL     1      -5.329  -6.718   3.375  1.00  0.00     0.089 C 
ATOM      7  C   UNL     1      -4.057  -7.413   3.777  1.00  0.00     0.158 C 
ATOM      8  O   UNL     1      -4.126  -8.485   4.437  1.00  0.00    -0.295 OA
ENDROOT
BRANCH   5   9
ATOM      9  C   UNL     1      -6.328  -4.514   2.621  1.00  0.00    -0.077 C 
ATOM     10  C   UNL     1      -7.503  -5.161   2.523  1.00  0.00     0.008 C 
ATOM     11  C   UNL     1      -6.272  -3.059   2.233  1.00  0.00     0.039 C 
ENDBRANCH   5   9
TORSDOF 1
ENDMDL
MODEL 9
REMARK VINA RESULT:    -4.632      1.446      4.062
REMARK INTER + INTRA:          -4.996
REMARK INTER:                  -4.902
REMARK INTRA:                  -0.094
REMARK UNBOUND:                -0.093
REMARK SMILES C=C(C)[C@@H]1CC=C(C)C(=O)C1
REMARK SMILES IDX 8 1 7 2 6 3 5 4 4 5 11 6 9 7 10 8 2 9 1 10 3 11
REMARK H PARENT
REMARK Flexibility Score: inf
ROOT
ATOM      1  C   UNL     1      -3.171  -2.351  15.789  1.00  0.00     0.048 C 
ATOM      2  C   UNL     1      -3.947  -3.377  15.010  1.00  0.00    -0.012 C 
ATOM      3  C   UNL     1      -5.058  -3.923  15.531  1.00  0.00    -0.019 C 
ATOM      4  C   UNL     1      -5.911  -4.893  14.758  1.00  0.00     0.036 C 
ATOM      5  C   UNL     1      -5.063  -5.714  13.768  1.00  0.00     0.025 C 
ATOM      6  C   UNL     1      -4.262  -4.776  12.845  1.00  0.00     0.089 C 
ATOM      7  C   UNL     1      -3.492  -3.767  13.653  1.00  0.00     0.158 C 
ATOM      8  O   UNL     1      -2.476  -3.221  13.144  1.00  0.00    -0.295 OA
ENDROOT
BRANCH   5   9
ATOM      9  C   UNL     1      -5.917  -6.691  12.970  1.00  0.00    -0.077 C 
ATOM     10  C   UNL     1      -6.751  -7.551  13.580  1.00  0.00     0.008 C 
ATOM     11  C   UNL     1      -5.836  -6.710  11.465  1.00  0.00     0.039 C 
ENDBRANCH   5   9
TORSDOF 1
ENDMDL
