MODEL 1
REMARK VINA RESULT:    -7.780      0.000      0.000
REMARK INTER + INTRA:          -9.784
REMARK INTER:                  -9.372
REMARK INTRA:                  -0.412
REMARK UNBOUND:                -0.412
REMARK SMILES O=c1c(O)c(-c2ccc(O)cc2O)oc2cc(O)cc(O)c12
REMARK SMILES IDX 5 1 3 2 2 3 1 4 22 5 20 6 19 7 17 8 16 9 15 10 14 11 6 12
REMARK SMILES IDX 8 13 7 14 9 15 11 16 12 17 10 18 13 20 4 22 21 24 18 26
REMARK H PARENT 10 19 13 21 4 23 21 25 18 27
REMARK Flexibility Score: inf
ROOT
ATOM      1  C   UNL     1      27.707  -0.262  -5.693  1.00  0.00     0.184 A 
ATOM      2  C   UNL     1      28.655  -1.299  -5.668  1.00  0.00     0.208 A 
ATOM      3  C   UNL     1      30.020  -0.971  -5.670  1.00  0.00     0.238 A 
ATOM      4  O   UNL     1      30.880  -1.893  -5.659  1.00  0.00    -0.285 OA
ATOM      5  C   UNL     1      30.410   0.385  -5.675  1.00  0.00     0.111 A 
ATOM      6  C   UNL     1      31.762   0.802  -5.674  1.00  0.00     0.134 A 
ATOM      7  C   UNL     1      32.069   2.171  -5.671  1.00  0.00     0.093 A 
ATOM      8  C   UNL     1      31.052   3.128  -5.668  1.00  0.00     0.123 A 
ATOM      9  C   UNL     1      29.714   2.723  -5.671  1.00  0.00     0.094 A 
ATOM     10  C   UNL     1      29.387   1.364  -5.675  1.00  0.00     0.146 A 
ATOM     11  O   UNL     1      28.108   1.005  -5.681  1.00  0.00    -0.451 OA
ENDROOT
BRANCH   1  12
ATOM     12  C   UNL     1      26.256  -0.538  -5.703  1.00  0.00     0.063 A 
ATOM     13  C   UNL     1      24.229  -1.051  -4.462  1.00  0.00     0.047 A 
ATOM     14  C   UNL     1      25.601  -0.791  -4.487  1.00  0.00     0.020 A 
ATOM     15  C   UNL     1      23.490  -1.046  -5.647  1.00  0.00     0.119 A 
ATOM     16  C   UNL     1      24.128  -0.771  -6.863  1.00  0.00     0.093 A 
ATOM     17  C   UNL     1      25.505  -0.504  -6.897  1.00  0.00     0.130 A 
BRANCH  15  18
ATOM     18  O   UNL     1      22.123  -1.309  -5.606  1.00  0.00    -0.508 OA
ATOM     19  H   UNL     1      21.767  -2.257  -5.560  1.00  0.00     0.293 HD
ENDBRANCH  15  18
BRANCH  17  20
ATOM     20  O   UNL     1      26.120  -0.183  -8.108  1.00  0.00    -0.507 OA
ATOM     21  H   UNL     1      25.955   0.703  -8.570  1.00  0.00     0.293 HD
ENDBRANCH  17  20
ENDBRANCH   1  12
BRANCH   2  22
ATOM     22  O   UNL     1      28.238  -2.631  -5.617  1.00  0.00    -0.502 OA
ATOM     23  H   UNL     1      27.597  -2.973  -4.910  1.00  0.00     0.293 HD
ENDBRANCH   2  22
BRANCH   6  24
ATOM     24  O   UNL     1      32.801  -0.131  -5.676  1.00  0.00    -0.507 OA
ATOM     25  H   UNL     1      33.086  -0.612  -4.831  1.00  0.00     0.293 HD
ENDBRANCH   6  24
BRANCH   8  26
ATOM     26  O   UNL     1      31.384   4.482  -5.665  1.00  0.00    -0.508 OA
ATOM     27  H   UNL     1      31.838   4.914  -4.869  1.00  0.00     0.293 HD
ENDBRANCH   8  26
TORSDOF 6
ENDMDL
MODEL 2
REMARK VINA RESULT:    -7.685      2.838      8.166
REMARK INTER + INTRA:          -9.669
REMARK INTER:                  -9.246
REMARK INTRA:                  -0.423
REMARK UNBOUND:                -0.412
REMARK SMILES O=c1c(O)c(-c2ccc(O)cc2O)oc2cc(O)cc(O)c12
REMARK SMILES IDX 5 1 3 2 2 3 1 4 22 5 20 6 19 7 17 8 16 9 15 10 14 11 6 12
REMARK SMILES IDX 8 13 7 14 9 15 11 16 12 17 10 18 13 20 4 22 21 24 18 26
REMARK H PARENT 10 19 13 21 4 23 21 25 18 27
REMARK Flexibility Score: inf
ROOT
ATOM      1  C   UNL     1      32.902   0.286  -5.433  1.00  0.00     0.184 A 
ATOM      2  C   UNL     1      31.926   1.299  -5.436  1.00  0.00     0.208 A 
ATOM      3  C   UNL     1      30.575   0.938  -5.555  1.00  0.00     0.238 A 
ATOM      4  O   UNL     1      29.692   1.838  -5.571  1.00  0.00    -0.285 OA
ATOM      5  C   UNL     1      30.224  -0.424  -5.648  1.00  0.00     0.111 A 
ATOM      6  C   UNL     1      28.887  -0.873  -5.767  1.00  0.00     0.134 A 
ATOM      7  C   UNL     1      28.619  -2.248  -5.846  1.00  0.00     0.093 A 
ATOM      8  C   UNL     1      29.657  -3.180  -5.806  1.00  0.00     0.123 A 
ATOM      9  C   UNL     1      30.981  -2.744  -5.690  1.00  0.00     0.094 A 
ATOM     10  C   UNL     1      31.270  -1.378  -5.612  1.00  0.00     0.146 A 
ATOM     11  O   UNL     1      32.535  -0.989  -5.506  1.00  0.00    -0.451 OA
ENDROOT
BRANCH   1  12
ATOM     12  C   UNL     1      34.342   0.597  -5.322  1.00  0.00     0.063 A 
ATOM     13  C   UNL     1      36.218   1.282  -3.935  1.00  0.00     0.047 A 
ATOM     14  C   UNL     1      34.861   0.986  -4.076  1.00  0.00     0.020 A 
ATOM     15  C   UNL     1      37.078   1.180  -5.032  1.00  0.00     0.119 A 
ATOM     16  C   UNL     1      36.576   0.771  -6.273  1.00  0.00     0.093 A 
ATOM     17  C   UNL     1      35.214   0.466  -6.423  1.00  0.00     0.130 A 
BRANCH  15  18
ATOM     18  O   UNL     1      38.429   1.481  -4.877  1.00  0.00    -0.508 OA
ATOM     19  H   UNL     1      38.838   2.311  -5.290  1.00  0.00     0.293 HD
ENDBRANCH  15  18
BRANCH  17  20
ATOM     20  O   UNL     1      34.735   0.012  -7.652  1.00  0.00    -0.507 OA
ATOM     21  H   UNL     1      34.668  -0.975  -7.865  1.00  0.00     0.293 HD
ENDBRANCH  17  20
ENDBRANCH   1  12
BRANCH   2  22
ATOM     22  O   UNL     1      32.303   2.637  -5.297  1.00  0.00    -0.502 OA
ATOM     23  H   UNL     1      31.842   3.266  -4.650  1.00  0.00     0.293 HD
ENDBRANCH   2  22
BRANCH   6  24
ATOM     24  O   UNL     1      27.827   0.033  -5.808  1.00  0.00    -0.507 OA
ATOM     25  H   UNL     1      27.652   0.684  -5.051  1.00  0.00     0.293 HD
ENDBRANCH   6  24
BRANCH   8  26
ATOM     26  O   UNL     1      29.364  -4.540  -5.885  1.00  0.00    -0.508 OA
ATOM     27  H   UNL     1      28.964  -5.043  -5.102  1.00  0.00     0.293 HD
ENDBRANCH   8  26
TORSDOF 6
ENDMDL
MODEL 3
REMARK VINA RESULT:    -7.685      1.197      2.842
REMARK INTER + INTRA:          -9.669
REMARK INTER:                  -9.346
REMARK INTRA:                  -0.323
REMARK UNBOUND:                -0.412
REMARK SMILES O=c1c(O)c(-c2ccc(O)cc2O)oc2cc(O)cc(O)c12
REMARK SMILES IDX 5 1 3 2 2 3 1 4 22 5 20 6 19 7 17 8 16 9 15 10 14 11 6 12
REMARK SMILES IDX 8 13 7 14 9 15 11 16 12 17 10 18 13 20 4 22 21 24 18 26
REMARK H PARENT 10 19 13 21 4 23 21 25 18 27
REMARK Flexibility Score: inf
ROOT
ATOM      1  C   UNL     1      27.539   0.111  -5.635  1.00  0.00     0.184 A 
ATOM      2  C   UNL     1      27.858   1.476  -5.744  1.00  0.00     0.208 A 
ATOM      3  C   UNL     1      29.208   1.859  -5.741  1.00  0.00     0.238 A 
ATOM      4  O   UNL     1      29.506   3.082  -5.826  1.00  0.00    -0.285 OA
ATOM      5  C   UNL     1      30.211   0.873  -5.651  1.00  0.00     0.111 A 
ATOM      6  C   UNL     1      31.595   1.173  -5.644  1.00  0.00     0.134 A 
ATOM      7  C   UNL     1      32.533   0.133  -5.560  1.00  0.00     0.093 A 
ATOM      8  C   UNL     1      32.116  -1.197  -5.484  1.00  0.00     0.123 A 
ATOM      9  C   UNL     1      30.751  -1.501  -5.488  1.00  0.00     0.094 A 
ATOM     10  C   UNL     1      29.800  -0.479  -5.569  1.00  0.00     0.146 A 
ATOM     11  O   UNL     1      28.510  -0.794  -5.568  1.00  0.00    -0.451 OA
ENDROOT
BRANCH   1  12
ATOM     12  C   UNL     1      26.139  -0.360  -5.621  1.00  0.00     0.063 A 
ATOM     13  C   UNL     1      24.228  -1.154  -4.345  1.00  0.00     0.047 A 
ATOM     14  C   UNL     1      25.551  -0.710  -4.395  1.00  0.00     0.020 A 
ATOM     15  C   UNL     1      23.470  -1.240  -5.515  1.00  0.00     0.119 A 
ATOM     16  C   UNL     1      24.039  -0.871  -6.741  1.00  0.00     0.093 A 
ATOM     17  C   UNL     1      25.365  -0.419  -6.799  1.00  0.00     0.130 A 
BRANCH  15  18
ATOM     18  O   UNL     1      22.152  -1.688  -5.450  1.00  0.00    -0.508 OA
ATOM     19  H   UNL     1      21.639  -1.950  -6.284  1.00  0.00     0.293 HD
ENDBRANCH  15  18
BRANCH  17  20
ATOM     20  O   UNL     1      25.906  -0.007  -8.018  1.00  0.00    -0.507 OA
ATOM     21  H   UNL     1      25.671  -0.471  -8.887  1.00  0.00     0.293 HD
ENDBRANCH  17  20
ENDBRANCH   1  12
BRANCH   2  22
ATOM     22  O   UNL     1      26.842   2.426  -5.877  1.00  0.00    -0.502 OA
ATOM     23  H   UNL     1      27.034   3.404  -6.054  1.00  0.00     0.293 HD
ENDBRANCH   2  22
BRANCH   6  24
ATOM     24  O   UNL     1      32.043   2.493  -5.721  1.00  0.00    -0.507 OA
ATOM     25  H   UNL     1      31.549   3.193  -6.263  1.00  0.00     0.293 HD
ENDBRANCH   6  24
BRANCH   8  26
ATOM     26  O   UNL     1      33.068  -2.212  -5.402  1.00  0.00    -0.508 OA
ATOM     27  H   UNL     1      33.976  -2.123  -5.842  1.00  0.00     0.293 HD
ENDBRANCH   8  26
TORSDOF 6
ENDMDL
MODEL 4
REMARK VINA RESULT:    -7.619      2.123      3.189
REMARK INTER + INTRA:          -9.590
REMARK INTER:                  -9.171
REMARK INTRA:                  -0.419
REMARK UNBOUND:                -0.412
REMARK SMILES O=c1c(O)c(-c2ccc(O)cc2O)oc2cc(O)cc(O)c12
REMARK SMILES IDX 5 1 3 2 2 3 1 4 22 5 20 6 19 7 17 8 16 9 15 10 14 11 6 12
REMARK SMILES IDX 8 13 7 14 9 15 11 16 12 17 10 18 13 20 4 22 21 24 18 26
REMARK H PARENT 10 19 13 21 4 23 21 25 18 27
REMARK Flexibility Score: inf
ROOT
ATOM      1  C   UNL     1      29.450   0.524  -6.243  1.00  0.00     0.184 A 
ATOM      2  C   UNL     1      29.813   0.506  -7.601  1.00  0.00     0.208 A 
ATOM      3  C   UNL     1      31.172   0.593  -7.941  1.00  0.00     0.238 A 
ATOM      4  O   UNL     1      31.510   0.590  -9.156  1.00  0.00    -0.285 OA
ATOM      5  C   UNL     1      32.141   0.673  -6.920  1.00  0.00     0.111 A 
ATOM      6  C   UNL     1      33.531   0.760  -7.175  1.00  0.00     0.134 A 
ATOM      7  C   UNL     1      34.433   0.828  -6.103  1.00  0.00     0.093 A 
ATOM      8  C   UNL     1      33.975   0.811  -4.785  1.00  0.00     0.123 A 
ATOM      9  C   UNL     1      32.603   0.727  -4.524  1.00  0.00     0.094 A 
ATOM     10  C   UNL     1      31.687   0.660  -5.579  1.00  0.00     0.146 A 
ATOM     11  O   UNL     1      30.390   0.584  -5.305  1.00  0.00    -0.451 OA
ENDROOT
BRANCH   1  12
ATOM     12  C   UNL     1      28.038   0.448  -5.817  1.00  0.00     0.063 A 
ATOM     13  C   UNL     1      25.867   1.525  -5.617  1.00  0.00     0.047 A 
ATOM     14  C   UNL     1      27.208   1.565  -6.004  1.00  0.00     0.020 A 
ATOM     15  C   UNL     1      25.332   0.365  -5.052  1.00  0.00     0.119 A 
ATOM     16  C   UNL     1      26.144  -0.763  -4.881  1.00  0.00     0.093 A 
ATOM     17  C   UNL     1      27.491  -0.734  -5.272  1.00  0.00     0.130 A 
BRANCH  15  18
ATOM     18  O   UNL     1      23.994   0.341  -4.667  1.00  0.00    -0.508 OA
ATOM     19  H   UNL     1      23.312   0.965  -5.083  1.00  0.00     0.293 HD
ENDBRANCH  15  18
BRANCH  17  20
ATOM     20  O   UNL     1      28.277  -1.880  -5.143  1.00  0.00    -0.507 OA
ATOM     21  H   UNL     1      29.283  -1.825  -5.037  1.00  0.00     0.293 HD
ENDBRANCH  17  20
ENDBRANCH   1  12
BRANCH   2  22
ATOM     22  O   UNL     1      28.833   0.380  -8.588  1.00  0.00    -0.502 OA
ATOM     23  H   UNL     1      27.843   0.436  -8.381  1.00  0.00     0.293 HD
ENDBRANCH   2  22
BRANCH   6  24
ATOM     24  O   UNL     1      34.020   0.778  -8.482  1.00  0.00    -0.507 OA
ATOM     25  H   UNL     1      34.830   0.233  -8.756  1.00  0.00     0.293 HD
ENDBRANCH   6  24
BRANCH   8  26
ATOM     26  O   UNL     1      34.892   0.879  -3.737  1.00  0.00    -0.508 OA
ATOM     27  H   UNL     1      35.877   1.045  -3.905  1.00  0.00     0.293 HD
ENDBRANCH   8  26
TORSDOF 6
ENDMDL
MODEL 5
REMARK VINA RESULT:    -7.611      2.910      7.782
REMARK INTER + INTRA:          -9.580
REMARK INTER:                  -9.245
REMARK INTRA:                  -0.336
REMARK UNBOUND:                -0.412
REMARK SMILES O=c1c(O)c(-c2ccc(O)cc2O)oc2cc(O)cc(O)c12
REMARK SMILES IDX 5 1 3 2 2 3 1 4 22 5 20 6 19 7 17 8 16 9 15 10 14 11 6 12
REMARK SMILES IDX 8 13 7 14 9 15 11 16 12 17 10 18 13 20 4 22 21 24 18 26
REMARK H PARENT 10 19 13 21 4 23 21 25 18 27
REMARK Flexibility Score: inf
ROOT
ATOM      1  C   UNL     1      33.243   0.152  -5.369  1.00  0.00     0.184 A 
ATOM      2  C   UNL     1      32.919  -1.211  -5.482  1.00  0.00     0.208 A 
ATOM      3  C   UNL     1      31.573  -1.577  -5.635  1.00  0.00     0.238 A 
ATOM      4  O   UNL     1      31.268  -2.797  -5.726  1.00  0.00    -0.285 OA
ATOM      5  C   UNL     1      30.581  -0.576  -5.693  1.00  0.00     0.111 A 
ATOM      6  C   UNL     1      29.203  -0.858  -5.848  1.00  0.00     0.134 A 
ATOM      7  C   UNL     1      28.279   0.195  -5.905  1.00  0.00     0.093 A 
ATOM      8  C   UNL     1      28.704   1.521  -5.811  1.00  0.00     0.123 A 
ATOM      9  C   UNL     1      30.063   1.808  -5.656  1.00  0.00     0.094 A 
ATOM     10  C   UNL     1      31.001   0.773  -5.595  1.00  0.00     0.146 A 
ATOM     11  O   UNL     1      32.286   1.071  -5.443  1.00  0.00    -0.451 OA
ENDROOT
BRANCH   1  12
ATOM     12  C   UNL     1      34.639   0.606  -5.195  1.00  0.00     0.063 A 
ATOM     13  C   UNL     1      36.382   1.443  -3.721  1.00  0.00     0.047 A 
ATOM     14  C   UNL     1      35.069   1.014  -3.922  1.00  0.00     0.020 A 
ATOM     15  C   UNL     1      37.288   1.457  -4.785  1.00  0.00     0.119 A 
ATOM     16  C   UNL     1      36.877   1.030  -6.054  1.00  0.00     0.093 A 
ATOM     17  C   UNL     1      35.560   0.592  -6.263  1.00  0.00     0.130 A 
BRANCH  15  18
ATOM     18  O   UNL     1      38.594   1.891  -4.571  1.00  0.00    -0.508 OA
ATOM     19  H   UNL     1      38.826   2.518  -3.809  1.00  0.00     0.293 HD
ENDBRANCH  15  18
BRANCH  17  20
ATOM     20  O   UNL     1      35.176   0.123  -7.520  1.00  0.00    -0.507 OA
ATOM     21  H   UNL     1      34.965   0.755  -8.282  1.00  0.00     0.293 HD
ENDBRANCH  17  20
ENDBRANCH   1  12
BRANCH   2  22
ATOM     22  O   UNL     1      33.929  -2.177  -5.467  1.00  0.00    -0.502 OA
ATOM     23  H   UNL     1      34.910  -1.937  -5.536  1.00  0.00     0.293 HD
ENDBRANCH   2  22
BRANCH   6  24
ATOM     24  O   UNL     1      28.747  -2.174  -5.947  1.00  0.00    -0.507 OA
ATOM     25  H   UNL     1      28.451  -2.698  -5.131  1.00  0.00     0.293 HD
ENDBRANCH   6  24
BRANCH   8  26
ATOM     26  O   UNL     1      27.765   2.550  -5.871  1.00  0.00    -0.508 OA
ATOM     27  H   UNL     1      27.271   2.867  -5.045  1.00  0.00     0.293 HD
ENDBRANCH   8  26
TORSDOF 6
ENDMDL
MODEL 6
REMARK VINA RESULT:    -7.567      2.325      7.025
REMARK INTER + INTRA:          -9.527
REMARK INTER:                  -9.119
REMARK INTRA:                  -0.408
REMARK UNBOUND:                -0.412
REMARK SMILES O=c1c(O)c(-c2ccc(O)cc2O)oc2cc(O)cc(O)c12
REMARK SMILES IDX 5 1 3 2 2 3 1 4 22 5 20 6 19 7 17 8 16 9 15 10 14 11 6 12
REMARK SMILES IDX 8 13 7 14 9 15 11 16 12 17 10 18 13 20 4 22 21 24 18 26
REMARK H PARENT 10 19 13 21 4 23 21 25 18 27
REMARK Flexibility Score: inf
ROOT
ATOM      1  C   UNL     1      30.992  -0.481  -6.134  1.00  0.00     0.184 A 
ATOM      2  C   UNL     1      30.732  -0.506  -7.515  1.00  0.00     0.208 A 
ATOM      3  C   UNL     1      29.400  -0.584  -7.953  1.00  0.00     0.238 A 
ATOM      4  O   UNL     1      29.154  -0.619  -9.189  1.00  0.00    -0.285 OA
ATOM      5  C   UNL     1      28.357  -0.614  -7.004  1.00  0.00     0.111 A 
ATOM      6  C   UNL     1      26.989  -0.689  -7.360  1.00  0.00     0.134 A 
ATOM      7  C   UNL     1      26.009  -0.706  -6.356  1.00  0.00     0.093 A 
ATOM      8  C   UNL     1      26.368  -0.650  -5.008  1.00  0.00     0.123 A 
ATOM      9  C   UNL     1      27.718  -0.577  -4.650  1.00  0.00     0.094 A 
ATOM     10  C   UNL     1      28.710  -0.560  -5.634  1.00  0.00     0.146 A 
ATOM     11  O   UNL     1      29.985  -0.495  -5.267  1.00  0.00    -0.451 OA
ENDROOT
BRANCH   1  12
ATOM     12  C   UNL     1      32.371  -0.411  -5.606  1.00  0.00     0.063 A 
ATOM     13  C   UNL     1      34.522  -1.491  -5.267  1.00  0.00     0.047 A 
ATOM     14  C   UNL     1      33.213  -1.526  -5.750  1.00  0.00     0.020 A 
ATOM     15  C   UNL     1      35.014  -0.340  -4.648  1.00  0.00     0.119 A 
ATOM     16  C   UNL     1      34.191   0.786  -4.520  1.00  0.00     0.093 A 
ATOM     17  C   UNL     1      32.875   0.762  -5.007  1.00  0.00     0.130 A 
BRANCH  15  18
ATOM     18  O   UNL     1      36.321  -0.321  -4.169  1.00  0.00    -0.508 OA
ATOM     19  H   UNL     1      36.666  -1.038  -3.540  1.00  0.00     0.293 HD
ENDBRANCH  15  18
BRANCH  17  20
ATOM     20  O   UNL     1      32.081   1.906  -4.918  1.00  0.00    -0.507 OA
ATOM     21  H   UNL     1      32.159   2.548  -4.139  1.00  0.00     0.293 HD
ENDBRANCH  17  20
ENDBRANCH   1  12
BRANCH   2  22
ATOM     22  O   UNL     1      31.784  -0.429  -8.431  1.00  0.00    -0.502 OA
ATOM     23  H   UNL     1      31.638  -0.480  -9.432  1.00  0.00     0.293 HD
ENDBRANCH   2  22
BRANCH   6  24
ATOM     24  O   UNL     1      26.597  -0.746  -8.698  1.00  0.00    -0.507 OA
ATOM     25  H   UNL     1      26.927  -0.071  -9.379  1.00  0.00     0.293 HD
ENDBRANCH   6  24
BRANCH   8  26
ATOM     26  O   UNL     1      25.375  -0.668  -4.031  1.00  0.00    -0.508 OA
ATOM     27  H   UNL     1      24.842  -1.506  -3.831  1.00  0.00     0.293 HD
ENDBRANCH   8  26
TORSDOF 6
ENDMDL
MODEL 7
REMARK VINA RESULT:    -7.491      3.409      8.346
REMARK INTER + INTRA:          -9.435
REMARK INTER:                  -9.097
REMARK INTRA:                  -0.338
REMARK UNBOUND:                -0.412
REMARK SMILES O=c1c(O)c(-c2ccc(O)cc2O)oc2cc(O)cc(O)c12
REMARK SMILES IDX 5 1 3 2 2 3 1 4 22 5 20 6 19 7 17 8 16 9 15 10 14 11 6 12
REMARK SMILES IDX 8 13 7 14 9 15 11 16 12 17 10 18 13 20 4 22 21 24 18 26
REMARK H PARENT 10 19 13 21 4 23 21 25 18 27
REMARK Flexibility Score: inf
ROOT
ATOM      1  C   UNL     1      33.237  -0.254  -6.091  1.00  0.00     0.184 A 
ATOM      2  C   UNL     1      32.226   0.257  -5.259  1.00  0.00     0.208 A 
ATOM      3  C   UNL     1      30.885  -0.010  -5.579  1.00  0.00     0.238 A 
ATOM      4  O   UNL     1      29.968   0.452  -4.848  1.00  0.00    -0.285 OA
ATOM      5  C   UNL     1      30.584  -0.798  -6.709  1.00  0.00     0.111 A 
ATOM      6  C   UNL     1      29.261  -1.117  -7.101  1.00  0.00     0.134 A 
ATOM      7  C   UNL     1      29.044  -1.915  -8.234  1.00  0.00     0.093 A 
ATOM      8  C   UNL     1      30.119  -2.399  -8.981  1.00  0.00     0.123 A 
ATOM      9  C   UNL     1      31.428  -2.086  -8.602  1.00  0.00     0.094 A 
ATOM     10  C   UNL     1      31.667  -1.292  -7.476  1.00  0.00     0.146 A 
ATOM     11  O   UNL     1      32.919  -1.006  -7.139  1.00  0.00    -0.451 OA
ENDROOT
BRANCH   1  12
ATOM     12  C   UNL     1      34.667  -0.001  -5.818  1.00  0.00     0.063 A 
ATOM     13  C   UNL     1      36.712   1.185  -6.386  1.00  0.00     0.047 A 
ATOM     14  C   UNL     1      35.362   0.919  -6.620  1.00  0.00     0.020 A 
ATOM     15  C   UNL     1      37.384   0.548  -5.339  1.00  0.00     0.119 A 
ATOM     16  C   UNL     1      36.695  -0.353  -4.517  1.00  0.00     0.093 A 
ATOM     17  C   UNL     1      35.337  -0.622  -4.742  1.00  0.00     0.130 A 
BRANCH  15  18
ATOM     18  O   UNL     1      38.732   0.822  -5.119  1.00  0.00    -0.508 OA
ATOM     19  H   UNL     1      39.170   1.659  -5.486  1.00  0.00     0.293 HD
ENDBRANCH  15  18
BRANCH  17  20
ATOM     20  O   UNL     1      34.649  -1.485  -3.887  1.00  0.00    -0.507 OA
ATOM     21  H   UNL     1      35.135  -2.071  -3.220  1.00  0.00     0.293 HD
ENDBRANCH  17  20
ENDBRANCH   1  12
BRANCH   2  22
ATOM     22  O   UNL     1      32.558   0.996  -4.121  1.00  0.00    -0.502 OA
ATOM     23  H   UNL     1      31.940   1.068  -3.322  1.00  0.00     0.293 HD
ENDBRANCH   2  22
BRANCH   6  24
ATOM     24  O   UNL     1      28.165  -0.649  -6.374  1.00  0.00    -0.507 OA
ATOM     25  H   UNL     1      27.227  -0.994  -6.543  1.00  0.00     0.293 HD
ENDBRANCH   6  24
BRANCH   8  26
ATOM     26  O   UNL     1      29.876  -3.190 -10.103  1.00  0.00    -0.508 OA
ATOM     27  H   UNL     1      30.312  -4.097 -10.217  1.00  0.00     0.293 HD
ENDBRANCH   8  26
TORSDOF 6
ENDMDL
MODEL 8
REMARK VINA RESULT:    -7.455      2.316      3.516
REMARK INTER + INTRA:          -9.392
REMARK INTER:                  -8.964
REMARK INTRA:                  -0.428
REMARK UNBOUND:                -0.412
REMARK SMILES O=c1c(O)c(-c2ccc(O)cc2O)oc2cc(O)cc(O)c12
REMARK SMILES IDX 5 1 3 2 2 3 1 4 22 5 20 6 19 7 17 8 16 9 15 10 14 11 6 12
REMARK SMILES IDX 8 13 7 14 9 15 11 16 12 17 10 18 13 20 4 22 21 24 18 26
REMARK H PARENT 10 19 13 21 4 23 21 25 18 27
REMARK Flexibility Score: inf
ROOT
ATOM      1  C   UNL     1      30.224   0.153  -6.159  1.00  0.00     0.184 A 
ATOM      2  C   UNL     1      30.634  -0.140  -7.472  1.00  0.00     0.208 A 
ATOM      3  C   UNL     1      32.003  -0.107  -7.778  1.00  0.00     0.238 A 
ATOM      4  O   UNL     1      32.382  -0.357  -8.955  1.00  0.00    -0.285 OA
ATOM      5  C   UNL     1      32.936   0.196  -6.765  1.00  0.00     0.111 A 
ATOM      6  C   UNL     1      34.333   0.246  -6.987  1.00  0.00     0.134 A 
ATOM      7  C   UNL     1      35.197   0.546  -5.924  1.00  0.00     0.093 A 
ATOM      8  C   UNL     1      34.694   0.795  -4.646  1.00  0.00     0.123 A 
ATOM      9  C   UNL     1      33.315   0.749  -4.419  1.00  0.00     0.094 A 
ATOM     10  C   UNL     1      32.436   0.453  -5.465  1.00  0.00     0.146 A 
ATOM     11  O   UNL     1      31.131   0.419  -5.224  1.00  0.00    -0.451 OA
ENDROOT
BRANCH   1  12
ATOM     12  C   UNL     1      28.799   0.148  -5.772  1.00  0.00     0.063 A 
ATOM     13  C   UNL     1      26.800  -1.122  -5.222  1.00  0.00     0.047 A 
ATOM     14  C   UNL     1      28.146  -1.082  -5.592  1.00  0.00     0.020 A 
ATOM     15  C   UNL     1      26.092   0.063  -5.012  1.00  0.00     0.119 A 
ATOM     16  C   UNL     1      26.739   1.296  -5.165  1.00  0.00     0.093 A 
ATOM     17  C   UNL     1      28.093   1.346  -5.532  1.00  0.00     0.130 A 
BRANCH  15  18
ATOM     18  O   UNL     1      24.750   0.007  -4.646  1.00  0.00    -0.508 OA
ATOM     19  H   UNL     1      24.259  -0.876  -4.563  1.00  0.00     0.293 HD
ENDBRANCH  15  18
BRANCH  17  20
ATOM     20  O   UNL     1      28.739   2.578  -5.634  1.00  0.00    -0.507 OA
ATOM     21  H   UNL     1      29.679   2.716  -5.282  1.00  0.00     0.293 HD
ENDBRANCH  17  20
ENDBRANCH   1  12
BRANCH   2  22
ATOM     22  O   UNL     1      29.689  -0.480  -8.443  1.00  0.00    -0.502 OA
ATOM     23  H   UNL     1      29.700  -0.081  -9.374  1.00  0.00     0.293 HD
ENDBRANCH   2  22
BRANCH   6  24
ATOM     24  O   UNL     1      34.867   0.000  -8.253  1.00  0.00    -0.507 OA
ATOM     25  H   UNL     1      34.577   0.531  -9.066  1.00  0.00     0.293 HD
ENDBRANCH   6  24
BRANCH   8  26
ATOM     26  O   UNL     1      35.574   1.091  -3.606  1.00  0.00    -0.508 OA
ATOM     27  H   UNL     1      35.277   1.615  -2.792  1.00  0.00     0.293 HD
ENDBRANCH   8  26
TORSDOF 6
ENDMDL
MODEL 9
REMARK VINA RESULT:    -7.282      3.086      7.238
REMARK INTER + INTRA:          -9.183
REMARK INTER:                  -8.779
REMARK INTRA:                  -0.405
REMARK UNBOUND:                -0.412
REMARK SMILES O=c1c(O)c(-c2ccc(O)cc2O)oc2cc(O)cc(O)c12
REMARK SMILES IDX 5 1 3 2 2 3 1 4 22 5 20 6 19 7 17 8 16 9 15 10 14 11 6 12
REMARK SMILES IDX 8 13 7 14 9 15 11 16 12 17 10 18 13 20 4 22 21 24 18 26
REMARK H PARENT 10 19 13 21 4 23 21 25 18 27
REMARK Flexibility Score: inf
ROOT
ATOM      1  C   UNL     1      31.879  -0.304  -7.095  1.00  0.00     0.184 A 
ATOM      2  C   UNL     1      31.744  -1.221  -8.152  1.00  0.00     0.208 A 
ATOM      3  C   UNL     1      30.489  -1.376  -8.760  1.00  0.00     0.238 A 
ATOM      4  O   UNL     1      30.352  -2.204  -9.701  1.00  0.00    -0.285 OA
ATOM      5  C   UNL     1      29.399  -0.598  -8.315  1.00  0.00     0.111 A 
ATOM      6  C   UNL     1      28.103  -0.690  -8.875  1.00  0.00     0.134 A 
ATOM      7  C   UNL     1      27.073   0.126  -8.382  1.00  0.00     0.093 A 
ATOM      8  C   UNL     1      27.313   1.028  -7.345  1.00  0.00     0.123 A 
ATOM      9  C   UNL     1      28.592   1.123  -6.786  1.00  0.00     0.094 A 
ATOM     10  C   UNL     1      29.632   0.319  -7.262  1.00  0.00     0.146 A 
ATOM     11  O   UNL     1      30.836   0.425  -6.712  1.00  0.00    -0.451 OA
ENDROOT
BRANCH   1  12
ATOM     12  C   UNL     1      33.169  -0.100  -6.405  1.00  0.00     0.063 A 
ATOM     13  C   UNL     1      35.445   0.754  -6.464  1.00  0.00     0.047 A 
ATOM     14  C   UNL     1      34.214   0.541  -7.089  1.00  0.00     0.020 A 
ATOM     15  C   UNL     1      35.643   0.344  -5.143  1.00  0.00     0.119 A 
ATOM     16  C   UNL     1      34.600  -0.275  -4.443  1.00  0.00     0.093 A 
ATOM     17  C   UNL     1      33.359  -0.488  -5.062  1.00  0.00     0.130 A 
BRANCH  15  18
ATOM     18  O   UNL     1      36.877   0.560  -4.534  1.00  0.00    -0.508 OA
ATOM     19  H   UNL     1      37.723   0.683  -5.078  1.00  0.00     0.293 HD
ENDBRANCH  15  18
BRANCH  17  20
ATOM     20  O   UNL     1      32.312  -1.062  -4.339  1.00  0.00    -0.507 OA
ATOM     21  H   UNL     1      31.444  -1.333  -4.784  1.00  0.00     0.293 HD
ENDBRANCH  17  20
ENDBRANCH   1  12
BRANCH   2  22
ATOM     22  O   UNL     1      32.853  -1.944  -8.600  1.00  0.00    -0.502 OA
ATOM     23  H   UNL     1      32.800  -2.929  -8.832  1.00  0.00     0.293 HD
ENDBRANCH   2  22
BRANCH   6  24
ATOM     24  O   UNL     1      27.831  -1.582  -9.913  1.00  0.00    -0.507 OA
ATOM     25  H   UNL     1      28.384  -2.419 -10.055  1.00  0.00     0.293 HD
ENDBRANCH   6  24
BRANCH   8  26
ATOM     26  O   UNL     1      26.273   1.828  -6.874  1.00  0.00    -0.508 OA
ATOM     27  H   UNL     1      26.369   2.834  -6.800  1.00  0.00     0.293 HD
ENDBRANCH   8  26
TORSDOF 6
ENDMDL
