MODEL 1
REMARK VINA RESULT:    -8.147      0.000      0.000
REMARK INTER + INTRA:         -10.296
REMARK INTER:                 -10.052
REMARK INTRA:                  -0.244
REMARK UNBOUND:                -0.244
REMARK SMILES O=c1c(O)c(-c2cc(O)c(O)c(O)c2)oc2cc(O)cc(O)c12
REMARK SMILES IDX 5 1 3 2 2 3 1 4 23 5 21 6 20 7 18 8 17 9 16 10 15 11 6 12
REMARK SMILES IDX 7 13 8 14 14 15 10 16 12 17 9 18 11 20 13 22 4 24 22 26
REMARK SMILES IDX 19 28
REMARK H PARENT 9 19 11 21 13 23 4 25 22 27 19 29
REMARK Flexibility Score: inf
ROOT
ATOM      1  C   UNL     1       0.696 102.537   7.775  1.00  0.00     0.180 A 
ATOM      2  C   UNL     1       1.045 101.196   8.006  1.00  0.00     0.208 A 
ATOM      3  C   UNL     1       0.720 100.610   9.241  1.00  0.00     0.238 A 
ATOM      4  O   UNL     1       1.083  99.426   9.464  1.00  0.00    -0.285 OA
ATOM      5  C   UNL     1       0.038 101.370  10.222  1.00  0.00     0.111 A 
ATOM      6  C   UNL     1      -0.376 100.867  11.493  1.00  0.00     0.134 A 
ATOM      7  C   UNL     1      -0.928 101.743  12.435  1.00  0.00     0.093 A 
ATOM      8  C   UNL     1      -1.141 103.090  12.129  1.00  0.00     0.123 A 
ATOM      9  C   UNL     1      -0.795 103.576  10.871  1.00  0.00     0.094 A 
ATOM     10  C   UNL     1      -0.209 102.734   9.922  1.00  0.00     0.146 A 
ATOM     11  O   UNL     1       0.114 103.241   8.739  1.00  0.00    -0.452 OA
ENDROOT
BRANCH   1  12
ATOM     12  C   UNL     1       0.983 103.214   6.489  1.00  0.00     0.029 A 
ATOM     13  C   UNL     1       0.343 102.827   5.301  1.00  0.00     0.062 A 
ATOM     14  C   UNL     1       0.602 103.490   4.096  1.00  0.00     0.162 A 
ATOM     15  C   UNL     1       1.864 104.302   6.464  1.00  0.00     0.062 A 
ATOM     16  C   UNL     1       1.515 104.571   4.073  1.00  0.00     0.200 A 
ATOM     17  C   UNL     1       2.138 104.973   5.269  1.00  0.00     0.162 A 
BRANCH  14  18
ATOM     18  O   UNL     1      -0.073 103.047   2.955  1.00  0.00    -0.504 OA
ATOM     19  H   UNL     1      -1.011 103.324   2.708  1.00  0.00     0.293 HD
ENDBRANCH  14  18
BRANCH  16  20
ATOM     20  O   UNL     1       1.823 105.262   2.898  1.00  0.00    -0.502 OA
ATOM     21  H   UNL     1       2.400 106.089   2.860  1.00  0.00     0.293 HD
ENDBRANCH  16  20
BRANCH  17  22
ATOM     22  O   UNL     1       3.036 106.040   5.290  1.00  0.00    -0.504 OA
ATOM     23  H   UNL     1       2.878 106.869   5.851  1.00  0.00     0.293 HD
ENDBRANCH  17  22
ENDBRANCH   1  12
BRANCH   2  24
ATOM     24  O   UNL     1       1.738 100.470   7.032  1.00  0.00    -0.502 OA
ATOM     25  H   UNL     1       2.052  99.520   7.183  1.00  0.00     0.293 HD
ENDBRANCH   2  24
BRANCH   6  26
ATOM     26  O   UNL     1      -0.293  99.523  11.864  1.00  0.00    -0.507 OA
ATOM     27  H   UNL     1       0.506  99.097  12.311  1.00  0.00     0.293 HD
ENDBRANCH   6  26
BRANCH   8  28
ATOM     28  O   UNL     1      -1.705 103.951  13.068  1.00  0.00    -0.508 OA
ATOM     29  H   UNL     1      -2.279 104.738  12.788  1.00  0.00     0.293 HD
ENDBRANCH   8  28
TORSDOF 7
ENDMDL
MODEL 2
REMARK VINA RESULT:    -8.037      0.275      1.787
REMARK INTER + INTRA:         -10.160
REMARK INTER:                  -9.948
REMARK INTRA:                  -0.212
REMARK UNBOUND:                -0.244
REMARK SMILES O=c1c(O)c(-c2cc(O)c(O)c(O)c2)oc2cc(O)cc(O)c12
REMARK SMILES IDX 5 1 3 2 2 3 1 4 23 5 21 6 20 7 18 8 17 9 16 10 15 11 6 12
REMARK SMILES IDX 7 13 8 14 14 15 10 16 12 17 9 18 11 20 13 22 4 24 22 26
REMARK SMILES IDX 19 28
REMARK H PARENT 9 19 11 21 13 23 4 25 22 27 19 29
REMARK Flexibility Score: inf
ROOT
ATOM      1  C   UNL     1       0.897 102.578   7.678  1.00  0.00     0.180 A 
ATOM      2  C   UNL     1       1.224 101.229   7.897  1.00  0.00     0.208 A 
ATOM      3  C   UNL     1       0.851 100.625   9.109  1.00  0.00     0.238 A 
ATOM      4  O   UNL     1       1.193  99.433   9.321  1.00  0.00    -0.285 OA
ATOM      5  C   UNL     1       0.143 101.374  10.080  1.00  0.00     0.111 A 
ATOM      6  C   UNL     1      -0.319 100.853  11.326  1.00  0.00     0.134 A 
ATOM      7  C   UNL     1      -0.893 101.718  12.265  1.00  0.00     0.093 A 
ATOM      8  C   UNL     1      -1.082 103.072  11.978  1.00  0.00     0.123 A 
ATOM      9  C   UNL     1      -0.688 103.578  10.741  1.00  0.00     0.094 A 
ATOM     10  C   UNL     1      -0.079 102.747   9.797  1.00  0.00     0.146 A 
ATOM     11  O   UNL     1       0.290 103.271   8.635  1.00  0.00    -0.452 OA
ENDROOT
BRANCH   1  12
ATOM     12  C   UNL     1       1.234 103.276   6.416  1.00  0.00     0.029 A 
ATOM     13  C   UNL     1       2.194 104.299   6.382  1.00  0.00     0.062 A 
ATOM     14  C   UNL     1       2.524 104.937   5.180  1.00  0.00     0.162 A 
ATOM     15  C   UNL     1       0.629 102.870   5.220  1.00  0.00     0.062 A 
ATOM     16  C   UNL     1       1.887 104.540   3.979  1.00  0.00     0.200 A 
ATOM     17  C   UNL     1       0.943 103.498   4.011  1.00  0.00     0.162 A 
BRANCH  14  18
ATOM     18  O   UNL     1       3.488 105.947   5.225  1.00  0.00    -0.504 OA
ATOM     19  H   UNL     1       4.473 105.797   5.065  1.00  0.00     0.293 HD
ENDBRANCH  14  18
BRANCH  16  20
ATOM     20  O   UNL     1       2.166 105.147   2.752  1.00  0.00    -0.502 OA
ATOM     21  H   UNL     1       2.088 104.683   1.858  1.00  0.00     0.293 HD
ENDBRANCH  16  20
BRANCH  17  22
ATOM     22  O   UNL     1       0.301 103.070   2.849  1.00  0.00    -0.504 OA
ATOM     23  H   UNL     1      -0.170 103.713   2.223  1.00  0.00     0.293 HD
ENDBRANCH  17  22
ENDBRANCH   1  12
BRANCH   2  24
ATOM     24  O   UNL     1       1.941 100.514   6.933  1.00  0.00    -0.502 OA
ATOM     25  H   UNL     1       1.870  99.509   6.837  1.00  0.00     0.293 HD
ENDBRANCH   2  24
BRANCH   6  26
ATOM     26  O   UNL     1      -0.263  99.501  11.675  1.00  0.00    -0.507 OA
ATOM     27  H   UNL     1      -0.852  98.781  11.283  1.00  0.00     0.293 HD
ENDBRANCH   6  26
BRANCH   8  28
ATOM     28  O   UNL     1      -1.669 103.922  12.912  1.00  0.00    -0.508 OA
ATOM     29  H   UNL     1      -1.202 104.763  13.231  1.00  0.00     0.293 HD
ENDBRANCH   8  28
TORSDOF 7
ENDMDL
MODEL 3
REMARK VINA RESULT:    -7.984      4.078      6.967
REMARK INTER + INTRA:         -10.095
REMARK INTER:                  -9.754
REMARK INTRA:                  -0.341
REMARK UNBOUND:                -0.244
REMARK SMILES O=c1c(O)c(-c2cc(O)c(O)c(O)c2)oc2cc(O)cc(O)c12
REMARK SMILES IDX 5 1 3 2 2 3 1 4 23 5 21 6 20 7 18 8 17 9 16 10 15 11 6 12
REMARK SMILES IDX 7 13 8 14 14 15 10 16 12 17 9 18 11 20 13 22 4 24 22 26
REMARK SMILES IDX 19 28
REMARK H PARENT 9 19 11 21 13 23 4 25 22 27 19 29
REMARK Flexibility Score: inf
ROOT
ATOM      1  C   UNL     1      -0.488  98.526  11.303  1.00  0.00     0.180 A 
ATOM      2  C   UNL     1       0.509  97.899  12.069  1.00  0.00     0.208 A 
ATOM      3  C   UNL     1       0.475  96.502  12.218  1.00  0.00     0.238 A 
ATOM      4  O   UNL     1       1.338  95.951  12.949  1.00  0.00    -0.285 OA
ATOM      5  C   UNL     1      -0.546  95.751  11.587  1.00  0.00     0.111 A 
ATOM      6  C   UNL     1      -0.655  94.328  11.638  1.00  0.00     0.134 A 
ATOM      7  C   UNL     1      -1.779  93.702  11.087  1.00  0.00     0.093 A 
ATOM      8  C   UNL     1      -2.766  94.441  10.428  1.00  0.00     0.123 A 
ATOM      9  C   UNL     1      -2.638  95.824  10.322  1.00  0.00     0.094 A 
ATOM     10  C   UNL     1      -1.546  96.481  10.894  1.00  0.00     0.146 A 
ATOM     11  O   UNL     1      -1.469  97.801  10.779  1.00  0.00    -0.452 OA
ENDROOT
BRANCH   1  12
ATOM     12  C   UNL     1      -0.505  99.991  11.080  1.00  0.00     0.029 A 
ATOM     13  C   UNL     1      -1.051 100.868  12.030  1.00  0.00     0.062 A 
ATOM     14  C   UNL     1      -1.041 102.252  11.821  1.00  0.00     0.162 A 
ATOM     15  C   UNL     1       0.088 100.519   9.927  1.00  0.00     0.062 A 
ATOM     16  C   UNL     1      -0.464 102.778  10.640  1.00  0.00     0.200 A 
ATOM     17  C   UNL     1       0.105 101.899   9.699  1.00  0.00     0.162 A 
BRANCH  14  18
ATOM     18  O   UNL     1      -1.604 103.061  12.811  1.00  0.00    -0.504 OA
ATOM     19  H   UNL     1      -1.435 104.052  12.897  1.00  0.00     0.293 HD
ENDBRANCH  14  18
BRANCH  16  20
ATOM     20  O   UNL     1      -0.435 104.148  10.371  1.00  0.00    -0.502 OA
ATOM     21  H   UNL     1      -1.170 104.649   9.892  1.00  0.00     0.293 HD
ENDBRANCH  16  20
BRANCH  17  22
ATOM     22  O   UNL     1       0.691 102.377   8.528  1.00  0.00    -0.504 OA
ATOM     23  H   UNL     1       1.679 102.263   8.332  1.00  0.00     0.293 HD
ENDBRANCH  17  22
ENDBRANCH   1  12
BRANCH   2  24
ATOM     24  O   UNL     1       1.496  98.661  12.700  1.00  0.00    -0.502 OA
ATOM     25  H   UNL     1       1.810  98.470  13.644  1.00  0.00     0.293 HD
ENDBRANCH   2  24
BRANCH   6  26
ATOM     26  O   UNL     1       0.319  93.491  12.189  1.00  0.00    -0.507 OA
ATOM     27  H   UNL     1       0.154  92.828  12.932  1.00  0.00     0.293 HD
ENDBRANCH   6  26
BRANCH   8  28
ATOM     28  O   UNL     1      -3.873  93.807   9.869  1.00  0.00    -0.508 OA
ATOM     29  H   UNL     1      -4.743  93.711  10.378  1.00  0.00     0.293 HD
ENDBRANCH   8  28
TORSDOF 7
ENDMDL
MODEL 4
REMARK VINA RESULT:    -7.919      5.004      7.610
REMARK INTER + INTRA:         -10.014
REMARK INTER:                  -9.669
REMARK INTRA:                  -0.345
REMARK UNBOUND:                -0.244
REMARK SMILES O=c1c(O)c(-c2cc(O)c(O)c(O)c2)oc2cc(O)cc(O)c12
REMARK SMILES IDX 5 1 3 2 2 3 1 4 23 5 21 6 20 7 18 8 17 9 16 10 15 11 6 12
REMARK SMILES IDX 7 13 8 14 14 15 10 16 12 17 9 18 11 20 13 22 4 24 22 26
REMARK SMILES IDX 19 28
REMARK H PARENT 9 19 11 21 13 23 4 25 22 27 19 29
REMARK Flexibility Score: inf
ROOT
ATOM      1  C   UNL     1      -0.950  98.052  10.221  1.00  0.00     0.180 A 
ATOM      2  C   UNL     1      -0.758  97.832   8.847  1.00  0.00     0.208 A 
ATOM      3  C   UNL     1      -1.067  96.572   8.309  1.00  0.00     0.238 A 
ATOM      4  O   UNL     1      -0.841  96.363   7.089  1.00  0.00    -0.285 OA
ATOM      5  C   UNL     1      -1.579  95.554   9.149  1.00  0.00     0.111 A 
ATOM      6  C   UNL     1      -1.964  94.253   8.704  1.00  0.00     0.134 A 
ATOM      7  C   UNL     1      -2.334  93.284   9.643  1.00  0.00     0.093 A 
ATOM      8  C   UNL     1      -2.398  93.587  11.006  1.00  0.00     0.123 A 
ATOM      9  C   UNL     1      -2.082  94.871  11.443  1.00  0.00     0.094 A 
ATOM     10  C   UNL     1      -1.673  95.850  10.533  1.00  0.00     0.146 A 
ATOM     11  O   UNL     1      -1.371  97.057  10.994  1.00  0.00    -0.452 OA
ENDROOT
BRANCH   1  12
ATOM     12  C   UNL     1      -0.671  99.361  10.856  1.00  0.00     0.029 A 
ATOM     13  C   UNL     1       0.563  99.626  11.469  1.00  0.00     0.062 A 
ATOM     14  C   UNL     1       0.827 100.874  12.045  1.00  0.00     0.162 A 
ATOM     15  C   UNL     1      -1.633 100.377  10.793  1.00  0.00     0.062 A 
ATOM     16  C   UNL     1      -0.161 101.888  12.003  1.00  0.00     0.200 A 
ATOM     17  C   UNL     1      -1.388 101.628  11.367  1.00  0.00     0.162 A 
BRANCH  14  18
ATOM     18  O   UNL     1       2.078 101.063  12.638  1.00  0.00    -0.504 OA
ATOM     19  H   UNL     1       2.801 101.654  12.258  1.00  0.00     0.293 HD
ENDBRANCH  14  18
BRANCH  16  20
ATOM     20  O   UNL     1       0.040 103.148  12.571  1.00  0.00    -0.502 OA
ATOM     21  H   UNL     1       0.837 103.394  13.141  1.00  0.00     0.293 HD
ENDBRANCH  16  20
BRANCH  17  22
ATOM     22  O   UNL     1      -2.383 102.603  11.295  1.00  0.00    -0.504 OA
ATOM     23  H   UNL     1      -2.175 103.594  11.345  1.00  0.00     0.293 HD
ENDBRANCH  17  22
ENDBRANCH   1  12
BRANCH   2  24
ATOM     24  O   UNL     1      -0.231  98.844   8.039  1.00  0.00    -0.502 OA
ATOM     25  H   UNL     1      -0.803  99.583   7.651  1.00  0.00     0.293 HD
ENDBRANCH   2  24
BRANCH   6  26
ATOM     26  O   UNL     1      -2.025  93.875   7.360  1.00  0.00    -0.507 OA
ATOM     27  H   UNL     1      -1.265  93.453   6.846  1.00  0.00     0.293 HD
ENDBRANCH   6  26
BRANCH   8  28
ATOM     28  O   UNL     1      -2.783  92.621  11.933  1.00  0.00    -0.508 OA
ATOM     29  H   UNL     1      -2.389  92.593  12.865  1.00  0.00     0.293 HD
ENDBRANCH   8  28
TORSDOF 7
ENDMDL
MODEL 5
REMARK VINA RESULT:    -7.916      2.597      7.596
REMARK INTER + INTRA:         -10.010
REMARK INTER:                  -9.672
REMARK INTRA:                  -0.339
REMARK UNBOUND:                -0.244
REMARK SMILES O=c1c(O)c(-c2cc(O)c(O)c(O)c2)oc2cc(O)cc(O)c12
REMARK SMILES IDX 5 1 3 2 2 3 1 4 23 5 21 6 20 7 18 8 17 9 16 10 15 11 6 12
REMARK SMILES IDX 7 13 8 14 14 15 10 16 12 17 9 18 11 20 13 22 4 24 22 26
REMARK SMILES IDX 19 28
REMARK H PARENT 9 19 11 21 13 23 4 25 22 27 19 29
REMARK Flexibility Score: inf
ROOT
ATOM      1  C   UNL     1       0.393 100.885  10.970  1.00  0.00     0.180 A 
ATOM      2  C   UNL     1      -0.740 101.684  11.198  1.00  0.00     0.208 A 
ATOM      3  C   UNL     1      -1.070 102.681  10.265  1.00  0.00     0.238 A 
ATOM      4  O   UNL     1      -2.054 103.428  10.501  1.00  0.00    -0.285 OA
ATOM      5  C   UNL     1      -0.271 102.855   9.110  1.00  0.00     0.111 A 
ATOM      6  C   UNL     1      -0.534 103.807   8.079  1.00  0.00     0.134 A 
ATOM      7  C   UNL     1       0.395 103.982   7.047  1.00  0.00     0.093 A 
ATOM      8  C   UNL     1       1.547 103.193   6.972  1.00  0.00     0.123 A 
ATOM      9  C   UNL     1       1.782 102.221   7.941  1.00  0.00     0.094 A 
ATOM     10  C   UNL     1       0.891 102.048   9.003  1.00  0.00     0.146 A 
ATOM     11  O   UNL     1       1.159 101.117   9.910  1.00  0.00    -0.452 OA
ENDROOT
BRANCH   1  12
ATOM     12  C   UNL     1       0.790  99.798  11.895  1.00  0.00     0.029 A 
ATOM     13  C   UNL     1       0.145  98.552  11.876  1.00  0.00     0.062 A 
ATOM     14  C   UNL     1       0.544  97.522  12.738  1.00  0.00     0.162 A 
ATOM     15  C   UNL     1       1.869  99.994  12.767  1.00  0.00     0.062 A 
ATOM     16  C   UNL     1       1.616  97.736  13.636  1.00  0.00     0.200 A 
ATOM     17  C   UNL     1       2.277  98.979  13.637  1.00  0.00     0.162 A 
BRANCH  14  18
ATOM     18  O   UNL     1      -0.146  96.310  12.661  1.00  0.00    -0.504 OA
ATOM     19  H   UNL     1       0.068  95.499  13.222  1.00  0.00     0.293 HD
ENDBRANCH  14  18
BRANCH  16  20
ATOM     20  O   UNL     1       2.050  96.752  14.527  1.00  0.00    -0.502 OA
ATOM     21  H   UNL     1       2.295  96.926  15.491  1.00  0.00     0.293 HD
ENDBRANCH  16  20
BRANCH  17  22
ATOM     22  O   UNL     1       3.345  99.226  14.500  1.00  0.00    -0.504 OA
ATOM     23  H   UNL     1       3.228  99.279  15.505  1.00  0.00     0.293 HD
ENDBRANCH  17  22
ENDBRANCH   1  12
BRANCH   2  24
ATOM     24  O   UNL     1      -1.503 101.508  12.356  1.00  0.00    -0.502 OA
ATOM     25  H   UNL     1      -1.148 101.027  13.174  1.00  0.00     0.293 HD
ENDBRANCH   2  24
BRANCH   6  26
ATOM     26  O   UNL     1      -1.697 104.579   8.008  1.00  0.00    -0.507 OA
ATOM     27  H   UNL     1      -1.725 105.556   7.756  1.00  0.00     0.293 HD
ENDBRANCH   6  26
BRANCH   8  28
ATOM     28  O   UNL     1       2.458 103.363   5.932  1.00  0.00    -0.508 OA
ATOM     29  H   UNL     1       2.206 103.176   4.969  1.00  0.00     0.293 HD
ENDBRANCH   8  28
TORSDOF 7
ENDMDL
MODEL 6
REMARK VINA RESULT:    -7.841      1.741      7.239
REMARK INTER + INTRA:          -9.917
REMARK INTER:                  -9.678
REMARK INTRA:                  -0.239
REMARK UNBOUND:                -0.244
REMARK SMILES O=c1c(O)c(-c2cc(O)c(O)c(O)c2)oc2cc(O)cc(O)c12
REMARK SMILES IDX 5 1 3 2 2 3 1 4 23 5 21 6 20 7 18 8 17 9 16 10 15 11 6 12
REMARK SMILES IDX 7 13 8 14 14 15 10 16 12 17 9 18 11 20 13 22 4 24 22 26
REMARK SMILES IDX 19 28
REMARK H PARENT 9 19 11 21 13 23 4 25 22 27 19 29
REMARK Flexibility Score: inf
ROOT
ATOM      1  C   UNL     1       0.332 103.790   7.919  1.00  0.00     0.180 A 
ATOM      2  C   UNL     1      -0.556 104.534   7.124  1.00  0.00     0.208 A 
ATOM      3  C   UNL     1      -0.062 105.192   5.985  1.00  0.00     0.238 A 
ATOM      4  O   UNL     1      -0.851 105.901   5.307  1.00  0.00    -0.285 OA
ATOM      5  C   UNL     1       1.309 105.085   5.649  1.00  0.00     0.111 A 
ATOM      6  C   UNL     1       1.909 105.678   4.497  1.00  0.00     0.134 A 
ATOM      7  C   UNL     1       3.298 105.616   4.334  1.00  0.00     0.093 A 
ATOM      8  C   UNL     1       4.102 104.927   5.247  1.00  0.00     0.123 A 
ATOM      9  C   UNL     1       3.518 104.295   6.342  1.00  0.00     0.094 A 
ATOM     10  C   UNL     1       2.138 104.370   6.552  1.00  0.00     0.146 A 
ATOM     11  O   UNL     1       1.624 103.763   7.614  1.00  0.00    -0.452 OA
ENDROOT
BRANCH   1  12
ATOM     12  C   UNL     1      -0.119 103.048   9.120  1.00  0.00     0.029 A 
ATOM     13  C   UNL     1      -0.118 101.645   9.154  1.00  0.00     0.062 A 
ATOM     14  C   UNL     1      -0.523 100.953  10.302  1.00  0.00     0.162 A 
ATOM     15  C   UNL     1      -0.497 103.757  10.267  1.00  0.00     0.062 A 
ATOM     16  C   UNL     1      -0.931 101.676  11.448  1.00  0.00     0.200 A 
ATOM     17  C   UNL     1      -0.908 103.083  11.421  1.00  0.00     0.162 A 
BRANCH  14  18
ATOM     18  O   UNL     1      -0.496  99.557  10.259  1.00  0.00    -0.504 OA
ATOM     19  H   UNL     1      -0.011  99.020   9.557  1.00  0.00     0.293 HD
ENDBRANCH  14  18
BRANCH  16  20
ATOM     20  O   UNL     1      -1.356 101.042  12.617  1.00  0.00    -0.502 OA
ATOM     21  H   UNL     1      -1.981 101.456  13.294  1.00  0.00     0.293 HD
ENDBRANCH  16  20
BRANCH  17  22
ATOM     22  O   UNL     1      -1.292 103.832  12.533  1.00  0.00    -0.504 OA
ATOM     23  H   UNL     1      -1.877 104.656  12.454  1.00  0.00     0.293 HD
ENDBRANCH  17  22
ENDBRANCH   1  12
BRANCH   2  24
ATOM     24  O   UNL     1      -1.902 104.644   7.486  1.00  0.00    -0.502 OA
ATOM     25  H   UNL     1      -2.642 104.744   6.802  1.00  0.00     0.293 HD
ENDBRANCH   2  24
BRANCH   6  26
ATOM     26  O   UNL     1       1.189 106.308   3.479  1.00  0.00    -0.507 OA
ATOM     27  H   UNL     1       1.590 106.923   2.786  1.00  0.00     0.293 HD
ENDBRANCH   6  26
BRANCH   8  28
ATOM     28  O   UNL     1       5.481 104.857   5.068  1.00  0.00    -0.508 OA
ATOM     29  H   UNL     1       6.106 104.648   5.838  1.00  0.00     0.293 HD
ENDBRANCH   8  28
TORSDOF 7
ENDMDL
MODEL 7
REMARK VINA RESULT:    -7.838      1.494      3.297
REMARK INTER + INTRA:          -9.915
REMARK INTER:                  -9.561
REMARK INTRA:                  -0.354
REMARK UNBOUND:                -0.244
REMARK SMILES O=c1c(O)c(-c2cc(O)c(O)c(O)c2)oc2cc(O)cc(O)c12
REMARK SMILES IDX 5 1 3 2 2 3 1 4 23 5 21 6 20 7 18 8 17 9 16 10 15 11 6 12
REMARK SMILES IDX 7 13 8 14 14 15 10 16 12 17 9 18 11 20 13 22 4 24 22 26
REMARK SMILES IDX 19 28
REMARK H PARENT 9 19 11 21 13 23 4 25 22 27 19 29
REMARK Flexibility Score: inf
ROOT
ATOM      1  C   UNL     1       0.646 102.369   7.845  1.00  0.00     0.180 A 
ATOM      2  C   UNL     1       0.121 103.349   8.704  1.00  0.00     0.208 A 
ATOM      3  C   UNL     1      -0.323 102.968   9.982  1.00  0.00     0.238 A 
ATOM      4  O   UNL     1      -0.842 103.840  10.726  1.00  0.00    -0.285 OA
ATOM      5  C   UNL     1      -0.222 101.616  10.388  1.00  0.00     0.111 A 
ATOM      6  C   UNL     1      -0.605 101.125  11.673  1.00  0.00     0.134 A 
ATOM      7  C   UNL     1      -0.583  99.747  11.920  1.00  0.00     0.093 A 
ATOM      8  C   UNL     1      -0.131  98.848  10.951  1.00  0.00     0.123 A 
ATOM      9  C   UNL     1       0.301  99.323   9.714  1.00  0.00     0.094 A 
ATOM     10  C   UNL     1       0.257 100.690   9.425  1.00  0.00     0.146 A 
ATOM     11  O   UNL     1       0.667 101.098   8.231  1.00  0.00    -0.452 OA
ENDROOT
BRANCH   1  12
ATOM     12  C   UNL     1       1.157 102.698   6.494  1.00  0.00     0.029 A 
ATOM     13  C   UNL     1       2.521 102.936   6.268  1.00  0.00     0.062 A 
ATOM     14  C   UNL     1       2.999 103.222   4.983  1.00  0.00     0.162 A 
ATOM     15  C   UNL     1       0.273 102.714   5.408  1.00  0.00     0.062 A 
ATOM     16  C   UNL     1       2.096 103.265   3.894  1.00  0.00     0.200 A 
ATOM     17  C   UNL     1       0.732 103.002   4.119  1.00  0.00     0.162 A 
BRANCH  14  18
ATOM     18  O   UNL     1       4.369 103.449   4.837  1.00  0.00    -0.504 OA
ATOM     19  H   UNL     1       4.796 103.827   4.004  1.00  0.00     0.293 HD
ENDBRANCH  14  18
BRANCH  16  20
ATOM     20  O   UNL     1       2.511 103.556   2.593  1.00  0.00    -0.502 OA
ATOM     21  H   UNL     1       3.447 103.844   2.346  1.00  0.00     0.293 HD
ENDBRANCH  16  20
BRANCH  17  22
ATOM     22  O   UNL     1      -0.189 103.024   3.071  1.00  0.00    -0.504 OA
ATOM     23  H   UNL     1      -0.192 102.323   2.339  1.00  0.00     0.293 HD
ENDBRANCH  17  22
ENDBRANCH   1  12
BRANCH   2  24
ATOM     24  O   UNL     1       0.011 104.675   8.275  1.00  0.00    -0.502 OA
ATOM     25  H   UNL     1      -0.855 105.062   7.921  1.00  0.00     0.293 HD
ENDBRANCH   2  24
BRANCH   6  26
ATOM     26  O   UNL     1      -0.983 101.944  12.740  1.00  0.00    -0.507 OA
ATOM     27  H   UNL     1      -1.858 102.444  12.800  1.00  0.00     0.293 HD
ENDBRANCH   6  26
BRANCH   8  28
ATOM     28  O   UNL     1      -0.098  97.480  11.211  1.00  0.00    -0.508 OA
ATOM     29  H   UNL     1       0.408  97.102  12.003  1.00  0.00     0.293 HD
ENDBRANCH   8  28
TORSDOF 7
ENDMDL
MODEL 8
REMARK VINA RESULT:    -7.828      2.520      5.312
REMARK INTER + INTRA:          -9.903
REMARK INTER:                  -9.607
REMARK INTRA:                  -0.296
REMARK UNBOUND:                -0.244
REMARK SMILES O=c1c(O)c(-c2cc(O)c(O)c(O)c2)oc2cc(O)cc(O)c12
REMARK SMILES IDX 5 1 3 2 2 3 1 4 23 5 21 6 20 7 18 8 17 9 16 10 15 11 6 12
REMARK SMILES IDX 7 13 8 14 14 15 10 16 12 17 9 18 11 20 13 22 4 24 22 26
REMARK SMILES IDX 19 28
REMARK H PARENT 9 19 11 21 13 23 4 25 22 27 19 29
REMARK Flexibility Score: inf
ROOT
ATOM      1  C   UNL     1       1.917 104.805   4.396  1.00  0.00     0.180 A 
ATOM      2  C   UNL     1       1.369 105.816   5.203  1.00  0.00     0.208 A 
ATOM      3  C   UNL     1       0.813 105.470   6.446  1.00  0.00     0.238 A 
ATOM      4  O   UNL     1       0.275 106.371   7.140  1.00  0.00    -0.285 OA
ATOM      5  C   UNL     1       0.825 104.119   6.871  1.00  0.00     0.111 A 
ATOM      6  C   UNL     1       0.325 103.660   8.127  1.00  0.00     0.134 A 
ATOM      7  C   UNL     1       0.269 102.286   8.387  1.00  0.00     0.093 A 
ATOM      8  C   UNL     1       0.756 101.357   7.464  1.00  0.00     0.123 A 
ATOM      9  C   UNL     1       1.301 101.799   6.260  1.00  0.00     0.094 A 
ATOM     10  C   UNL     1       1.337 103.163   5.956  1.00  0.00     0.146 A 
ATOM     11  O   UNL     1       1.854 103.539   4.794  1.00  0.00    -0.452 OA
ENDROOT
BRANCH   1  12
ATOM     12  C   UNL     1       2.543 105.096   3.086  1.00  0.00     0.029 A 
ATOM     13  C   UNL     1       3.794 105.727   2.999  1.00  0.00     0.062 A 
ATOM     14  C   UNL     1       4.389 105.976   1.756  1.00  0.00     0.162 A 
ATOM     15  C   UNL     1       1.906 104.681   1.910  1.00  0.00     0.062 A 
ATOM     16  C   UNL     1       3.727 105.579   0.570  1.00  0.00     0.200 A 
ATOM     17  C   UNL     1       2.484 104.925   0.660  1.00  0.00     0.162 A 
BRANCH  14  18
ATOM     18  O   UNL     1       5.635 106.609   1.750  1.00  0.00    -0.504 OA
ATOM     19  H   UNL     1       5.825 107.480   1.278  1.00  0.00     0.293 HD
ENDBRANCH  14  18
BRANCH  16  20
ATOM     20  O   UNL     1       4.265 105.811  -0.697  1.00  0.00    -0.502 OA
ATOM     21  H   UNL     1       5.093 105.356  -1.055  1.00  0.00     0.293 HD
ENDBRANCH  16  20
BRANCH  17  22
ATOM     22  O   UNL     1       1.804 104.509  -0.484  1.00  0.00    -0.504 OA
ATOM     23  H   UNL     1       2.224 103.890  -1.168  1.00  0.00     0.293 HD
ENDBRANCH  17  22
ENDBRANCH   1  12
BRANCH   2  24
ATOM     24  O   UNL     1       1.348 107.140   4.755  1.00  0.00    -0.502 OA
ATOM     25  H   UNL     1       1.104 107.389   3.804  1.00  0.00     0.293 HD
ENDBRANCH   2  24
BRANCH   6  26
ATOM     26  O   UNL     1      -0.100 104.508   9.154  1.00  0.00    -0.507 OA
ATOM     27  H   UNL     1       0.324 104.561  10.069  1.00  0.00     0.293 HD
ENDBRANCH   6  26
BRANCH   8  28
ATOM     28  O   UNL     1       0.711  99.992   7.738  1.00  0.00    -0.508 OA
ATOM     29  H   UNL     1       1.540  99.478   8.011  1.00  0.00     0.293 HD
ENDBRANCH   8  28
TORSDOF 7
ENDMDL
MODEL 9
REMARK VINA RESULT:    -7.798      2.018      4.033
REMARK INTER + INTRA:          -9.865
REMARK INTER:                  -9.505
REMARK INTRA:                  -0.360
REMARK UNBOUND:                -0.244
REMARK SMILES O=c1c(O)c(-c2cc(O)c(O)c(O)c2)oc2cc(O)cc(O)c12
REMARK SMILES IDX 5 1 3 2 2 3 1 4 23 5 21 6 20 7 18 8 17 9 16 10 15 11 6 12
REMARK SMILES IDX 7 13 8 14 14 15 10 16 12 17 9 18 11 20 13 22 4 24 22 26
REMARK SMILES IDX 19 28
REMARK H PARENT 9 19 11 21 13 23 4 25 22 27 19 29
REMARK Flexibility Score: inf
ROOT
ATOM      1  C   UNL     1       0.951 103.885   5.583  1.00  0.00     0.180 A 
ATOM      2  C   UNL     1      -0.277 104.502   5.875  1.00  0.00     0.208 A 
ATOM      3  C   UNL     1      -0.888 104.250   7.115  1.00  0.00     0.238 A 
ATOM      4  O   UNL     1      -2.013 104.761   7.349  1.00  0.00    -0.285 OA
ATOM      5  C   UNL     1      -0.254 103.398   8.051  1.00  0.00     0.111 A 
ATOM      6  C   UNL     1      -0.762 103.104   9.353  1.00  0.00     0.134 A 
ATOM      7  C   UNL     1      -0.119 102.146  10.145  1.00  0.00     0.093 A 
ATOM      8  C   UNL     1       1.051 101.518   9.710  1.00  0.00     0.123 A 
ATOM      9  C   UNL     1       1.588 101.843   8.466  1.00  0.00     0.094 A 
ATOM     10  C   UNL     1       0.948 102.769   7.637  1.00  0.00     0.146 A 
ATOM     11  O   UNL     1       1.488 103.040   6.456  1.00  0.00    -0.452 OA
ENDROOT
BRANCH   1  12
ATOM     12  C   UNL     1       1.667 104.121   4.308  1.00  0.00     0.029 A 
ATOM     13  C   UNL     1       2.649 105.118   4.196  1.00  0.00     0.062 A 
ATOM     14  C   UNL     1       3.338 105.318   2.993  1.00  0.00     0.162 A 
ATOM     15  C   UNL     1       1.405 103.297   3.206  1.00  0.00     0.062 A 
ATOM     16  C   UNL     1       3.047 104.499   1.875  1.00  0.00     0.200 A 
ATOM     17  C   UNL     1       2.080 103.485   1.996  1.00  0.00     0.162 A 
BRANCH  14  18
ATOM     18  O   UNL     1       4.301 106.329   2.958  1.00  0.00    -0.504 OA
ATOM     19  H   UNL     1       4.987 106.434   2.226  1.00  0.00     0.293 HD
ENDBRANCH  14  18
BRANCH  16  20
ATOM     20  O   UNL     1       3.693 104.659   0.647  1.00  0.00    -0.502 OA
ATOM     21  H   UNL     1       3.701 105.519   0.117  1.00  0.00     0.293 HD
ENDBRANCH  16  20
BRANCH  17  22
ATOM     22  O   UNL     1       1.772 102.651   0.922  1.00  0.00    -0.504 OA
ATOM     23  H   UNL     1       2.444 102.434   0.194  1.00  0.00     0.293 HD
ENDBRANCH  17  22
ENDBRANCH   1  12
BRANCH   2  24
ATOM     24  O   UNL     1      -0.895 105.323   4.927  1.00  0.00    -0.502 OA
ATOM     25  H   UNL     1      -0.576 105.382   3.968  1.00  0.00     0.293 HD
ENDBRANCH   2  24
BRANCH   6  26
ATOM     26  O   UNL     1      -1.870 103.741   9.920  1.00  0.00    -0.507 OA
ATOM     27  H   UNL     1      -2.826 103.437   9.812  1.00  0.00     0.293 HD
ENDBRANCH   6  26
BRANCH   8  28
ATOM     28  O   UNL     1       1.694 100.577  10.511  1.00  0.00    -0.508 OA
ATOM     29  H   UNL     1       1.711 100.664  11.520  1.00  0.00     0.293 HD
ENDBRANCH   8  28
TORSDOF 7
ENDMDL
