MODEL 1
REMARK VINA RESULT:    -4.249      0.000      0.000
REMARK INTER + INTRA:          -4.990
REMARK INTER:                  -4.994
REMARK INTRA:                   0.004
REMARK UNBOUND:                 0.004
REMARK SMILES Oc1ccc(-c2[o+]c3cc(O)cc(O)c3cc2O)cc1
REMARK SMILES IDX 6 1 7 2 8 3 9 4 10 5 12 6 13 7 15 8 16 9 17 10 5 11 4 12
REMARK SMILES IDX 3 13 2 14 19 15 20 16 1 17 18 19 11 21 14 23
REMARK H PARENT 1 18 18 20 11 22 14 24
REMARK Flexibility Score: inf
ROOT
ATOM      1  C   UNL     1       8.309 -31.699  15.510  1.00  0.00     0.401 A 
ATOM      2  O   UNL     1       9.411 -32.215  14.971  1.00  0.00    -0.202 OA
ATOM      3  C   UNL     1       9.391 -33.125  14.002  1.00  0.00     0.368 A 
ATOM      4  C   UNL     1      10.603 -33.605  13.496  1.00  0.00     0.162 A 
ATOM      5  C   UNL     1      10.614 -34.559  12.478  1.00  0.00     0.128 A 
ATOM      6  C   UNL     1       9.405 -35.037  11.959  1.00  0.00     0.093 A 
ATOM      7  C   UNL     1       8.179 -34.572  12.448  1.00  0.00     0.136 A 
ATOM      8  C   UNL     1       8.163 -33.604  13.486  1.00  0.00     0.125 A 
ATOM      9  C   UNL     1       6.983 -33.090  14.047  1.00  0.00     0.078 A 
ATOM     10  C   UNL     1       7.048 -32.142  15.071  1.00  0.00     0.223 A 
ENDROOT
BRANCH   1  11
ATOM     11  C   UNL     1       8.461 -30.683  16.576  1.00  0.00     0.084 A 
ATOM     12  C   UNL     1       7.807 -30.868  17.807  1.00  0.00     0.022 A 
ATOM     13  C   UNL     1       7.955 -29.932  18.835  1.00  0.00     0.047 A 
ATOM     14  C   UNL     1       8.767 -28.810  18.653  1.00  0.00     0.115 A 
ATOM     15  C   UNL     1       9.293 -29.561  16.407  1.00  0.00     0.022 A 
ATOM     16  C   UNL     1       9.439 -28.627  17.438  1.00  0.00     0.047 A 
BRANCH  14  17
ATOM     17  O   UNL     1       8.904 -27.886  19.686  1.00  0.00    -0.508 OA
ATOM     18  H   UNL     1       9.815 -27.625  20.047  1.00  0.00     0.293 HD
ENDBRANCH  14  17
ENDBRANCH   1  11
BRANCH  10  19
ATOM     19  O   UNL     1       5.876 -31.669  15.662  1.00  0.00    -0.500 OA
ATOM     20  H   UNL     1       5.848 -31.380  16.633  1.00  0.00     0.294 HD
ENDBRANCH  10  19
BRANCH   5  21
ATOM     21  O   UNL     1      11.830 -35.025  11.988  1.00  0.00    -0.507 OA
ATOM     22  H   UNL     1      12.677 -34.985  12.543  1.00  0.00     0.293 HD
ENDBRANCH   5  21
BRANCH   7  23
ATOM     23  O   UNL     1       7.016 -35.096  11.875  1.00  0.00    -0.507 OA
ATOM     24  H   UNL     1       6.322 -34.547  11.389  1.00  0.00     0.293 HD
ENDBRANCH   7  23
TORSDOF 5
ENDMDL
MODEL 2
REMARK VINA RESULT:    -4.177      2.045      6.929
REMARK INTER + INTRA:          -4.905
REMARK INTER:                  -4.748
REMARK INTRA:                  -0.158
REMARK UNBOUND:                 0.004
REMARK SMILES Oc1ccc(-c2[o+]c3cc(O)cc(O)c3cc2O)cc1
REMARK SMILES IDX 6 1 7 2 8 3 9 4 10 5 12 6 13 7 15 8 16 9 17 10 5 11 4 12
REMARK SMILES IDX 3 13 2 14 19 15 20 16 1 17 18 19 11 21 14 23
REMARK H PARENT 1 18 18 20 11 22 14 24
REMARK Flexibility Score: inf
ROOT
ATOM      1  C   UNL     1       8.381 -30.963  14.831  1.00  0.00     0.401 A 
ATOM      2  O   UNL     1       8.305 -30.970  16.159  1.00  0.00    -0.202 OA
ATOM      3  C   UNL     1       8.845 -30.027  16.925  1.00  0.00     0.368 A 
ATOM      4  C   UNL     1       8.709 -30.119  18.313  1.00  0.00     0.162 A 
ATOM      5  C   UNL     1       9.263 -29.143  19.143  1.00  0.00     0.128 A 
ATOM      6  C   UNL     1       9.958 -28.065  18.582  1.00  0.00     0.093 A 
ATOM      7  C   UNL     1      10.107 -27.951  17.195  1.00  0.00     0.136 A 
ATOM      8  C   UNL     1       9.548 -28.943  16.348  1.00  0.00     0.125 A 
ATOM      9  C   UNL     1       9.659 -28.916  14.948  1.00  0.00     0.078 A 
ATOM     10  C   UNL     1       9.085 -29.933  14.180  1.00  0.00     0.223 A 
ENDROOT
BRANCH   1  11
ATOM     11  C   UNL     1       7.729 -32.065  14.087  1.00  0.00     0.084 A 
ATOM     12  C   UNL     1       6.676 -31.773  13.202  1.00  0.00     0.022 A 
ATOM     13  C   UNL     1       6.061 -32.796  12.473  1.00  0.00     0.047 A 
ATOM     14  C   UNL     1       6.497 -34.117  12.607  1.00  0.00     0.115 A 
ATOM     15  C   UNL     1       8.177 -33.393  14.202  1.00  0.00     0.022 A 
ATOM     16  C   UNL     1       7.560 -34.413  13.471  1.00  0.00     0.047 A 
BRANCH  14  17
ATOM     17  O   UNL     1       5.875 -35.125  11.875  1.00  0.00    -0.508 OA
ATOM     18  H   UNL     1       6.277 -35.482  11.016  1.00  0.00     0.293 HD
ENDBRANCH  14  17
ENDBRANCH   1  11
BRANCH  10  19
ATOM     19  O   UNL     1       9.239 -29.934  12.793  1.00  0.00    -0.500 OA
ATOM     20  H   UNL     1       8.536 -30.328  12.180  1.00  0.00     0.294 HD
ENDBRANCH  10  19
BRANCH   5  21
ATOM     21  O   UNL     1       9.117 -29.253  20.523  1.00  0.00    -0.507 OA
ATOM     22  H   UNL     1       9.102 -30.155  20.985  1.00  0.00     0.293 HD
ENDBRANCH   5  21
BRANCH   7  23
ATOM     23  O   UNL     1      10.811 -26.843  16.713  1.00  0.00    -0.507 OA
ATOM     24  H   UNL     1      10.407 -25.928  16.570  1.00  0.00     0.293 HD
ENDBRANCH   7  23
TORSDOF 5
ENDMDL
MODEL 3
REMARK VINA RESULT:    -2.892      1.993      3.095
REMARK INTER + INTRA:          -3.394
REMARK INTER:                  -3.521
REMARK INTRA:                   0.127
REMARK UNBOUND:                 0.004
REMARK SMILES Oc1ccc(-c2[o+]c3cc(O)cc(O)c3cc2O)cc1
REMARK SMILES IDX 6 1 7 2 8 3 9 4 10 5 12 6 13 7 15 8 16 9 17 10 5 11 4 12
REMARK SMILES IDX 3 13 2 14 19 15 20 16 1 17 18 19 11 21 14 23
REMARK H PARENT 1 18 18 20 11 22 14 24
REMARK Flexibility Score: inf
ROOT
ATOM      1  C   UNL     1       8.793 -30.271  15.496  1.00  0.00     0.401 A 
ATOM      2  O   UNL     1       8.318 -31.393  14.962  1.00  0.00    -0.202 OA
ATOM      3  C   UNL     1       8.940 -32.061  13.995  1.00  0.00     0.368 A 
ATOM      4  C   UNL     1       8.364 -33.234  13.500  1.00  0.00     0.162 A 
ATOM      5  C   UNL     1       8.995 -33.957  12.488  1.00  0.00     0.128 A 
ATOM      6  C   UNL     1      10.214 -33.507  11.966  1.00  0.00     0.093 A 
ATOM      7  C   UNL     1      10.811 -32.336  12.446  1.00  0.00     0.136 A 
ATOM      8  C   UNL     1      10.171 -31.595  13.473  1.00  0.00     0.125 A 
ATOM      9  C   UNL     1      10.689 -30.404  14.005  1.00  0.00     0.078 A 
ATOM     10  C   UNL     1       9.997 -29.727  15.014  1.00  0.00     0.223 A 
ENDROOT
BRANCH   1  11
ATOM     11  C   UNL     1       8.011 -29.624  16.575  1.00  0.00     0.084 A 
ATOM     12  C   UNL     1       8.683 -29.079  17.684  1.00  0.00     0.022 A 
ATOM     13  C   UNL     1       7.966 -28.445  18.703  1.00  0.00     0.047 A 
ATOM     14  C   UNL     1       6.576 -28.334  18.622  1.00  0.00     0.115 A 
ATOM     15  C   UNL     1       6.613 -29.491  16.489  1.00  0.00     0.022 A 
ATOM     16  C   UNL     1       5.900 -28.855  17.511  1.00  0.00     0.047 A 
BRANCH  14  17
ATOM     17  O   UNL     1       5.875 -27.700  19.645  1.00  0.00    -0.508 OA
ATOM     18  H   UNL     1       5.075 -27.108  19.453  1.00  0.00     0.293 HD
ENDBRANCH  14  17
ENDBRANCH   1  11
BRANCH  10  19
ATOM     19  O   UNL     1      10.487 -28.517  15.507  1.00  0.00    -0.500 OA
ATOM     20  H   UNL     1      11.411 -28.179  15.267  1.00  0.00     0.294 HD
ENDBRANCH  10  19
BRANCH   5  21
ATOM     21  O   UNL     1       8.405 -35.123  12.007  1.00  0.00    -0.507 OA
ATOM     22  H   UNL     1       8.961 -35.920  11.720  1.00  0.00     0.293 HD
ENDBRANCH   5  21
BRANCH   7  23
ATOM     23  O   UNL     1      12.030 -31.955  11.875  1.00  0.00    -0.507 OA
ATOM     24  H   UNL     1      12.437 -31.035  11.962  1.00  0.00     0.293 HD
ENDBRANCH   7  23
TORSDOF 5
ENDMDL
MODEL 4
REMARK VINA RESULT:    -2.855      2.355      6.420
REMARK INTER + INTRA:          -3.352
REMARK INTER:                  -3.080
REMARK INTRA:                  -0.272
REMARK UNBOUND:                 0.004
REMARK SMILES Oc1ccc(-c2[o+]c3cc(O)cc(O)c3cc2O)cc1
REMARK SMILES IDX 6 1 7 2 8 3 9 4 10 5 12 6 13 7 15 8 16 9 17 10 5 11 4 12
REMARK SMILES IDX 3 13 2 14 19 15 20 16 1 17 18 19 11 21 14 23
REMARK H PARENT 1 18 18 20 11 22 14 24
REMARK Flexibility Score: inf
ROOT
ATOM      1  C   UNL     1       8.492 -30.938  14.721  1.00  0.00     0.401 A 
ATOM      2  O   UNL     1       9.620 -30.466  14.198  1.00  0.00    -0.202 OA
ATOM      3  C   UNL     1      10.329 -29.487  14.752  1.00  0.00     0.368 A 
ATOM      4  C   UNL     1      11.505 -29.062  14.129  1.00  0.00     0.162 A 
ATOM      5  C   UNL     1      12.270 -28.038  14.689  1.00  0.00     0.128 A 
ATOM      6  C   UNL     1      11.859 -27.434  15.883  1.00  0.00     0.093 A 
ATOM      7  C   UNL     1      10.684 -27.843  16.527  1.00  0.00     0.136 A 
ATOM      8  C   UNL     1       9.902 -28.881  15.959  1.00  0.00     0.125 A 
ATOM      9  C   UNL     1       8.705 -29.347  16.527  1.00  0.00     0.078 A 
ATOM     10  C   UNL     1       7.985 -30.371  15.905  1.00  0.00     0.223 A 
ENDROOT
BRANCH   1  11
ATOM     11  C   UNL     1       7.799 -32.039  14.014  1.00  0.00     0.084 A 
ATOM     12  C   UNL     1       7.154 -31.778  12.792  1.00  0.00     0.022 A 
ATOM     13  C   UNL     1       6.513 -32.807  12.097  1.00  0.00     0.047 A 
ATOM     14  C   UNL     1       6.518 -34.109  12.603  1.00  0.00     0.115 A 
ATOM     15  C   UNL     1       7.819 -33.356  14.509  1.00  0.00     0.022 A 
ATOM     16  C   UNL     1       7.176 -34.383  13.810  1.00  0.00     0.047 A 
BRANCH  14  17
ATOM     17  O   UNL     1       5.875 -35.125  11.900  1.00  0.00    -0.508 OA
ATOM     18  H   UNL     1       6.352 -35.658  11.182  1.00  0.00     0.293 HD
ENDBRANCH  14  17
ENDBRANCH   1  11
BRANCH  10  19
ATOM     19  O   UNL     1       6.770 -30.799  16.443  1.00  0.00    -0.500 OA
ATOM     20  H   UNL     1       6.051 -31.217  15.865  1.00  0.00     0.294 HD
ENDBRANCH  10  19
BRANCH   5  21
ATOM     21  O   UNL     1      13.439 -27.628  14.053  1.00  0.00    -0.507 OA
ATOM     22  H   UNL     1      13.421 -26.966  13.286  1.00  0.00     0.293 HD
ENDBRANCH   5  21
BRANCH   7  23
ATOM     23  O   UNL     1      10.344 -27.193  17.717  1.00  0.00    -0.507 OA
ATOM     24  H   UNL     1      10.310 -27.640  18.622  1.00  0.00     0.293 HD
ENDBRANCH   7  23
TORSDOF 5
ENDMDL
