MODEL 1
REMARK VINA RESULT:    -6.659      0.000      0.000
REMARK INTER + INTRA:          -8.093
REMARK INTER:                  -7.826
REMARK INTRA:                  -0.266
REMARK UNBOUND:                -0.266
REMARK SMILES O=c1cc(-c2ccc(O)c(O)c2)oc2cc(O)cc(O)c12
REMARK SMILES IDX 4 1 3 2 2 3 1 4 21 5 19 6 18 7 16 8 15 9 14 10 13 11 5 12
REMARK SMILES IDX 6 13 7 14 8 15 12 16 10 17 9 18 11 20 20 22 17 24
REMARK H PARENT 9 19 11 21 20 23 17 25
REMARK Flexibility Score: inf
ROOT
ATOM      1  C   UNL     1      17.956  19.335 -12.288  1.00  0.00     0.138 A 
ATOM      2  C   UNL     1      18.173  18.433 -13.339  1.00  0.00     0.100 A 
ATOM      3  C   UNL     1      19.113  17.413 -13.189  1.00  0.00     0.197 A 
ATOM      4  O   UNL     1      19.241  16.581 -14.125  1.00  0.00    -0.289 OA
ATOM      5  C   UNL     1      19.861  17.316 -11.992  1.00  0.00     0.107 A 
ATOM      6  C   UNL     1      20.875  16.342 -11.744  1.00  0.00     0.134 A 
ATOM      7  C   UNL     1      21.467  16.270 -10.477  1.00  0.00     0.093 A 
ATOM      8  C   UNL     1      21.126  17.176  -9.469  1.00  0.00     0.123 A 
ATOM      9  C   UNL     1      20.177  18.165  -9.719  1.00  0.00     0.094 A 
ATOM     10  C   UNL     1      19.543  18.240 -10.961  1.00  0.00     0.146 A 
ATOM     11  O   UNL     1      18.633  19.188 -11.153  1.00  0.00    -0.456 OA
ENDROOT
BRANCH   1  12
ATOM     12  C   UNL     1      16.969  20.439 -12.394  1.00  0.00     0.021 A 
ATOM     13  C   UNL     1      17.324  21.623 -13.064  1.00  0.00     0.016 A 
ATOM     14  C   UNL     1      16.411  22.674 -13.184  1.00  0.00     0.051 A 
ATOM     15  C   UNL     1      15.125  22.555 -12.645  1.00  0.00     0.157 A 
ATOM     16  C   UNL     1      15.668  20.322 -11.867  1.00  0.00     0.062 A 
ATOM     17  C   UNL     1      14.751  21.377 -11.989  1.00  0.00     0.158 A 
BRANCH  15  18
ATOM     18  O   UNL     1      14.210  23.602 -12.762  1.00  0.00    -0.504 OA
ATOM     19  H   UNL     1      13.235  23.431 -12.979  1.00  0.00     0.293 HD
ENDBRANCH  15  18
BRANCH  17  20
ATOM     20  O   UNL     1      13.465  21.258 -11.463  1.00  0.00    -0.504 OA
ATOM     21  H   UNL     1      12.940  22.069 -11.156  1.00  0.00     0.293 HD
ENDBRANCH  17  20
ENDBRANCH   1  12
BRANCH   6  22
ATOM     22  O   UNL     1      21.350  15.445 -12.707  1.00  0.00    -0.507 OA
ATOM     23  H   UNL     1      20.854  15.186 -13.546  1.00  0.00     0.293 HD
ENDBRANCH   6  22
BRANCH   8  24
ATOM     24  O   UNL     1      21.733  17.107  -8.217  1.00  0.00    -0.508 OA
ATOM     25  H   UNL     1      22.726  16.932  -8.118  1.00  0.00     0.293 HD
ENDBRANCH   8  24
TORSDOF 5
ENDMDL
MODEL 2
REMARK VINA RESULT:    -6.583     10.536     13.995
REMARK INTER + INTRA:          -8.004
REMARK INTER:                  -7.719
REMARK INTRA:                  -0.284
REMARK UNBOUND:                -0.266
REMARK SMILES O=c1cc(-c2ccc(O)c(O)c2)oc2cc(O)cc(O)c12
REMARK SMILES IDX 4 1 3 2 2 3 1 4 21 5 19 6 18 7 16 8 15 9 14 10 13 11 5 12
REMARK SMILES IDX 6 13 7 14 8 15 12 16 10 17 9 18 11 20 20 22 17 24
REMARK H PARENT 9 19 11 21 20 23 17 25
REMARK Flexibility Score: inf
ROOT
ATOM      1  C   UNL     1      18.450  13.203  -0.254  1.00  0.00     0.138 A 
ATOM      2  C   UNL     1      19.587  13.128  -1.071  1.00  0.00     0.100 A 
ATOM      3  C   UNL     1      19.443  13.167  -2.458  1.00  0.00     0.197 A 
ATOM      4  O   UNL     1      20.486  13.160  -3.164  1.00  0.00    -0.289 OA
ATOM      5  C   UNL     1      18.152  13.251  -3.030  1.00  0.00     0.107 A 
ATOM      6  C   UNL     1      17.881  13.257  -4.431  1.00  0.00     0.134 A 
ATOM      7  C   UNL     1      16.571  13.462  -4.880  1.00  0.00     0.093 A 
ATOM      8  C   UNL     1      15.513  13.600  -3.979  1.00  0.00     0.123 A 
ATOM      9  C   UNL     1      15.759  13.541  -2.609  1.00  0.00     0.094 A 
ATOM     10  C   UNL     1      17.060  13.373  -2.129  1.00  0.00     0.146 A 
ATOM     11  O   UNL     1      17.253  13.337  -0.815  1.00  0.00    -0.456 OA
ENDROOT
BRANCH   1  12
ATOM     12  C   UNL     1      18.545  13.165   1.227  1.00  0.00     0.021 A 
ATOM     13  C   UNL     1      17.536  12.527   1.969  1.00  0.00     0.016 A 
ATOM     14  C   UNL     1      17.605  12.470   3.364  1.00  0.00     0.051 A 
ATOM     15  C   UNL     1      18.690  13.042   4.039  1.00  0.00     0.157 A 
ATOM     16  C   UNL     1      19.640  13.725   1.914  1.00  0.00     0.062 A 
ATOM     17  C   UNL     1      19.711  13.667   3.314  1.00  0.00     0.158 A 
BRANCH  15  18
ATOM     18  O   UNL     1      18.763  12.989   5.430  1.00  0.00    -0.504 OA
ATOM     19  H   UNL     1      18.041  12.540   5.982  1.00  0.00     0.293 HD
ENDBRANCH  15  18
BRANCH  17  20
ATOM     20  O   UNL     1      20.795  14.225   3.989  1.00  0.00    -0.504 OA
ATOM     21  H   UNL     1      21.668  13.722   4.099  1.00  0.00     0.293 HD
ENDBRANCH  17  20
ENDBRANCH   1  12
BRANCH   6  22
ATOM     22  O   UNL     1      18.853  13.044  -5.415  1.00  0.00    -0.507 OA
ATOM     23  H   UNL     1      19.664  12.455  -5.305  1.00  0.00     0.293 HD
ENDBRANCH   6  22
BRANCH   8  24
ATOM     24  O   UNL     1      14.210  13.788  -4.436  1.00  0.00    -0.508 OA
ATOM     25  H   UNL     1      13.708  14.650  -4.262  1.00  0.00     0.293 HD
ENDBRANCH   8  24
TORSDOF 5
ENDMDL
MODEL 3
REMARK VINA RESULT:    -6.502     10.898     12.622
REMARK INTER + INTRA:          -7.908
REMARK INTER:                  -7.591
REMARK INTRA:                  -0.317
REMARK UNBOUND:                -0.266
REMARK SMILES O=c1cc(-c2ccc(O)c(O)c2)oc2cc(O)cc(O)c12
REMARK SMILES IDX 4 1 3 2 2 3 1 4 21 5 19 6 18 7 16 8 15 9 14 10 13 11 5 12
REMARK SMILES IDX 6 13 7 14 8 15 12 16 10 17 9 18 11 20 20 22 17 24
REMARK H PARENT 9 19 11 21 20 23 17 25
REMARK Flexibility Score: inf
ROOT
ATOM      1  C   UNL     1      15.203  12.830  -2.805  1.00  0.00     0.138 A 
ATOM      2  C   UNL     1      16.533  13.271  -2.817  1.00  0.00     0.100 A 
ATOM      3  C   UNL     1      17.245  13.346  -1.619  1.00  0.00     0.197 A 
ATOM      4  O   UNL     1      18.456  13.686  -1.669  1.00  0.00    -0.289 OA
ATOM      5  C   UNL     1      16.611  13.008  -0.401  1.00  0.00     0.107 A 
ATOM      6  C   UNL     1      17.225  13.086   0.885  1.00  0.00     0.134 A 
ATOM      7  C   UNL     1      16.536  12.614   2.009  1.00  0.00     0.093 A 
ATOM      8  C   UNL     1      15.232  12.123   1.902  1.00  0.00     0.123 A 
ATOM      9  C   UNL     1      14.604  12.094   0.660  1.00  0.00     0.094 A 
ATOM     10  C   UNL     1      15.277  12.524  -0.486  1.00  0.00     0.146 A 
ATOM     11  O   UNL     1      14.647  12.466  -1.654  1.00  0.00    -0.456 OA
ENDROOT
BRANCH   1  12
ATOM     12  C   UNL     1      14.398  12.732  -4.049  1.00  0.00     0.021 A 
ATOM     13  C   UNL     1      15.012  12.974  -5.291  1.00  0.00     0.016 A 
ATOM     14  C   UNL     1      14.279  12.880  -6.477  1.00  0.00     0.051 A 
ATOM     15  C   UNL     1      12.924  12.533  -6.443  1.00  0.00     0.157 A 
ATOM     16  C   UNL     1      13.037  12.369  -4.025  1.00  0.00     0.062 A 
ATOM     17  C   UNL     1      12.302  12.274  -5.216  1.00  0.00     0.158 A 
BRANCH  15  18
ATOM     18  O   UNL     1      12.188  12.438  -7.624  1.00  0.00    -0.504 OA
ATOM     19  H   UNL     1      11.572  11.654  -7.803  1.00  0.00     0.293 HD
ENDBRANCH  15  18
BRANCH  17  20
ATOM     20  O   UNL     1      10.954  11.917  -5.186  1.00  0.00    -0.504 OA
ATOM     21  H   UNL     1      10.302  12.363  -4.552  1.00  0.00     0.293 HD
ENDBRANCH  17  20
ENDBRANCH   1  12
BRANCH   6  22
ATOM     22  O   UNL     1      18.490  13.637   1.114  1.00  0.00    -0.507 OA
ATOM     23  H   UNL     1      18.659  14.549   1.509  1.00  0.00     0.293 HD
ENDBRANCH   6  22
BRANCH   8  24
ATOM     24  O   UNL     1      14.549  11.670   3.029  1.00  0.00    -0.508 OA
ATOM     25  H   UNL     1      13.763  12.181   3.412  1.00  0.00     0.293 HD
ENDBRANCH   8  24
TORSDOF 5
ENDMDL
MODEL 4
REMARK VINA RESULT:    -6.492      8.441     11.379
REMARK INTER + INTRA:          -7.896
REMARK INTER:                  -7.600
REMARK INTRA:                  -0.297
REMARK UNBOUND:                -0.266
REMARK SMILES O=c1cc(-c2ccc(O)c(O)c2)oc2cc(O)cc(O)c12
REMARK SMILES IDX 4 1 3 2 2 3 1 4 21 5 19 6 18 7 16 8 15 9 14 10 13 11 5 12
REMARK SMILES IDX 6 13 7 14 8 15 12 16 10 17 9 18 11 20 20 22 17 24
REMARK H PARENT 9 19 11 21 20 23 17 25
REMARK Flexibility Score: inf
ROOT
ATOM      1  C   UNL     1      16.726  12.946  -4.281  1.00  0.00     0.138 A 
ATOM      2  C   UNL     1      15.342  13.073  -4.101  1.00  0.00     0.100 A 
ATOM      3  C   UNL     1      14.489  12.942  -5.197  1.00  0.00     0.197 A 
ATOM      4  O   UNL     1      13.248  12.999  -4.995  1.00  0.00    -0.289 OA
ATOM      5  C   UNL     1      15.029  12.713  -6.485  1.00  0.00     0.107 A 
ATOM      6  C   UNL     1      14.258  12.603  -7.682  1.00  0.00     0.134 A 
ATOM      7  C   UNL     1      14.893  12.259  -8.882  1.00  0.00     0.093 A 
ATOM      8  C   UNL     1      16.278  12.081  -8.940  1.00  0.00     0.123 A 
ATOM      9  C   UNL     1      17.045  12.239  -7.788  1.00  0.00     0.094 A 
ATOM     10  C   UNL     1      16.437  12.547  -6.569  1.00  0.00     0.146 A 
ATOM     11  O   UNL     1      17.204  12.675  -5.492  1.00  0.00    -0.456 OA
ENDROOT
BRANCH   1  12
ATOM     12  C   UNL     1      17.679  13.077  -3.150  1.00  0.00     0.021 A 
ATOM     13  C   UNL     1      19.061  12.993  -3.395  1.00  0.00     0.016 A 
ATOM     14  C   UNL     1      19.979  13.121  -2.350  1.00  0.00     0.051 A 
ATOM     15  C   UNL     1      19.531  13.344  -1.042  1.00  0.00     0.157 A 
ATOM     16  C   UNL     1      17.238  13.316  -1.833  1.00  0.00     0.062 A 
ATOM     17  C   UNL     1      18.159  13.446  -0.784  1.00  0.00     0.158 A 
BRANCH  15  18
ATOM     18  O   UNL     1      20.444  13.472   0.005  1.00  0.00    -0.504 OA
ATOM     19  H   UNL     1      20.522  14.331   0.537  1.00  0.00     0.293 HD
ENDBRANCH  15  18
BRANCH  17  20
ATOM     20  O   UNL     1      17.718  13.680   0.518  1.00  0.00    -0.504 OA
ATOM     21  H   UNL     1      17.679  12.937   1.206  1.00  0.00     0.293 HD
ENDBRANCH  17  20
ENDBRANCH   1  12
BRANCH   6  22
ATOM     22  O   UNL     1      12.882  12.843  -7.750  1.00  0.00    -0.507 OA
ATOM     23  H   UNL     1      12.463  13.710  -8.050  1.00  0.00     0.293 HD
ENDBRANCH   6  22
BRANCH   8  24
ATOM     24  O   UNL     1      16.902  11.754 -10.142  1.00  0.00    -0.508 OA
ATOM     25  H   UNL     1      16.694  12.252 -10.999  1.00  0.00     0.293 HD
ENDBRANCH   8  24
TORSDOF 5
ENDMDL
MODEL 5
REMARK VINA RESULT:    -6.489     10.580     12.969
REMARK INTER + INTRA:          -7.893
REMARK INTER:                  -7.586
REMARK INTRA:                  -0.307
REMARK UNBOUND:                -0.266
REMARK SMILES O=c1cc(-c2ccc(O)c(O)c2)oc2cc(O)cc(O)c12
REMARK SMILES IDX 4 1 3 2 2 3 1 4 21 5 19 6 18 7 16 8 15 9 14 10 13 11 5 12
REMARK SMILES IDX 6 13 7 14 8 15 12 16 10 17 9 18 11 20 20 22 17 24
REMARK H PARENT 9 19 11 21 20 23 17 25
REMARK Flexibility Score: inf
ROOT
ATOM      1  C   UNL     1      15.064  12.708  -3.519  1.00  0.00     0.138 A 
ATOM      2  C   UNL     1      14.867  12.989  -4.878  1.00  0.00     0.100 A 
ATOM      3  C   UNL     1      13.613  12.775  -5.452  1.00  0.00     0.197 A 
ATOM      4  O   UNL     1      13.450  13.096  -6.658  1.00  0.00    -0.289 OA
ATOM      5  C   UNL     1      12.561  12.246  -4.667  1.00  0.00     0.107 A 
ATOM      6  C   UNL     1      11.254  11.947  -5.155  1.00  0.00     0.134 A 
ATOM      7  C   UNL     1      10.260  11.537  -4.259  1.00  0.00     0.093 A 
ATOM      8  C   UNL     1      10.542  11.354  -2.903  1.00  0.00     0.123 A 
ATOM      9  C   UNL     1      11.830  11.591  -2.426  1.00  0.00     0.094 A 
ATOM     10  C   UNL     1      12.834  12.036  -3.289  1.00  0.00     0.146 A 
ATOM     11  O   UNL     1      14.044  12.263  -2.791  1.00  0.00    -0.456 OA
ENDROOT
BRANCH   1  12
ATOM     12  C   UNL     1      16.377  12.916  -2.858  1.00  0.00     0.021 A 
ATOM     13  C   UNL     1      17.556  12.838  -3.620  1.00  0.00     0.016 A 
ATOM     14  C   UNL     1      18.804  13.038  -3.023  1.00  0.00     0.051 A 
ATOM     15  C   UNL     1      18.893  13.330  -1.657  1.00  0.00     0.157 A 
ATOM     16  C   UNL     1      16.475  13.225  -1.487  1.00  0.00     0.062 A 
ATOM     17  C   UNL     1      17.727  13.427  -0.888  1.00  0.00     0.158 A 
BRANCH  15  18
ATOM     18  O   UNL     1      20.136  13.530  -1.057  1.00  0.00    -0.504 OA
ATOM     19  H   UNL     1      20.413  14.439  -0.704  1.00  0.00     0.293 HD
ENDBRANCH  15  18
BRANCH  17  20
ATOM     20  O   UNL     1      17.819  13.729   0.470  1.00  0.00    -0.504 OA
ATOM     21  H   UNL     1      18.582  14.284   0.839  1.00  0.00     0.293 HD
ENDBRANCH  17  20
ENDBRANCH   1  12
BRANCH   6  22
ATOM     22  O   UNL     1      10.889  12.014  -6.504  1.00  0.00    -0.507 OA
ATOM     23  H   UNL     1      11.305  11.465  -7.241  1.00  0.00     0.293 HD
ENDBRANCH   6  22
BRANCH   8  24
ATOM     24  O   UNL     1       9.551  10.930  -2.021  1.00  0.00    -0.508 OA
ATOM     25  H   UNL     1       8.570  11.109  -2.202  1.00  0.00     0.293 HD
ENDBRANCH   8  24
TORSDOF 5
ENDMDL
MODEL 6
REMARK VINA RESULT:    -6.486      1.894      2.706
REMARK INTER + INTRA:          -7.890
REMARK INTER:                  -7.626
REMARK INTRA:                  -0.264
REMARK UNBOUND:                -0.266
REMARK SMILES O=c1cc(-c2ccc(O)c(O)c2)oc2cc(O)cc(O)c12
REMARK SMILES IDX 4 1 3 2 2 3 1 4 21 5 19 6 18 7 16 8 15 9 14 10 13 11 5 12
REMARK SMILES IDX 6 13 7 14 8 15 12 16 10 17 9 18 11 20 20 22 17 24
REMARK H PARENT 9 19 11 21 20 23 17 25
REMARK Flexibility Score: inf
ROOT
ATOM      1  C   UNL     1      19.620  17.476 -11.700  1.00  0.00     0.138 A 
ATOM      2  C   UNL     1      19.444  16.200 -12.250  1.00  0.00     0.100 A 
ATOM      3  C   UNL     1      20.195  15.129 -11.764  1.00  0.00     0.197 A 
ATOM      4  O   UNL     1      19.971  13.984 -12.234  1.00  0.00    -0.289 OA
ATOM      5  C   UNL     1      21.151  15.346 -10.743  1.00  0.00     0.107 A 
ATOM      6  C   UNL     1      22.003  14.339 -10.199  1.00  0.00     0.134 A 
ATOM      7  C   UNL     1      22.827  14.647  -9.110  1.00  0.00     0.093 A 
ATOM      8  C   UNL     1      22.876  15.941  -8.585  1.00  0.00     0.123 A 
ATOM      9  C   UNL     1      22.088  16.945  -9.145  1.00  0.00     0.094 A 
ATOM     10  C   UNL     1      21.229  16.661 -10.209  1.00  0.00     0.146 A 
ATOM     11  O   UNL     1      20.484  17.643 -10.704  1.00  0.00    -0.456 OA
ENDROOT
BRANCH   1  12
ATOM     12  C   UNL     1      18.847  18.650 -12.179  1.00  0.00     0.021 A 
ATOM     13  C   UNL     1      19.347  19.420 -13.244  1.00  0.00     0.016 A 
ATOM     14  C   UNL     1      18.636  20.525 -13.720  1.00  0.00     0.051 A 
ATOM     15  C   UNL     1      17.408  20.873 -13.144  1.00  0.00     0.157 A 
ATOM     16  C   UNL     1      17.604  18.999 -11.615  1.00  0.00     0.062 A 
ATOM     17  C   UNL     1      16.890  20.108 -12.093  1.00  0.00     0.158 A 
BRANCH  15  18
ATOM     18  O   UNL     1      16.695  21.975 -13.615  1.00  0.00    -0.504 OA
ATOM     19  H   UNL     1      16.331  22.679 -12.983  1.00  0.00     0.293 HD
ENDBRANCH  15  18
BRANCH  17  20
ATOM     20  O   UNL     1      15.661  20.451 -11.530  1.00  0.00    -0.504 OA
ATOM     21  H   UNL     1      14.877  19.809 -11.535  1.00  0.00     0.293 HD
ENDBRANCH  17  20
ENDBRANCH   1  12
BRANCH   6  22
ATOM     22  O   UNL     1      22.093  13.037 -10.702  1.00  0.00    -0.507 OA
ATOM     23  H   UNL     1      22.653  12.301 -10.300  1.00  0.00     0.293 HD
ENDBRANCH   6  22
BRANCH   8  24
ATOM     24  O   UNL     1      23.711  16.242  -7.512  1.00  0.00    -0.508 OA
ATOM     25  H   UNL     1      24.133  17.157  -7.409  1.00  0.00     0.293 HD
ENDBRANCH   8  24
TORSDOF 5
ENDMDL
MODEL 7
REMARK VINA RESULT:    -6.477      9.714     12.190
REMARK INTER + INTRA:          -7.879
REMARK INTER:                  -7.564
REMARK INTRA:                  -0.315
REMARK UNBOUND:                -0.266
REMARK SMILES O=c1cc(-c2ccc(O)c(O)c2)oc2cc(O)cc(O)c12
REMARK SMILES IDX 4 1 3 2 2 3 1 4 21 5 19 6 18 7 16 8 15 9 14 10 13 11 5 12
REMARK SMILES IDX 6 13 7 14 8 15 12 16 10 17 9 18 11 20 20 22 17 24
REMARK H PARENT 9 19 11 21 20 23 17 25
REMARK Flexibility Score: inf
ROOT
ATOM      1  C   UNL     1      14.987  12.695  -3.450  1.00  0.00     0.138 A 
ATOM      2  C   UNL     1      13.596  12.550  -3.530  1.00  0.00     0.100 A 
ATOM      3  C   UNL     1      12.986  12.422  -4.778  1.00  0.00     0.197 A 
ATOM      4  O   UNL     1      11.742  12.231  -4.815  1.00  0.00    -0.289 OA
ATOM      5  C   UNL     1      13.772  12.471  -5.954  1.00  0.00     0.107 A 
ATOM      6  C   UNL     1      13.254  12.392  -7.282  1.00  0.00     0.134 A 
ATOM      7  C   UNL     1      14.140  12.334  -8.364  1.00  0.00     0.093 A 
ATOM      8  C   UNL     1      15.522  12.413  -8.172  1.00  0.00     0.123 A 
ATOM      9  C   UNL     1      16.034  12.545  -6.883  1.00  0.00     0.094 A 
ATOM     10  C   UNL     1      15.178  12.570  -5.779  1.00  0.00     0.146 A 
ATOM     11  O   UNL     1      15.709  12.682  -4.567  1.00  0.00    -0.456 OA
ENDROOT
BRANCH   1  12
ATOM     12  C   UNL     1      15.688  12.835  -2.148  1.00  0.00     0.021 A 
ATOM     13  C   UNL     1      15.007  12.524  -0.958  1.00  0.00     0.016 A 
ATOM     14  C   UNL     1      15.645  12.640   0.279  1.00  0.00     0.051 A 
ATOM     15  C   UNL     1      16.979  13.060   0.346  1.00  0.00     0.157 A 
ATOM     16  C   UNL     1      17.034  13.243  -2.072  1.00  0.00     0.062 A 
ATOM     17  C   UNL     1      17.676  13.359  -0.830  1.00  0.00     0.158 A 
BRANCH  15  18
ATOM     18  O   UNL     1      17.621  13.178   1.579  1.00  0.00    -0.504 OA
ATOM     19  H   UNL     1      17.638  12.412   2.243  1.00  0.00     0.293 HD
ENDBRANCH  15  18
BRANCH  17  20
ATOM     20  O   UNL     1      19.007  13.766  -0.759  1.00  0.00    -0.504 OA
ATOM     21  H   UNL     1      19.708  13.399  -1.392  1.00  0.00     0.293 HD
ENDBRANCH  17  20
ENDBRANCH   1  12
BRANCH   6  22
ATOM     22  O   UNL     1      11.890  12.393  -7.589  1.00  0.00    -0.507 OA
ATOM     23  H   UNL     1      11.183  12.892  -7.071  1.00  0.00     0.293 HD
ENDBRANCH   6  22
BRANCH   8  24
ATOM     24  O   UNL     1      16.394  12.370  -9.257  1.00  0.00    -0.508 OA
ATOM     25  H   UNL     1      16.052  12.318 -10.209  1.00  0.00     0.293 HD
ENDBRANCH   8  24
TORSDOF 5
ENDMDL
MODEL 8
REMARK VINA RESULT:    -6.420     11.047     12.777
REMARK INTER + INTRA:          -7.812
REMARK INTER:                  -7.516
REMARK INTRA:                  -0.296
REMARK UNBOUND:                -0.266
REMARK SMILES O=c1cc(-c2ccc(O)c(O)c2)oc2cc(O)cc(O)c12
REMARK SMILES IDX 4 1 3 2 2 3 1 4 21 5 19 6 18 7 16 8 15 9 14 10 13 11 5 12
REMARK SMILES IDX 6 13 7 14 8 15 12 16 10 17 9 18 11 20 20 22 17 24
REMARK H PARENT 9 19 11 21 20 23 17 25
REMARK Flexibility Score: inf
ROOT
ATOM      1  C   UNL     1      14.836  12.701  -2.668  1.00  0.00     0.138 A 
ATOM      2  C   UNL     1      16.149  13.173  -2.797  1.00  0.00     0.100 A 
ATOM      3  C   UNL     1      16.958  13.282  -1.665  1.00  0.00     0.197 A 
ATOM      4  O   UNL     1      18.151  13.649  -1.821  1.00  0.00    -0.289 OA
ATOM      5  C   UNL     1      16.436  12.945  -0.394  1.00  0.00     0.107 A 
ATOM      6  C   UNL     1      17.155  13.055   0.835  1.00  0.00     0.134 A 
ATOM      7  C   UNL     1      16.575  12.582   2.018  1.00  0.00     0.093 A 
ATOM      8  C   UNL     1      15.279  12.059   2.027  1.00  0.00     0.123 A 
ATOM      9  C   UNL     1      14.549  11.998   0.843  1.00  0.00     0.094 A 
ATOM     10  C   UNL     1      15.113  12.429  -0.361  1.00  0.00     0.146 A 
ATOM     11  O   UNL     1      14.389  12.339  -1.470  1.00  0.00    -0.456 OA
ENDROOT
BRANCH   1  12
ATOM     12  C   UNL     1      13.933  12.566  -3.839  1.00  0.00     0.021 A 
ATOM     13  C   UNL     1      12.599  12.168  -3.642  1.00  0.00     0.016 A 
ATOM     14  C   UNL     1      11.726  12.042  -4.726  1.00  0.00     0.051 A 
ATOM     15  C   UNL     1      12.170  12.320  -6.024  1.00  0.00     0.157 A 
ATOM     16  C   UNL     1      14.367  12.858  -5.147  1.00  0.00     0.062 A 
ATOM     17  C   UNL     1      13.491  12.731  -6.235  1.00  0.00     0.158 A 
BRANCH  15  18
ATOM     18  O   UNL     1      11.303  12.194  -7.109  1.00  0.00    -0.504 OA
ATOM     19  H   UNL     1      11.239  11.332  -7.639  1.00  0.00     0.293 HD
ENDBRANCH  15  18
BRANCH  17  20
ATOM     20  O   UNL     1      13.926  13.018  -7.529  1.00  0.00    -0.504 OA
ATOM     21  H   UNL     1      13.275  13.099  -8.301  1.00  0.00     0.293 HD
ENDBRANCH  17  20
ENDBRANCH   1  12
BRANCH   6  22
ATOM     22  O   UNL     1      18.421  13.639   0.950  1.00  0.00    -0.507 OA
ATOM     23  H   UNL     1      18.716  14.473   0.466  1.00  0.00     0.293 HD
ENDBRANCH   6  22
BRANCH   8  24
ATOM     24  O   UNL     1      14.705  11.605   3.213  1.00  0.00    -0.508 OA
ATOM     25  H   UNL     1      13.924  12.088   3.642  1.00  0.00     0.293 HD
ENDBRANCH   8  24
TORSDOF 5
ENDMDL
MODEL 9
REMARK VINA RESULT:    -6.393     11.147     13.911
REMARK INTER + INTRA:          -7.780
REMARK INTER:                  -7.484
REMARK INTRA:                  -0.297
REMARK UNBOUND:                -0.266
REMARK SMILES O=c1cc(-c2ccc(O)c(O)c2)oc2cc(O)cc(O)c12
REMARK SMILES IDX 4 1 3 2 2 3 1 4 21 5 19 6 18 7 16 8 15 9 14 10 13 11 5 12
REMARK SMILES IDX 6 13 7 14 8 15 12 16 10 17 9 18 11 20 20 22 17 24
REMARK H PARENT 9 19 11 21 20 23 17 25
REMARK Flexibility Score: inf
ROOT
ATOM      1  C   UNL     1      15.774  12.875  -1.370  1.00  0.00     0.138 A 
ATOM      2  C   UNL     1      16.417  13.343  -2.523  1.00  0.00     0.100 A 
ATOM      3  C   UNL     1      15.737  13.341  -3.741  1.00  0.00     0.197 A 
ATOM      4  O   UNL     1      16.319  13.825  -4.747  1.00  0.00    -0.289 OA
ATOM      5  C   UNL     1      14.416  12.838  -3.809  1.00  0.00     0.107 A 
ATOM      6  C   UNL     1      13.640  12.749  -5.004  1.00  0.00     0.134 A 
ATOM      7  C   UNL     1      12.303  12.343  -4.929  1.00  0.00     0.093 A 
ATOM      8  C   UNL     1      11.731  11.963  -3.712  1.00  0.00     0.123 A 
ATOM      9  C   UNL     1      12.496  11.995  -2.548  1.00  0.00     0.094 A 
ATOM     10  C   UNL     1      13.823  12.430  -2.584  1.00  0.00     0.146 A 
ATOM     11  O   UNL     1      14.514  12.459  -1.450  1.00  0.00    -0.456 OA
ENDROOT
BRANCH   1  12
ATOM     12  C   UNL     1      16.450  12.853  -0.048  1.00  0.00     0.021 A 
ATOM     13  C   UNL     1      15.772  12.335   1.069  1.00  0.00     0.016 A 
ATOM     14  C   UNL     1      16.389  12.296   2.322  1.00  0.00     0.051 A 
ATOM     15  C   UNL     1      17.698  12.767   2.477  1.00  0.00     0.157 A 
ATOM     16  C   UNL     1      17.773  13.312   0.114  1.00  0.00     0.062 A 
ATOM     17  C   UNL     1      18.392  13.272   1.372  1.00  0.00     0.158 A 
BRANCH  15  18
ATOM     18  O   UNL     1      18.318  12.731   3.726  1.00  0.00    -0.504 OA
ATOM     19  H   UNL     1      19.312  12.898   3.829  1.00  0.00     0.293 HD
ENDBRANCH  15  18
BRANCH  17  20
ATOM     20  O   UNL     1      19.700  13.729   1.529  1.00  0.00    -0.504 OA
ATOM     21  H   UNL     1      20.366  13.704   0.765  1.00  0.00     0.293 HD
ENDBRANCH  17  20
ENDBRANCH   1  12
BRANCH   6  22
ATOM     22  O   UNL     1      14.139  13.023  -6.281  1.00  0.00    -0.507 OA
ATOM     23  H   UNL     1      14.856  12.487  -6.747  1.00  0.00     0.293 HD
ENDBRANCH   6  22
BRANCH   8  24
ATOM     24  O   UNL     1      10.404  11.546  -3.650  1.00  0.00    -0.508 OA
ATOM     25  H   UNL     1       9.711  11.884  -4.307  1.00  0.00     0.293 HD
ENDBRANCH   8  24
TORSDOF 5
ENDMDL
