MODEL 1
REMARK VINA RESULT:    -6.399      0.000      0.000
REMARK INTER + INTRA:          -7.864
REMARK INTER:                  -7.708
REMARK INTRA:                  -0.155
REMARK UNBOUND:                -0.155
REMARK SMILES O=c1c(O)c(-c2ccc(O)c(O)c2)oc2cc(O)cc(O)c12
REMARK SMILES IDX 5 1 3 2 2 3 1 4 22 5 20 6 19 7 17 8 16 9 15 10 14 11 6 12
REMARK SMILES IDX 7 13 8 14 9 15 13 16 11 17 10 18 12 20 4 22 21 24 18 26
REMARK H PARENT 10 19 12 21 4 23 21 25 18 27
REMARK Flexibility Score: inf
ROOT
ATOM      1  C   UNL     1      26.668 -19.727   0.512  1.00  0.00     0.180 A 
ATOM      2  C   UNL     1      25.815 -18.848  -0.178  1.00  0.00     0.208 A 
ATOM      3  C   UNL     1      24.495 -19.247  -0.444  1.00  0.00     0.238 A 
ATOM      4  O   UNL     1      23.754 -18.478  -1.109  1.00  0.00    -0.285 OA
ATOM      5  C   UNL     1      24.040 -20.512  -0.002  1.00  0.00     0.111 A 
ATOM      6  C   UNL     1      22.711 -21.003  -0.180  1.00  0.00     0.134 A 
ATOM      7  C   UNL     1      22.408 -22.321   0.182  1.00  0.00     0.093 A 
ATOM      8  C   UNL     1      23.367 -23.144   0.775  1.00  0.00     0.123 A 
ATOM      9  C   UNL     1      24.650 -22.655   1.008  1.00  0.00     0.094 A 
ATOM     10  C   UNL     1      24.994 -21.356   0.625  1.00  0.00     0.146 A 
ATOM     11  O   UNL     1      26.231 -20.933   0.856  1.00  0.00    -0.452 OA
ENDROOT
BRANCH   1  12
ATOM     12  C   UNL     1      28.063 -19.367   0.850  1.00  0.00     0.025 A 
ATOM     13  C   UNL     1      29.117 -20.167   0.377  1.00  0.00     0.016 A 
ATOM     14  C   UNL     1      30.441 -19.858   0.701  1.00  0.00     0.051 A 
ATOM     15  C   UNL     1      30.729 -18.754   1.515  1.00  0.00     0.157 A 
ATOM     16  C   UNL     1      28.357 -18.273   1.684  1.00  0.00     0.062 A 
ATOM     17  C   UNL     1      29.685 -17.963   2.011  1.00  0.00     0.158 A 
BRANCH  15  18
ATOM     18  O   UNL     1      32.048 -18.442   1.839  1.00  0.00    -0.504 OA
ATOM     19  H   UNL     1      32.586 -17.781   1.291  1.00  0.00     0.293 HD
ENDBRANCH  15  18
BRANCH  17  20
ATOM     20  O   UNL     1      29.974 -16.876   2.832  1.00  0.00    -0.504 OA
ATOM     21  H   UNL     1      29.395 -16.646   3.632  1.00  0.00     0.293 HD
ENDBRANCH  17  20
ENDBRANCH   1  12
BRANCH   2  22
ATOM     22  O   UNL     1      26.292 -17.613  -0.625  1.00  0.00    -0.502 OA
ATOM     23  H   UNL     1      26.250 -17.332  -1.597  1.00  0.00     0.293 HD
ENDBRANCH   2  22
BRANCH   6  24
ATOM     24  O   UNL     1      21.655 -20.234  -0.678  1.00  0.00    -0.507 OA
ATOM     25  H   UNL     1      20.703 -20.284  -0.351  1.00  0.00     0.293 HD
ENDBRANCH   6  24
BRANCH   8  26
ATOM     26  O   UNL     1      23.052 -24.449   1.147  1.00  0.00    -0.508 OA
ATOM     27  H   UNL     1      22.814 -24.685   2.103  1.00  0.00     0.293 HD
ENDBRANCH   8  26
TORSDOF 6
ENDMDL
MODEL 2
REMARK VINA RESULT:    -5.661      4.332      5.712
REMARK INTER + INTRA:          -6.975
REMARK INTER:                  -6.658
REMARK INTRA:                  -0.316
REMARK UNBOUND:                -0.155
REMARK SMILES O=c1c(O)c(-c2ccc(O)c(O)c2)oc2cc(O)cc(O)c12
REMARK SMILES IDX 5 1 3 2 2 3 1 4 22 5 20 6 19 7 17 8 16 9 15 10 14 11 6 12
REMARK SMILES IDX 7 13 8 14 9 15 13 16 11 17 10 18 12 20 4 22 21 24 18 26
REMARK H PARENT 10 19 12 21 4 23 21 25 18 27
REMARK Flexibility Score: inf
ROOT
ATOM      1  C   UNL     1      28.648 -23.165   0.299  1.00  0.00     0.180 A 
ATOM      2  C   UNL     1      29.305 -21.947   0.055  1.00  0.00     0.208 A 
ATOM      3  C   UNL     1      28.587 -20.747   0.186  1.00  0.00     0.238 A 
ATOM      4  O   UNL     1      29.167 -19.663  -0.086  1.00  0.00    -0.285 OA
ATOM      5  C   UNL     1      27.227 -20.779   0.575  1.00  0.00     0.111 A 
ATOM      6  C   UNL     1      26.414 -19.623   0.779  1.00  0.00     0.134 A 
ATOM      7  C   UNL     1      25.047 -19.778   1.035  1.00  0.00     0.093 A 
ATOM      8  C   UNL     1      24.476 -21.046   1.162  1.00  0.00     0.123 A 
ATOM      9  C   UNL     1      25.273 -22.180   1.024  1.00  0.00     0.094 A 
ATOM     10  C   UNL     1      26.633 -22.059   0.731  1.00  0.00     0.146 A 
ATOM     11  O   UNL     1      27.355 -23.166   0.598  1.00  0.00    -0.452 OA
ENDROOT
BRANCH   1  12
ATOM     12  C   UNL     1      29.344 -24.468   0.206  1.00  0.00     0.025 A 
ATOM     13  C   UNL     1      29.170 -25.264  -0.939  1.00  0.00     0.016 A 
ATOM     14  C   UNL     1      29.801 -26.506  -1.040  1.00  0.00     0.051 A 
ATOM     15  C   UNL     1      30.603 -26.978   0.009  1.00  0.00     0.157 A 
ATOM     16  C   UNL     1      30.133 -24.955   1.264  1.00  0.00     0.062 A 
ATOM     17  C   UNL     1      30.766 -26.203   1.163  1.00  0.00     0.158 A 
BRANCH  15  18
ATOM     18  O   UNL     1      31.235 -28.216  -0.089  1.00  0.00    -0.504 OA
ATOM     19  H   UNL     1      31.314 -28.836   0.707  1.00  0.00     0.293 HD
ENDBRANCH  15  18
BRANCH  17  20
ATOM     20  O   UNL     1      31.551 -26.681   2.210  1.00  0.00    -0.504 OA
ATOM     21  H   UNL     1      32.277 -26.113   2.631  1.00  0.00     0.293 HD
ENDBRANCH  17  20
ENDBRANCH   1  12
BRANCH   2  22
ATOM     22  O   UNL     1      30.643 -21.939  -0.349  1.00  0.00    -0.502 OA
ATOM     23  H   UNL     1      30.942 -22.294  -1.250  1.00  0.00     0.293 HD
ENDBRANCH   2  22
BRANCH   6  24
ATOM     24  O   UNL     1      26.903 -18.313   0.766  1.00  0.00    -0.507 OA
ATOM     25  H   UNL     1      27.799 -18.030   1.134  1.00  0.00     0.293 HD
ENDBRANCH   6  24
BRANCH   8  26
ATOM     26  O   UNL     1      23.117 -21.190   1.433  1.00  0.00    -0.508 OA
ATOM     27  H   UNL     1      22.706 -22.099   1.612  1.00  0.00     0.293 HD
ENDBRANCH   8  26
TORSDOF 6
ENDMDL
MODEL 3
REMARK VINA RESULT:    -5.647      5.000      7.155
REMARK INTER + INTRA:          -6.958
REMARK INTER:                  -6.787
REMARK INTRA:                  -0.171
REMARK UNBOUND:                -0.155
REMARK SMILES O=c1c(O)c(-c2ccc(O)c(O)c2)oc2cc(O)cc(O)c12
REMARK SMILES IDX 5 1 3 2 2 3 1 4 22 5 20 6 19 7 17 8 16 9 15 10 14 11 6 12
REMARK SMILES IDX 7 13 8 14 9 15 13 16 11 17 10 18 12 20 4 22 21 24 18 26
REMARK H PARENT 10 19 12 21 4 23 21 25 18 27
REMARK Flexibility Score: inf
ROOT
ATOM      1  C   UNL     1      29.531 -24.009   0.471  1.00  0.00     0.180 A 
ATOM      2  C   UNL     1      28.159 -23.900   0.179  1.00  0.00     0.208 A 
ATOM      3  C   UNL     1      27.603 -22.625  -0.014  1.00  0.00     0.238 A 
ATOM      4  O   UNL     1      26.365 -22.531  -0.220  1.00  0.00    -0.285 OA
ATOM      5  C   UNL     1      28.427 -21.477   0.071  1.00  0.00     0.111 A 
ATOM      6  C   UNL     1      27.978 -20.139  -0.147  1.00  0.00     0.134 A 
ATOM      7  C   UNL     1      28.851 -19.071   0.091  1.00  0.00     0.093 A 
ATOM      8  C   UNL     1      30.175 -19.294   0.475  1.00  0.00     0.123 A 
ATOM      9  C   UNL     1      30.639 -20.599   0.632  1.00  0.00     0.094 A 
ATOM     10  C   UNL     1      29.782 -21.684   0.438  1.00  0.00     0.146 A 
ATOM     11  O   UNL     1      30.263 -22.910   0.608  1.00  0.00    -0.452 OA
ENDROOT
BRANCH   1  12
ATOM     12  C   UNL     1      30.193 -25.319   0.661  1.00  0.00     0.025 A 
ATOM     13  C   UNL     1      30.272 -26.216  -0.417  1.00  0.00     0.016 A 
ATOM     14  C   UNL     1      30.875 -27.466  -0.254  1.00  0.00     0.051 A 
ATOM     15  C   UNL     1      31.393 -27.844   0.993  1.00  0.00     0.157 A 
ATOM     16  C   UNL     1      30.696 -25.710   1.916  1.00  0.00     0.062 A 
ATOM     17  C   UNL     1      31.299 -26.966   2.080  1.00  0.00     0.158 A 
BRANCH  15  18
ATOM     18  O   UNL     1      31.996 -29.089   1.158  1.00  0.00    -0.504 OA
ATOM     19  H   UNL     1      31.449 -29.927   1.313  1.00  0.00     0.293 HD
ENDBRANCH  15  18
BRANCH  17  20
ATOM     20  O   UNL     1      31.802 -27.350   3.321  1.00  0.00    -0.504 OA
ATOM     21  H   UNL     1      32.122 -26.667   3.998  1.00  0.00     0.293 HD
ENDBRANCH  17  20
ENDBRANCH   1  12
BRANCH   2  22
ATOM     22  O   UNL     1      27.360 -25.045   0.122  1.00  0.00    -0.502 OA
ATOM     23  H   UNL     1      26.487 -25.125   0.630  1.00  0.00     0.293 HD
ENDBRANCH   2  22
BRANCH   6  24
ATOM     24  O   UNL     1      26.703 -19.811  -0.619  1.00  0.00    -0.507 OA
ATOM     25  H   UNL     1      25.839 -20.136  -0.213  1.00  0.00     0.293 HD
ENDBRANCH   6  24
BRANCH   8  26
ATOM     26  O   UNL     1      31.041 -18.226   0.695  1.00  0.00    -0.508 OA
ATOM     27  H   UNL     1      31.635 -18.185   1.515  1.00  0.00     0.293 HD
ENDBRANCH   8  26
TORSDOF 6
ENDMDL
MODEL 4
REMARK VINA RESULT:    -5.637      5.003      6.316
REMARK INTER + INTRA:          -6.945
REMARK INTER:                  -6.744
REMARK INTRA:                  -0.201
REMARK UNBOUND:                -0.155
REMARK SMILES O=c1c(O)c(-c2ccc(O)c(O)c2)oc2cc(O)cc(O)c12
REMARK SMILES IDX 5 1 3 2 2 3 1 4 22 5 20 6 19 7 17 8 16 9 15 10 14 11 6 12
REMARK SMILES IDX 7 13 8 14 9 15 13 16 11 17 10 18 12 20 4 22 21 24 18 26
REMARK H PARENT 10 19 12 21 4 23 21 25 18 27
REMARK Flexibility Score: inf
ROOT
ATOM      1  C   UNL     1      29.278 -24.049   0.348  1.00  0.00     0.180 A 
ATOM      2  C   UNL     1      29.920 -22.798   0.374  1.00  0.00     0.208 A 
ATOM      3  C   UNL     1      29.158 -21.638   0.158  1.00  0.00     0.238 A 
ATOM      4  O   UNL     1      29.747 -20.526   0.129  1.00  0.00    -0.285 OA
ATOM      5  C   UNL     1      27.765 -21.741  -0.063  1.00  0.00     0.111 A 
ATOM      6  C   UNL     1      26.889 -20.629  -0.252  1.00  0.00     0.134 A 
ATOM      7  C   UNL     1      25.550 -20.855  -0.593  1.00  0.00     0.093 A 
ATOM      8  C   UNL     1      25.039 -22.151  -0.687  1.00  0.00     0.123 A 
ATOM      9  C   UNL     1      25.872 -23.242  -0.446  1.00  0.00     0.094 A 
ATOM     10  C   UNL     1      27.221 -23.050  -0.140  1.00  0.00     0.146 A 
ATOM     11  O   UNL     1      27.981 -24.117   0.073  1.00  0.00    -0.452 OA
ENDROOT
BRANCH   1  12
ATOM     12  C   UNL     1      30.009 -25.313   0.592  1.00  0.00     0.025 A 
ATOM     13  C   UNL     1      30.081 -26.276  -0.429  1.00  0.00     0.016 A 
ATOM     14  C   UNL     1      30.748 -27.485  -0.214  1.00  0.00     0.051 A 
ATOM     15  C   UNL     1      31.338 -27.756   1.028  1.00  0.00     0.157 A 
ATOM     16  C   UNL     1      30.584 -25.598   1.843  1.00  0.00     0.062 A 
ATOM     17  C   UNL     1      31.252 -26.813   2.059  1.00  0.00     0.158 A 
BRANCH  15  18
ATOM     18  O   UNL     1      32.005 -28.960   1.244  1.00  0.00    -0.504 OA
ATOM     19  H   UNL     1      32.042 -29.681   0.534  1.00  0.00     0.293 HD
ENDBRANCH  15  18
BRANCH  17  20
ATOM     20  O   UNL     1      31.827 -27.091   3.297  1.00  0.00    -0.504 OA
ATOM     21  H   UNL     1      32.806 -26.903   3.482  1.00  0.00     0.293 HD
ENDBRANCH  17  20
ENDBRANCH   1  12
BRANCH   2  22
ATOM     22  O   UNL     1      31.301 -22.720   0.573  1.00  0.00    -0.502 OA
ATOM     23  H   UNL     1      31.709 -22.302   1.401  1.00  0.00     0.293 HD
ENDBRANCH   2  22
BRANCH   6  24
ATOM     24  O   UNL     1      27.276 -19.295  -0.091  1.00  0.00    -0.507 OA
ATOM     25  H   UNL     1      27.942 -18.815  -0.677  1.00  0.00     0.293 HD
ENDBRANCH   6  24
BRANCH   8  26
ATOM     26  O   UNL     1      23.702 -22.367  -1.012  1.00  0.00    -0.508 OA
ATOM     27  H   UNL     1      23.302 -23.298  -1.021  1.00  0.00     0.293 HD
ENDBRANCH   8  26
TORSDOF 6
ENDMDL
MODEL 5
REMARK VINA RESULT:    -5.450      2.374      7.377
REMARK INTER + INTRA:          -6.720
REMARK INTER:                  -6.529
REMARK INTRA:                  -0.191
REMARK UNBOUND:                -0.155
REMARK SMILES O=c1c(O)c(-c2ccc(O)c(O)c2)oc2cc(O)cc(O)c12
REMARK SMILES IDX 5 1 3 2 2 3 1 4 22 5 20 6 19 7 17 8 16 9 15 10 14 11 6 12
REMARK SMILES IDX 7 13 8 14 9 15 13 16 11 17 10 18 12 20 4 22 21 24 18 26
REMARK H PARENT 10 19 12 21 4 23 21 25 18 27
REMARK Flexibility Score: inf
ROOT
ATOM      1  C   UNL     1      27.101 -21.942   0.227  1.00  0.00     0.180 A 
ATOM      2  C   UNL     1      27.633 -23.241   0.156  1.00  0.00     0.208 A 
ATOM      3  C   UNL     1      29.016 -23.421   0.325  1.00  0.00     0.238 A 
ATOM      4  O   UNL     1      29.494 -24.579   0.207  1.00  0.00    -0.285 OA
ATOM      5  C   UNL     1      29.845 -22.303   0.580  1.00  0.00     0.111 A 
ATOM      6  C   UNL     1      31.253 -22.372   0.808  1.00  0.00     0.134 A 
ATOM      7  C   UNL     1      31.993 -21.189   0.919  1.00  0.00     0.093 A 
ATOM      8  C   UNL     1      31.368 -19.941   0.877  1.00  0.00     0.123 A 
ATOM      9  C   UNL     1      29.987 -19.864   0.715  1.00  0.00     0.094 A 
ATOM     10  C   UNL     1      29.226 -21.025   0.564  1.00  0.00     0.146 A 
ATOM     11  O   UNL     1      27.913 -20.907   0.402  1.00  0.00    -0.452 OA
ENDROOT
BRANCH   1  12
ATOM     12  C   UNL     1      25.652 -21.677   0.084  1.00  0.00     0.025 A 
ATOM     13  C   UNL     1      25.197 -20.880  -0.980  1.00  0.00     0.016 A 
ATOM     14  C   UNL     1      23.836 -20.599  -1.123  1.00  0.00     0.051 A 
ATOM     15  C   UNL     1      22.911 -21.099  -0.196  1.00  0.00     0.157 A 
ATOM     16  C   UNL     1      24.722 -22.159   1.023  1.00  0.00     0.062 A 
ATOM     17  C   UNL     1      23.355 -21.876   0.881  1.00  0.00     0.158 A 
BRANCH  15  18
ATOM     18  O   UNL     1      21.552 -20.823  -0.336  1.00  0.00    -0.504 OA
ATOM     19  H   UNL     1      21.090 -20.128   0.238  1.00  0.00     0.293 HD
ENDBRANCH  15  18
BRANCH  17  20
ATOM     20  O   UNL     1      22.435 -22.359   1.809  1.00  0.00    -0.504 OA
ATOM     21  H   UNL     1      22.271 -23.352   1.927  1.00  0.00     0.293 HD
ENDBRANCH  17  20
ENDBRANCH   1  12
BRANCH   2  22
ATOM     22  O   UNL     1      26.800 -24.329  -0.117  1.00  0.00    -0.502 OA
ATOM     23  H   UNL     1      26.957 -24.952  -0.901  1.00  0.00     0.293 HD
ENDBRANCH   2  22
BRANCH   6  24
ATOM     24  O   UNL     1      31.961 -23.569   0.958  1.00  0.00    -0.507 OA
ATOM     25  H   UNL     1      32.565 -23.971   0.258  1.00  0.00     0.293 HD
ENDBRANCH   6  24
BRANCH   8  26
ATOM     26  O   UNL     1      32.110 -18.769   1.005  1.00  0.00    -0.508 OA
ATOM     27  H   UNL     1      33.116 -18.790   1.131  1.00  0.00     0.293 HD
ENDBRANCH   8  26
TORSDOF 6
ENDMDL
MODEL 6
REMARK VINA RESULT:    -5.397      3.665      4.814
REMARK INTER + INTRA:          -6.657
REMARK INTER:                  -6.643
REMARK INTRA:                  -0.014
REMARK UNBOUND:                -0.155
REMARK SMILES O=c1c(O)c(-c2ccc(O)c(O)c2)oc2cc(O)cc(O)c12
REMARK SMILES IDX 5 1 3 2 2 3 1 4 22 5 20 6 19 7 17 8 16 9 15 10 14 11 6 12
REMARK SMILES IDX 7 13 8 14 9 15 13 16 11 17 10 18 12 20 4 22 21 24 18 26
REMARK H PARENT 10 19 12 21 4 23 21 25 18 27
REMARK Flexibility Score: inf
ROOT
ATOM      1  C   UNL     1      27.796 -22.568   0.145  1.00  0.00     0.180 A 
ATOM      2  C   UNL     1      28.062 -21.267  -0.317  1.00  0.00     0.208 A 
ATOM      3  C   UNL     1      27.039 -20.305  -0.268  1.00  0.00     0.238 A 
ATOM      4  O   UNL     1      27.267 -19.158  -0.732  1.00  0.00    -0.285 OA
ATOM      5  C   UNL     1      25.771 -20.651   0.256  1.00  0.00     0.111 A 
ATOM      6  C   UNL     1      24.675 -19.747   0.391  1.00  0.00     0.134 A 
ATOM      7  C   UNL     1      23.427 -20.231   0.801  1.00  0.00     0.093 A 
ATOM      8  C   UNL     1      23.252 -21.573   1.144  1.00  0.00     0.123 A 
ATOM      9  C   UNL     1      24.331 -22.452   1.073  1.00  0.00     0.094 A 
ATOM     10  C   UNL     1      25.579 -22.007   0.632  1.00  0.00     0.146 A 
ATOM     11  O   UNL     1      26.578 -22.880   0.570  1.00  0.00    -0.452 OA
ENDROOT
BRANCH   1  12
ATOM     12  C   UNL     1      28.830 -23.628   0.148  1.00  0.00     0.025 A 
ATOM     13  C   UNL     1      30.073 -23.378   0.753  1.00  0.00     0.016 A 
ATOM     14  C   UNL     1      31.070 -24.357   0.750  1.00  0.00     0.051 A 
ATOM     15  C   UNL     1      30.846 -25.593   0.129  1.00  0.00     0.157 A 
ATOM     16  C   UNL     1      28.616 -24.863  -0.491  1.00  0.00     0.062 A 
ATOM     17  C   UNL     1      29.618 -25.844  -0.496  1.00  0.00     0.158 A 
BRANCH  15  18
ATOM     18  O   UNL     1      31.837 -26.571   0.127  1.00  0.00    -0.504 OA
ATOM     19  H   UNL     1      31.691 -27.476   0.557  1.00  0.00     0.293 HD
ENDBRANCH  15  18
BRANCH  17  20
ATOM     20  O   UNL     1      29.403 -27.069  -1.124  1.00  0.00    -0.504 OA
ATOM     21  H   UNL     1      28.596 -27.226  -1.717  1.00  0.00     0.293 HD
ENDBRANCH  17  20
ENDBRANCH   1  12
BRANCH   2  22
ATOM     22  O   UNL     1      29.314 -20.952  -0.850  1.00  0.00    -0.502 OA
ATOM     23  H   UNL     1      29.961 -21.661  -1.176  1.00  0.00     0.293 HD
ENDBRANCH   2  22
BRANCH   6  24
ATOM     24  O   UNL     1      24.767 -18.370   0.163  1.00  0.00    -0.507 OA
ATOM     25  H   UNL     1      25.417 -17.935  -0.474  1.00  0.00     0.293 HD
ENDBRANCH   6  24
BRANCH   8  26
ATOM     26  O   UNL     1      22.010 -22.043   1.566  1.00  0.00    -0.508 OA
ATOM     27  H   UNL     1      21.235 -21.413   1.737  1.00  0.00     0.293 HD
ENDBRANCH   8  26
TORSDOF 6
ENDMDL
MODEL 7
REMARK VINA RESULT:    -5.258      3.137      6.789
REMARK INTER + INTRA:          -6.489
REMARK INTER:                  -6.385
REMARK INTRA:                  -0.104
REMARK UNBOUND:                -0.155
REMARK SMILES O=c1c(O)c(-c2ccc(O)c(O)c2)oc2cc(O)cc(O)c12
REMARK SMILES IDX 5 1 3 2 2 3 1 4 22 5 20 6 19 7 17 8 16 9 15 10 14 11 6 12
REMARK SMILES IDX 7 13 8 14 9 15 13 16 11 17 10 18 12 20 4 22 21 24 18 26
REMARK H PARENT 10 19 12 21 4 23 21 25 18 27
REMARK Flexibility Score: inf
ROOT
ATOM      1  C   UNL     1      26.964 -21.976   0.209  1.00  0.00     0.180 A 
ATOM      2  C   UNL     1      27.936 -20.967   0.325  1.00  0.00     0.208 A 
ATOM      3  C   UNL     1      29.289 -21.332   0.417  1.00  0.00     0.238 A 
ATOM      4  O   UNL     1      30.149 -20.427   0.577  1.00  0.00    -0.285 OA
ATOM      5  C   UNL     1      29.654 -22.698   0.375  1.00  0.00     0.111 A 
ATOM      6  C   UNL     1      30.997 -23.180   0.419  1.00  0.00     0.134 A 
ATOM      7  C   UNL     1      31.234 -24.558   0.502  1.00  0.00     0.093 A 
ATOM      8  C   UNL     1      30.180 -25.473   0.476  1.00  0.00     0.123 A 
ATOM      9  C   UNL     1      28.868 -25.014   0.373  1.00  0.00     0.094 A 
ATOM     10  C   UNL     1      28.598 -23.645   0.325  1.00  0.00     0.146 A 
ATOM     11  O   UNL     1      27.333 -23.251   0.237  1.00  0.00    -0.452 OA
ENDROOT
BRANCH   1  12
ATOM     12  C   UNL     1      25.522 -21.668   0.082  1.00  0.00     0.025 A 
ATOM     13  C   UNL     1      25.075 -20.881  -0.993  1.00  0.00     0.016 A 
ATOM     14  C   UNL     1      23.721 -20.562  -1.122  1.00  0.00     0.051 A 
ATOM     15  C   UNL     1      22.796 -21.010  -0.169  1.00  0.00     0.157 A 
ATOM     16  C   UNL     1      24.592 -22.099   1.046  1.00  0.00     0.062 A 
ATOM     17  C   UNL     1      23.233 -21.776   0.918  1.00  0.00     0.158 A 
BRANCH  15  18
ATOM     18  O   UNL     1      21.445 -20.694  -0.295  1.00  0.00    -0.504 OA
ATOM     19  H   UNL     1      21.090 -19.777  -0.054  1.00  0.00     0.293 HD
ENDBRANCH  15  18
BRANCH  17  20
ATOM     20  O   UNL     1      22.313 -22.209   1.871  1.00  0.00    -0.504 OA
ATOM     21  H   UNL     1      22.483 -23.033   2.436  1.00  0.00     0.293 HD
ENDBRANCH  17  20
ENDBRANCH   1  12
BRANCH   2  22
ATOM     22  O   UNL     1      27.552 -19.625   0.387  1.00  0.00    -0.502 OA
ATOM     23  H   UNL     1      28.056 -18.939   0.936  1.00  0.00     0.293 HD
ENDBRANCH   2  22
BRANCH   6  24
ATOM     24  O   UNL     1      32.125 -22.355   0.357  1.00  0.00    -0.507 OA
ATOM     25  H   UNL     1      32.875 -22.456  -0.310  1.00  0.00     0.293 HD
ENDBRANCH   6  24
BRANCH   8  26
ATOM     26  O   UNL     1      30.425 -26.842   0.543  1.00  0.00    -0.508 OA
ATOM     27  H   UNL     1      29.959 -27.495  -0.077  1.00  0.00     0.293 HD
ENDBRANCH   8  26
TORSDOF 6
ENDMDL
MODEL 8
REMARK VINA RESULT:    -5.236      1.630      6.859
REMARK INTER + INTRA:          -6.463
REMARK INTER:                  -6.498
REMARK INTRA:                   0.035
REMARK UNBOUND:                -0.155
REMARK SMILES O=c1c(O)c(-c2ccc(O)c(O)c2)oc2cc(O)cc(O)c12
REMARK SMILES IDX 5 1 3 2 2 3 1 4 22 5 20 6 19 7 17 8 16 9 15 10 14 11 6 12
REMARK SMILES IDX 7 13 8 14 9 15 13 16 11 17 10 18 12 20 4 22 21 24 18 26
REMARK H PARENT 10 19 12 21 4 23 21 25 18 27
REMARK Flexibility Score: inf
ROOT
ATOM      1  C   UNL     1      26.485 -20.948   0.558  1.00  0.00     0.180 A 
ATOM      2  C   UNL     1      26.678 -19.742   1.254  1.00  0.00     0.208 A 
ATOM      3  C   UNL     1      27.967 -19.187   1.310  1.00  0.00     0.238 A 
ATOM      4  O   UNL     1      28.144 -18.136   1.980  1.00  0.00    -0.285 OA
ATOM      5  C   UNL     1      29.041 -19.835   0.655  1.00  0.00     0.111 A 
ATOM      6  C   UNL     1      30.380 -19.341   0.611  1.00  0.00     0.134 A 
ATOM      7  C   UNL     1      31.389 -20.131   0.047  1.00  0.00     0.093 A 
ATOM      8  C   UNL     1      31.097 -21.366  -0.535  1.00  0.00     0.123 A 
ATOM      9  C   UNL     1      29.783 -21.830  -0.550  1.00  0.00     0.094 A 
ATOM     10  C   UNL     1      28.761 -21.082   0.038  1.00  0.00     0.146 A 
ATOM     11  O   UNL     1      27.524 -21.565   0.011  1.00  0.00    -0.452 OA
ENDROOT
BRANCH   1  12
ATOM     12  C   UNL     1      25.152 -21.580   0.435  1.00  0.00     0.025 A 
ATOM     13  C   UNL     1      25.028 -22.969   0.604  1.00  0.00     0.016 A 
ATOM     14  C   UNL     1      23.783 -23.590   0.472  1.00  0.00     0.051 A 
ATOM     15  C   UNL     1      22.647 -22.834   0.153  1.00  0.00     0.157 A 
ATOM     16  C   UNL     1      24.012 -20.829   0.094  1.00  0.00     0.062 A 
ATOM     17  C   UNL     1      22.763 -21.452  -0.040  1.00  0.00     0.158 A 
BRANCH  15  18
ATOM     18  O   UNL     1      21.404 -23.450   0.022  1.00  0.00    -0.504 OA
ATOM     19  H   UNL     1      20.562 -22.914  -0.149  1.00  0.00     0.293 HD
ENDBRANCH  15  18
BRANCH  17  20
ATOM     20  O   UNL     1      21.634 -20.705  -0.371  1.00  0.00    -0.504 OA
ATOM     21  H   UNL     1      21.613 -19.698  -0.260  1.00  0.00     0.293 HD
ENDBRANCH  17  20
ENDBRANCH   1  12
BRANCH   2  22
ATOM     22  O   UNL     1      25.607 -19.130   1.912  1.00  0.00    -0.502 OA
ATOM     23  H   UNL     1      25.010 -18.447   1.460  1.00  0.00     0.293 HD
ENDBRANCH   2  22
BRANCH   6  24
ATOM     24  O   UNL     1      30.763 -18.080   1.081  1.00  0.00    -0.507 OA
ATOM     25  H   UNL     1      31.620 -17.611   0.833  1.00  0.00     0.293 HD
ENDBRANCH   6  24
BRANCH   8  26
ATOM     26  O   UNL     1      32.104 -22.138  -1.108  1.00  0.00    -0.508 OA
ATOM     27  H   UNL     1      32.900 -22.457  -0.569  1.00  0.00     0.293 HD
ENDBRANCH   8  26
TORSDOF 6
ENDMDL
MODEL 9
REMARK VINA RESULT:    -5.213      2.220      6.689
REMARK INTER + INTRA:          -6.436
REMARK INTER:                  -6.251
REMARK INTRA:                  -0.185
REMARK UNBOUND:                -0.155
REMARK SMILES O=c1c(O)c(-c2ccc(O)c(O)c2)oc2cc(O)cc(O)c12
REMARK SMILES IDX 5 1 3 2 2 3 1 4 22 5 20 6 19 7 17 8 16 9 15 10 14 11 6 12
REMARK SMILES IDX 7 13 8 14 9 15 13 16 11 17 10 18 12 20 4 22 21 24 18 26
REMARK H PARENT 10 19 12 21 4 23 21 25 18 27
REMARK Flexibility Score: inf
ROOT
ATOM      1  C   UNL     1      26.899 -20.785   0.343  1.00  0.00     0.180 A 
ATOM      2  C   UNL     1      27.594 -19.598   0.635  1.00  0.00     0.208 A 
ATOM      3  C   UNL     1      28.992 -19.640   0.760  1.00  0.00     0.238 A 
ATOM      4  O   UNL     1      29.602 -18.586   1.076  1.00  0.00    -0.285 OA
ATOM      5  C   UNL     1      29.679 -20.864   0.576  1.00  0.00     0.111 A 
ATOM      6  C   UNL     1      31.097 -21.015   0.640  1.00  0.00     0.134 A 
ATOM      7  C   UNL     1      31.659 -22.296   0.572  1.00  0.00     0.093 A 
ATOM      8  C   UNL     1      30.859 -23.423   0.376  1.00  0.00     0.123 A 
ATOM      9  C   UNL     1      29.479 -23.280   0.253  1.00  0.00     0.094 A 
ATOM     10  C   UNL     1      28.886 -22.020   0.353  1.00  0.00     0.146 A 
ATOM     11  O   UNL     1      27.566 -21.929   0.240  1.00  0.00    -0.452 OA
ENDROOT
BRANCH   1  12
ATOM     12  C   UNL     1      25.429 -20.815   0.170  1.00  0.00     0.025 A 
ATOM     13  C   UNL     1      24.848 -20.144  -0.918  1.00  0.00     0.016 A 
ATOM     14  C   UNL     1      23.461 -20.141  -1.089  1.00  0.00     0.051 A 
ATOM     15  C   UNL     1      22.635 -20.796  -0.166  1.00  0.00     0.157 A 
ATOM     16  C   UNL     1      24.594 -21.454   1.105  1.00  0.00     0.062 A 
ATOM     17  C   UNL     1      23.202 -21.450   0.935  1.00  0.00     0.158 A 
BRANCH  15  18
ATOM     18  O   UNL     1      21.251 -20.798  -0.335  1.00  0.00    -0.504 OA
ATOM     19  H   UNL     1      20.801 -21.390  -1.022  1.00  0.00     0.293 HD
ENDBRANCH  15  18
BRANCH  17  20
ATOM     20  O   UNL     1      22.377 -22.088   1.858  1.00  0.00    -0.504 OA
ATOM     21  H   UNL     1      21.517 -22.545   1.576  1.00  0.00     0.293 HD
ENDBRANCH  17  20
ENDBRANCH   1  12
BRANCH   2  22
ATOM     22  O   UNL     1      26.893 -18.405   0.834  1.00  0.00    -0.502 OA
ATOM     23  H   UNL     1      27.081 -17.788   1.615  1.00  0.00     0.293 HD
ENDBRANCH   2  22
BRANCH   6  24
ATOM     24  O   UNL     1      31.992 -19.945   0.742  1.00  0.00    -0.507 OA
ATOM     25  H   UNL     1      32.461 -19.667   1.591  1.00  0.00     0.293 HD
ENDBRANCH   6  24
BRANCH   8  26
ATOM     26  O   UNL     1      31.428 -24.692   0.293  1.00  0.00    -0.508 OA
ATOM     27  H   UNL     1      30.930 -25.518   0.606  1.00  0.00     0.293 HD
ENDBRANCH   8  26
TORSDOF 6
ENDMDL
