MODEL 1
REMARK VINA RESULT:    -4.266      0.000      0.000
REMARK INTER + INTRA:          -6.247
REMARK INTER:                  -6.011
REMARK INTRA:                  -0.235
REMARK UNBOUND:                -0.235
REMARK SMILES CCCCCCCCC(=O)[O-]
REMARK SMILES IDX 6 1 7 2 8 3 9 4 10 5 11 6 5 7 4 8 3 9 2 10 1 11
REMARK H PARENT
REMARK Flexibility Score: inf
ROOT
ATOM      1  C   UNL     1      37.043  72.198  75.273  1.00  0.00     0.000 C 
ENDROOT
BRANCH   1   2
ATOM      2  C   UNL     1      36.304  70.876  75.534  1.00  0.00     0.006 C 
BRANCH   2   3
ATOM      3  C   UNL     1      37.181  69.840  76.248  1.00  0.00     0.053 C 
BRANCH   3   4
ATOM      4  C   UNL     1      36.864  68.462  75.759  1.00  0.00     0.041 C 
ATOM      5  O   UNL     1      37.558  67.481  76.137  1.00  0.00    -0.550 OA
ATOM      6  O   UNL     1      35.835  68.267  74.848  1.00  0.00    -0.550 OA
ENDBRANCH   3   4
ENDBRANCH   2   3
ENDBRANCH   1   2
BRANCH   1   7
ATOM      7  C   UNL     1      36.997  72.619  73.796  1.00  0.00     0.000 C 
BRANCH   7   8
ATOM      8  C   UNL     1      37.508  74.054  73.619  1.00  0.00    -0.000 C 
BRANCH   8   9
ATOM      9  C   UNL     1      38.518  74.139  72.464  1.00  0.00    -0.000 C 
BRANCH   9  10
ATOM     10  C   UNL     1      39.601  75.201  72.704  1.00  0.00    -0.003 C 
ATOM     11  C   UNL     1      40.179  75.148  74.118  1.00  0.00     0.004 C 
ENDBRANCH   9  10
ENDBRANCH   8   9
ENDBRANCH   7   8
ENDBRANCH   1   7
TORSDOF 7
ENDMDL
MODEL 2
REMARK VINA RESULT:    -3.946      3.583      6.257
REMARK INTER + INTRA:          -5.796
REMARK INTER:                  -5.506
REMARK INTRA:                  -0.290
REMARK UNBOUND:                -0.235
REMARK SMILES CCCCCCCCC(=O)[O-]
REMARK SMILES IDX 6 1 7 2 8 3 9 4 10 5 11 6 5 7 4 8 3 9 2 10 1 11
REMARK H PARENT
REMARK Flexibility Score: inf
ROOT
ATOM      1  C   UNL     1      36.993  72.333  73.985  1.00  0.00     0.000 C 
ENDROOT
BRANCH   1   2
ATOM      2  C   UNL     1      37.199  73.808  73.602  1.00  0.00     0.006 C 
BRANCH   2   3
ATOM      3  C   UNL     1      38.205  73.985  72.457  1.00  0.00     0.053 C 
BRANCH   3   4
ATOM      4  C   UNL     1      39.344  74.852  72.894  1.00  0.00     0.041 C 
ATOM      5  O   UNL     1      39.985  75.529  72.048  1.00  0.00    -0.550 OA
ATOM      6  O   UNL     1      39.728  74.876  74.228  1.00  0.00    -0.550 OA
ENDBRANCH   3   4
ENDBRANCH   2   3
ENDBRANCH   1   2
BRANCH   1   7
ATOM      7  C   UNL     1      36.701  72.147  75.481  1.00  0.00     0.000 C 
BRANCH   7   8
ATOM      8  C   UNL     1      36.821  70.672  75.884  1.00  0.00    -0.000 C 
BRANCH   8   9
ATOM      9  C   UNL     1      35.811  69.808  75.113  1.00  0.00    -0.000 C 
BRANCH   9  10
ATOM     10  C   UNL     1      36.177  68.316  75.129  1.00  0.00    -0.003 C 
ATOM     11  C   UNL     1      37.322  67.998  76.091  1.00  0.00     0.004 C 
ENDBRANCH   9  10
ENDBRANCH   8   9
ENDBRANCH   7   8
ENDBRANCH   1   7
TORSDOF 7
ENDMDL
MODEL 3
REMARK VINA RESULT:    -3.791      1.344      2.129
REMARK INTER + INTRA:          -5.578
REMARK INTER:                  -5.311
REMARK INTRA:                  -0.267
REMARK UNBOUND:                -0.235
REMARK SMILES CCCCCCCCC(=O)[O-]
REMARK SMILES IDX 6 1 7 2 8 3 9 4 10 5 11 6 5 7 4 8 3 9 2 10 1 11
REMARK H PARENT
REMARK Flexibility Score: inf
ROOT
ATOM      1  C   UNL     1      36.978  72.211  75.354  1.00  0.00     0.000 C 
ENDROOT
BRANCH   1   2
ATOM      2  C   UNL     1      36.557  70.742  75.525  1.00  0.00     0.006 C 
BRANCH   2   3
ATOM      3  C   UNL     1      37.346  70.026  76.628  1.00  0.00     0.053 C 
BRANCH   3   4
ATOM      4  C   UNL     1      37.681  68.630  76.207  1.00  0.00     0.041 C 
ATOM      5  O   UNL     1      38.849  68.185  76.362  1.00  0.00    -0.550 OA
ATOM      6  O   UNL     1      36.716  67.836  75.601  1.00  0.00    -0.550 OA
ENDBRANCH   3   4
ENDBRANCH   2   3
ENDBRANCH   1   2
BRANCH   1   7
ATOM      7  C   UNL     1      36.768  72.724  73.922  1.00  0.00     0.000 C 
BRANCH   7   8
ATOM      8  C   UNL     1      37.793  73.809  73.571  1.00  0.00    -0.000 C 
BRANCH   8   9
ATOM      9  C   UNL     1      38.186  73.737  72.088  1.00  0.00    -0.000 C 
BRANCH   9  10
ATOM     10  C   UNL     1      37.019  73.298  71.189  1.00  0.00    -0.003 C 
ATOM     11  C   UNL     1      37.400  72.165  70.236  1.00  0.00     0.004 C 
ENDBRANCH   9  10
ENDBRANCH   8   9
ENDBRANCH   7   8
ENDBRANCH   1   7
TORSDOF 7
ENDMDL
MODEL 4
REMARK VINA RESULT:    -3.595      3.202      6.183
REMARK INTER + INTRA:          -5.301
REMARK INTER:                  -5.033
REMARK INTRA:                  -0.268
REMARK UNBOUND:                -0.235
REMARK SMILES CCCCCCCCC(=O)[O-]
REMARK SMILES IDX 6 1 7 2 8 3 9 4 10 5 11 6 5 7 4 8 3 9 2 10 1 11
REMARK H PARENT
REMARK Flexibility Score: inf
ROOT
ATOM      1  C   UNL     1      36.743  72.132  75.324  1.00  0.00     0.000 C 
ENDROOT
BRANCH   1   2
ATOM      2  C   UNL     1      36.965  72.479  73.843  1.00  0.00     0.006 C 
BRANCH   2   3
ATOM      3  C   UNL     1      37.681  73.822  73.653  1.00  0.00     0.053 C 
BRANCH   3   4
ATOM      4  C   UNL     1      38.058  74.013  72.217  1.00  0.00     0.041 C 
ATOM      5  O   UNL     1      38.957  74.837  71.903  1.00  0.00    -0.550 OA
ATOM      6  O   UNL     1      37.384  73.317  71.223  1.00  0.00    -0.550 OA
ENDBRANCH   3   4
ENDBRANCH   2   3
ENDBRANCH   1   2
BRANCH   1   7
ATOM      7  C   UNL     1      36.366  70.658  75.536  1.00  0.00     0.000 C 
BRANCH   7   8
ATOM      8  C   UNL     1      37.323  69.983  76.526  1.00  0.00    -0.000 C 
BRANCH   8   9
ATOM      9  C   UNL     1      37.509  68.497  76.186  1.00  0.00    -0.000 C 
BRANCH   9  10
ATOM     10  C   UNL     1      36.423  67.969  75.235  1.00  0.00    -0.003 C 
ATOM     11  C   UNL     1      36.801  66.637  74.587  1.00  0.00     0.004 C 
ENDBRANCH   9  10
ENDBRANCH   8   9
ENDBRANCH   7   8
ENDBRANCH   1   7
TORSDOF 7
ENDMDL
MODEL 5
REMARK VINA RESULT:    -3.451     12.840     14.051
REMARK INTER + INTRA:          -5.098
REMARK INTER:                  -4.657
REMARK INTRA:                  -0.442
REMARK UNBOUND:                -0.235
REMARK SMILES CCCCCCCCC(=O)[O-]
REMARK SMILES IDX 6 1 7 2 8 3 9 4 10 5 11 6 5 7 4 8 3 9 2 10 1 11
REMARK H PARENT
REMARK Flexibility Score: inf
ROOT
ATOM      1  C   UNL     1      25.052  64.439  76.250  1.00  0.00     0.000 C 
ENDROOT
BRANCH   1   2
ATOM      2  C   UNL     1      25.060  63.148  77.086  1.00  0.00     0.006 C 
BRANCH   2   3
ATOM      3  C   UNL     1      26.187  62.190  76.682  1.00  0.00     0.053 C 
BRANCH   3   4
ATOM      4  C   UNL     1      26.913  61.697  77.894  1.00  0.00     0.041 C 
ATOM      5  O   UNL     1      26.395  61.821  79.035  1.00  0.00    -0.550 OA
ATOM      6  O   UNL     1      28.181  61.146  77.769  1.00  0.00    -0.550 OA
ENDBRANCH   3   4
ENDBRANCH   2   3
ENDBRANCH   1   2
BRANCH   1   7
ATOM      7  C   UNL     1      26.308  64.586  75.378  1.00  0.00     0.000 C 
BRANCH   7   8
ATOM      8  C   UNL     1      26.691  66.061  75.211  1.00  0.00    -0.000 C 
BRANCH   8   9
ATOM      9  C   UNL     1      25.439  66.945  75.103  1.00  0.00    -0.000 C 
BRANCH   9  10
ATOM     10  C   UNL     1      25.461  68.123  76.088  1.00  0.00    -0.003 C 
ATOM     11  C   UNL     1      24.334  68.055  77.119  1.00  0.00     0.004 C 
ENDBRANCH   9  10
ENDBRANCH   8   9
ENDBRANCH   7   8
ENDBRANCH   1   7
TORSDOF 7
ENDMDL
MODEL 6
REMARK VINA RESULT:    -3.303     12.857     14.092
REMARK INTER + INTRA:          -4.890
REMARK INTER:                  -4.646
REMARK INTRA:                  -0.245
REMARK UNBOUND:                -0.235
REMARK SMILES CCCCCCCCC(=O)[O-]
REMARK SMILES IDX 6 1 7 2 8 3 9 4 10 5 11 6 5 7 4 8 3 9 2 10 1 11
REMARK H PARENT
REMARK Flexibility Score: inf
ROOT
ATOM      1  C   UNL     1      25.712  62.641  76.145  1.00  0.00     0.000 C 
ENDROOT
BRANCH   1   2
ATOM      2  C   UNL     1      26.143  62.163  77.541  1.00  0.00     0.006 C 
BRANCH   2   3
ATOM      3  C   UNL     1      27.464  61.384  77.516  1.00  0.00     0.053 C 
BRANCH   3   4
ATOM      4  C   UNL     1      27.945  61.128  78.911  1.00  0.00     0.041 C 
ATOM      5  O   UNL     1      27.546  61.853  79.860  1.00  0.00    -0.550 OA
ATOM      6  O   UNL     1      28.868  60.121  79.154  1.00  0.00    -0.550 OA
ENDBRANCH   3   4
ENDBRANCH   2   3
ENDBRANCH   1   2
BRANCH   1   7
ATOM      7  C   UNL     1      25.392  64.143  76.107  1.00  0.00     0.000 C 
BRANCH   7   8
ATOM      8  C   UNL     1      26.460  64.912  75.320  1.00  0.00    -0.000 C 
BRANCH   8   9
ATOM      9  C   UNL     1      25.921  66.270  74.844  1.00  0.00    -0.000 C 
BRANCH   9  10
ATOM     10  C   UNL     1      26.172  67.394  75.861  1.00  0.00    -0.003 C 
ATOM     11  C   UNL     1      24.894  67.853  76.562  1.00  0.00     0.004 C 
ENDBRANCH   9  10
ENDBRANCH   8   9
ENDBRANCH   7   8
ENDBRANCH   1   7
TORSDOF 7
ENDMDL
MODEL 7
REMARK VINA RESULT:    -3.270     16.719     18.886
REMARK INTER + INTRA:          -4.844
REMARK INTER:                  -4.479
REMARK INTRA:                  -0.365
REMARK UNBOUND:                -0.235
REMARK SMILES CCCCCCCCC(=O)[O-]
REMARK SMILES IDX 6 1 7 2 8 3 9 4 10 5 11 6 5 7 4 8 3 9 2 10 1 11
REMARK H PARENT
REMARK Flexibility Score: inf
ROOT
ATOM      1  C   UNL     1      30.830  58.002  85.723  1.00  0.00     0.000 C 
ENDROOT
BRANCH   1   2
ATOM      2  C   UNL     1      31.071  57.489  84.294  1.00  0.00     0.006 C 
BRANCH   2   3
ATOM      3  C   UNL     1      30.473  58.412  83.225  1.00  0.00     0.053 C 
BRANCH   3   4
ATOM      4  C   UNL     1      31.290  58.359  81.973  1.00  0.00     0.041 C 
ATOM      5  O   UNL     1      30.769  58.652  80.864  1.00  0.00    -0.550 OA
ATOM      6  O   UNL     1      32.613  57.941  82.023  1.00  0.00    -0.550 OA
ENDBRANCH   3   4
ENDBRANCH   2   3
ENDBRANCH   1   2
BRANCH   1   7
ATOM      7  C   UNL     1      29.822  57.141  86.498  1.00  0.00     0.000 C 
BRANCH   7   8
ATOM      8  C   UNL     1      28.522  57.914  86.753  1.00  0.00    -0.000 C 
BRANCH   8   9
ATOM      9  C   UNL     1      28.774  59.429  86.750  1.00  0.00    -0.000 C 
BRANCH   9  10
ATOM     10  C   UNL     1      27.709  60.206  87.539  1.00  0.00    -0.003 C 
ATOM     11  C   UNL     1      28.036  61.694  87.667  1.00  0.00     0.004 C 
ENDBRANCH   9  10
ENDBRANCH   8   9
ENDBRANCH   7   8
ENDBRANCH   1   7
TORSDOF 7
ENDMDL
MODEL 8
REMARK VINA RESULT:    -3.166     18.092     19.583
REMARK INTER + INTRA:          -4.697
REMARK INTER:                  -4.252
REMARK INTRA:                  -0.445
REMARK UNBOUND:                -0.235
REMARK SMILES CCCCCCCCC(=O)[O-]
REMARK SMILES IDX 6 1 7 2 8 3 9 4 10 5 11 6 5 7 4 8 3 9 2 10 1 11
REMARK H PARENT
REMARK Flexibility Score: inf
ROOT
ATOM      1  C   UNL     1      28.916  57.583  87.448  1.00  0.00     0.000 C 
ENDROOT
BRANCH   1   2
ATOM      2  C   UNL     1      28.544  58.904  86.754  1.00  0.00     0.006 C 
BRANCH   2   3
ATOM      3  C   UNL     1      27.599  59.768  87.597  1.00  0.00     0.053 C 
BRANCH   3   4
ATOM      4  C   UNL     1      27.627  61.187  87.123  1.00  0.00     0.041 C 
ATOM      5  O   UNL     1      27.219  61.476  85.966  1.00  0.00    -0.550 OA
ATOM      6  O   UNL     1      28.146  62.183  87.938  1.00  0.00    -0.550 OA
ENDBRANCH   3   4
ENDBRANCH   2   3
ENDBRANCH   1   2
BRANCH   1   7
ATOM      7  C   UNL     1      30.187  56.947  86.867  1.00  0.00     0.000 C 
BRANCH   7   8
ATOM      8  C   UNL     1      30.910  57.922  85.931  1.00  0.00    -0.000 C 
BRANCH   8   9
ATOM      9  C   UNL     1      31.721  57.166  84.867  1.00  0.00    -0.000 C 
BRANCH   9  10
ATOM     10  C   UNL     1      31.393  57.624  83.438  1.00  0.00    -0.003 C 
ATOM     11  C   UNL     1      30.093  58.424  83.357  1.00  0.00     0.004 C 
ENDBRANCH   9  10
ENDBRANCH   8   9
ENDBRANCH   7   8
ENDBRANCH   1   7
TORSDOF 7
ENDMDL
MODEL 9
REMARK VINA RESULT:    -3.069     17.805     19.244
REMARK INTER + INTRA:          -4.560
REMARK INTER:                  -3.783
REMARK INTRA:                  -0.778
REMARK UNBOUND:                -0.235
REMARK SMILES CCCCCCCCC(=O)[O-]
REMARK SMILES IDX 6 1 7 2 8 3 9 4 10 5 11 6 5 7 4 8 3 9 2 10 1 11
REMARK H PARENT
REMARK Flexibility Score: inf
ROOT
ATOM      1  C   UNL     1      28.509  57.788  84.419  1.00  0.00     0.000 C 
ENDROOT
BRANCH   1   2
ATOM      2  C   UNL     1      28.312  59.126  83.689  1.00  0.00     0.006 C 
BRANCH   2   3
ATOM      3  C   UNL     1      26.858  59.612  83.729  1.00  0.00     0.053 C 
BRANCH   3   4
ATOM      4  C   UNL     1      26.809  61.106  83.806  1.00  0.00     0.041 C 
ATOM      5  O   UNL     1      27.645  61.800  83.169  1.00  0.00    -0.550 OA
ATOM      6  O   UNL     1      25.871  61.730  84.617  1.00  0.00    -0.550 OA
ENDBRANCH   3   4
ENDBRANCH   2   3
ENDBRANCH   1   2
BRANCH   1   7
ATOM      7  C   UNL     1      29.630  57.845  85.467  1.00  0.00     0.000 C 
BRANCH   7   8
ATOM      8  C   UNL     1      29.446  59.047  86.402  1.00  0.00    -0.000 C 
BRANCH   8   9
ATOM      9  C   UNL     1      28.279  58.814  87.373  1.00  0.00    -0.000 C 
BRANCH   9  10
ATOM     10  C   UNL     1      27.336  60.023  87.463  1.00  0.00    -0.003 C 
ATOM     11  C   UNL     1      28.079  61.358  87.426  1.00  0.00     0.004 C 
ENDBRANCH   9  10
ENDBRANCH   8   9
ENDBRANCH   7   8
ENDBRANCH   1   7
TORSDOF 7
ENDMDL
