MODEL 1
REMARK VINA RESULT:    -2.632      0.000      0.000
REMARK INTER + INTRA:          -2.966
REMARK INTER:                  -2.940
REMARK INTRA:                  -0.025
REMARK UNBOUND:                -0.025
REMARK SMILES CCCC(=O)[O-]
REMARK SMILES IDX 3 1 4 2 5 3 6 4 2 5 1 6
REMARK H PARENT
REMARK Flexibility Score: inf
ROOT
ATOM      1  C   UNL     1      -0.838   0.158   7.151  1.00  0.00     0.052 C 
ENDROOT
BRANCH   1   2
ATOM      2  C   UNL     1      -0.534   1.329   6.267  1.00  0.00     0.041 C 
ATOM      3  O   UNL     1       0.467   1.305   5.504  1.00  0.00    -0.550 OA
ATOM      4  O   UNL     1      -1.377   2.432   6.262  1.00  0.00    -0.550 OA
ENDBRANCH   1   2
BRANCH   1   5
ATOM      5  C   UNL     1       0.343  -0.818   7.228  1.00  0.00     0.003 C 
ATOM      6  C   UNL     1      -0.094  -2.274   7.080  1.00  0.00     0.004 C 
ENDBRANCH   1   5
TORSDOF 2
ENDMDL
MODEL 2
REMARK VINA RESULT:    -2.588      1.176      1.876
REMARK INTER + INTRA:          -2.916
REMARK INTER:                  -2.874
REMARK INTRA:                  -0.042
REMARK UNBOUND:                -0.025
REMARK SMILES CCCC(=O)[O-]
REMARK SMILES IDX 3 1 4 2 5 3 6 4 2 5 1 6
REMARK H PARENT
REMARK Flexibility Score: inf
ROOT
ATOM      1  C   UNL     1       0.120   1.624   7.862  1.00  0.00     0.052 C 
ENDROOT
BRANCH   1   2
ATOM      2  C   UNL     1      -0.360   1.769   6.449  1.00  0.00     0.041 C 
ATOM      3  O   UNL     1      -1.470   2.313   6.209  1.00  0.00    -0.550 OA
ATOM      4  O   UNL     1       0.436   1.336   5.398  1.00  0.00    -0.550 OA
ENDBRANCH   1   2
BRANCH   1   5
ATOM      5  C   UNL     1       1.184   0.527   7.990  1.00  0.00     0.003 C 
ATOM      6  C   UNL     1       0.572  -0.857   8.196  1.00  0.00     0.004 C 
ENDBRANCH   1   5
TORSDOF 2
ENDMDL
MODEL 3
REMARK VINA RESULT:    -2.526      2.147      3.403
REMARK INTER + INTRA:          -2.846
REMARK INTER:                  -2.823
REMARK INTRA:                  -0.023
REMARK UNBOUND:                -0.025
REMARK SMILES CCCC(=O)[O-]
REMARK SMILES IDX 3 1 4 2 5 3 6 4 2 5 1 6
REMARK H PARENT
REMARK Flexibility Score: inf
ROOT
ATOM      1  C   UNL     1      -0.830   2.077   7.268  1.00  0.00     0.052 C 
ENDROOT
BRANCH   1   2
ATOM      2  C   UNL     1       0.317   1.343   6.643  1.00  0.00     0.041 C 
ATOM      3  O   UNL     1       0.439   1.307   5.390  1.00  0.00    -0.550 OA
ATOM      4  O   UNL     1       1.268   0.729   7.445  1.00  0.00    -0.550 OA
ENDBRANCH   1   2
BRANCH   1   5
ATOM      5  C   UNL     1      -2.103   1.972   6.419  1.00  0.00     0.003 C 
ATOM      6  C   UNL     1      -2.879   3.287   6.369  1.00  0.00     0.004 C 
ENDBRANCH   1   5
TORSDOF 2
ENDMDL
MODEL 4
REMARK VINA RESULT:    -2.523      1.150      1.271
REMARK INTER + INTRA:          -2.844
REMARK INTER:                  -2.805
REMARK INTRA:                  -0.039
REMARK UNBOUND:                -0.025
REMARK SMILES CCCC(=O)[O-]
REMARK SMILES IDX 3 1 4 2 5 3 6 4 2 5 1 6
REMARK H PARENT
REMARK Flexibility Score: inf
ROOT
ATOM      1  C   UNL     1      -0.042   1.441   7.941  1.00  0.00     0.052 C 
ENDROOT
BRANCH   1   2
ATOM      2  C   UNL     1      -0.372   1.806   6.526  1.00  0.00     0.041 C 
ATOM      3  O   UNL     1       0.388   1.454   5.586  1.00  0.00    -0.550 OA
ATOM      4  O   UNL     1      -1.537   2.506   6.243  1.00  0.00    -0.550 OA
ENDBRANCH   1   2
BRANCH   1   5
ATOM      5  C   UNL     1       1.133   0.458   8.015  1.00  0.00     0.003 C 
ATOM      6  C   UNL     1       0.673  -0.985   8.212  1.00  0.00     0.004 C 
ENDBRANCH   1   5
TORSDOF 2
ENDMDL
MODEL 5
REMARK VINA RESULT:    -2.413     13.217     13.698
REMARK INTER + INTRA:          -2.720
REMARK INTER:                  -2.713
REMARK INTRA:                  -0.007
REMARK UNBOUND:                -0.025
REMARK SMILES CCCC(=O)[O-]
REMARK SMILES IDX 3 1 4 2 5 3 6 4 2 5 1 6
REMARK H PARENT
REMARK Flexibility Score: inf
ROOT
ATOM      1  C   UNL     1      -5.845  -2.494  -4.373  1.00  0.00     0.052 C 
ENDROOT
BRANCH   1   2
ATOM      2  C   UNL     1      -5.889  -3.614  -5.367  1.00  0.00     0.041 C 
ATOM      3  O   UNL     1      -6.976  -3.928  -5.920  1.00  0.00    -0.550 OA
ATOM      4  O   UNL     1      -4.724  -4.287  -5.708  1.00  0.00    -0.550 OA
ENDBRANCH   1   2
BRANCH   1   5
ATOM      5  C   UNL     1      -6.306  -1.168  -4.990  1.00  0.00     0.003 C 
ATOM      6  C   UNL     1      -6.317  -0.026  -3.975  1.00  0.00     0.004 C 
ENDBRANCH   1   5
TORSDOF 2
ENDMDL
MODEL 6
REMARK VINA RESULT:    -2.278      1.422      2.446
REMARK INTER + INTRA:          -2.570
REMARK INTER:                  -2.533
REMARK INTRA:                  -0.037
REMARK UNBOUND:                -0.025
REMARK SMILES CCCC(=O)[O-]
REMARK SMILES IDX 3 1 4 2 5 3 6 4 2 5 1 6
REMARK H PARENT
REMARK Flexibility Score: inf
ROOT
ATOM      1  C   UNL     1      -1.187   0.058   6.849  1.00  0.00     0.052 C 
ENDROOT
BRANCH   1   2
ATOM      2  C   UNL     1      -0.737   1.337   6.212  1.00  0.00     0.041 C 
ATOM      3  O   UNL     1      -1.460   2.366   6.275  1.00  0.00    -0.550 OA
ATOM      4  O   UNL     1       0.497   1.401   5.579  1.00  0.00    -0.550 OA
ENDBRANCH   1   2
BRANCH   1   5
ATOM      5  C   UNL     1      -2.597   0.183   7.440  1.00  0.00     0.003 C 
ATOM      6  C   UNL     1      -3.633  -0.615   6.650  1.00  0.00     0.004 C 
ENDBRANCH   1   5
TORSDOF 2
ENDMDL
MODEL 7
REMARK VINA RESULT:    -2.237      2.449      3.163
REMARK INTER + INTRA:          -2.524
REMARK INTER:                  -2.500
REMARK INTRA:                  -0.024
REMARK UNBOUND:                -0.025
REMARK SMILES CCCC(=O)[O-]
REMARK SMILES IDX 3 1 4 2 5 3 6 4 2 5 1 6
REMARK H PARENT
REMARK Flexibility Score: inf
ROOT
ATOM      1  C   UNL     1      -0.724   2.289   8.229  1.00  0.00     0.052 C 
ENDROOT
BRANCH   1   2
ATOM      2  C   UNL     1      -0.741   2.129   6.739  1.00  0.00     0.041 C 
ATOM      3  O   UNL     1       0.303   1.784   6.126  1.00  0.00    -0.550 OA
ATOM      4  O   UNL     1      -1.920   2.327   6.033  1.00  0.00    -0.550 OA
ENDBRANCH   1   2
BRANCH   1   5
ATOM      5  C   UNL     1       0.702   2.226   8.790  1.00  0.00     0.003 C 
ATOM      6  C   UNL     1       1.043   3.441   9.651  1.00  0.00     0.004 C 
ENDBRANCH   1   5
TORSDOF 2
ENDMDL
MODEL 8
REMARK VINA RESULT:    -2.212     10.999     11.608
REMARK INTER + INTRA:          -2.496
REMARK INTER:                  -2.473
REMARK INTRA:                  -0.023
REMARK UNBOUND:                -0.025
REMARK SMILES CCCC(=O)[O-]
REMARK SMILES IDX 3 1 4 2 5 3 6 4 2 5 1 6
REMARK H PARENT
REMARK Flexibility Score: inf
ROOT
ATOM      1  C   UNL     1       5.013  -4.385  -3.064  1.00  0.00     0.052 C 
ENDROOT
BRANCH   1   2
ATOM      2  C   UNL     1       4.068  -3.379  -3.649  1.00  0.00     0.041 C 
ATOM      3  O   UNL     1       3.132  -2.908  -2.951  1.00  0.00    -0.550 OA
ATOM      4  O   UNL     1       4.243  -2.938  -4.953  1.00  0.00    -0.550 OA
ENDBRANCH   1   2
BRANCH   1   5
ATOM      5  C   UNL     1       5.843  -3.787  -1.922  1.00  0.00     0.003 C 
ATOM      6  C   UNL     1       5.895  -4.701  -0.699  1.00  0.00     0.004 C 
ENDBRANCH   1   5
TORSDOF 2
ENDMDL
MODEL 9
REMARK VINA RESULT:    -2.198     11.938     12.126
REMARK INTER + INTRA:          -2.481
REMARK INTER:                  -2.469
REMARK INTRA:                  -0.012
REMARK UNBOUND:                -0.025
REMARK SMILES CCCC(=O)[O-]
REMARK SMILES IDX 3 1 4 2 5 3 6 4 2 5 1 6
REMARK H PARENT
REMARK Flexibility Score: inf
ROOT
ATOM      1  C   UNL     1      -6.751  -1.016  -3.476  1.00  0.00     0.052 C 
ENDROOT
BRANCH   1   2
ATOM      2  C   UNL     1      -6.712   0.482  -3.432  1.00  0.00     0.041 C 
ATOM      3  O   UNL     1      -5.791   1.110  -4.016  1.00  0.00    -0.550 OA
ATOM      4  O   UNL     1      -7.714   1.183  -2.775  1.00  0.00    -0.550 OA
ENDBRANCH   1   2
BRANCH   1   5
ATOM      5  C   UNL     1      -5.928  -1.571  -4.645  1.00  0.00     0.003 C 
ATOM      6  C   UNL     1      -5.662  -3.069  -4.509  1.00  0.00     0.004 C 
ENDBRANCH   1   5
TORSDOF 2
ENDMDL
