MODEL 1
REMARK VINA RESULT:    -4.688      0.000      0.000
REMARK INTER + INTRA:          -4.825
REMARK INTER:                  -4.825
REMARK INTRA:                   0.000
REMARK UNBOUND:                 0.000
REMARK SMILES Nc1ncnc2nc[nH]c12
REMARK SMILES IDX 8 1 7 2 6 3 5 4 4 5 3 6 2 7 10 8 9 9 1 11
REMARK H PARENT 9 10 1 12 1 13
REMARK Flexibility Score: inf
ROOT
ATOM      1  C   UNL     1       6.253 -12.030  23.813  1.00  0.00     0.199 A 
ATOM      2  N   UNL     1       7.515 -12.216  24.290  1.00  0.00    -0.217 NA
ATOM      3  C   UNL     1       7.291 -12.479  25.589  1.00  0.00     0.182 A 
ATOM      4  N   UNL     1       8.227 -12.743  26.532  1.00  0.00    -0.215 NA
ATOM      5  C   UNL     1       7.805 -12.988  27.809  1.00  0.00     0.226 A 
ATOM      6  N   UNL     1       6.468 -12.965  28.116  1.00  0.00    -0.217 NA
ATOM      7  C   UNL     1       5.523 -12.700  27.166  1.00  0.00     0.152 A 
ATOM      8  C   UNL     1       5.969 -12.452  25.872  1.00  0.00     0.127 A 
ATOM      9  N   UNL     1       5.286 -12.169  24.755  1.00  0.00    -0.340 N 
ATOM     10  H   UNL     1       4.256 -12.073  24.626  1.00  0.00     0.168 HD
ENDROOT
BRANCH   7  11
ATOM     11  N   UNL     1       4.136 -12.682  27.510  1.00  0.00    -0.382 N 
ATOM     12  H   UNL     1       3.422 -13.153  26.913  1.00  0.00     0.158 HD
ATOM     13  H   UNL     1       3.819 -12.189  28.374  1.00  0.00     0.158 HD
ENDBRANCH   7  11
TORSDOF 1
ENDMDL
MODEL 2
REMARK VINA RESULT:    -4.510      0.727      2.750
REMARK INTER + INTRA:          -4.642
REMARK INTER:                  -4.642
REMARK INTRA:                   0.000
REMARK UNBOUND:                 0.000
REMARK SMILES Nc1ncnc2nc[nH]c12
REMARK SMILES IDX 8 1 7 2 6 3 5 4 4 5 3 6 2 7 10 8 9 9 1 11
REMARK H PARENT 9 10 1 12 1 13
REMARK Flexibility Score: inf
ROOT
ATOM      1  C   UNL     1       4.076 -12.712  25.519  1.00  0.00     0.199 A 
ATOM      2  N   UNL     1       4.330 -12.887  26.845  1.00  0.00    -0.217 NA
ATOM      3  C   UNL     1       5.672 -12.830  26.888  1.00  0.00     0.182 A 
ATOM      4  N   UNL     1       6.450 -12.950  27.990  1.00  0.00    -0.215 NA
ATOM      5  C   UNL     1       7.806 -12.866  27.835  1.00  0.00     0.226 A 
ATOM      6  N   UNL     1       8.353 -12.665  26.592  1.00  0.00    -0.217 NA
ATOM      7  C   UNL     1       7.569 -12.544  25.480  1.00  0.00     0.152 A 
ATOM      8  C   UNL     1       6.191 -12.633  25.655  1.00  0.00     0.127 A 
ATOM      9  N   UNL     1       5.193 -12.553  24.765  1.00  0.00    -0.340 N 
ATOM     10  H   UNL     1       5.248 -12.405  23.734  1.00  0.00     0.168 HD
ENDROOT
BRANCH   7  11
ATOM     11  N   UNL     1       8.161 -12.336  24.196  1.00  0.00    -0.382 N 
ATOM     12  H   UNL     1       7.591 -12.030  23.378  1.00  0.00     0.158 HD
ATOM     13  H   UNL     1       9.184 -12.492  24.062  1.00  0.00     0.158 HD
ENDBRANCH   7  11
TORSDOF 1
ENDMDL
MODEL 3
REMARK VINA RESULT:    -4.380      0.860      3.703
REMARK INTER + INTRA:          -4.508
REMARK INTER:                  -4.508
REMARK INTRA:                   0.000
REMARK UNBOUND:                 0.000
REMARK SMILES Nc1ncnc2nc[nH]c12
REMARK SMILES IDX 8 1 7 2 6 3 5 4 4 5 3 6 2 7 10 8 9 9 1 11
REMARK H PARENT 9 10 1 12 1 13
REMARK Flexibility Score: inf
ROOT
ATOM      1  C   UNL     1       7.587 -12.565  28.140  1.00  0.00     0.199 A 
ATOM      2  N   UNL     1       6.251 -12.803  28.250  1.00  0.00    -0.217 NA
ATOM      3  C   UNL     1       5.839 -12.703  26.975  1.00  0.00     0.182 A 
ATOM      4  N   UNL     1       4.572 -12.855  26.522  1.00  0.00    -0.215 NA
ATOM      5  C   UNL     1       4.345 -12.715  25.181  1.00  0.00     0.226 A 
ATOM      6  N   UNL     1       5.380 -12.429  24.326  1.00  0.00    -0.217 NA
ATOM      7  C   UNL     1       6.658 -12.276  24.782  1.00  0.00     0.152 A 
ATOM      8  C   UNL     1       6.872 -12.421  26.149  1.00  0.00     0.127 A 
ATOM      9  N   UNL     1       7.998 -12.328  26.869  1.00  0.00    -0.340 N 
ATOM     10  H   UNL     1       8.967 -12.123  26.542  1.00  0.00     0.168 HD
ENDROOT
BRANCH   7  11
ATOM     11  N   UNL     1       7.720 -11.977  23.873  1.00  0.00    -0.382 N 
ATOM     12  H   UNL     1       7.528 -11.692  22.888  1.00  0.00     0.158 HD
ATOM     13  H   UNL     1       8.712 -12.042  24.190  1.00  0.00     0.158 HD
ENDBRANCH   7  11
TORSDOF 1
ENDMDL
MODEL 4
REMARK VINA RESULT:    -4.307      1.204      2.006
REMARK INTER + INTRA:          -4.433
REMARK INTER:                  -4.433
REMARK INTRA:                   0.000
REMARK UNBOUND:                 0.000
REMARK SMILES Nc1ncnc2nc[nH]c12
REMARK SMILES IDX 8 1 7 2 6 3 5 4 4 5 3 6 2 7 10 8 9 9 1 11
REMARK H PARENT 9 10 1 12 1 13
REMARK Flexibility Score: inf
ROOT
ATOM      1  C   UNL     1       3.636 -12.631  24.716  1.00  0.00     0.199 A 
ATOM      2  N   UNL     1       4.732 -12.365  23.953  1.00  0.00    -0.217 NA
ATOM      3  C   UNL     1       5.729 -12.445  24.851  1.00  0.00     0.182 A 
ATOM      4  N   UNL     1       7.049 -12.260  24.610  1.00  0.00    -0.215 NA
ATOM      5  C   UNL     1       7.920 -12.383  25.657  1.00  0.00     0.226 A 
ATOM      6  N   UNL     1       7.459 -12.685  26.913  1.00  0.00    -0.217 NA
ATOM      7  C   UNL     1       6.128 -12.871  27.158  1.00  0.00     0.152 A 
ATOM      8  C   UNL     1       5.255 -12.742  26.082  1.00  0.00     0.127 A 
ATOM      9  N   UNL     1       3.923 -12.867  26.021  1.00  0.00    -0.340 N 
ATOM     10  H   UNL     1       3.252 -13.091  26.788  1.00  0.00     0.168 HD
ENDROOT
BRANCH   7  11
ATOM     11  N   UNL     1       5.671 -13.184  28.475  1.00  0.00    -0.382 N 
ATOM     12  H   UNL     1       6.235 -12.941  29.318  1.00  0.00     0.158 HD
ATOM     13  H   UNL     1       4.755 -13.667  28.609  1.00  0.00     0.158 HD
ENDBRANCH   7  11
TORSDOF 1
ENDMDL
MODEL 5
REMARK VINA RESULT:    -4.255      1.421      2.551
REMARK INTER + INTRA:          -4.379
REMARK INTER:                  -4.379
REMARK INTRA:                   0.000
REMARK UNBOUND:                 0.000
REMARK SMILES Nc1ncnc2nc[nH]c12
REMARK SMILES IDX 8 1 7 2 6 3 5 4 4 5 3 6 2 7 10 8 9 9 1 11
REMARK H PARENT 9 10 1 12 1 13
REMARK Flexibility Score: inf
ROOT
ATOM      1  C   UNL     1       7.828 -10.711  25.594  1.00  0.00     0.199 A 
ATOM      2  N   UNL     1       7.153 -11.230  24.531  1.00  0.00    -0.217 NA
ATOM      3  C   UNL     1       6.114 -11.841  25.126  1.00  0.00     0.182 A 
ATOM      4  N   UNL     1       5.120 -12.526  24.510  1.00  0.00    -0.215 NA
ATOM      5  C   UNL     1       4.143 -13.083  25.287  1.00  0.00     0.226 A 
ATOM      6  N   UNL     1       4.177 -12.946  26.652  1.00  0.00    -0.217 NA
ATOM      7  C   UNL     1       5.178 -12.256  27.274  1.00  0.00     0.152 A 
ATOM      8  C   UNL     1       6.166 -11.696  26.469  1.00  0.00     0.127 A 
ATOM      9  N   UNL     1       7.250 -10.978  26.792  1.00  0.00    -0.340 N 
ATOM     10  H   UNL     1       7.582 -10.687  27.737  1.00  0.00     0.168 HD
ENDROOT
BRANCH   7  11
ATOM     11  N   UNL     1       5.194 -12.127  28.697  1.00  0.00    -0.382 N 
ATOM     12  H   UNL     1       4.310 -12.122  29.252  1.00  0.00     0.158 HD
ATOM     13  H   UNL     1       6.102 -12.036  29.203  1.00  0.00     0.158 HD
ENDBRANCH   7  11
TORSDOF 1
ENDMDL
MODEL 6
REMARK VINA RESULT:    -4.244      8.899     10.242
REMARK INTER + INTRA:          -4.368
REMARK INTER:                  -4.368
REMARK INTRA:                   0.000
REMARK UNBOUND:                 0.000
REMARK SMILES Nc1ncnc2nc[nH]c12
REMARK SMILES IDX 8 1 7 2 6 3 5 4 4 5 3 6 2 7 10 8 9 9 1 11
REMARK H PARENT 9 10 1 12 1 13
REMARK Flexibility Score: inf
ROOT
ATOM      1  C   UNL     1      -1.392 -12.600  22.589  1.00  0.00     0.199 A 
ATOM      2  N   UNL     1      -2.361 -11.830  22.023  1.00  0.00    -0.217 NA
ATOM      3  C   UNL     1      -3.239 -11.690  23.030  1.00  0.00     0.182 A 
ATOM      4  N   UNL     1      -4.405 -11.002  22.996  1.00  0.00    -0.215 NA
ATOM      5  C   UNL     1      -5.171 -10.973  24.128  1.00  0.00     0.226 A 
ATOM      6  N   UNL     1      -4.761 -11.628  25.262  1.00  0.00    -0.217 NA
ATOM      7  C   UNL     1      -3.585 -12.323  25.298  1.00  0.00     0.152 A 
ATOM      8  C   UNL     1      -2.817 -12.342  24.138  1.00  0.00     0.127 A 
ATOM      9  N   UNL     1      -1.642 -12.930  23.882  1.00  0.00    -0.340 N 
ATOM     10  H   UNL     1      -1.048 -13.507  24.516  1.00  0.00     0.168 HD
ENDROOT
BRANCH   7  11
ATOM     11  N   UNL     1      -3.179 -12.997  26.491  1.00  0.00    -0.382 N 
ATOM     12  H   UNL     1      -2.197 -13.322  26.624  1.00  0.00     0.158 HD
ATOM     13  H   UNL     1      -3.872 -13.174  27.252  1.00  0.00     0.158 HD
ENDBRANCH   7  11
TORSDOF 1
ENDMDL
MODEL 7
REMARK VINA RESULT:    -4.241      1.161      3.044
REMARK INTER + INTRA:          -4.365
REMARK INTER:                  -4.365
REMARK INTRA:                   0.000
REMARK UNBOUND:                 0.000
REMARK SMILES Nc1ncnc2nc[nH]c12
REMARK SMILES IDX 8 1 7 2 6 3 5 4 4 5 3 6 2 7 10 8 9 9 1 11
REMARK H PARENT 9 10 1 12 1 13
REMARK Flexibility Score: inf
ROOT
ATOM      1  C   UNL     1       5.861 -12.534  28.382  1.00  0.00     0.199 A 
ATOM      2  N   UNL     1       7.014 -12.230  27.724  1.00  0.00    -0.217 NA
ATOM      3  C   UNL     1       6.617 -12.228  26.441  1.00  0.00     0.182 A 
ATOM      4  N   UNL     1       7.390 -11.979  25.357  1.00  0.00    -0.215 NA
ATOM      5  C   UNL     1       6.804 -12.023  24.123  1.00  0.00     0.226 A 
ATOM      6  N   UNL     1       5.468 -12.311  23.996  1.00  0.00    -0.217 NA
ATOM      7  C   UNL     1       4.687 -12.561  25.089  1.00  0.00     0.152 A 
ATOM      8  C   UNL     1       5.299 -12.514  26.338  1.00  0.00     0.127 A 
ATOM      9  N   UNL     1       4.795 -12.712  27.563  1.00  0.00    -0.340 N 
ATOM     10  H   UNL     1       3.817 -12.949  27.836  1.00  0.00     0.168 HD
ENDROOT
BRANCH   7  11
ATOM     11  N   UNL     1       3.298 -12.859  24.933  1.00  0.00    -0.382 N 
ATOM     12  H   UNL     1       2.682 -12.278  24.324  1.00  0.00     0.158 HD
ATOM     13  H   UNL     1       2.880 -13.674  25.434  1.00  0.00     0.158 HD
ENDBRANCH   7  11
TORSDOF 1
ENDMDL
MODEL 8
REMARK VINA RESULT:    -4.181     10.645     11.608
REMARK INTER + INTRA:          -4.303
REMARK INTER:                  -4.303
REMARK INTRA:                   0.000
REMARK UNBOUND:                 0.000
REMARK SMILES Nc1ncnc2nc[nH]c12
REMARK SMILES IDX 8 1 7 2 6 3 5 4 4 5 3 6 2 7 10 8 9 9 1 11
REMARK H PARENT 9 10 1 12 1 13
REMARK Flexibility Score: inf
ROOT
ATOM      1  C   UNL     1      -3.150 -12.727  22.251  1.00  0.00     0.199 A 
ATOM      2  N   UNL     1      -3.402 -11.402  22.064  1.00  0.00    -0.217 NA
ATOM      3  C   UNL     1      -4.276 -11.137  23.050  1.00  0.00     0.182 A 
ATOM      4  N   UNL     1      -4.854  -9.941  23.317  1.00  0.00    -0.215 NA
ATOM      5  C   UNL     1      -5.724  -9.866  24.369  1.00  0.00     0.226 A 
ATOM      6  N   UNL     1      -5.996 -10.976  25.128  1.00  0.00    -0.217 NA
ATOM      7  C   UNL     1      -5.414 -12.183  24.860  1.00  0.00     0.152 A 
ATOM      8  C   UNL     1      -4.532 -12.243  23.785  1.00  0.00     0.127 A 
ATOM      9  N   UNL     1      -3.825 -13.270  23.295  1.00  0.00    -0.340 N 
ATOM     10  H   UNL     1      -3.792 -14.258  23.628  1.00  0.00     0.168 HD
ENDROOT
BRANCH   7  11
ATOM     11  N   UNL     1      -5.713 -13.326  25.663  1.00  0.00    -0.382 N 
ATOM     12  H   UNL     1      -6.239 -14.139  25.276  1.00  0.00     0.158 HD
ATOM     13  H   UNL     1      -5.405 -13.358  26.660  1.00  0.00     0.158 HD
ENDBRANCH   7  11
TORSDOF 1
ENDMDL
MODEL 9
REMARK VINA RESULT:    -4.115     11.345     12.709
REMARK INTER + INTRA:          -4.235
REMARK INTER:                  -4.235
REMARK INTRA:                   0.000
REMARK UNBOUND:                 0.000
REMARK SMILES Nc1ncnc2nc[nH]c12
REMARK SMILES IDX 8 1 7 2 6 3 5 4 4 5 3 6 2 7 10 8 9 9 1 11
REMARK H PARENT 9 10 1 12 1 13
REMARK Flexibility Score: inf
ROOT
ATOM      1  C   UNL     1      -7.734  -9.793  24.648  1.00  0.00     0.199 A 
ATOM      2  N   UNL     1      -6.818  -9.309  23.764  1.00  0.00    -0.217 NA
ATOM      3  C   UNL     1      -5.881 -10.273  23.769  1.00  0.00     0.182 A 
ATOM      4  N   UNL     1      -4.734 -10.287  23.050  1.00  0.00    -0.215 NA
ATOM      5  C   UNL     1      -3.899 -11.361  23.188  1.00  0.00     0.226 A 
ATOM      6  N   UNL     1      -4.225 -12.391  24.034  1.00  0.00    -0.217 NA
ATOM      7  C   UNL     1      -5.381 -12.378  24.761  1.00  0.00     0.152 A 
ATOM      8  C   UNL     1      -6.220 -11.277  24.609  1.00  0.00     0.127 A 
ATOM      9  N   UNL     1      -7.397 -10.994  25.181  1.00  0.00    -0.340 N 
ATOM     10  H   UNL     1      -7.939 -11.556  25.873  1.00  0.00     0.168 HD
ENDROOT
BRANCH   7  11
ATOM     11  N   UNL     1      -5.699 -13.461  25.636  1.00  0.00    -0.382 N 
ATOM     12  H   UNL     1      -4.977 -14.156  25.925  1.00  0.00     0.158 HD
ATOM     13  H   UNL     1      -6.671 -13.569  26.001  1.00  0.00     0.158 HD
ENDBRANCH   7  11
TORSDOF 1
ENDMDL
