MODEL 1
REMARK VINA RESULT:    -4.558      0.000      0.000
REMARK INTER + INTRA:          -5.317
REMARK INTER:                  -5.224
REMARK INTRA:                  -0.094
REMARK UNBOUND:                -0.094
REMARK SMILES C=Cc1ccc(O)c(OC)c1
REMARK SMILES IDX 8 1 6 2 5 3 4 4 3 5 11 6 9 7 10 8 7 9 2 11 1 12
REMARK H PARENT 7 10
REMARK Flexibility Score: inf
ROOT
ATOM      1  C   UNL     1      11.837 -11.399 -43.753  1.00  0.00     0.161 A 
ATOM      2  C   UNL     1      10.983 -12.172 -44.559  1.00  0.00     0.157 A 
ATOM      3  C   UNL     1       9.896 -11.574 -45.201  1.00  0.00     0.051 A 
ATOM      4  C   UNL     1       9.649 -10.207 -45.054  1.00  0.00     0.012 A 
ATOM      5  C   UNL     1      10.498  -9.412 -44.261  1.00  0.00    -0.022 A 
ATOM      6  C   UNL     1      11.583 -10.021 -43.607  1.00  0.00     0.058 A 
ENDROOT
BRANCH   1   7
ATOM      7  O   UNL     1      12.918 -12.028 -43.116  1.00  0.00    -0.493 OA
ATOM      8  C   UNL     1      14.282 -11.871 -43.493  1.00  0.00     0.278 C 
ENDBRANCH   1   7
BRANCH   2   9
ATOM      9  O   UNL     1      11.198 -13.540 -44.732  1.00  0.00    -0.504 OA
ATOM     10  H   UNL     1      10.486 -14.229 -44.523  1.00  0.00     0.293 HD
ENDBRANCH   2   9
BRANCH   5  11
ATOM     11  C   UNL     1      10.275  -7.959 -44.064  1.00  0.00     0.000 C 
ATOM     12  C   UNL     1       9.703  -7.427 -42.982  1.00  0.00     0.009 C 
ENDBRANCH   5  11
TORSDOF 3
ENDMDL
MODEL 2
REMARK VINA RESULT:    -4.485      1.275      3.064
REMARK INTER + INTRA:          -5.234
REMARK INTER:                  -5.156
REMARK INTRA:                  -0.077
REMARK UNBOUND:                -0.094
REMARK SMILES C=Cc1ccc(O)c(OC)c1
REMARK SMILES IDX 8 1 6 2 5 3 4 4 3 5 11 6 9 7 10 8 7 9 2 11 1 12
REMARK H PARENT 7 10
REMARK Flexibility Score: inf
ROOT
ATOM      1  C   UNL     1       9.808 -11.292 -45.366  1.00  0.00     0.161 A 
ATOM      2  C   UNL     1      11.032 -11.876 -44.998  1.00  0.00     0.157 A 
ATOM      3  C   UNL     1      11.965 -11.140 -44.263  1.00  0.00     0.051 A 
ATOM      4  C   UNL     1      11.692  -9.824 -43.885  1.00  0.00     0.012 A 
ATOM      5  C   UNL     1      10.468  -9.224 -44.233  1.00  0.00    -0.022 A 
ATOM      6  C   UNL     1       9.537  -9.964 -44.983  1.00  0.00     0.058 A 
ENDROOT
BRANCH   1   7
ATOM      7  O   UNL     1       8.892 -12.053 -46.109  1.00  0.00    -0.493 OA
ATOM      8  C   UNL     1       7.490 -11.809 -46.158  1.00  0.00     0.278 C 
ENDBRANCH   1   7
BRANCH   2   9
ATOM      9  O   UNL     1      11.342 -13.189 -45.355  1.00  0.00    -0.504 OA
ATOM     10  H   UNL     1      10.713 -13.761 -45.905  1.00  0.00     0.293 HD
ENDBRANCH   2   9
BRANCH   5  11
ATOM     11  C   UNL     1      10.130  -7.826 -43.865  1.00  0.00     0.000 C 
ATOM     12  C   UNL     1       9.759  -7.441 -42.642  1.00  0.00     0.009 C 
ENDBRANCH   5  11
TORSDOF 3
ENDMDL
MODEL 3
REMARK VINA RESULT:    -4.452      2.090      3.983
REMARK INTER + INTRA:          -5.196
REMARK INTER:                  -5.104
REMARK INTRA:                  -0.092
REMARK UNBOUND:                -0.094
REMARK SMILES C=Cc1ccc(O)c(OC)c1
REMARK SMILES IDX 8 1 6 2 5 3 4 4 3 5 11 6 9 7 10 8 7 9 2 11 1 12
REMARK H PARENT 7 10
REMARK Flexibility Score: inf
ROOT
ATOM      1  C   UNL     1      10.458  -9.535 -44.373  1.00  0.00     0.161 A 
ATOM      2  C   UNL     1       9.538 -10.443 -44.925  1.00  0.00     0.157 A 
ATOM      3  C   UNL     1       9.874 -11.794 -45.045  1.00  0.00     0.051 A 
ATOM      4  C   UNL     1      11.120 -12.256 -44.616  1.00  0.00     0.012 A 
ATOM      5  C   UNL     1      12.052 -11.367 -44.050  1.00  0.00    -0.022 A 
ATOM      6  C   UNL     1      11.715 -10.006 -43.943  1.00  0.00     0.058 A 
ENDROOT
BRANCH   1   7
ATOM      7  O   UNL     1      10.096  -8.183 -44.269  1.00  0.00    -0.493 OA
ATOM      8  C   UNL     1       9.802  -7.516 -43.046  1.00  0.00     0.278 C 
ENDBRANCH   1   7
BRANCH   2   9
ATOM      9  O   UNL     1       8.283 -10.020 -45.363  1.00  0.00    -0.504 OA
ATOM     10  H   UNL     1       7.496 -10.653 -45.441  1.00  0.00     0.293 HD
ENDBRANCH   2   9
BRANCH   5  11
ATOM     11  C   UNL     1      13.392 -11.803 -43.587  1.00  0.00     0.000 C 
ATOM     12  C   UNL     1      14.538 -11.472 -44.185  1.00  0.00     0.009 C 
ENDBRANCH   5  11
TORSDOF 3
ENDMDL
MODEL 4
REMARK VINA RESULT:    -4.155     12.684     13.961
REMARK INTER + INTRA:          -4.855
REMARK INTER:                  -4.751
REMARK INTRA:                  -0.105
REMARK UNBOUND:                -0.094
REMARK SMILES C=Cc1ccc(O)c(OC)c1
REMARK SMILES IDX 8 1 6 2 5 3 4 4 3 5 11 6 9 7 10 8 7 9 2 11 1 12
REMARK H PARENT 7 10
REMARK Flexibility Score: inf
ROOT
ATOM      1  C   UNL     1       6.779 -19.606 -36.393  1.00  0.00     0.161 A 
ATOM      2  C   UNL     1       5.912 -20.420 -37.142  1.00  0.00     0.157 A 
ATOM      3  C   UNL     1       6.098 -21.805 -37.164  1.00  0.00     0.051 A 
ATOM      4  C   UNL     1       7.140 -22.392 -36.444  1.00  0.00     0.012 A 
ATOM      5  C   UNL     1       8.013 -21.597 -35.678  1.00  0.00    -0.022 A 
ATOM      6  C   UNL     1       7.830 -20.203 -35.669  1.00  0.00     0.058 A 
ENDROOT
BRANCH   1   7
ATOM      7  O   UNL     1       6.572 -18.217 -36.393  1.00  0.00    -0.493 OA
ATOM      8  C   UNL     1       5.787 -17.517 -35.434  1.00  0.00     0.278 C 
ENDBRANCH   1   7
BRANCH   2   9
ATOM      9  O   UNL     1       4.859 -19.871 -37.874  1.00  0.00    -0.504 OA
ATOM     10  H   UNL     1       3.987 -20.365 -38.020  1.00  0.00     0.293 HD
ENDBRANCH   2   9
BRANCH   5  11
ATOM     11  C   UNL     1       9.141 -22.169 -34.902  1.00  0.00     0.000 C 
ATOM     12  C   UNL     1       9.576 -23.424 -35.024  1.00  0.00     0.009 C 
ENDBRANCH   5  11
TORSDOF 3
ENDMDL
MODEL 5
REMARK VINA RESULT:    -4.128      1.688      3.502
REMARK INTER + INTRA:          -4.825
REMARK INTER:                  -4.739
REMARK INTRA:                  -0.086
REMARK UNBOUND:                -0.094
REMARK SMILES C=Cc1ccc(O)c(OC)c1
REMARK SMILES IDX 8 1 6 2 5 3 4 4 3 5 11 6 9 7 10 8 7 9 2 11 1 12
REMARK H PARENT 7 10
REMARK Flexibility Score: inf
ROOT
ATOM      1  C   UNL     1      10.983 -10.040 -44.210  1.00  0.00     0.161 A 
ATOM      2  C   UNL     1      11.848 -11.143 -44.313  1.00  0.00     0.157 A 
ATOM      3  C   UNL     1      11.467 -12.263 -45.055  1.00  0.00     0.051 A 
ATOM      4  C   UNL     1      10.230 -12.299 -45.703  1.00  0.00     0.012 A 
ATOM      5  C   UNL     1       9.354 -11.201 -45.623  1.00  0.00    -0.022 A 
ATOM      6  C   UNL     1       9.736 -10.080 -44.865  1.00  0.00     0.058 A 
ENDROOT
BRANCH   1   7
ATOM      7  O   UNL     1      11.390  -8.929 -43.454  1.00  0.00    -0.493 OA
ATOM      8  C   UNL     1      10.521  -8.134 -42.654  1.00  0.00     0.278 C 
ENDBRANCH   1   7
BRANCH   2   9
ATOM      9  O   UNL     1      13.092 -11.145 -43.682  1.00  0.00    -0.504 OA
ATOM     10  H   UNL     1      13.239 -11.581 -42.780  1.00  0.00     0.293 HD
ENDBRANCH   2   9
BRANCH   5  11
ATOM     11  C   UNL     1       8.025 -11.189 -46.284  1.00  0.00     0.000 C 
ATOM     12  C   UNL     1       7.113 -12.155 -46.153  1.00  0.00     0.009 C 
ENDBRANCH   5  11
TORSDOF 3
ENDMDL
MODEL 6
REMARK VINA RESULT:    -4.126      2.377      3.518
REMARK INTER + INTRA:          -4.822
REMARK INTER:                  -4.710
REMARK INTRA:                  -0.112
REMARK UNBOUND:                -0.094
REMARK SMILES C=Cc1ccc(O)c(OC)c1
REMARK SMILES IDX 8 1 6 2 5 3 4 4 3 5 11 6 9 7 10 8 7 9 2 11 1 12
REMARK H PARENT 7 10
REMARK Flexibility Score: inf
ROOT
ATOM      1  C   UNL     1       9.390 -12.700 -46.218  1.00  0.00     0.161 A 
ATOM      2  C   UNL     1       8.043 -12.369 -46.447  1.00  0.00     0.157 A 
ATOM      3  C   UNL     1       7.546 -11.133 -46.026  1.00  0.00     0.051 A 
ATOM      4  C   UNL     1       8.377 -10.216 -45.380  1.00  0.00     0.012 A 
ATOM      5  C   UNL     1       9.731 -10.522 -45.150  1.00  0.00    -0.022 A 
ATOM      6  C   UNL     1      10.225 -11.772 -45.564  1.00  0.00     0.058 A 
ENDROOT
BRANCH   1   7
ATOM      7  O   UNL     1       9.862 -13.951 -46.646  1.00  0.00    -0.493 OA
ATOM      8  C   UNL     1      10.577 -14.174 -47.856  1.00  0.00     0.278 C 
ENDBRANCH   1   7
BRANCH   2   9
ATOM      9  O   UNL     1       7.182 -13.257 -47.091  1.00  0.00    -0.504 OA
ATOM     10  H   UNL     1       6.454 -12.943 -47.721  1.00  0.00     0.293 HD
ENDBRANCH   2   9
BRANCH   5  11
ATOM     11  C   UNL     1      10.656  -9.588 -44.460  1.00  0.00     0.000 C 
ATOM     12  C   UNL     1      10.316  -8.367 -44.043  1.00  0.00     0.009 C 
ENDBRANCH   5  11
TORSDOF 3
ENDMDL
MODEL 7
REMARK VINA RESULT:    -4.107      1.894      4.078
REMARK INTER + INTRA:          -4.800
REMARK INTER:                  -4.707
REMARK INTRA:                  -0.094
REMARK UNBOUND:                -0.094
REMARK SMILES C=Cc1ccc(O)c(OC)c1
REMARK SMILES IDX 8 1 6 2 5 3 4 4 3 5 11 6 9 7 10 8 7 9 2 11 1 12
REMARK H PARENT 7 10
REMARK Flexibility Score: inf
ROOT
ATOM      1  C   UNL     1       9.802 -11.630 -45.051  1.00  0.00     0.161 A 
ATOM      2  C   UNL     1       9.352 -10.300 -44.992  1.00  0.00     0.157 A 
ATOM      3  C   UNL     1      10.224  -9.284 -44.590  1.00  0.00     0.051 A 
ATOM      4  C   UNL     1      11.546  -9.578 -44.249  1.00  0.00     0.012 A 
ATOM      5  C   UNL     1      12.020 -10.901 -44.313  1.00  0.00    -0.022 A 
ATOM      6  C   UNL     1      11.136 -11.921 -44.705  1.00  0.00     0.058 A 
ENDROOT
BRANCH   1   7
ATOM      7  O   UNL     1       8.903 -12.631 -45.453  1.00  0.00    -0.493 OA
ATOM      8  C   UNL     1       8.822 -13.164 -46.771  1.00  0.00     0.278 C 
ENDBRANCH   1   7
BRANCH   2   9
ATOM      9  O   UNL     1       8.040  -9.967 -45.327  1.00  0.00    -0.504 OA
ATOM     10  H   UNL     1       7.727  -9.006 -45.394  1.00  0.00     0.293 HD
ENDBRANCH   2   9
BRANCH   5  11
ATOM     11  C   UNL     1      13.412 -11.269 -43.952  1.00  0.00     0.000 C 
ATOM     12  C   UNL     1      13.791 -12.489 -43.569  1.00  0.00     0.009 C 
ENDBRANCH   5  11
TORSDOF 3
ENDMDL
MODEL 8
REMARK VINA RESULT:    -4.098      1.369      2.890
REMARK INTER + INTRA:          -4.790
REMARK INTER:                  -4.699
REMARK INTRA:                  -0.092
REMARK UNBOUND:                -0.094
REMARK SMILES C=Cc1ccc(O)c(OC)c1
REMARK SMILES IDX 8 1 6 2 5 3 4 4 3 5 11 6 9 7 10 8 7 9 2 11 1 12
REMARK H PARENT 7 10
REMARK Flexibility Score: inf
ROOT
ATOM      1  C   UNL     1      11.637 -12.051 -44.640  1.00  0.00     0.161 A 
ATOM      2  C   UNL     1      12.442 -10.967 -44.250  1.00  0.00     0.157 A 
ATOM      3  C   UNL     1      11.924  -9.670 -44.268  1.00  0.00     0.051 A 
ATOM      4  C   UNL     1      10.607  -9.437 -44.668  1.00  0.00     0.012 A 
ATOM      5  C   UNL     1       9.780 -10.509 -45.052  1.00  0.00    -0.022 A 
ATOM      6  C   UNL     1      10.309 -11.811 -45.044  1.00  0.00     0.058 A 
ENDROOT
BRANCH   1   7
ATOM      7  O   UNL     1      12.185 -13.344 -44.618  1.00  0.00    -0.493 OA
ATOM      8  C   UNL     1      12.058 -14.257 -43.533  1.00  0.00     0.278 C 
ENDBRANCH   1   7
BRANCH   2   9
ATOM      9  O   UNL     1      13.762 -11.159 -43.843  1.00  0.00    -0.504 OA
ATOM     10  H   UNL     1      14.279 -12.002 -44.064  1.00  0.00     0.293 HD
ENDBRANCH   2   9
BRANCH   5  11
ATOM     11  C   UNL     1       8.376 -10.317 -45.494  1.00  0.00     0.000 C 
ATOM     12  C   UNL     1       7.574 -11.304 -45.896  1.00  0.00     0.009 C 
ENDBRANCH   5  11
TORSDOF 3
ENDMDL
MODEL 9
REMARK VINA RESULT:    -4.032      1.800      4.097
REMARK INTER + INTRA:          -4.715
REMARK INTER:                  -4.642
REMARK INTRA:                  -0.072
REMARK UNBOUND:                -0.094
REMARK SMILES C=Cc1ccc(O)c(OC)c1
REMARK SMILES IDX 8 1 6 2 5 3 4 4 3 5 11 6 9 7 10 8 7 9 2 11 1 12
REMARK H PARENT 7 10
REMARK Flexibility Score: inf
ROOT
ATOM      1  C   UNL     1      11.384 -10.904 -44.271  1.00  0.00     0.161 A 
ATOM      2  C   UNL     1      10.705 -12.132 -44.180  1.00  0.00     0.157 A 
ATOM      3  C   UNL     1      11.394 -13.283 -43.789  1.00  0.00     0.051 A 
ATOM      4  C   UNL     1      12.755 -13.227 -43.483  1.00  0.00     0.012 A 
ATOM      5  C   UNL     1      13.451 -12.006 -43.556  1.00  0.00    -0.022 A 
ATOM      6  C   UNL     1      12.757 -10.852 -43.962  1.00  0.00     0.058 A 
ENDROOT
BRANCH   1   7
ATOM      7  O   UNL     1      10.668  -9.764 -44.670  1.00  0.00    -0.493 OA
ATOM      8  C   UNL     1      11.188  -8.439 -44.661  1.00  0.00     0.278 C 
ENDBRANCH   1   7
BRANCH   2   9
ATOM      9  O   UNL     1       9.346 -12.228 -44.476  1.00  0.00    -0.504 OA
ATOM     10  H   UNL     1       8.743 -11.415 -44.517  1.00  0.00     0.293 HD
ENDBRANCH   2   9
BRANCH   5  11
ATOM     11  C   UNL     1      14.898 -11.892 -43.250  1.00  0.00     0.000 C 
ATOM     12  C   UNL     1      15.861 -11.874 -44.174  1.00  0.00     0.009 C 
ENDBRANCH   5  11
TORSDOF 3
ENDMDL
