MODEL 1
REMARK VINA RESULT:    -5.246      0.000      0.000
REMARK INTER + INTRA:          -6.026
REMARK INTER:                  -6.166
REMARK INTRA:                   0.139
REMARK UNBOUND:                 0.139
REMARK SMILES O=c1c(O)c(-c2ccc(O)cc2)oc2cc(O)cc(O)c12
REMARK SMILES IDX 5 1 3 2 2 3 1 4 21 5 19 6 18 7 16 8 15 9 14 10 13 11 6 12
REMARK SMILES IDX 7 13 8 14 9 15 12 16 11 17 10 18 4 20 20 22 17 24
REMARK H PARENT 10 19 4 21 20 23 17 25
REMARK Flexibility Score: inf
ROOT
ATOM      1  C   UNL     1     -13.917  -6.006   2.792  1.00  0.00     0.180 A 
ATOM      2  C   UNL     1     -15.252  -6.333   2.500  1.00  0.00     0.208 A 
ATOM      3  C   UNL     1     -15.700  -7.643   2.734  1.00  0.00     0.238 A 
ATOM      4  O   UNL     1     -16.882  -7.943   2.419  1.00  0.00    -0.285 OA
ATOM      5  C   UNL     1     -14.812  -8.605   3.273  1.00  0.00     0.111 A 
ATOM      6  C   UNL     1     -15.170  -9.951   3.588  1.00  0.00     0.134 A 
ATOM      7  C   UNL     1     -14.178 -10.852   3.995  1.00  0.00     0.093 A 
ATOM      8  C   UNL     1     -12.853 -10.438   4.160  1.00  0.00     0.123 A 
ATOM      9  C   UNL     1     -12.507  -9.113   3.911  1.00  0.00     0.094 A 
ATOM     10  C   UNL     1     -13.466  -8.199   3.470  1.00  0.00     0.146 A 
ATOM     11  O   UNL     1     -13.091  -6.948   3.235  1.00  0.00    -0.452 OA
ENDROOT
BRANCH   1  12
ATOM     12  C   UNL     1     -13.378  -4.641   2.596  1.00  0.00     0.021 A 
ATOM     13  C   UNL     1     -13.676  -3.894   1.441  1.00  0.00     0.016 A 
ATOM     14  C   UNL     1     -13.176  -2.597   1.289  1.00  0.00     0.047 A 
ATOM     15  C   UNL     1     -12.382  -2.026   2.293  1.00  0.00     0.115 A 
ATOM     16  C   UNL     1     -12.599  -4.053   3.607  1.00  0.00     0.016 A 
ATOM     17  C   UNL     1     -12.098  -2.757   3.451  1.00  0.00     0.047 A 
BRANCH  15  18
ATOM     18  O   UNL     1     -11.877  -0.736   2.151  1.00  0.00    -0.508 OA
ATOM     19  H   UNL     1     -11.113  -0.534   1.518  1.00  0.00     0.293 HD
ENDBRANCH  15  18
ENDBRANCH   1  12
BRANCH   2  20
ATOM     20  O   UNL     1     -16.106  -5.374   1.947  1.00  0.00    -0.502 OA
ATOM     21  H   UNL     1     -15.950  -4.972   1.030  1.00  0.00     0.293 HD
ENDBRANCH   2  20
BRANCH   6  22
ATOM     22  O   UNL     1     -16.478 -10.440   3.546  1.00  0.00    -0.507 OA
ATOM     23  H   UNL     1     -17.188 -10.246   4.236  1.00  0.00     0.293 HD
ENDBRANCH   6  22
BRANCH   8  24
ATOM     24  O   UNL     1     -11.875 -11.338   4.579  1.00  0.00    -0.508 OA
ATOM     25  H   UNL     1     -11.632 -12.152   4.027  1.00  0.00     0.293 HD
ENDBRANCH   8  24
TORSDOF 5
ENDMDL
MODEL 2
REMARK VINA RESULT:    -5.190      9.470     11.277
REMARK INTER + INTRA:          -5.961
REMARK INTER:                  -5.669
REMARK INTRA:                  -0.292
REMARK UNBOUND:                 0.139
REMARK SMILES O=c1c(O)c(-c2ccc(O)cc2)oc2cc(O)cc(O)c12
REMARK SMILES IDX 5 1 3 2 2 3 1 4 21 5 19 6 18 7 16 8 15 9 14 10 13 11 6 12
REMARK SMILES IDX 7 13 8 14 9 15 12 16 11 17 10 18 4 20 20 22 17 24
REMARK H PARENT 10 19 4 21 20 23 17 25
REMARK Flexibility Score: inf
ROOT
ATOM      1  C   UNL     1     -13.669   3.440  -0.364  1.00  0.00     0.180 A 
ATOM      2  C   UNL     1     -14.586   2.429  -0.028  1.00  0.00     0.208 A 
ATOM      3  C   UNL     1     -14.842   2.166   1.328  1.00  0.00     0.238 A 
ATOM      4  O   UNL     1     -15.622   1.222   1.623  1.00  0.00    -0.285 OA
ATOM      5  C   UNL     1     -14.191   2.926   2.328  1.00  0.00     0.111 A 
ATOM      6  C   UNL     1     -14.405   2.773   3.731  1.00  0.00     0.134 A 
ATOM      7  C   UNL     1     -13.611   3.490   4.634  1.00  0.00     0.093 A 
ATOM      8  C   UNL     1     -12.654   4.404   4.183  1.00  0.00     0.123 A 
ATOM      9  C   UNL     1     -12.480   4.604   2.817  1.00  0.00     0.094 A 
ATOM     10  C   UNL     1     -13.232   3.878   1.891  1.00  0.00     0.146 A 
ATOM     11  O   UNL     1     -13.026   4.092   0.598  1.00  0.00    -0.452 OA
ENDROOT
BRANCH   1  12
ATOM     12  C   UNL     1     -13.366   3.793  -1.771  1.00  0.00     0.021 A 
ATOM     13  C   UNL     1     -14.180   4.684  -2.495  1.00  0.00     0.016 A 
ATOM     14  C   UNL     1     -13.861   5.021  -3.814  1.00  0.00     0.047 A 
ATOM     15  C   UNL     1     -12.718   4.484  -4.421  1.00  0.00     0.115 A 
ATOM     16  C   UNL     1     -12.211   3.276  -2.380  1.00  0.00     0.016 A 
ATOM     17  C   UNL     1     -11.894   3.614  -3.700  1.00  0.00     0.047 A 
BRANCH  15  18
ATOM     18  O   UNL     1     -12.391   4.812  -5.734  1.00  0.00    -0.508 OA
ATOM     19  H   UNL     1     -11.429   4.819  -6.053  1.00  0.00     0.293 HD
ENDBRANCH  15  18
ENDBRANCH   1  12
BRANCH   2  20
ATOM     20  O   UNL     1     -15.200   1.675  -1.031  1.00  0.00    -0.502 OA
ATOM     21  H   UNL     1     -16.107   1.914  -1.414  1.00  0.00     0.293 HD
ENDBRANCH   2  20
BRANCH   6  22
ATOM     22  O   UNL     1     -15.396   1.956   4.284  1.00  0.00    -0.507 OA
ATOM     23  H   UNL     1     -15.483   1.741   5.266  1.00  0.00     0.293 HD
ENDBRANCH   6  22
BRANCH   8  24
ATOM     24  O   UNL     1     -11.879   5.125   5.089  1.00  0.00    -0.508 OA
ATOM     25  H   UNL     1     -12.232   5.958   5.545  1.00  0.00     0.293 HD
ENDBRANCH   8  24
TORSDOF 5
ENDMDL
MODEL 3
REMARK VINA RESULT:    -5.156      2.476      7.745
REMARK INTER + INTRA:          -5.920
REMARK INTER:                  -6.021
REMARK INTRA:                   0.100
REMARK UNBOUND:                 0.139
REMARK SMILES O=c1c(O)c(-c2ccc(O)cc2)oc2cc(O)cc(O)c12
REMARK SMILES IDX 5 1 3 2 2 3 1 4 21 5 19 6 18 7 16 8 15 9 14 10 13 11 6 12
REMARK SMILES IDX 7 13 8 14 9 15 12 16 11 17 10 18 4 20 20 22 17 24
REMARK H PARENT 10 19 4 21 20 23 17 25
REMARK Flexibility Score: inf
ROOT
ATOM      1  C   UNL     1     -13.546  -3.375   2.467  1.00  0.00     0.180 A 
ATOM      2  C   UNL     1     -13.876  -2.992   1.156  1.00  0.00     0.208 A 
ATOM      3  C   UNL     1     -13.992  -1.626   0.853  1.00  0.00     0.238 A 
ATOM      4  O   UNL     1     -14.341  -1.292  -0.309  1.00  0.00    -0.285 OA
ATOM      5  C   UNL     1     -13.761  -0.659   1.861  1.00  0.00     0.111 A 
ATOM      6  C   UNL     1     -13.811   0.752   1.657  1.00  0.00     0.134 A 
ATOM      7  C   UNL     1     -13.693   1.614   2.755  1.00  0.00     0.093 A 
ATOM      8  C   UNL     1     -13.462   1.115   4.041  1.00  0.00     0.123 A 
ATOM      9  C   UNL     1     -13.353  -0.258   4.239  1.00  0.00     0.094 A 
ATOM     10  C   UNL     1     -13.501  -1.145   3.170  1.00  0.00     0.146 A 
ATOM     11  O   UNL     1     -13.400  -2.447   3.406  1.00  0.00    -0.452 OA
ENDROOT
BRANCH   1  12
ATOM     12  C   UNL     1     -13.382  -4.795   2.857  1.00  0.00     0.021 A 
ATOM     13  C   UNL     1     -12.281  -5.222   3.623  1.00  0.00     0.016 A 
ATOM     14  C   UNL     1     -12.159  -6.562   3.999  1.00  0.00     0.047 A 
ATOM     15  C   UNL     1     -13.141  -7.491   3.626  1.00  0.00     0.115 A 
ATOM     16  C   UNL     1     -14.372  -5.728   2.506  1.00  0.00     0.016 A 
ATOM     17  C   UNL     1     -14.246  -7.068   2.883  1.00  0.00     0.047 A 
BRANCH  15  18
ATOM     18  O   UNL     1     -13.029  -8.829   3.995  1.00  0.00    -0.508 OA
ATOM     19  H   UNL     1     -12.401  -9.460   3.512  1.00  0.00     0.293 HD
ENDBRANCH  15  18
ENDBRANCH   1  12
BRANCH   2  20
ATOM     20  O   UNL     1     -14.123  -3.964   0.181  1.00  0.00    -0.502 OA
ATOM     21  H   UNL     1     -13.823  -4.926   0.284  1.00  0.00     0.293 HD
ENDBRANCH   2  20
BRANCH   6  22
ATOM     22  O   UNL     1     -13.945   1.355   0.403  1.00  0.00    -0.507 OA
ATOM     23  H   UNL     1     -13.315   1.215  -0.373  1.00  0.00     0.293 HD
ENDBRANCH   6  22
BRANCH   8  24
ATOM     24  O   UNL     1     -13.331   1.980   5.125  1.00  0.00    -0.508 OA
ATOM     25  H   UNL     1     -13.312   2.986   5.001  1.00  0.00     0.293 HD
ENDBRANCH   8  24
TORSDOF 5
ENDMDL
MODEL 4
REMARK VINA RESULT:    -5.019      3.014      8.694
REMARK INTER + INTRA:          -5.760
REMARK INTER:                  -6.041
REMARK INTRA:                   0.282
REMARK UNBOUND:                 0.139
REMARK SMILES O=c1c(O)c(-c2ccc(O)cc2)oc2cc(O)cc(O)c12
REMARK SMILES IDX 5 1 3 2 2 3 1 4 21 5 19 6 18 7 16 8 15 9 14 10 13 11 6 12
REMARK SMILES IDX 7 13 8 14 9 15 12 16 11 17 10 18 4 20 20 22 17 24
REMARK H PARENT 10 19 4 21 20 23 17 25
REMARK Flexibility Score: inf
ROOT
ATOM      1  C   UNL     1     -13.545  -2.005   2.635  1.00  0.00     0.180 A 
ATOM      2  C   UNL     1     -13.078  -1.112   3.614  1.00  0.00     0.208 A 
ATOM      3  C   UNL     1     -13.217   0.269   3.400  1.00  0.00     0.238 A 
ATOM      4  O   UNL     1     -12.747   1.064   4.255  1.00  0.00    -0.285 OA
ATOM      5  C   UNL     1     -13.837   0.739   2.217  1.00  0.00     0.111 A 
ATOM      6  C   UNL     1     -14.068   2.114   1.914  1.00  0.00     0.134 A 
ATOM      7  C   UNL     1     -14.572   2.470   0.656  1.00  0.00     0.093 A 
ATOM      8  C   UNL     1     -14.914   1.494  -0.285  1.00  0.00     0.123 A 
ATOM      9  C   UNL     1     -14.748   0.147   0.025  1.00  0.00     0.094 A 
ATOM     10  C   UNL     1     -14.214  -0.238   1.257  1.00  0.00     0.146 A 
ATOM     11  O   UNL     1     -14.063  -1.532   1.507  1.00  0.00    -0.452 OA
ENDROOT
BRANCH   1  12
ATOM     12  C   UNL     1     -13.456  -3.474   2.801  1.00  0.00     0.021 A 
ATOM     13  C   UNL     1     -12.393  -4.069   3.505  1.00  0.00     0.016 A 
ATOM     14  C   UNL     1     -12.343  -5.457   3.669  1.00  0.00     0.047 A 
ATOM     15  C   UNL     1     -13.360  -6.266   3.144  1.00  0.00     0.115 A 
ATOM     16  C   UNL     1     -14.482  -4.291   2.296  1.00  0.00     0.016 A 
ATOM     17  C   UNL     1     -14.429  -5.678   2.461  1.00  0.00     0.047 A 
BRANCH  15  18
ATOM     18  O   UNL     1     -13.319  -7.649   3.301  1.00  0.00    -0.508 OA
ATOM     19  H   UNL     1     -14.151  -8.217   3.196  1.00  0.00     0.293 HD
ENDBRANCH  15  18
ENDBRANCH   1  12
BRANCH   2  20
ATOM     20  O   UNL     1     -12.448  -1.596   4.764  1.00  0.00    -0.502 OA
ATOM     21  H   UNL     1     -11.472  -1.413   4.968  1.00  0.00     0.293 HD
ENDBRANCH   2  20
BRANCH   6  22
ATOM     22  O   UNL     1     -13.847   3.159   2.815  1.00  0.00    -0.507 OA
ATOM     23  H   UNL     1     -14.569   3.749   3.201  1.00  0.00     0.293 HD
ENDBRANCH   6  22
BRANCH   8  24
ATOM     24  O   UNL     1     -15.429   1.856  -1.527  1.00  0.00    -0.508 OA
ATOM     25  H   UNL     1     -16.030   2.665  -1.637  1.00  0.00     0.293 HD
ENDBRANCH   8  24
TORSDOF 5
ENDMDL
MODEL 5
REMARK VINA RESULT:    -4.873      1.754      2.585
REMARK INTER + INTRA:          -5.588
REMARK INTER:                  -5.559
REMARK INTRA:                  -0.029
REMARK UNBOUND:                 0.139
REMARK SMILES O=c1c(O)c(-c2ccc(O)cc2)oc2cc(O)cc(O)c12
REMARK SMILES IDX 5 1 3 2 2 3 1 4 21 5 19 6 18 7 16 8 15 9 14 10 13 11 6 12
REMARK SMILES IDX 7 13 8 14 9 15 12 16 11 17 10 18 4 20 20 22 17 24
REMARK H PARENT 10 19 4 21 20 23 17 25
REMARK Flexibility Score: inf
ROOT
ATOM      1  C   UNL     1     -14.498  -8.185   3.428  1.00  0.00     0.180 A 
ATOM      2  C   UNL     1     -15.694  -8.563   4.063  1.00  0.00     0.208 A 
ATOM      3  C   UNL     1     -15.906  -9.918   4.366  1.00  0.00     0.238 A 
ATOM      4  O   UNL     1     -17.002 -10.257   4.884  1.00  0.00    -0.285 OA
ATOM      5  C   UNL     1     -14.913 -10.874   4.047  1.00  0.00     0.111 A 
ATOM      6  C   UNL     1     -15.003 -12.267   4.345  1.00  0.00     0.134 A 
ATOM      7  C   UNL     1     -14.019 -13.142   3.867  1.00  0.00     0.093 A 
ATOM      8  C   UNL     1     -12.914 -12.664   3.157  1.00  0.00     0.123 A 
ATOM      9  C   UNL     1     -12.788 -11.299   2.913  1.00  0.00     0.094 A 
ATOM     10  C   UNL     1     -13.770 -10.406   3.346  1.00  0.00     0.146 A 
ATOM     11  O   UNL     1     -13.615  -9.115   3.083  1.00  0.00    -0.452 OA
ENDROOT
BRANCH   1  12
ATOM     12  C   UNL     1     -14.192  -6.774   3.099  1.00  0.00     0.021 A 
ATOM     13  C   UNL     1     -15.062  -6.000   2.309  1.00  0.00     0.016 A 
ATOM     14  C   UNL     1     -14.764  -4.663   2.031  1.00  0.00     0.047 A 
ATOM     15  C   UNL     1     -13.600  -4.078   2.548  1.00  0.00     0.115 A 
ATOM     16  C   UNL     1     -13.038  -6.174   3.631  1.00  0.00     0.016 A 
ATOM     17  C   UNL     1     -12.742  -4.837   3.350  1.00  0.00     0.047 A 
BRANCH  15  18
ATOM     18  O   UNL     1     -13.293  -2.747   2.277  1.00  0.00    -0.508 OA
ATOM     19  H   UNL     1     -12.613  -2.495   1.570  1.00  0.00     0.293 HD
ENDBRANCH  15  18
ENDBRANCH   1  12
BRANCH   2  20
ATOM     20  O   UNL     1     -16.671  -7.605   4.348  1.00  0.00    -0.502 OA
ATOM     21  H   UNL     1     -17.504  -7.493   3.783  1.00  0.00     0.293 HD
ENDBRANCH   2  20
BRANCH   6  22
ATOM     22  O   UNL     1     -16.016 -12.834   5.124  1.00  0.00    -0.507 OA
ATOM     23  H   UNL     1     -16.999 -12.624   5.032  1.00  0.00     0.293 HD
ENDBRANCH   6  22
BRANCH   8  24
ATOM     24  O   UNL     1     -11.933 -13.540   2.698  1.00  0.00    -0.508 OA
ATOM     25  H   UNL     1     -11.990 -13.968   1.781  1.00  0.00     0.293 HD
ENDBRANCH   8  24
TORSDOF 5
ENDMDL
MODEL 6
REMARK VINA RESULT:    -4.795      1.596      3.016
REMARK INTER + INTRA:          -5.496
REMARK INTER:                  -5.439
REMARK INTRA:                  -0.058
REMARK UNBOUND:                 0.139
REMARK SMILES O=c1c(O)c(-c2ccc(O)cc2)oc2cc(O)cc(O)c12
REMARK SMILES IDX 5 1 3 2 2 3 1 4 21 5 19 6 18 7 16 8 15 9 14 10 13 11 6 12
REMARK SMILES IDX 7 13 8 14 9 15 12 16 11 17 10 18 4 20 20 22 17 24
REMARK H PARENT 10 19 4 21 20 23 17 25
REMARK Flexibility Score: inf
ROOT
ATOM      1  C   UNL     1     -13.775  -5.087   2.846  1.00  0.00     0.180 A 
ATOM      2  C   UNL     1     -12.781  -5.441   3.774  1.00  0.00     0.208 A 
ATOM      3  C   UNL     1     -12.733  -6.761   4.251  1.00  0.00     0.238 A 
ATOM      4  O   UNL     1     -11.875  -7.059   5.123  1.00  0.00    -0.285 OA
ATOM      5  C   UNL     1     -13.670  -7.713   3.782  1.00  0.00     0.111 A 
ATOM      6  C   UNL     1     -13.690  -9.088   4.167  1.00  0.00     0.134 A 
ATOM      7  C   UNL     1     -14.742  -9.909   3.741  1.00  0.00     0.093 A 
ATOM      8  C   UNL     1     -15.738  -9.421   2.891  1.00  0.00     0.123 A 
ATOM      9  C   UNL     1     -15.694  -8.097   2.464  1.00  0.00     0.094 A 
ATOM     10  C   UNL     1     -14.678  -7.244   2.899  1.00  0.00     0.146 A 
ATOM     11  O   UNL     1     -14.680  -5.986   2.476  1.00  0.00    -0.452 OA
ENDROOT
BRANCH   1  12
ATOM     12  C   UNL     1     -13.874  -3.722   2.279  1.00  0.00     0.021 A 
ATOM     13  C   UNL     1     -13.807  -3.499   0.891  1.00  0.00     0.016 A 
ATOM     14  C   UNL     1     -13.927  -2.204   0.377  1.00  0.00     0.047 A 
ATOM     15  C   UNL     1     -14.126  -1.119   1.240  1.00  0.00     0.115 A 
ATOM     16  C   UNL     1     -14.095  -2.631   3.136  1.00  0.00     0.016 A 
ATOM     17  C   UNL     1     -14.213  -1.337   2.619  1.00  0.00     0.047 A 
BRANCH  15  18
ATOM     18  O   UNL     1     -14.246   0.175   0.739  1.00  0.00    -0.508 OA
ATOM     19  H   UNL     1     -14.077   0.382  -0.238  1.00  0.00     0.293 HD
ENDBRANCH  15  18
ENDBRANCH   1  12
BRANCH   2  20
ATOM     20  O   UNL     1     -11.880  -4.480   4.241  1.00  0.00    -0.502 OA
ATOM     21  H   UNL     1     -10.933  -4.711   4.518  1.00  0.00     0.293 HD
ENDBRANCH   2  20
BRANCH   6  22
ATOM     22  O   UNL     1     -12.695  -9.697   4.936  1.00  0.00    -0.507 OA
ATOM     23  H   UNL     1     -11.890 -10.176   4.560  1.00  0.00     0.293 HD
ENDBRANCH   6  22
BRANCH   8  24
ATOM     24  O   UNL     1     -16.772 -10.249   2.460  1.00  0.00    -0.508 OA
ATOM     25  H   UNL     1     -16.813 -11.227   2.722  1.00  0.00     0.293 HD
ENDBRANCH   8  24
TORSDOF 5
ENDMDL
MODEL 7
REMARK VINA RESULT:    -4.660      5.866      9.578
REMARK INTER + INTRA:          -5.338
REMARK INTER:                  -5.535
REMARK INTRA:                   0.198
REMARK UNBOUND:                 0.139
REMARK SMILES O=c1c(O)c(-c2ccc(O)cc2)oc2cc(O)cc(O)c12
REMARK SMILES IDX 5 1 3 2 2 3 1 4 21 5 19 6 18 7 16 8 15 9 14 10 13 11 6 12
REMARK SMILES IDX 7 13 8 14 9 15 12 16 11 17 10 18 4 20 20 22 17 24
REMARK H PARENT 10 19 4 21 20 23 17 25
REMARK Flexibility Score: inf
ROOT
ATOM      1  C   UNL     1     -13.796   2.538   0.282  1.00  0.00     0.180 A 
ATOM      2  C   UNL     1     -13.463   3.233   1.457  1.00  0.00     0.208 A 
ATOM      3  C   UNL     1     -13.333   2.517   2.658  1.00  0.00     0.238 A 
ATOM      4  O   UNL     1     -13.089   3.153   3.717  1.00  0.00    -0.285 OA
ATOM      5  C   UNL     1     -13.523   1.115   2.666  1.00  0.00     0.111 A 
ATOM      6  C   UNL     1     -13.377   0.283   3.817  1.00  0.00     0.134 A 
ATOM      7  C   UNL     1     -13.715  -1.074   3.737  1.00  0.00     0.093 A 
ATOM      8  C   UNL     1     -14.131  -1.642   2.530  1.00  0.00     0.123 A 
ATOM      9  C   UNL     1     -14.219  -0.851   1.388  1.00  0.00     0.094 A 
ATOM     10  C   UNL     1     -13.923   0.513   1.444  1.00  0.00     0.146 A 
ATOM     11  O   UNL     1     -14.031   1.232   0.334  1.00  0.00    -0.452 OA
ENDROOT
BRANCH   1  12
ATOM     12  C   UNL     1     -13.925   3.219  -1.027  1.00  0.00     0.021 A 
ATOM     13  C   UNL     1     -14.518   4.491  -1.137  1.00  0.00     0.016 A 
ATOM     14  C   UNL     1     -14.608   5.125  -2.380  1.00  0.00     0.047 A 
ATOM     15  C   UNL     1     -14.095   4.502  -3.526  1.00  0.00     0.115 A 
ATOM     16  C   UNL     1     -13.395   2.612  -2.178  1.00  0.00     0.016 A 
ATOM     17  C   UNL     1     -13.487   3.248  -3.420  1.00  0.00     0.047 A 
BRANCH  15  18
ATOM     18  O   UNL     1     -14.180   5.124  -4.769  1.00  0.00    -0.508 OA
ATOM     19  H   UNL     1     -14.330   6.122  -4.853  1.00  0.00     0.293 HD
ENDBRANCH  15  18
ENDBRANCH   1  12
BRANCH   2  20
ATOM     20  O   UNL     1     -13.303   4.622   1.431  1.00  0.00    -0.502 OA
ATOM     21  H   UNL     1     -12.622   5.101   2.008  1.00  0.00     0.293 HD
ENDBRANCH   2  20
BRANCH   6  22
ATOM     22  O   UNL     1     -12.881   0.732   5.045  1.00  0.00    -0.507 OA
ATOM     23  H   UNL     1     -11.905   0.751   5.299  1.00  0.00     0.293 HD
ENDBRANCH   6  22
BRANCH   8  24
ATOM     24  O   UNL     1     -14.451  -2.996   2.457  1.00  0.00    -0.508 OA
ATOM     25  H   UNL     1     -13.827  -3.709   2.818  1.00  0.00     0.293 HD
ENDBRANCH   8  24
TORSDOF 5
ENDMDL
MODEL 8
REMARK VINA RESULT:    -4.582      3.270      8.595
REMARK INTER + INTRA:          -5.247
REMARK INTER:                  -5.288
REMARK INTRA:                   0.041
REMARK UNBOUND:                 0.139
REMARK SMILES O=c1c(O)c(-c2ccc(O)cc2)oc2cc(O)cc(O)c12
REMARK SMILES IDX 5 1 3 2 2 3 1 4 21 5 19 6 18 7 16 8 15 9 14 10 13 11 6 12
REMARK SMILES IDX 7 13 8 14 9 15 12 16 11 17 10 18 4 20 20 22 17 24
REMARK H PARENT 10 19 4 21 20 23 17 25
REMARK Flexibility Score: inf
ROOT
ATOM      1  C   UNL     1     -13.714  -1.788   2.126  1.00  0.00     0.180 A 
ATOM      2  C   UNL     1     -14.124  -1.433   0.829  1.00  0.00     0.208 A 
ATOM      3  C   UNL     1     -14.352  -0.079   0.534  1.00  0.00     0.238 A 
ATOM      4  O   UNL     1     -14.772   0.226  -0.613  1.00  0.00    -0.285 OA
ATOM      5  C   UNL     1     -14.153   0.903   1.533  1.00  0.00     0.111 A 
ATOM      6  C   UNL     1     -14.315   2.307   1.333  1.00  0.00     0.134 A 
ATOM      7  C   UNL     1     -14.217   3.177   2.427  1.00  0.00     0.093 A 
ATOM      8  C   UNL     1     -13.898   2.698   3.701  1.00  0.00     0.123 A 
ATOM      9  C   UNL     1     -13.680   1.337   3.893  1.00  0.00     0.094 A 
ATOM     10  C   UNL     1     -13.805   0.440   2.830  1.00  0.00     0.146 A 
ATOM     11  O   UNL     1     -13.599  -0.850   3.059  1.00  0.00    -0.452 OA
ENDROOT
BRANCH   1  12
ATOM     12  C   UNL     1     -13.430  -3.191   2.507  1.00  0.00     0.021 A 
ATOM     13  C   UNL     1     -14.346  -4.225   2.237  1.00  0.00     0.016 A 
ATOM     14  C   UNL     1     -14.046  -5.545   2.584  1.00  0.00     0.047 A 
ATOM     15  C   UNL     1     -12.821  -5.852   3.193  1.00  0.00     0.115 A 
ATOM     16  C   UNL     1     -12.196  -3.511   3.098  1.00  0.00     0.016 A 
ATOM     17  C   UNL     1     -11.899  -4.832   3.445  1.00  0.00     0.047 A 
BRANCH  15  18
ATOM     18  O   UNL     1     -12.511  -7.163   3.544  1.00  0.00    -0.508 OA
ATOM     19  H   UNL     1     -12.775  -7.945   2.956  1.00  0.00     0.293 HD
ENDBRANCH  15  18
ENDBRANCH   1  12
BRANCH   2  20
ATOM     20  O   UNL     1     -14.338  -2.422  -0.136  1.00  0.00    -0.502 OA
ATOM     21  H   UNL     1     -15.094  -2.371  -0.807  1.00  0.00     0.293 HD
ENDBRANCH   2  20
BRANCH   6  22
ATOM     22  O   UNL     1     -14.544   2.896   0.087  1.00  0.00    -0.507 OA
ATOM     23  H   UNL     1     -15.217   2.569  -0.590  1.00  0.00     0.293 HD
ENDBRANCH   6  22
BRANCH   8  24
ATOM     24  O   UNL     1     -13.788   3.572   4.780  1.00  0.00    -0.508 OA
ATOM     25  H   UNL     1     -14.606   3.978   5.220  1.00  0.00     0.293 HD
ENDBRANCH   8  24
TORSDOF 5
ENDMDL
