MODEL 1
REMARK VINA RESULT:    -4.949      0.000      0.000
REMARK INTER + INTRA:          -7.250
REMARK INTER:                  -6.974
REMARK INTRA:                  -0.276
REMARK UNBOUND:                -0.276
REMARK SMILES CCCCCCCCC(=O)[O-]
REMARK SMILES IDX 6 1 7 2 8 3 9 4 10 5 11 6 5 7 4 8 3 9 2 10 1 11
REMARK H PARENT
REMARK Flexibility Score: inf
ROOT
ATOM      1  C   UNL     1      20.647 -23.130  14.705  1.00  0.00     0.000 C 
ENDROOT
BRANCH   1   2
ATOM      2  C   UNL     1      20.822 -21.671  15.162  1.00  0.00     0.006 C 
BRANCH   2   3
ATOM      3  C   UNL     1      19.661 -20.777  14.706  1.00  0.00     0.053 C 
BRANCH   3   4
ATOM      4  C   UNL     1      19.998 -19.323  14.819  1.00  0.00     0.041 C 
ATOM      5  O   UNL     1      20.055 -18.772  15.950  1.00  0.00    -0.550 OA
ATOM      6  O   UNL     1      20.218 -18.566  13.675  1.00  0.00    -0.550 OA
ENDBRANCH   3   4
ENDBRANCH   2   3
ENDBRANCH   1   2
BRANCH   1   7
ATOM      7  C   UNL     1      19.740 -23.259  13.471  1.00  0.00     0.000 C 
BRANCH   7   8
ATOM      8  C   UNL     1      19.748 -24.676  12.875  1.00  0.00    -0.000 C 
BRANCH   8   9
ATOM      9  C   UNL     1      20.903 -25.506  13.453  1.00  0.00    -0.000 C 
BRANCH   9  10
ATOM     10  C   UNL     1      20.928 -26.944  12.910  1.00  0.00    -0.003 C 
ATOM     11  C   UNL     1      21.721 -27.898  13.802  1.00  0.00     0.004 C 
ENDBRANCH   9  10
ENDBRANCH   8   9
ENDBRANCH   7   8
ENDBRANCH   1   7
TORSDOF 7
ENDMDL
MODEL 2
REMARK VINA RESULT:    -4.509      4.331      6.764
REMARK INTER + INTRA:          -6.630
REMARK INTER:                  -6.395
REMARK INTRA:                  -0.235
REMARK UNBOUND:                -0.276
REMARK SMILES CCCCCCCCC(=O)[O-]
REMARK SMILES IDX 6 1 7 2 8 3 9 4 10 5 11 6 5 7 4 8 3 9 2 10 1 11
REMARK H PARENT
REMARK Flexibility Score: inf
ROOT
ATOM      1  C   UNL     1      19.888 -24.590  12.876  1.00  0.00     0.000 C 
ENDROOT
BRANCH   1   2
ATOM      2  C   UNL     1      20.850 -25.640  13.458  1.00  0.00     0.006 C 
BRANCH   2   3
ATOM      3  C   UNL     1      20.605 -27.038  12.875  1.00  0.00     0.053 C 
BRANCH   3   4
ATOM      4  C   UNL     1      21.428 -28.083  13.564  1.00  0.00     0.041 C 
ATOM      5  O   UNL     1      20.894 -29.155  13.952  1.00  0.00    -0.550 OA
ATOM      6  O   UNL     1      22.777 -27.860  13.807  1.00  0.00    -0.550 OA
ENDBRANCH   3   4
ENDBRANCH   2   3
ENDBRANCH   1   2
BRANCH   1   7
ATOM      7  C   UNL     1      19.592 -23.448  13.861  1.00  0.00     0.000 C 
BRANCH   7   8
ATOM      8  C   UNL     1      20.866 -22.857  14.484  1.00  0.00    -0.000 C 
BRANCH   8   9
ATOM      9  C   UNL     1      20.524 -21.696  15.429  1.00  0.00    -0.000 C 
BRANCH   9  10
ATOM     10  C   UNL     1      19.556 -20.683  14.797  1.00  0.00    -0.003 C 
ATOM     11  C   UNL     1      20.074 -19.247  14.869  1.00  0.00     0.004 C 
ENDBRANCH   9  10
ENDBRANCH   8   9
ENDBRANCH   7   8
ENDBRANCH   1   7
TORSDOF 7
ENDMDL
MODEL 3
REMARK VINA RESULT:    -3.279     15.403     16.561
REMARK INTER + INTRA:          -4.897
REMARK INTER:                  -4.146
REMARK INTRA:                  -0.751
REMARK UNBOUND:                -0.276
REMARK SMILES CCCCCCCCC(=O)[O-]
REMARK SMILES IDX 6 1 7 2 8 3 9 4 10 5 11 6 5 7 4 8 3 9 2 10 1 11
REMARK H PARENT
REMARK Flexibility Score: inf
ROOT
ATOM      1  C   UNL     1       6.424 -34.291  16.256  1.00  0.00     0.000 C 
ENDROOT
BRANCH   1   2
ATOM      2  C   UNL     1       6.767 -32.864  16.717  1.00  0.00     0.006 C 
BRANCH   2   3
ATOM      3  C   UNL     1       7.573 -32.854  18.022  1.00  0.00     0.053 C 
BRANCH   3   4
ATOM      4  C   UNL     1       8.852 -32.088  17.882  1.00  0.00     0.041 C 
ATOM      5  O   UNL     1       9.340 -31.873  16.742  1.00  0.00    -0.550 OA
ATOM      6  O   UNL     1       9.523 -31.638  19.012  1.00  0.00    -0.550 OA
ENDBRANCH   3   4
ENDBRANCH   2   3
ENDBRANCH   1   2
BRANCH   1   7
ATOM      7  C   UNL     1       7.673 -35.114  15.899  1.00  0.00     0.000 C 
BRANCH   7   8
ATOM      8  C   UNL     1       8.006 -35.068  14.400  1.00  0.00    -0.000 C 
BRANCH   8   9
ATOM      9  C   UNL     1       9.236 -34.186  14.140  1.00  0.00    -0.000 C 
BRANCH   9  10
ATOM     10  C   UNL     1       8.885 -32.884  13.402  1.00  0.00    -0.003 C 
ATOM     11  C   UNL     1       7.440 -32.857  12.907  1.00  0.00     0.004 C 
ENDBRANCH   9  10
ENDBRANCH   8   9
ENDBRANCH   7   8
ENDBRANCH   1   7
TORSDOF 7
ENDMDL
MODEL 4
REMARK VINA RESULT:    -3.277     15.772     17.089
REMARK INTER + INTRA:          -4.894
REMARK INTER:                  -4.150
REMARK INTRA:                  -0.744
REMARK UNBOUND:                -0.276
REMARK SMILES CCCCCCCCC(=O)[O-]
REMARK SMILES IDX 6 1 7 2 8 3 9 4 10 5 11 6 5 7 4 8 3 9 2 10 1 11
REMARK H PARENT
REMARK Flexibility Score: inf
ROOT
ATOM      1  C   UNL     1       7.064 -36.009  15.313  1.00  0.00     0.000 C 
ENDROOT
BRANCH   1   2
ATOM      2  C   UNL     1       6.553 -35.238  16.543  1.00  0.00     0.006 C 
BRANCH   2   3
ATOM      3  C   UNL     1       7.687 -34.530  17.296  1.00  0.00     0.053 C 
BRANCH   3   4
ATOM      4  C   UNL     1       7.413 -33.068  17.470  1.00  0.00     0.041 C 
ATOM      5  O   UNL     1       6.553 -32.495  16.752  1.00  0.00    -0.550 OA
ATOM      6  O   UNL     1       8.131 -32.331  18.404  1.00  0.00    -0.550 OA
ENDBRANCH   3   4
ENDBRANCH   2   3
ENDBRANCH   1   2
BRANCH   1   7
ATOM      7  C   UNL     1       8.169 -35.252  14.557  1.00  0.00     0.000 C 
BRANCH   7   8
ATOM      8  C   UNL     1       7.612 -34.325  13.465  1.00  0.00    -0.000 C 
BRANCH   8   9
ATOM      9  C   UNL     1       8.149 -32.896  13.635  1.00  0.00    -0.000 C 
BRANCH   9  10
ATOM     10  C   UNL     1       9.500 -32.855  14.367  1.00  0.00    -0.003 C 
ATOM     11  C   UNL     1      10.678 -32.636  13.418  1.00  0.00     0.004 C 
ENDBRANCH   9  10
ENDBRANCH   8   9
ENDBRANCH   7   8
ENDBRANCH   1   7
TORSDOF 7
ENDMDL
MODEL 5
REMARK VINA RESULT:    -3.187     15.507     16.691
REMARK INTER + INTRA:          -4.767
REMARK INTER:                  -4.099
REMARK INTRA:                  -0.669
REMARK UNBOUND:                -0.276
REMARK SMILES CCCCCCCCC(=O)[O-]
REMARK SMILES IDX 6 1 7 2 8 3 9 4 10 5 11 6 5 7 4 8 3 9 2 10 1 11
REMARK H PARENT
REMARK Flexibility Score: inf
ROOT
ATOM      1  C   UNL     1       6.936 -34.068  14.204  1.00  0.00     0.000 C 
ENDROOT
BRANCH   1   2
ATOM      2  C   UNL     1       7.858 -32.916  13.767  1.00  0.00     0.006 C 
BRANCH   2   3
ATOM      3  C   UNL     1       9.170 -32.889  14.563  1.00  0.00     0.053 C 
BRANCH   3   4
ATOM      4  C   UNL     1      10.365 -33.046  13.675  1.00  0.00     0.041 C 
ATOM      5  O   UNL     1      11.241 -32.144  13.627  1.00  0.00    -0.550 OA
ATOM      6  O   UNL     1      10.497 -34.175  12.875  1.00  0.00    -0.550 OA
ENDBRANCH   3   4
ENDBRANCH   2   3
ENDBRANCH   1   2
BRANCH   1   7
ATOM      7  C   UNL     1       6.184 -33.762  15.510  1.00  0.00     0.000 C 
BRANCH   7   8
ATOM      8  C   UNL     1       6.411 -34.831  16.590  1.00  0.00    -0.000 C 
BRANCH   8   9
ATOM      9  C   UNL     1       7.435 -34.351  17.628  1.00  0.00    -0.000 C 
BRANCH   9  10
ATOM     10  C   UNL     1       7.362 -32.835  17.874  1.00  0.00    -0.003 C 
ATOM     11  C   UNL     1       8.728 -32.220  18.178  1.00  0.00     0.004 C 
ENDBRANCH   9  10
ENDBRANCH   8   9
ENDBRANCH   7   8
ENDBRANCH   1   7
TORSDOF 7
ENDMDL
MODEL 6
REMARK VINA RESULT:    -3.159     15.930     17.186
REMARK INTER + INTRA:          -4.727
REMARK INTER:                  -3.897
REMARK INTRA:                  -0.831
REMARK UNBOUND:                -0.276
REMARK SMILES CCCCCCCCC(=O)[O-]
REMARK SMILES IDX 6 1 7 2 8 3 9 4 10 5 11 6 5 7 4 8 3 9 2 10 1 11
REMARK H PARENT
REMARK Flexibility Score: inf
ROOT
ATOM      1  C   UNL     1       7.479 -35.490  16.102  1.00  0.00     0.000 C 
ENDROOT
BRANCH   1   2
ATOM      2  C   UNL     1       6.239 -34.601  16.294  1.00  0.00     0.006 C 
BRANCH   2   3
ATOM      3  C   UNL     1       6.607 -33.124  16.486  1.00  0.00     0.053 C 
BRANCH   3   4
ATOM      4  C   UNL     1       7.611 -32.936  17.581  1.00  0.00     0.041 C 
ATOM      5  O   UNL     1       7.320 -33.244  18.766  1.00  0.00    -0.550 OA
ATOM      6  O   UNL     1       8.858 -32.392  17.299  1.00  0.00    -0.550 OA
ENDBRANCH   3   4
ENDBRANCH   2   3
ENDBRANCH   1   2
BRANCH   1   7
ATOM      7  C   UNL     1       7.552 -36.110  14.698  1.00  0.00     0.000 C 
BRANCH   7   8
ATOM      8  C   UNL     1       8.087 -35.129  13.643  1.00  0.00    -0.000 C 
BRANCH   8   9
ATOM      9  C   UNL     1       9.300 -34.355  14.180  1.00  0.00    -0.000 C 
BRANCH   9  10
ATOM     10  C   UNL     1       9.242 -32.857  13.843  1.00  0.00    -0.003 C 
ATOM     11  C   UNL     1       8.106 -32.511  12.881  1.00  0.00     0.004 C 
ENDBRANCH   9  10
ENDBRANCH   8   9
ENDBRANCH   7   8
ENDBRANCH   1   7
TORSDOF 7
ENDMDL
MODEL 7
REMARK VINA RESULT:    -3.137     15.384     16.676
REMARK INTER + INTRA:          -4.697
REMARK INTER:                  -3.990
REMARK INTRA:                  -0.706
REMARK UNBOUND:                -0.276
REMARK SMILES CCCCCCCCC(=O)[O-]
REMARK SMILES IDX 6 1 7 2 8 3 9 4 10 5 11 6 5 7 4 8 3 9 2 10 1 11
REMARK H PARENT
REMARK Flexibility Score: inf
ROOT
ATOM      1  C   UNL     1       7.383 -35.190  15.654  1.00  0.00     0.000 C 
ENDROOT
BRANCH   1   2
ATOM      2  C   UNL     1       8.124 -35.107  14.308  1.00  0.00     0.006 C 
BRANCH   2   3
ATOM      3  C   UNL     1       9.511 -34.466  14.447  1.00  0.00     0.053 C 
BRANCH   3   4
ATOM      4  C   UNL     1       9.576 -33.126  13.780  1.00  0.00     0.041 C 
ATOM      5  O   UNL     1      10.667 -32.503  13.717  1.00  0.00    -0.550 OA
ATOM      6  O   UNL     1       8.425 -32.551  13.256  1.00  0.00    -0.550 OA
ENDBRANCH   3   4
ENDBRANCH   2   3
ENDBRANCH   1   2
BRANCH   1   7
ATOM      7  C   UNL     1       6.249 -34.159  15.770  1.00  0.00     0.000 C 
BRANCH   7   8
ATOM      8  C   UNL     1       6.684 -32.876  16.494  1.00  0.00    -0.000 C 
BRANCH   8   9
ATOM      9  C   UNL     1       7.767 -33.179  17.539  1.00  0.00    -0.000 C 
BRANCH   9  10
ATOM     10  C   UNL     1       8.984 -32.248  17.417  1.00  0.00    -0.003 C 
ATOM     11  C   UNL     1       9.372 -31.605  18.748  1.00  0.00     0.004 C 
ENDBRANCH   9  10
ENDBRANCH   8   9
ENDBRANCH   7   8
ENDBRANCH   1   7
TORSDOF 7
ENDMDL
MODEL 8
REMARK VINA RESULT:    -3.069     15.730     16.791
REMARK INTER + INTRA:          -4.601
REMARK INTER:                  -4.055
REMARK INTRA:                  -0.546
REMARK UNBOUND:                -0.276
REMARK SMILES CCCCCCCCC(=O)[O-]
REMARK SMILES IDX 6 1 7 2 8 3 9 4 10 5 11 6 5 7 4 8 3 9 2 10 1 11
REMARK H PARENT
REMARK Flexibility Score: inf
ROOT
ATOM      1  C   UNL     1       7.608 -34.826  17.281  1.00  0.00     0.000 C 
ENDROOT
BRANCH   1   2
ATOM      2  C   UNL     1       8.103 -33.394  17.014  1.00  0.00     0.006 C 
BRANCH   2   3
ATOM      3  C   UNL     1       8.014 -32.508  18.264  1.00  0.00     0.053 C 
BRANCH   3   4
ATOM      4  C   UNL     1       9.264 -31.709  18.471  1.00  0.00     0.041 C 
ATOM      5  O   UNL     1       9.621 -31.382  19.633  1.00  0.00    -0.550 OA
ATOM      6  O   UNL     1      10.019 -31.299  17.380  1.00  0.00    -0.550 OA
ENDBRANCH   3   4
ENDBRANCH   2   3
ENDBRANCH   1   2
BRANCH   1   7
ATOM      7  C   UNL     1       6.596 -35.309  16.230  1.00  0.00     0.000 C 
BRANCH   7   8
ATOM      8  C   UNL     1       5.877 -34.149  15.523  1.00  0.00    -0.000 C 
BRANCH   8   9
ATOM      9  C   UNL     1       6.055 -34.243  14.000  1.00  0.00    -0.000 C 
BRANCH   9  10
ATOM     10  C   UNL     1       7.066 -33.219  13.459  1.00  0.00    -0.003 C 
ATOM     11  C   UNL     1       8.432 -33.838  13.162  1.00  0.00     0.004 C 
ENDBRANCH   9  10
ENDBRANCH   8   9
ENDBRANCH   7   8
ENDBRANCH   1   7
TORSDOF 7
ENDMDL
MODEL 9
REMARK VINA RESULT:    -2.937     16.126     17.219
REMARK INTER + INTRA:          -4.414
REMARK INTER:                  -3.603
REMARK INTRA:                  -0.812
REMARK UNBOUND:                -0.276
REMARK SMILES CCCCCCCCC(=O)[O-]
REMARK SMILES IDX 6 1 7 2 8 3 9 4 10 5 11 6 5 7 4 8 3 9 2 10 1 11
REMARK H PARENT
REMARK Flexibility Score: inf
ROOT
ATOM      1  C   UNL     1       9.140 -33.305  14.059  1.00  0.00     0.000 C 
ENDROOT
BRANCH   1   2
ATOM      2  C   UNL     1       8.877 -32.509  15.349  1.00  0.00     0.006 C 
BRANCH   2   3
ATOM      3  C   UNL     1       8.578 -33.424  16.544  1.00  0.00     0.053 C 
BRANCH   3   4
ATOM      4  C   UNL     1       7.352 -32.990  17.287  1.00  0.00     0.041 C 
ATOM      5  O   UNL     1       7.310 -33.074  18.542  1.00  0.00    -0.550 OA
ATOM      6  O   UNL     1       6.245 -32.521  16.592  1.00  0.00    -0.550 OA
ENDBRANCH   3   4
ENDBRANCH   2   3
ENDBRANCH   1   2
BRANCH   1   7
ATOM      7  C   UNL     1       8.208 -32.894  12.908  1.00  0.00     0.000 C 
BRANCH   7   8
ATOM      8  C   UNL     1       6.739 -33.255  13.176  1.00  0.00    -0.000 C 
BRANCH   8   9
ATOM      9  C   UNL     1       6.510 -34.766  13.021  1.00  0.00    -0.000 C 
BRANCH   9  10
ATOM     10  C   UNL     1       5.876 -35.399  14.270  1.00  0.00    -0.003 C 
ATOM     11  C   UNL     1       6.870 -36.227  15.082  1.00  0.00     0.004 C 
ENDBRANCH   9  10
ENDBRANCH   8   9
ENDBRANCH   7   8
ENDBRANCH   1   7
TORSDOF 7
ENDMDL
