MODEL 1
REMARK VINA RESULT:    -3.475      0.000      0.000
REMARK INTER + INTRA:          -5.610
REMARK INTER:                  -5.100
REMARK INTRA:                  -0.509
REMARK UNBOUND:                -0.509
REMARK SMILES O=C([O-])CCCCCCCC(=O)[O-]
REMARK SMILES IDX 7 1 6 2 5 3 4 4 2 5 1 6 3 7 8 8 9 9 10 10 11 11 12 12 13 13
REMARK H PARENT
REMARK Flexibility Score: inf
ROOT
ATOM      1  C   UNL     1     -10.013   9.312  -8.034  1.00  0.00     0.000 C 
ENDROOT
BRANCH   1   2
ATOM      2  C   UNL     1      -9.445  10.006  -9.277  1.00  0.00     0.000 C 
BRANCH   2   3
ATOM      3  C   UNL     1      -8.569   9.045 -10.093  1.00  0.00     0.006 C 
BRANCH   3   4
ATOM      4  C   UNL     1      -7.569   8.282  -9.214  1.00  0.00     0.053 C 
BRANCH   4   5
ATOM      5  C   UNL     1      -7.267   6.923  -9.768  1.00  0.00     0.041 C 
ATOM      6  O   UNL     1      -6.076   6.575  -9.982  1.00  0.00    -0.550 OA
ATOM      7  O   UNL     1      -8.305   6.053 -10.079  1.00  0.00    -0.550 OA
ENDBRANCH   4   5
ENDBRANCH   3   4
ENDBRANCH   2   3
ENDBRANCH   1   2
BRANCH   1   8
ATOM      8  C   UNL     1      -9.652  10.086  -6.758  1.00  0.00     0.000 C 
BRANCH   8   9
ATOM      9  C   UNL     1      -9.743   9.219  -5.492  1.00  0.00     0.006 C 
BRANCH   9  10
ATOM     10  C   UNL     1      -8.549   8.267  -5.343  1.00  0.00     0.053 C 
BRANCH  10  11
ATOM     11  C   UNL     1      -8.989   6.848  -5.525  1.00  0.00     0.041 C 
ATOM     12  O   UNL     1      -9.061   6.074  -4.533  1.00  0.00    -0.550 OA
ATOM     13  O   UNL     1      -9.273   6.366  -6.796  1.00  0.00    -0.550 OA
ENDBRANCH  10  11
ENDBRANCH   9  10
ENDBRANCH   8   9
ENDBRANCH   1   8
TORSDOF 8
ENDMDL
MODEL 2
REMARK VINA RESULT:    -3.398     25.684     27.673
REMARK INTER + INTRA:          -5.497
REMARK INTER:                  -4.701
REMARK INTRA:                  -0.796
REMARK UNBOUND:                -0.509
REMARK SMILES O=C([O-])CCCCCCCC(=O)[O-]
REMARK SMILES IDX 7 1 6 2 5 3 4 4 2 5 1 6 3 7 8 8 9 9 10 10 11 11 12 12 13 13
REMARK H PARENT
REMARK Flexibility Score: inf
ROOT
ATOM      1  C   UNL     1       9.654  -9.546   6.694  1.00  0.00     0.000 C 
ENDROOT
BRANCH   1   2
ATOM      2  C   UNL     1       8.289 -10.125   6.301  1.00  0.00     0.000 C 
BRANCH   2   3
ATOM      3  C   UNL     1       7.499  -9.134   5.435  1.00  0.00     0.006 C 
BRANCH   3   4
ATOM      4  C   UNL     1       6.004  -9.474   5.380  1.00  0.00     0.053 C 
BRANCH   4   5
ATOM      5  C   UNL     1       5.153  -8.296   5.744  1.00  0.00     0.041 C 
ATOM      6  O   UNL     1       5.446  -7.146   5.322  1.00  0.00    -0.550 OA
ATOM      7  O   UNL     1       4.055  -8.464   6.578  1.00  0.00    -0.550 OA
ENDBRANCH   4   5
ENDBRANCH   3   4
ENDBRANCH   2   3
ENDBRANCH   1   2
BRANCH   1   8
ATOM      8  C   UNL     1       9.841  -9.563   8.218  1.00  0.00     0.000 C 
BRANCH   8   9
ATOM      9  C   UNL     1       9.791  -8.157   8.838  1.00  0.00     0.006 C 
BRANCH   9  10
ATOM     10  C   UNL     1       8.580  -7.962   9.760  1.00  0.00     0.053 C 
BRANCH  10  11
ATOM     11  C   UNL     1       7.332  -7.798   8.952  1.00  0.00     0.041 C 
ATOM     12  O   UNL     1       7.208  -6.821   8.166  1.00  0.00    -0.550 OA
ATOM     13  O   UNL     1       6.283  -8.696   9.102  1.00  0.00    -0.550 OA
ENDBRANCH  10  11
ENDBRANCH   9  10
ENDBRANCH   8   9
ENDBRANCH   1   8
TORSDOF 8
ENDMDL
MODEL 3
REMARK VINA RESULT:    -3.315     25.896     27.509
REMARK INTER + INTRA:          -5.375
REMARK INTER:                  -4.735
REMARK INTRA:                  -0.640
REMARK UNBOUND:                -0.509
REMARK SMILES O=C([O-])CCCCCCCC(=O)[O-]
REMARK SMILES IDX 7 1 6 2 5 3 4 4 2 5 1 6 3 7 8 8 9 9 10 10 11 11 12 12 13 13
REMARK H PARENT
REMARK Flexibility Score: inf
ROOT
ATOM      1  C   UNL     1       5.528  -8.127   6.003  1.00  0.00     0.000 C 
ENDROOT
BRANCH   1   2
ATOM      2  C   UNL     1       4.108  -8.643   6.265  1.00  0.00     0.000 C 
BRANCH   2   3
ATOM      3  C   UNL     1       4.137  -9.983   7.013  1.00  0.00     0.006 C 
BRANCH   3   4
ATOM      4  C   UNL     1       3.122 -10.030   8.162  1.00  0.00     0.053 C 
BRANCH   4   5
ATOM      5  C   UNL     1       3.600  -9.264   9.357  1.00  0.00     0.041 C 
ATOM      6  O   UNL     1       2.774  -8.703  10.124  1.00  0.00    -0.550 OA
ATOM      7  O   UNL     1       4.962  -9.142   9.604  1.00  0.00    -0.550 OA
ENDBRANCH   4   5
ENDBRANCH   3   4
ENDBRANCH   2   3
ENDBRANCH   1   2
BRANCH   1   8
ATOM      8  C   UNL     1       6.392  -9.210   5.339  1.00  0.00     0.000 C 
BRANCH   8   9
ATOM      9  C   UNL     1       7.819  -9.261   5.909  1.00  0.00     0.006 C 
BRANCH   9  10
ATOM     10  C   UNL     1       7.845  -9.620   7.401  1.00  0.00     0.053 C 
BRANCH  10  11
ATOM     11  C   UNL     1       8.530  -8.544   8.182  1.00  0.00     0.041 C 
ATOM     12  O   UNL     1       9.723  -8.695   8.559  1.00  0.00    -0.550 OA
ATOM     13  O   UNL     1       7.838  -7.393   8.538  1.00  0.00    -0.550 OA
ENDBRANCH  10  11
ENDBRANCH   9  10
ENDBRANCH   8   9
ENDBRANCH   1   8
TORSDOF 8
ENDMDL
MODEL 4
REMARK VINA RESULT:    -3.278     25.887     27.345
REMARK INTER + INTRA:          -5.320
REMARK INTER:                  -4.588
REMARK INTRA:                  -0.733
REMARK UNBOUND:                -0.509
REMARK SMILES O=C([O-])CCCCCCCC(=O)[O-]
REMARK SMILES IDX 7 1 6 2 5 3 4 4 2 5 1 6 3 7 8 8 9 9 10 10 11 11 12 12 13 13
REMARK H PARENT
REMARK Flexibility Score: inf
ROOT
ATOM      1  C   UNL     1       5.865  -8.040   5.659  1.00  0.00     0.000 C 
ENDROOT
BRANCH   1   2
ATOM      2  C   UNL     1       6.665  -9.343   5.547  1.00  0.00     0.000 C 
BRANCH   2   3
ATOM      3  C   UNL     1       8.016  -9.223   6.268  1.00  0.00     0.006 C 
BRANCH   3   4
ATOM      4  C   UNL     1       7.895  -9.482   7.775  1.00  0.00     0.053 C 
BRANCH   4   5
ATOM      5  C   UNL     1       8.128  -8.235   8.573  1.00  0.00     0.041 C 
ATOM      6  O   UNL     1       7.160  -7.499   8.898  1.00  0.00    -0.550 OA
ATOM      7  O   UNL     1       9.421  -7.869   8.927  1.00  0.00    -0.550 OA
ENDBRANCH   4   5
ENDBRANCH   3   4
ENDBRANCH   2   3
ENDBRANCH   1   2
BRANCH   1   8
ATOM      8  C   UNL     1       4.512  -8.282   6.345  1.00  0.00     0.000 C 
BRANCH   8   9
ATOM      9  C   UNL     1       4.289  -9.758   6.712  1.00  0.00     0.006 C 
BRANCH   9  10
ATOM     10  C   UNL     1       3.219  -9.940   7.796  1.00  0.00     0.053 C 
BRANCH  10  11
ATOM     11  C   UNL     1       3.742  -9.493   9.124  1.00  0.00     0.041 C 
ATOM     12  O   UNL     1       4.872  -9.881   9.525  1.00  0.00    -0.550 OA
ATOM     13  O   UNL     1       2.962  -8.686   9.943  1.00  0.00    -0.550 OA
ENDBRANCH  10  11
ENDBRANCH   9  10
ENDBRANCH   8   9
ENDBRANCH   1   8
TORSDOF 8
ENDMDL
MODEL 5
REMARK VINA RESULT:    -3.236     25.611     27.500
REMARK INTER + INTRA:          -5.258
REMARK INTER:                  -4.499
REMARK INTRA:                  -0.759
REMARK UNBOUND:                -0.509
REMARK SMILES O=C([O-])CCCCCCCC(=O)[O-]
REMARK SMILES IDX 7 1 6 2 5 3 4 4 2 5 1 6 3 7 8 8 9 9 10 10 11 11 12 12 13 13
REMARK H PARENT
REMARK Flexibility Score: inf
ROOT
ATOM      1  C   UNL     1       5.023  -9.677   9.039  1.00  0.00     0.000 C 
ENDROOT
BRANCH   1   2
ATOM      2  C   UNL     1       5.278  -8.625  10.125  1.00  0.00     0.000 C 
BRANCH   2   3
ATOM      3  C   UNL     1       6.724  -8.112  10.066  1.00  0.00     0.006 C 
BRANCH   3   4
ATOM      4  C   UNL     1       7.146  -7.727   8.642  1.00  0.00     0.053 C 
BRANCH   4   5
ATOM      5  C   UNL     1       8.491  -8.285   8.291  1.00  0.00     0.041 C 
ATOM      6  O   UNL     1       8.602  -9.151   7.384  1.00  0.00    -0.550 OA
ATOM      7  O   UNL     1       9.619  -7.873   8.991  1.00  0.00    -0.550 OA
ENDBRANCH   4   5
ENDBRANCH   3   4
ENDBRANCH   2   3
ENDBRANCH   1   2
BRANCH   1   8
ATOM      8  C   UNL     1       3.710  -9.392   8.294  1.00  0.00     0.000 C 
BRANCH   8   9
ATOM      9  C   UNL     1       3.907  -9.259   6.776  1.00  0.00     0.006 C 
BRANCH   9  10
ATOM     10  C   UNL     1       5.238  -9.855   6.299  1.00  0.00     0.053 C 
BRANCH  10  11
ATOM     11  C   UNL     1       5.886  -8.948   5.301  1.00  0.00     0.041 C 
ATOM     12  O   UNL     1       6.736  -9.403   4.490  1.00  0.00    -0.550 OA
ATOM     13  O   UNL     1       5.589  -7.592   5.298  1.00  0.00    -0.550 OA
ENDBRANCH  10  11
ENDBRANCH   9  10
ENDBRANCH   8   9
ENDBRANCH   1   8
TORSDOF 8
ENDMDL
MODEL 6
REMARK VINA RESULT:    -3.148     25.521     27.285
REMARK INTER + INTRA:          -5.129
REMARK INTER:                  -4.446
REMARK INTRA:                  -0.683
REMARK UNBOUND:                -0.509
REMARK SMILES O=C([O-])CCCCCCCC(=O)[O-]
REMARK SMILES IDX 7 1 6 2 5 3 4 4 2 5 1 6 3 7 8 8 9 9 10 10 11 11 12 12 13 13
REMARK H PARENT
REMARK Flexibility Score: inf
ROOT
ATOM      1  C   UNL     1       3.242  -9.745   7.973  1.00  0.00     0.000 C 
ENDROOT
BRANCH   1   2
ATOM      2  C   UNL     1       4.299  -9.778   6.862  1.00  0.00     0.000 C 
BRANCH   2   3
ATOM      3  C   UNL     1       4.383  -8.425   6.141  1.00  0.00     0.006 C 
BRANCH   3   4
ATOM      4  C   UNL     1       5.831  -8.004   5.862  1.00  0.00     0.053 C 
BRANCH   4   5
ATOM      5  C   UNL     1       6.656  -9.150   5.362  1.00  0.00     0.041 C 
ATOM      6  O   UNL     1       6.416  -9.662   4.237  1.00  0.00    -0.550 OA
ATOM      7  O   UNL     1       7.669  -9.675   6.155  1.00  0.00    -0.550 OA
ENDBRANCH   4   5
ENDBRANCH   3   4
ENDBRANCH   2   3
ENDBRANCH   1   2
BRANCH   1   8
ATOM      8  C   UNL     1       3.882  -9.422   9.332  1.00  0.00     0.000 C 
BRANCH   8   9
ATOM      9  C   UNL     1       5.401  -9.655   9.342  1.00  0.00     0.006 C 
BRANCH   9  10
ATOM     10  C   UNL     1       6.177  -8.460   9.913  1.00  0.00     0.053 C 
BRANCH  10  11
ATOM     11  C   UNL     1       7.565  -8.426   9.355  1.00  0.00     0.041 C 
ATOM     12  O   UNL     1       7.952  -7.438   8.677  1.00  0.00    -0.550 OA
ATOM     13  O   UNL     1       8.416  -9.508   9.541  1.00  0.00    -0.550 OA
ENDBRANCH  10  11
ENDBRANCH   9  10
ENDBRANCH   8   9
ENDBRANCH   1   8
TORSDOF 8
ENDMDL
MODEL 7
REMARK VINA RESULT:    -3.127      0.775      4.296
REMARK INTER + INTRA:          -5.098
REMARK INTER:                  -4.472
REMARK INTRA:                  -0.627
REMARK UNBOUND:                -0.509
REMARK SMILES O=C([O-])CCCCCCCC(=O)[O-]
REMARK SMILES IDX 7 1 6 2 5 3 4 4 2 5 1 6 3 7 8 8 9 9 10 10 11 11 12 12 13 13
REMARK H PARENT
REMARK Flexibility Score: inf
ROOT
ATOM      1  C   UNL     1      -9.961   9.685  -8.015  1.00  0.00     0.000 C 
ENDROOT
BRANCH   1   2
ATOM      2  C   UNL     1      -9.489  10.122  -6.623  1.00  0.00     0.000 C 
BRANCH   2   3
ATOM      3  C   UNL     1      -9.929   9.115  -5.551  1.00  0.00     0.006 C 
BRANCH   3   4
ATOM      4  C   UNL     1      -8.815   8.123  -5.194  1.00  0.00     0.053 C 
BRANCH   4   5
ATOM      5  C   UNL     1      -9.259   6.703  -5.370  1.00  0.00     0.041 C 
ATOM      6  O   UNL     1      -9.998   6.384  -6.338  1.00  0.00    -0.550 OA
ATOM      7  O   UNL     1      -8.882   5.738  -4.443  1.00  0.00    -0.550 OA
ENDBRANCH   4   5
ENDBRANCH   3   4
ENDBRANCH   2   3
ENDBRANCH   1   2
BRANCH   1   8
ATOM      8  C   UNL     1      -8.941  10.085  -9.092  1.00  0.00     0.000 C 
BRANCH   8   9
ATOM      9  C   UNL     1      -8.690   8.965 -10.115  1.00  0.00     0.006 C 
BRANCH   9  10
ATOM     10  C   UNL     1      -8.857   7.565  -9.510  1.00  0.00     0.053 C 
BRANCH  10  11
ATOM     11  C   UNL     1      -7.526   6.893  -9.379  1.00  0.00     0.041 C 
ATOM     12  O   UNL     1      -6.502   7.406  -9.905  1.00  0.00    -0.550 OA
ATOM     13  O   UNL     1      -7.424   5.675  -8.719  1.00  0.00    -0.550 OA
ENDBRANCH  10  11
ENDBRANCH   9  10
ENDBRANCH   8   9
ENDBRANCH   1   8
TORSDOF 8
ENDMDL
MODEL 8
REMARK VINA RESULT:    -3.084     25.818     27.706
REMARK INTER + INTRA:          -5.035
REMARK INTER:                  -4.313
REMARK INTRA:                  -0.722
REMARK UNBOUND:                -0.509
REMARK SMILES O=C([O-])CCCCCCCC(=O)[O-]
REMARK SMILES IDX 7 1 6 2 5 3 4 4 2 5 1 6 3 7 8 8 9 9 10 10 11 11 12 12 13 13
REMARK H PARENT
REMARK Flexibility Score: inf
ROOT
ATOM      1  C   UNL     1       5.643  -7.273   6.419  1.00  0.00     0.000 C 
ENDROOT
BRANCH   1   2
ATOM      2  C   UNL     1       5.270  -8.682   5.942  1.00  0.00     0.000 C 
BRANCH   2   3
ATOM      3  C   UNL     1       3.838  -9.043   6.361  1.00  0.00     0.006 C 
BRANCH   3   4
ATOM      4  C   UNL     1       3.807 -10.071   7.499  1.00  0.00     0.053 C 
BRANCH   4   5
ATOM      5  C   UNL     1       3.422  -9.444   8.804  1.00  0.00     0.041 C 
ATOM      6  O   UNL     1       4.273  -8.806   9.478  1.00  0.00    -0.550 OA
ATOM      7  O   UNL     1       2.130  -9.594   9.292  1.00  0.00    -0.550 OA
ENDBRANCH   4   5
ENDBRANCH   3   4
ENDBRANCH   2   3
ENDBRANCH   1   2
BRANCH   1   8
ATOM      8  C   UNL     1       6.725  -7.329   7.508  1.00  0.00     0.000 C 
BRANCH   8   9
ATOM      9  C   UNL     1       7.558  -8.620   7.451  1.00  0.00     0.006 C 
BRANCH   9  10
ATOM     10  C   UNL     1       7.776  -9.241   8.837  1.00  0.00     0.053 C 
BRANCH  10  11
ATOM     11  C   UNL     1       9.192  -9.041   9.279  1.00  0.00     0.041 C 
ATOM     12  O   UNL     1       9.894 -10.029   9.625  1.00  0.00    -0.550 OA
ATOM     13  O   UNL     1       9.722  -7.760   9.357  1.00  0.00    -0.550 OA
ENDBRANCH  10  11
ENDBRANCH   9  10
ENDBRANCH   8   9
ENDBRANCH   1   8
TORSDOF 8
ENDMDL
