MODEL 1
REMARK VINA RESULT:    17.427      0.000      0.000
REMARK INTER + INTRA:          27.042
REMARK INTER:                  27.615
REMARK INTRA:                  -0.573
REMARK UNBOUND:                -0.573
REMARK SMILES C[C@@H]1O[C@@H](O[C@H]2[C@@H](Oc3cc(O)c4c(c3)O[C@H](c3ccc(O)cc3)CC4=O)O[C@H](CO)[C@@H](O)[C@H]2O)[C@@H](O)[C@H](O)[C@H]1O
REMARK SMILES IDX 6 1 34 2 32 3 29 4 28 5 7 6 5 7 4 8 1 9 2 10 40 11 3 12
REMARK SMILES IDX 38 13 36 14 41 15 39 17 37 19 35 21 8 23 9 24 10 25 15 26
REMARK SMILES IDX 11 27 14 28 13 29 16 30 26 31 17 32 27 33 25 34 12 35 18 37
REMARK SMILES IDX 19 38 24 39 20 40 23 41 21 42 22 43 33 45 30 47 31 48
REMARK H PARENT 41 16 39 18 37 20 35 22 12 36 22 44 33 46 31 49
REMARK Flexibility Score: inf
ROOT
ATOM      1  C   UNL     1     157.530 160.670 157.562  1.00  0.00     0.221 C 
ATOM      2  C   UNL     1     158.922 160.055 157.786  1.00  0.00     0.181 C 
ATOM      3  C   UNL     1     160.072 161.044 157.524  1.00  0.00     0.177 C 
ATOM      4  C   UNL     1     159.680 162.243 156.588  1.00  0.00     0.179 C 
ATOM      5  O   UNL     1     158.635 161.975 155.666  1.00  0.00    -0.332 OA
ATOM      6  C   UNL     1     157.456 161.371 156.183  1.00  0.00     0.339 C 
ENDROOT
BRANCH   1   7
ATOM      7  O   UNL     1     156.827 161.332 158.622  1.00  0.00    -0.337 OA
BRANCH   7   8
ATOM      8  C   UNL     1     155.469 160.981 158.836  1.00  0.00     0.282 C 
ATOM      9  C   UNL     1     152.875 159.544 158.890  1.00  0.00     0.041 C 
ATOM     10  C   UNL     1     153.696 159.926 157.630  1.00  0.00     0.150 C 
ATOM     11  C   UNL     1     153.183 161.214 156.926  1.00  0.00     0.174 C 
ATOM     12  O   UNL     1     155.086 160.008 157.870  1.00  0.00    -0.344 OA
ATOM     13  C   UNL     1     153.976 162.464 157.386  1.00  0.00     0.179 C 
ATOM     14  C   UNL     1     154.603 162.275 158.773  1.00  0.00     0.202 C 
BRANCH  11  15
ATOM     15  O   UNL     1     153.300 161.128 155.530  1.00  0.00    -0.388 OA
ATOM     16  H   UNL     1     152.397 160.916 155.152  1.00  0.00     0.211 HD
ENDBRANCH  11  15
BRANCH  13  17
ATOM     17  O   UNL     1     153.132 163.585 157.406  1.00  0.00    -0.387 OA
ATOM     18  H   UNL     1     152.231 163.256 157.661  1.00  0.00     0.211 HD
ENDBRANCH  13  17
BRANCH  14  19
ATOM     19  O   UNL     1     155.372 163.395 159.125  1.00  0.00    -0.385 OA
ATOM     20  H   UNL     1     154.739 164.143 159.295  1.00  0.00     0.211 HD
ENDBRANCH  14  19
ENDBRANCH   7   8
ENDBRANCH   1   7
BRANCH   2  21
ATOM     21  O   UNL     1     159.015 159.435 159.045  1.00  0.00    -0.387 OA
ATOM     22  H   UNL     1     159.018 158.455 158.897  1.00  0.00     0.211 HD
ENDBRANCH   2  21
BRANCH   6  23
ATOM     23  O   UNL     1     156.340 162.265 156.086  1.00  0.00    -0.462 OA
BRANCH  23  24
ATOM     24  C   UNL     1     156.526 163.715 155.724  1.00  0.00     0.130 A 
ATOM     25  C   UNL     1     156.623 164.645 156.886  1.00  0.00     0.093 A 
ATOM     26  C   UNL     1     156.535 164.342 154.286  1.00  0.00     0.094 A 
ATOM     27  C   UNL     1     156.551 166.019 156.684  1.00  0.00     0.133 A 
ATOM     28  C   UNL     1     156.453 165.734 154.227  1.00  0.00     0.138 A 
ATOM     29  C   UNL     1     156.451 166.549 155.374  1.00  0.00     0.102 A 
ATOM     30  O   UNL     1     156.311 166.354 152.980  1.00  0.00    -0.484 OA
ATOM     31  C   UNL     1     156.241 167.982 155.113  1.00  0.00     0.174 C 
ATOM     32  C   UNL     1     155.409 167.453 152.785  1.00  0.00     0.211 C 
ATOM     33  O   UNL     1     156.891 168.869 155.733  1.00  0.00    -0.294 OA
ATOM     34  C   UNL     1     155.262 168.360 154.048  1.00  0.00     0.131 C 
BRANCH  27  35
ATOM     35  O   UNL     1     156.502 166.827 157.827  1.00  0.00    -0.507 OA
ATOM     36  H   UNL     1     155.917 167.650 157.909  1.00  0.00     0.293 HD
ENDBRANCH  27  35
BRANCH  32  37
ATOM     37  C   UNL     1     155.798 168.248 151.557  1.00  0.00    -0.007 A 
ATOM     38  C   UNL     1     155.717 169.647 151.579  1.00  0.00     0.011 A 
ATOM     39  C   UNL     1     156.331 167.610 150.419  1.00  0.00     0.011 A 
ATOM     40  C   UNL     1     156.296 170.400 150.551  1.00  0.00     0.046 A 
ATOM     41  C   UNL     1     156.925 168.362 149.398  1.00  0.00     0.046 A 
ATOM     42  C   UNL     1     156.946 169.757 149.482  1.00  0.00     0.115 A 
BRANCH  42  43
ATOM     43  O   UNL     1     157.630 170.493 148.517  1.00  0.00    -0.508 OA
ATOM     44  H   UNL     1     157.163 170.877 147.700  1.00  0.00     0.293 HD
ENDBRANCH  42  43
ENDBRANCH  32  37
ENDBRANCH  23  24
ENDBRANCH   6  23
BRANCH   3  45
ATOM     45  O   UNL     1     160.577 161.522 158.742  1.00  0.00    -0.387 OA
ATOM     46  H   UNL     1     159.808 161.868 159.265  1.00  0.00     0.211 HD
ENDBRANCH   3  45
BRANCH   4  47
ATOM     47  C   UNL     1     160.916 162.675 155.767  1.00  0.00     0.191 C 
BRANCH  47  48
ATOM     48  O   UNL     1     160.570 162.979 154.442  1.00  0.00    -0.394 OA
ATOM     49  H   UNL     1     159.575 162.975 154.380  1.00  0.00     0.210 HD
ENDBRANCH  47  48
ENDBRANCH   4  47
TORSDOF 14
ENDMDL
MODEL 2
REMARK VINA RESULT:    19.871      9.471     13.725
REMARK INTER + INTRA:          30.915
REMARK INTER:                  32.240
REMARK INTRA:                  -1.325
REMARK UNBOUND:                -0.573
REMARK SMILES C[C@@H]1O[C@@H](O[C@H]2[C@@H](Oc3cc(O)c4c(c3)O[C@H](c3ccc(O)cc3)CC4=O)O[C@H](CO)[C@@H](O)[C@H]2O)[C@@H](O)[C@H](O)[C@H]1O
REMARK SMILES IDX 6 1 34 2 32 3 29 4 28 5 7 6 5 7 4 8 1 9 2 10 40 11 3 12
REMARK SMILES IDX 38 13 36 14 41 15 39 17 37 19 35 21 8 23 9 24 10 25 15 26
REMARK SMILES IDX 11 27 14 28 13 29 16 30 26 31 17 32 27 33 25 34 12 35 18 37
REMARK SMILES IDX 19 38 24 39 20 40 23 41 21 42 22 43 33 45 30 47 31 48
REMARK H PARENT 41 16 39 18 37 20 35 22 12 36 22 44 33 46 31 49
REMARK Flexibility Score: inf
ROOT
ATOM      1  C   UNL     1     167.810 164.441 149.161  1.00  0.00     0.221 C 
ATOM      2  C   UNL     1     168.749 163.378 148.566  1.00  0.00     0.181 C 
ATOM      3  C   UNL     1     169.084 162.243 149.550  1.00  0.00     0.177 C 
ATOM      4  C   UNL     1     168.891 162.632 151.059  1.00  0.00     0.179 C 
ATOM      5  O   UNL     1     169.045 164.011 151.354  1.00  0.00    -0.332 OA
ATOM      6  C   UNL     1     168.336 164.931 150.532  1.00  0.00     0.339 C 
ENDROOT
BRANCH   1   7
ATOM      7  O   UNL     1     166.385 164.317 149.063  1.00  0.00    -0.337 OA
BRANCH   7   8
ATOM      8  C   UNL     1     165.725 165.049 148.042  1.00  0.00     0.282 C 
ATOM      9  C   UNL     1     165.136 166.827 145.743  1.00  0.00     0.041 C 
ATOM     10  C   UNL     1     165.830 167.229 147.070  1.00  0.00     0.150 C 
ATOM     11  C   UNL     1     164.871 167.911 148.087  1.00  0.00     0.174 C 
ATOM     12  O   UNL     1     166.531 166.166 147.682  1.00  0.00    -0.344 OA
ATOM     13  C   UNL     1     164.306 166.888 149.106  1.00  0.00     0.179 C 
ATOM     14  C   UNL     1     164.311 165.457 148.555  1.00  0.00     0.202 C 
BRANCH  11  15
ATOM     15  O   UNL     1     165.516 168.924 148.815  1.00  0.00    -0.388 OA
ATOM     16  H   UNL     1     165.990 169.522 148.166  1.00  0.00     0.211 HD
ENDBRANCH  11  15
BRANCH  13  17
ATOM     17  O   UNL     1     162.997 167.244 149.465  1.00  0.00    -0.387 OA
ATOM     18  H   UNL     1     162.467 166.405 149.469  1.00  0.00     0.211 HD
ENDBRANCH  13  17
BRANCH  14  19
ATOM     19  O   UNL     1     163.863 164.551 149.528  1.00  0.00    -0.385 OA
ATOM     20  H   UNL     1     162.931 164.809 149.760  1.00  0.00     0.211 HD
ENDBRANCH  14  19
ENDBRANCH   7   8
ENDBRANCH   1   7
BRANCH   2  21
ATOM     21  O   UNL     1     168.273 162.903 147.330  1.00  0.00    -0.387 OA
ATOM     22  H   UNL     1     167.712 163.615 146.931  1.00  0.00     0.211 HD
ENDBRANCH   2  21
BRANCH   6  23
ATOM     23  O   UNL     1     167.331 165.619 151.287  1.00  0.00    -0.462 OA
BRANCH  23  24
ATOM     24  C   UNL     1     167.100 165.316 152.745  1.00  0.00     0.130 A 
ATOM     25  C   UNL     1     167.202 166.493 153.655  1.00  0.00     0.093 A 
ATOM     26  C   UNL     1     166.862 163.909 153.396  1.00  0.00     0.094 A 
ATOM     27  C   UNL     1     167.253 166.303 155.032  1.00  0.00     0.133 A 
ATOM     28  C   UNL     1     166.945 163.860 154.788  1.00  0.00     0.138 A 
ATOM     29  C   UNL     1     167.142 165.004 155.584  1.00  0.00     0.102 A 
ATOM     30  O   UNL     1     166.886 162.615 155.429  1.00  0.00    -0.484 OA
ATOM     31  C   UNL     1     167.318 164.734 157.020  1.00  0.00     0.174 C 
ATOM     32  C   UNL     1     167.754 162.293 156.526  1.00  0.00     0.211 C 
ATOM     33  O   UNL     1     166.786 165.466 157.900  1.00  0.00    -0.294 OA
ATOM     34  C   UNL     1     168.114 163.530 157.410  1.00  0.00     0.131 C 
BRANCH  27  35
ATOM     35  O   UNL     1     167.494 167.435 155.820  1.00  0.00    -0.507 OA
ATOM     36  H   UNL     1     168.069 168.215 155.524  1.00  0.00     0.293 HD
ENDBRANCH  27  35
BRANCH  32  37
ATOM     37  C   UNL     1     167.177 161.158 157.343  1.00  0.00    -0.007 A 
ATOM     38  C   UNL     1     166.396 161.441 158.473  1.00  0.00     0.011 A 
ATOM     39  C   UNL     1     167.331 159.819 156.936  1.00  0.00     0.011 A 
ATOM     40  C   UNL     1     165.661 160.423 159.091  1.00  0.00     0.046 A 
ATOM     41  C   UNL     1     166.585 158.802 157.543  1.00  0.00     0.046 A 
ATOM     42  C   UNL     1     165.716 159.108 158.595  1.00  0.00     0.115 A 
BRANCH  42  43
ATOM     43  O   UNL     1     164.899 158.111 159.124  1.00  0.00    -0.508 OA
ATOM     44  H   UNL     1     165.255 157.188 159.352  1.00  0.00     0.293 HD
ENDBRANCH  42  43
ENDBRANCH  32  37
ENDBRANCH  23  24
ENDBRANCH   6  23
BRANCH   3  45
ATOM     45  O   UNL     1     168.325 161.104 149.240  1.00  0.00    -0.387 OA
ATOM     46  H   UNL     1     168.619 160.787 148.347  1.00  0.00     0.211 HD
ENDBRANCH   3  45
BRANCH   4  47
ATOM     47  C   UNL     1     169.918 161.862 151.920  1.00  0.00     0.191 C 
BRANCH  47  48
ATOM     48  O   UNL     1     171.199 161.906 151.351  1.00  0.00    -0.394 OA
ATOM     49  H   UNL     1     171.407 160.995 151.002  1.00  0.00     0.210 HD
ENDBRANCH  47  48
ENDBRANCH   4  47
TORSDOF 14
ENDMDL
