MODEL 1
REMARK VINA RESULT:    -4.142      0.000      0.000
REMARK INTER + INTRA:          -6.632
REMARK INTER:                  -6.079
REMARK INTRA:                  -0.553
REMARK UNBOUND:                -0.553
REMARK SMILES O=C([O-])CCCCCCCC(=O)[O-]
REMARK SMILES IDX 7 1 6 2 5 3 4 4 2 5 1 6 3 7 8 8 9 9 10 10 11 11 12 12 13 13
REMARK H PARENT
REMARK Flexibility Score: inf
ROOT
ATOM      1  C   UNL     1     -10.101   2.797  17.034  1.00  0.00     0.000 C 
ENDROOT
BRANCH   1   2
ATOM      2  C   UNL     1      -9.558   2.340  15.672  1.00  0.00     0.000 C 
BRANCH   2   3
ATOM      3  C   UNL     1      -9.874   0.858  15.424  1.00  0.00     0.006 C 
BRANCH   3   4
ATOM      4  C   UNL     1     -10.530   0.624  14.057  1.00  0.00     0.053 C 
BRANCH   4   5
ATOM      5  C   UNL     1     -11.991   0.320  14.185  1.00  0.00     0.041 C 
ATOM      6  O   UNL     1     -12.629   0.697  15.204  1.00  0.00    -0.550 OA
ATOM      7  O   UNL     1     -12.656  -0.348  13.165  1.00  0.00    -0.550 OA
ENDBRANCH   4   5
ENDBRANCH   3   4
ENDBRANCH   2   3
ENDBRANCH   1   2
BRANCH   1   8
ATOM      8  C   UNL     1     -10.568   1.623  17.911  1.00  0.00     0.000 C 
BRANCH   8   9
ATOM      9  C   UNL     1      -9.653   1.388  19.122  1.00  0.00     0.006 C 
BRANCH   9  10
ATOM     10  C   UNL     1      -9.086  -0.035  19.112  1.00  0.00     0.053 C 
BRANCH  10  11
ATOM     11  C   UNL     1      -9.648  -0.831  20.247  1.00  0.00     0.041 C 
ATOM     12  O   UNL     1     -10.793  -1.347  20.152  1.00  0.00    -0.550 OA
ATOM     13  O   UNL     1      -8.888  -1.047  21.389  1.00  0.00    -0.550 OA
ENDBRANCH  10  11
ENDBRANCH   9  10
ENDBRANCH   8   9
ENDBRANCH   1   8
TORSDOF 8
ENDMDL
MODEL 2
REMARK VINA RESULT:    -4.107      0.593      5.523
REMARK INTER + INTRA:          -6.581
REMARK INTER:                  -6.107
REMARK INTRA:                  -0.474
REMARK UNBOUND:                -0.553
REMARK SMILES O=C([O-])CCCCCCCC(=O)[O-]
REMARK SMILES IDX 7 1 6 2 5 3 4 4 2 5 1 6 3 7 8 8 9 9 10 10 11 11 12 12 13 13
REMARK H PARENT
REMARK Flexibility Score: inf
ROOT
ATOM      1  C   UNL     1      -9.338   2.846  17.011  1.00  0.00     0.000 C 
ENDROOT
BRANCH   1   2
ATOM      2  C   UNL     1     -10.098   1.961  18.012  1.00  0.00     0.000 C 
BRANCH   2   3
ATOM      3  C   UNL     1      -9.152   1.416  19.090  1.00  0.00     0.006 C 
BRANCH   3   4
ATOM      4  C   UNL     1      -9.010  -0.111  19.022  1.00  0.00     0.053 C 
BRANCH   4   5
ATOM      5  C   UNL     1      -9.756  -0.789  20.130  1.00  0.00     0.041 C 
ATOM      6  O   UNL     1     -10.094  -1.998  20.020  1.00  0.00    -0.550 OA
ATOM      7  O   UNL     1     -10.050  -0.096  21.298  1.00  0.00    -0.550 OA
ENDBRANCH   4   5
ENDBRANCH   3   4
ENDBRANCH   2   3
ENDBRANCH   1   2
BRANCH   1   8
ATOM      8  C   UNL     1      -9.512   2.379  15.557  1.00  0.00     0.000 C 
BRANCH   8   9
ATOM      9  C   UNL     1      -9.811   0.877  15.448  1.00  0.00     0.006 C 
BRANCH   9  10
ATOM     10  C   UNL     1     -10.420   0.538  14.084  1.00  0.00     0.053 C 
BRANCH  10  11
ATOM     11  C   UNL     1     -11.903   0.378  14.197  1.00  0.00     0.041 C 
ATOM     12  O   UNL     1     -12.554  -0.164  13.265  1.00  0.00    -0.550 OA
ATOM     13  O   UNL     1     -12.560   0.782  15.352  1.00  0.00    -0.550 OA
ENDBRANCH  10  11
ENDBRANCH   9  10
ENDBRANCH   8   9
ENDBRANCH   1   8
TORSDOF 8
ENDMDL
MODEL 3
REMARK VINA RESULT:    -4.040      1.555      2.067
REMARK INTER + INTRA:          -6.483
REMARK INTER:                  -5.981
REMARK INTRA:                  -0.502
REMARK UNBOUND:                -0.553
REMARK SMILES O=C([O-])CCCCCCCC(=O)[O-]
REMARK SMILES IDX 7 1 6 2 5 3 4 4 2 5 1 6 3 7 8 8 9 9 10 10 11 11 12 12 13 13
REMARK H PARENT
REMARK Flexibility Score: inf
ROOT
ATOM      1  C   UNL     1      -9.754   1.080  17.546  1.00  0.00     0.000 C 
ENDROOT
BRANCH   1   2
ATOM      2  C   UNL     1     -11.245   1.448  17.508  1.00  0.00     0.000 C 
BRANCH   2   3
ATOM      3  C   UNL     1     -11.661   1.907  16.103  1.00  0.00     0.006 C 
BRANCH   3   4
ATOM      4  C   UNL     1     -12.516   0.858  15.378  1.00  0.00     0.053 C 
BRANCH   4   5
ATOM      5  C   UNL     1     -11.825   0.324  14.161  1.00  0.00     0.041 C 
ATOM      6  O   UNL     1     -12.499  -0.076  13.174  1.00  0.00    -0.550 OA
ATOM      7  O   UNL     1     -10.438   0.299  14.101  1.00  0.00    -0.550 OA
ENDBRANCH   4   5
ENDBRANCH   3   4
ENDBRANCH   2   3
ENDBRANCH   1   2
BRANCH   1   8
ATOM      8  C   UNL     1      -9.211   0.953  18.978  1.00  0.00     0.000 C 
BRANCH   8   9
ATOM      9  C   UNL     1      -8.925  -0.503  19.376  1.00  0.00     0.006 C 
BRANCH   9  10
ATOM     10  C   UNL     1      -9.559  -0.834  20.731  1.00  0.00     0.053 C 
BRANCH  10  11
ATOM     11  C   UNL     1     -11.039  -0.625  20.682  1.00  0.00     0.041 C 
ATOM     12  O   UNL     1     -11.760  -1.371  19.970  1.00  0.00    -0.550 OA
ATOM     13  O   UNL     1     -11.628   0.362  21.463  1.00  0.00    -0.550 OA
ENDBRANCH  10  11
ENDBRANCH   9  10
ENDBRANCH   8   9
ENDBRANCH   1   8
TORSDOF 8
ENDMDL
MODEL 4
REMARK VINA RESULT:    -3.998      1.584      5.729
REMARK INTER + INTRA:          -6.421
REMARK INTER:                  -5.923
REMARK INTRA:                  -0.498
REMARK UNBOUND:                -0.553
REMARK SMILES O=C([O-])CCCCCCCC(=O)[O-]
REMARK SMILES IDX 7 1 6 2 5 3 4 4 2 5 1 6 3 7 8 8 9 9 10 10 11 11 12 12 13 13
REMARK H PARENT
REMARK Flexibility Score: inf
ROOT
ATOM      1  C   UNL     1      -9.792   0.988  17.506  1.00  0.00     0.000 C 
ENDROOT
BRANCH   1   2
ATOM      2  C   UNL     1      -9.307   1.025  18.963  1.00  0.00     0.000 C 
BRANCH   2   3
ATOM      3  C   UNL     1      -8.858  -0.369  19.427  1.00  0.00     0.006 C 
BRANCH   3   4
ATOM      4  C   UNL     1      -9.516  -0.780  20.751  1.00  0.00     0.053 C 
BRANCH   4   5
ATOM      5  C   UNL     1     -11.005  -0.630  20.703  1.00  0.00     0.041 C 
ATOM      6  O   UNL     1     -11.693  -1.373  19.954  1.00  0.00    -0.550 OA
ATOM      7  O   UNL     1     -11.637   0.307  21.511  1.00  0.00    -0.550 OA
ENDBRANCH   4   5
ENDBRANCH   3   4
ENDBRANCH   2   3
ENDBRANCH   1   2
BRANCH   1   8
ATOM      8  C   UNL     1     -11.283   1.337  17.368  1.00  0.00     0.000 C 
BRANCH   8   9
ATOM      9  C   UNL     1     -11.638   1.879  15.976  1.00  0.00     0.006 C 
BRANCH   9  10
ATOM     10  C   UNL     1     -12.495   0.874  15.199  1.00  0.00     0.053 C 
BRANCH  10  11
ATOM     11  C   UNL     1     -11.675   0.181  14.158  1.00  0.00     0.041 C 
ATOM     12  O   UNL     1     -10.505   0.573  13.909  1.00  0.00    -0.550 OA
ATOM     13  O   UNL     1     -12.185  -0.930  13.497  1.00  0.00    -0.550 OA
ENDBRANCH  10  11
ENDBRANCH   9  10
ENDBRANCH   8   9
ENDBRANCH   1   8
TORSDOF 8
ENDMDL
MODEL 5
REMARK VINA RESULT:    -3.967      1.180      5.623
REMARK INTER + INTRA:          -6.376
REMARK INTER:                  -5.848
REMARK INTRA:                  -0.528
REMARK UNBOUND:                -0.553
REMARK SMILES O=C([O-])CCCCCCCC(=O)[O-]
REMARK SMILES IDX 7 1 6 2 5 3 4 4 2 5 1 6 3 7 8 8 9 9 10 10 11 11 12 12 13 13
REMARK H PARENT
REMARK Flexibility Score: inf
ROOT
ATOM      1  C   UNL     1     -11.198   2.117  17.901  1.00  0.00     0.000 C 
ENDROOT
BRANCH   1   2
ATOM      2  C   UNL     1     -10.875   1.303  19.163  1.00  0.00     0.000 C 
BRANCH   2   3
ATOM      3  C   UNL     1      -9.360   1.241  19.403  1.00  0.00     0.006 C 
BRANCH   3   4
ATOM      4  C   UNL     1      -8.821  -0.195  19.351  1.00  0.00     0.053 C 
BRANCH   4   5
ATOM      5  C   UNL     1      -9.408  -1.048  20.434  1.00  0.00     0.041 C 
ATOM      6  O   UNL     1      -9.062  -0.877  21.633  1.00  0.00    -0.550 OA
ATOM      7  O   UNL     1     -10.362  -2.009  20.123  1.00  0.00    -0.550 OA
ENDBRANCH   4   5
ENDBRANCH   3   4
ENDBRANCH   2   3
ENDBRANCH   1   2
BRANCH   1   8
ATOM      8  C   UNL     1      -9.941   2.699  17.233  1.00  0.00     0.000 C 
BRANCH   8   9
ATOM      9  C   UNL     1      -9.685   2.109  15.839  1.00  0.00     0.006 C 
BRANCH   9  10
ATOM     10  C   UNL     1     -10.941   1.420  15.296  1.00  0.00     0.053 C 
BRANCH  10  11
ATOM     11  C   UNL     1     -10.585   0.469  14.197  1.00  0.00     0.041 C 
ATOM     12  O   UNL     1      -9.412   0.440  13.741  1.00  0.00    -0.550 OA
ATOM     13  O   UNL     1     -11.536  -0.420  13.712  1.00  0.00    -0.550 OA
ENDBRANCH  10  11
ENDBRANCH   9  10
ENDBRANCH   8   9
ENDBRANCH   1   8
TORSDOF 8
ENDMDL
MODEL 6
REMARK VINA RESULT:    -3.884      1.483      2.148
REMARK INTER + INTRA:          -6.253
REMARK INTER:                  -5.681
REMARK INTRA:                  -0.572
REMARK UNBOUND:                -0.553
REMARK SMILES O=C([O-])CCCCCCCC(=O)[O-]
REMARK SMILES IDX 7 1 6 2 5 3 4 4 2 5 1 6 3 7 8 8 9 9 10 10 11 11 12 12 13 13
REMARK H PARENT
REMARK Flexibility Score: inf
ROOT
ATOM      1  C   UNL     1      -9.605   2.281  17.960  1.00  0.00     0.000 C 
ENDROOT
BRANCH   1   2
ATOM      2  C   UNL     1     -11.071   1.838  17.832  1.00  0.00     0.000 C 
BRANCH   2   3
ATOM      3  C   UNL     1     -11.418   1.507  16.373  1.00  0.00     0.006 C 
BRANCH   3   4
ATOM      4  C   UNL     1     -10.192   1.577  15.453  1.00  0.00     0.053 C 
BRANCH   4   5
ATOM      5  C   UNL     1     -10.281   0.587  14.332  1.00  0.00     0.041 C 
ATOM      6  O   UNL     1      -9.238   0.214  13.732  1.00  0.00    -0.550 OA
ATOM      7  O   UNL     1     -11.511   0.051  13.972  1.00  0.00    -0.550 OA
ENDBRANCH   4   5
ENDBRANCH   3   4
ENDBRANCH   2   3
ENDBRANCH   1   2
BRANCH   1   8
ATOM      8  C   UNL     1      -8.833   1.480  19.021  1.00  0.00     0.000 C 
BRANCH   8   9
ATOM      9  C   UNL     1      -9.194  -0.012  19.014  1.00  0.00     0.006 C 
BRANCH   9  10
ATOM     10  C   UNL     1      -9.519  -0.503  20.429  1.00  0.00     0.053 C 
BRANCH  10  11
ATOM     11  C   UNL     1     -10.999  -0.567  20.636  1.00  0.00     0.041 C 
ATOM     12  O   UNL     1     -11.579   0.306  21.332  1.00  0.00    -0.550 OA
ATOM     13  O   UNL     1     -11.744  -1.563  20.018  1.00  0.00    -0.550 OA
ENDBRANCH  10  11
ENDBRANCH   9  10
ENDBRANCH   8   9
ENDBRANCH   1   8
TORSDOF 8
ENDMDL
MODEL 7
REMARK VINA RESULT:    -3.874      1.508      6.036
REMARK INTER + INTRA:          -6.238
REMARK INTER:                  -5.791
REMARK INTRA:                  -0.447
REMARK UNBOUND:                -0.553
REMARK SMILES O=C([O-])CCCCCCCC(=O)[O-]
REMARK SMILES IDX 7 1 6 2 5 3 4 4 2 5 1 6 3 7 8 8 9 9 10 10 11 11 12 12 13 13
REMARK H PARENT
REMARK Flexibility Score: inf
ROOT
ATOM      1  C   UNL     1     -11.046   1.040  18.028  1.00  0.00     0.000 C 
ENDROOT
BRANCH   1   2
ATOM      2  C   UNL     1      -9.521   1.116  18.195  1.00  0.00     0.000 C 
BRANCH   2   3
ATOM      3  C   UNL     1      -8.981  -0.146  18.884  1.00  0.00     0.006 C 
BRANCH   3   4
ATOM      4  C   UNL     1      -9.944  -0.682  19.952  1.00  0.00     0.053 C 
BRANCH   4   5
ATOM      5  C   UNL     1      -9.506  -0.305  21.334  1.00  0.00     0.041 C 
ATOM      6  O   UNL     1      -8.858  -1.124  22.039  1.00  0.00    -0.550 OA
ATOM      7  O   UNL     1      -9.783   0.962  21.832  1.00  0.00    -0.550 OA
ENDBRANCH   4   5
ENDBRANCH   3   4
ENDBRANCH   2   3
ENDBRANCH   1   2
BRANCH   1   8
ATOM      8  C   UNL     1     -11.647   2.342  17.473  1.00  0.00     0.000 C 
BRANCH   8   9
ATOM      9  C   UNL     1     -11.977   2.252  15.976  1.00  0.00     0.006 C 
BRANCH   9  10
ATOM     10  C   UNL     1     -12.406   0.832  15.594  1.00  0.00     0.053 C 
BRANCH  10  11
ATOM     11  C   UNL     1     -11.778   0.424  14.299  1.00  0.00     0.041 C 
ATOM     12  O   UNL     1     -10.538   0.555  14.128  1.00  0.00    -0.550 OA
ATOM     13  O   UNL     1     -12.556  -0.147  13.300  1.00  0.00    -0.550 OA
ENDBRANCH  10  11
ENDBRANCH   9  10
ENDBRANCH   8   9
ENDBRANCH   1   8
TORSDOF 8
ENDMDL
MODEL 8
REMARK VINA RESULT:    -3.830      1.762      2.776
REMARK INTER + INTRA:          -6.175
REMARK INTER:                  -5.789
REMARK INTRA:                  -0.386
REMARK UNBOUND:                -0.553
REMARK SMILES O=C([O-])CCCCCCCC(=O)[O-]
REMARK SMILES IDX 7 1 6 2 5 3 4 4 2 5 1 6 3 7 8 8 9 9 10 10 11 11 12 12 13 13
REMARK H PARENT
REMARK Flexibility Score: inf
ROOT
ATOM      1  C   UNL     1      -9.573   1.198  18.968  1.00  0.00     0.000 C 
ENDROOT
BRANCH   1   2
ATOM      2  C   UNL     1     -10.962   0.962  18.355  1.00  0.00     0.000 C 
BRANCH   2   3
ATOM      3  C   UNL     1     -11.107   1.710  17.022  1.00  0.00     0.006 C 
BRANCH   3   4
ATOM      4  C   UNL     1      -9.926   1.449  16.077  1.00  0.00     0.053 C 
BRANCH   4   5
ATOM      5  C   UNL     1     -10.361   0.760  14.821  1.00  0.00     0.041 C 
ATOM      6  O   UNL     1      -9.506   0.254  14.046  1.00  0.00    -0.550 OA
ATOM      7  O   UNL     1     -11.713   0.645  14.521  1.00  0.00    -0.550 OA
ENDBRANCH   4   5
ENDBRANCH   3   4
ENDBRANCH   2   3
ENDBRANCH   1   2
BRANCH   1   8
ATOM      8  C   UNL     1      -8.873  -0.110  19.372  1.00  0.00     0.000 C 
BRANCH   8   9
ATOM      9  C   UNL     1      -9.645  -0.888  20.448  1.00  0.00     0.006 C 
BRANCH   9  10
ATOM     10  C   UNL     1      -8.830  -0.986  21.742  1.00  0.00     0.053 C 
BRANCH  10  11
ATOM     11  C   UNL     1      -9.431  -0.124  22.806  1.00  0.00     0.041 C 
ATOM     12  O   UNL     1      -9.432  -0.507  24.005  1.00  0.00    -0.550 OA
ATOM     13  O   UNL     1      -9.943   1.126  22.481  1.00  0.00    -0.550 OA
ENDBRANCH  10  11
ENDBRANCH   9  10
ENDBRANCH   8   9
ENDBRANCH   1   8
TORSDOF 8
ENDMDL
MODEL 9
REMARK VINA RESULT:    -3.810      1.866      2.550
REMARK INTER + INTRA:          -6.145
REMARK INTER:                  -5.589
REMARK INTRA:                  -0.556
REMARK UNBOUND:                -0.553
REMARK SMILES O=C([O-])CCCCCCCC(=O)[O-]
REMARK SMILES IDX 7 1 6 2 5 3 4 4 2 5 1 6 3 7 8 8 9 9 10 10 11 11 12 12 13 13
REMARK H PARENT
REMARK Flexibility Score: inf
ROOT
ATOM      1  C   UNL     1      -9.316   2.080  18.943  1.00  0.00     0.000 C 
ENDROOT
BRANCH   1   2
ATOM      2  C   UNL     1      -9.188   3.060  17.766  1.00  0.00     0.000 C 
BRANCH   2   3
ATOM      3  C   UNL     1      -9.469   2.353  16.432  1.00  0.00     0.006 C 
BRANCH   3   4
ATOM      4  C   UNL     1     -10.627   3.002  15.662  1.00  0.00     0.053 C 
BRANCH   4   5
ATOM      5  C   UNL     1     -11.959   2.542  16.170  1.00  0.00     0.041 C 
ATOM      6  O   UNL     1     -12.290   1.331  16.074  1.00  0.00    -0.550 OA
ATOM      7  O   UNL     1     -12.820   3.445  16.782  1.00  0.00    -0.550 OA
ENDBRANCH   4   5
ENDBRANCH   3   4
ENDBRANCH   2   3
ENDBRANCH   1   2
BRANCH   1   8
ATOM      8  C   UNL     1      -9.620   0.643  18.488  1.00  0.00     0.000 C 
BRANCH   8   9
ATOM      9  C   UNL     1      -8.808  -0.407  19.262  1.00  0.00     0.006 C 
BRANCH   9  10
ATOM     10  C   UNL     1      -9.708  -1.199  20.216  1.00  0.00     0.053 C 
BRANCH  10  11
ATOM     11  C   UNL     1      -9.611  -0.650  21.604  1.00  0.00     0.041 C 
ATOM     12  O   UNL     1      -8.664  -0.998  22.358  1.00  0.00    -0.550 OA
ATOM     13  O   UNL     1     -10.539   0.283  22.049  1.00  0.00    -0.550 OA
ENDBRANCH  10  11
ENDBRANCH   9  10
ENDBRANCH   8   9
ENDBRANCH   1   8
TORSDOF 8
ENDMDL
