MODEL 1
REMARK VINA RESULT:    -7.289      0.000      0.000
REMARK INTER + INTRA:          -8.881
REMARK INTER:                  -8.780
REMARK INTRA:                  -0.101
REMARK UNBOUND:                -0.101
REMARK SMILES Oc1cc(O)c2c(c1)O[C@@H](c1ccc(O)c(O)c1)[C@H](O)C2
REMARK SMILES IDX 21 1 19 2 10 3 9 4 7 5 8 6 2 7 3 8 4 9 6 10 20 11 11 13
REMARK SMILES IDX 18 14 12 15 16 16 13 17 14 18 17 19 15 21 5 23 1 25
REMARK H PARENT 20 12 17 20 15 22 5 24 1 26
REMARK Flexibility Score: inf
ROOT
ATOM      1  C   UNL     1      16.147 -30.590 -20.325  1.00  0.00     0.079 C 
ATOM      2  C   UNL     1      15.177 -31.272 -19.347  1.00  0.00     0.164 C 
ATOM      3  C   UNL     1      14.639 -32.576 -19.975  1.00  0.00     0.232 C 
ATOM      4  O   UNL     1      15.724 -33.428 -20.347  1.00  0.00    -0.482 OA
ATOM      5  C   UNL     1      16.931 -32.932 -20.852  1.00  0.00     0.131 A 
ATOM      6  C   UNL     1      17.885 -33.824 -21.349  1.00  0.00     0.093 A 
ATOM      7  C   UNL     1      19.099 -33.347 -21.859  1.00  0.00     0.122 A 
ATOM      8  C   UNL     1      19.356 -31.974 -21.873  1.00  0.00     0.092 A 
ATOM      9  C   UNL     1      18.408 -31.069 -21.373  1.00  0.00     0.126 A 
ATOM     10  C   UNL     1      17.196 -31.548 -20.840  1.00  0.00     0.039 A 
ENDROOT
BRANCH   2  11
ATOM     11  O   UNL     1      14.120 -30.390 -19.066  1.00  0.00    -0.389 OA
ATOM     12  H   UNL     1      13.940 -30.457 -18.092  1.00  0.00     0.211 HD
ENDBRANCH   2  11
BRANCH   3  13
ATOM     13  C   UNL     1      13.730 -33.311 -19.018  1.00  0.00    -0.001 A 
ATOM     14  C   UNL     1      12.806 -34.257 -19.495  1.00  0.00     0.057 A 
ATOM     15  C   UNL     1      13.831 -33.090 -17.635  1.00  0.00     0.012 A 
ATOM     16  C   UNL     1      11.982 -34.960 -18.604  1.00  0.00     0.157 A 
ATOM     17  C   UNL     1      13.010 -33.790 -16.746  1.00  0.00     0.050 A 
ATOM     18  C   UNL     1      12.085 -34.723 -17.223  1.00  0.00     0.157 A 
BRANCH  16  19
ATOM     19  O   UNL     1      11.065 -35.892 -19.087  1.00  0.00    -0.504 OA
ATOM     20  H   UNL     1      10.987 -36.098 -20.076  1.00  0.00     0.293 HD
ENDBRANCH  16  19
BRANCH  18  21
ATOM     21  O   UNL     1      11.279 -35.405 -16.313  1.00  0.00    -0.504 OA
ATOM     22  H   UNL     1      10.269 -35.332 -16.328  1.00  0.00     0.293 HD
ENDBRANCH  18  21
ENDBRANCH   3  13
BRANCH   9  23
ATOM     23  O   UNL     1      18.667 -29.699 -21.404  1.00  0.00    -0.507 OA
ATOM     24  H   UNL     1      17.937 -29.016 -21.241  1.00  0.00     0.293 HD
ENDBRANCH   9  23
BRANCH   7  25
ATOM     25  O   UNL     1      20.054 -34.230 -22.358  1.00  0.00    -0.508 OA
ATOM     26  H   UNL     1      19.853 -35.216 -22.477  1.00  0.00     0.293 HD
ENDBRANCH   7  25
TORSDOF 6
ENDMDL
MODEL 2
REMARK VINA RESULT:    -7.273     11.697     14.218
REMARK INTER + INTRA:          -8.862
REMARK INTER:                  -8.535
REMARK INTRA:                  -0.327
REMARK UNBOUND:                -0.101
REMARK SMILES Oc1cc(O)c2c(c1)O[C@@H](c1ccc(O)c(O)c1)[C@H](O)C2
REMARK SMILES IDX 21 1 19 2 10 3 9 4 7 5 8 6 2 7 3 8 4 9 6 10 20 11 11 13
REMARK SMILES IDX 18 14 12 15 16 16 13 17 14 18 17 19 15 21 5 23 1 25
REMARK H PARENT 20 12 17 20 15 22 5 24 1 26
REMARK Flexibility Score: inf
ROOT
ATOM      1  C   UNL     1       8.615 -26.641 -13.190  1.00  0.00     0.079 C 
ATOM      2  C   UNL     1       8.172 -25.502 -14.123  1.00  0.00     0.164 C 
ATOM      3  C   UNL     1       7.577 -24.349 -13.288  1.00  0.00     0.232 C 
ATOM      4  O   UNL     1       8.522 -23.911 -12.308  1.00  0.00    -0.482 OA
ATOM      5  C   UNL     1       9.383 -24.794 -11.648  1.00  0.00     0.131 A 
ATOM      6  C   UNL     1      10.165 -24.326 -10.589  1.00  0.00     0.093 A 
ATOM      7  C   UNL     1      11.033 -25.194  -9.915  1.00  0.00     0.122 A 
ATOM      8  C   UNL     1      11.117 -26.534 -10.303  1.00  0.00     0.092 A 
ATOM      9  C   UNL     1      10.341 -27.014 -11.369  1.00  0.00     0.126 A 
ATOM     10  C   UNL     1       9.483 -26.139 -12.060  1.00  0.00     0.039 A 
ENDROOT
BRANCH   2  11
ATOM     11  O   UNL     1       7.215 -26.000 -15.023  1.00  0.00    -0.389 OA
ATOM     12  H   UNL     1       7.712 -26.455 -15.752  1.00  0.00     0.211 HD
ENDBRANCH   2  11
BRANCH   3  13
ATOM     13  C   UNL     1       7.187 -23.181 -14.163  1.00  0.00    -0.001 A 
ATOM     14  C   UNL     1       5.959 -22.525 -13.973  1.00  0.00     0.057 A 
ATOM     15  C   UNL     1       8.070 -22.710 -15.149  1.00  0.00     0.012 A 
ATOM     16  C   UNL     1       5.609 -21.423 -14.768  1.00  0.00     0.157 A 
ATOM     17  C   UNL     1       7.722 -21.612 -15.941  1.00  0.00     0.050 A 
ATOM     18  C   UNL     1       6.496 -20.967 -15.757  1.00  0.00     0.157 A 
BRANCH  16  19
ATOM     19  O   UNL     1       4.386 -20.782 -14.575  1.00  0.00    -0.504 OA
ATOM     20  H   UNL     1       3.998 -20.644 -13.650  1.00  0.00     0.293 HD
ENDBRANCH  16  19
BRANCH  18  21
ATOM     21  O   UNL     1       6.176 -19.875 -16.563  1.00  0.00    -0.504 OA
ATOM     22  H   UNL     1       5.229 -19.689 -16.867  1.00  0.00     0.293 HD
ENDBRANCH  18  21
ENDBRANCH   3  13
BRANCH   9  23
ATOM     23  O   UNL     1      10.421 -28.357 -11.740  1.00  0.00    -0.507 OA
ATOM     24  H   UNL     1      10.585 -29.087 -11.057  1.00  0.00     0.293 HD
ENDBRANCH   9  23
BRANCH   7  25
ATOM     25  O   UNL     1      11.814 -24.736  -8.856  1.00  0.00    -0.508 OA
ATOM     26  H   UNL     1      12.826 -24.711  -8.916  1.00  0.00     0.293 HD
ENDBRANCH   7  25
TORSDOF 6
ENDMDL
MODEL 3
REMARK VINA RESULT:    -7.201      1.938      7.144
REMARK INTER + INTRA:          -8.775
REMARK INTER:                  -8.434
REMARK INTRA:                  -0.340
REMARK UNBOUND:                -0.101
REMARK SMILES Oc1cc(O)c2c(c1)O[C@@H](c1ccc(O)c(O)c1)[C@H](O)C2
REMARK SMILES IDX 21 1 19 2 10 3 9 4 7 5 8 6 2 7 3 8 4 9 6 10 20 11 11 13
REMARK SMILES IDX 18 14 12 15 16 16 13 17 14 18 17 19 15 21 5 23 1 25
REMARK H PARENT 20 12 17 20 15 22 5 24 1 26
REMARK Flexibility Score: inf
ROOT
ATOM      1  C   UNL     1      13.130 -34.226 -17.709  1.00  0.00     0.079 C 
ATOM      2  C   UNL     1      14.407 -33.489 -18.145  1.00  0.00     0.164 C 
ATOM      3  C   UNL     1      14.557 -33.574 -19.679  1.00  0.00     0.232 C 
ATOM      4  O   UNL     1      13.387 -33.057 -20.318  1.00  0.00    -0.482 OA
ATOM      5  C   UNL     1      12.103 -33.240 -19.795  1.00  0.00     0.131 A 
ATOM      6  C   UNL     1      10.993 -32.852 -20.551  1.00  0.00     0.093 A 
ATOM      7  C   UNL     1       9.699 -33.027 -20.046  1.00  0.00     0.122 A 
ATOM      8  C   UNL     1       9.517 -33.592 -18.780  1.00  0.00     0.092 A 
ATOM      9  C   UNL     1      10.623 -33.980 -18.010  1.00  0.00     0.126 A 
ATOM     10  C   UNL     1      11.925 -33.786 -18.508  1.00  0.00     0.039 A 
ENDROOT
BRANCH   2  11
ATOM     11  O   UNL     1      15.512 -34.082 -17.511  1.00  0.00    -0.389 OA
ATOM     12  H   UNL     1      16.185 -33.365 -17.374  1.00  0.00     0.211 HD
ENDBRANCH   2  11
BRANCH   3  13
ATOM     13  C   UNL     1      15.768 -32.807 -20.155  1.00  0.00    -0.001 A 
ATOM     14  C   UNL     1      16.662 -33.381 -21.075  1.00  0.00     0.057 A 
ATOM     15  C   UNL     1      15.989 -31.490 -19.717  1.00  0.00     0.012 A 
ATOM     16  C   UNL     1      17.770 -32.658 -21.539  1.00  0.00     0.157 A 
ATOM     17  C   UNL     1      17.094 -30.769 -20.178  1.00  0.00     0.050 A 
ATOM     18  C   UNL     1      17.987 -31.346 -21.086  1.00  0.00     0.157 A 
BRANCH  16  19
ATOM     19  O   UNL     1      18.653 -33.239 -22.448  1.00  0.00    -0.504 OA
ATOM     20  H   UNL     1      19.630 -33.382 -22.222  1.00  0.00     0.293 HD
ENDBRANCH  16  19
BRANCH  18  21
ATOM     21  O   UNL     1      19.080 -30.602 -21.527  1.00  0.00    -0.504 OA
ATOM     22  H   UNL     1      19.991 -31.019 -21.672  1.00  0.00     0.293 HD
ENDBRANCH  18  21
ENDBRANCH   3  13
BRANCH   9  23
ATOM     23  O   UNL     1      10.430 -34.556 -16.754  1.00  0.00    -0.507 OA
ATOM     24  H   UNL     1      11.179 -34.608 -16.073  1.00  0.00     0.293 HD
ENDBRANCH   9  23
BRANCH   7  25
ATOM     25  O   UNL     1       8.587 -32.645 -20.794  1.00  0.00    -0.508 OA
ATOM     26  H   UNL     1       8.197 -33.250 -21.508  1.00  0.00     0.293 HD
ENDBRANCH   7  25
TORSDOF 6
ENDMDL
MODEL 4
REMARK VINA RESULT:    -7.060      1.826      6.750
REMARK INTER + INTRA:          -8.606
REMARK INTER:                  -8.480
REMARK INTRA:                  -0.126
REMARK UNBOUND:                -0.101
REMARK SMILES Oc1cc(O)c2c(c1)O[C@@H](c1ccc(O)c(O)c1)[C@H](O)C2
REMARK SMILES IDX 21 1 19 2 10 3 9 4 7 5 8 6 2 7 3 8 4 9 6 10 20 11 11 13
REMARK SMILES IDX 18 14 12 15 16 16 13 17 14 18 17 19 15 21 5 23 1 25
REMARK H PARENT 20 12 17 20 15 22 5 24 1 26
REMARK Flexibility Score: inf
ROOT
ATOM      1  C   UNL     1      12.113 -30.927 -19.652  1.00  0.00     0.079 C 
ATOM      2  C   UNL     1      13.515 -30.767 -20.261  1.00  0.00     0.164 C 
ATOM      3  C   UNL     1      14.544 -31.537 -19.406  1.00  0.00     0.232 C 
ATOM      4  O   UNL     1      14.157 -32.908 -19.286  1.00  0.00    -0.482 OA
ATOM      5  C   UNL     1      12.820 -33.306 -19.181  1.00  0.00     0.131 A 
ATOM      6  C   UNL     1      12.522 -34.642 -18.903  1.00  0.00     0.093 A 
ATOM      7  C   UNL     1      11.190 -35.060 -18.793  1.00  0.00     0.122 A 
ATOM      8  C   UNL     1      10.155 -34.136 -18.962  1.00  0.00     0.092 A 
ATOM      9  C   UNL     1      10.442 -32.793 -19.246  1.00  0.00     0.126 A 
ATOM     10  C   UNL     1      11.779 -32.375 -19.377  1.00  0.00     0.039 A 
ENDROOT
BRANCH   2  11
ATOM     11  O   UNL     1      13.838 -29.400 -20.303  1.00  0.00    -0.389 OA
ATOM     12  H   UNL     1      14.824 -29.333 -20.213  1.00  0.00     0.211 HD
ENDBRANCH   2  11
BRANCH   3  13
ATOM     13  C   UNL     1      15.927 -31.457 -20.007  1.00  0.00    -0.001 A 
ATOM     14  C   UNL     1      16.417 -32.498 -20.814  1.00  0.00     0.057 A 
ATOM     15  C   UNL     1      16.723 -30.318 -19.802  1.00  0.00     0.012 A 
ATOM     16  C   UNL     1      17.690 -32.412 -21.395  1.00  0.00     0.157 A 
ATOM     17  C   UNL     1      17.992 -30.230 -20.381  1.00  0.00     0.050 A 
ATOM     18  C   UNL     1      18.481 -31.272 -21.175  1.00  0.00     0.157 A 
BRANCH  16  19
ATOM     19  O   UNL     1      18.168 -33.452 -22.190  1.00  0.00    -0.504 OA
ATOM     20  H   UNL     1      18.708 -33.275 -23.029  1.00  0.00     0.293 HD
ENDBRANCH  16  19
BRANCH  18  21
ATOM     21  O   UNL     1      19.751 -31.157 -21.738  1.00  0.00    -0.504 OA
ATOM     22  H   UNL     1      20.296 -31.966 -22.008  1.00  0.00     0.293 HD
ENDBRANCH  18  21
ENDBRANCH   3  13
BRANCH   9  23
ATOM     23  O   UNL     1       9.402 -31.875 -19.399  1.00  0.00    -0.507 OA
ATOM     24  H   UNL     1       9.416 -30.975 -18.934  1.00  0.00     0.293 HD
ENDBRANCH   9  23
BRANCH   7  25
ATOM     25  O   UNL     1      10.884 -36.390 -18.514  1.00  0.00    -0.508 OA
ATOM     26  H   UNL     1      10.751 -36.715 -17.563  1.00  0.00     0.293 HD
ENDBRANCH   7  25
TORSDOF 6
ENDMDL
MODEL 5
REMARK VINA RESULT:    -7.011      6.107      8.532
REMARK INTER + INTRA:          -8.546
REMARK INTER:                  -8.300
REMARK INTRA:                  -0.246
REMARK UNBOUND:                -0.101
REMARK SMILES Oc1cc(O)c2c(c1)O[C@@H](c1ccc(O)c(O)c1)[C@H](O)C2
REMARK SMILES IDX 21 1 19 2 10 3 9 4 7 5 8 6 2 7 3 8 4 9 6 10 20 11 11 13
REMARK SMILES IDX 18 14 12 15 16 16 13 17 14 18 17 19 15 21 5 23 1 25
REMARK H PARENT 20 12 17 20 15 22 5 24 1 26
REMARK Flexibility Score: inf
ROOT
ATOM      1  C   UNL     1      10.380 -34.203 -19.131  1.00  0.00     0.079 C 
ATOM      2  C   UNL     1      10.224 -32.889 -19.913  1.00  0.00     0.164 C 
ATOM      3  C   UNL     1       9.013 -32.102 -19.368  1.00  0.00     0.232 C 
ATOM      4  O   UNL     1       9.159 -31.883 -17.963  1.00  0.00    -0.482 OA
ATOM      5  C   UNL     1       9.735 -32.832 -17.111  1.00  0.00     0.131 A 
ATOM      6  C   UNL     1       9.698 -32.624 -15.729  1.00  0.00     0.093 A 
ATOM      7  C   UNL     1      10.269 -33.562 -14.859  1.00  0.00     0.122 A 
ATOM      8  C   UNL     1      10.876 -34.710 -15.375  1.00  0.00     0.092 A 
ATOM      9  C   UNL     1      10.924 -34.926 -16.760  1.00  0.00     0.126 A 
ATOM     10  C   UNL     1      10.369 -33.975 -17.637  1.00  0.00     0.039 A 
ENDROOT
BRANCH   2  11
ATOM     11  O   UNL     1      10.042 -33.189 -21.273  1.00  0.00    -0.389 OA
ATOM     12  H   UNL     1      10.367 -34.117 -21.410  1.00  0.00     0.211 HD
ENDBRANCH   2  11
BRANCH   3  13
ATOM     13  C   UNL     1       8.862 -30.772 -20.069  1.00  0.00    -0.001 A 
ATOM     14  C   UNL     1       7.587 -30.230 -20.305  1.00  0.00     0.057 A 
ATOM     15  C   UNL     1       9.999 -30.041 -20.450  1.00  0.00     0.012 A 
ATOM     16  C   UNL     1       7.448 -28.982 -20.930  1.00  0.00     0.157 A 
ATOM     17  C   UNL     1       9.861 -28.797 -21.073  1.00  0.00     0.050 A 
ATOM     18  C   UNL     1       8.592 -28.264 -21.317  1.00  0.00     0.157 A 
BRANCH  16  19
ATOM     19  O   UNL     1       6.179 -28.455 -21.165  1.00  0.00    -0.504 OA
ATOM     20  H   UNL     1       5.352 -29.038 -21.159  1.00  0.00     0.293 HD
ENDBRANCH  16  19
BRANCH  18  21
ATOM     21  O   UNL     1       8.487 -27.022 -21.941  1.00  0.00    -0.504 OA
ATOM     22  H   UNL     1       8.798 -26.167 -21.496  1.00  0.00     0.293 HD
ENDBRANCH  18  21
ENDBRANCH   3  13
BRANCH   9  23
ATOM     23  O   UNL     1      11.520 -36.082 -17.265  1.00  0.00    -0.507 OA
ATOM     24  H   UNL     1      11.640 -36.226 -18.261  1.00  0.00     0.293 HD
ENDBRANCH   9  23
BRANCH   7  25
ATOM     25  O   UNL     1      10.234 -33.364 -13.481  1.00  0.00    -0.508 OA
ATOM     26  H   UNL     1       9.677 -32.625 -13.065  1.00  0.00     0.293 HD
ENDBRANCH   7  25
TORSDOF 6
ENDMDL
MODEL 6
REMARK VINA RESULT:    -7.010      2.690      4.567
REMARK INTER + INTRA:          -8.545
REMARK INTER:                  -8.246
REMARK INTRA:                  -0.299
REMARK UNBOUND:                -0.101
REMARK SMILES Oc1cc(O)c2c(c1)O[C@@H](c1ccc(O)c(O)c1)[C@H](O)C2
REMARK SMILES IDX 21 1 19 2 10 3 9 4 7 5 8 6 2 7 3 8 4 9 6 10 20 11 11 13
REMARK SMILES IDX 18 14 12 15 16 16 13 17 14 18 17 19 15 21 5 23 1 25
REMARK H PARENT 20 12 17 20 15 22 5 24 1 26
REMARK Flexibility Score: inf
ROOT
ATOM      1  C   UNL     1      19.387 -30.638 -22.110  1.00  0.00     0.079 C 
ATOM      2  C   UNL     1      18.240 -31.596 -21.749  1.00  0.00     0.164 C 
ATOM      3  C   UNL     1      17.254 -30.889 -20.795  1.00  0.00     0.232 C 
ATOM      4  O   UNL     1      16.783 -29.675 -21.385  1.00  0.00    -0.482 OA
ATOM      5  C   UNL     1      17.598 -28.857 -22.176  1.00  0.00     0.131 A 
ATOM      6  C   UNL     1      17.125 -27.608 -22.585  1.00  0.00     0.093 A 
ATOM      7  C   UNL     1      17.925 -26.775 -23.376  1.00  0.00     0.122 A 
ATOM      8  C   UNL     1      19.202 -27.195 -23.758  1.00  0.00     0.092 A 
ATOM      9  C   UNL     1      19.686 -28.449 -23.358  1.00  0.00     0.126 A 
ATOM     10  C   UNL     1      18.875 -29.297 -22.579  1.00  0.00     0.039 A 
ENDROOT
BRANCH   2  11
ATOM     11  O   UNL     1      18.779 -32.740 -21.137  1.00  0.00    -0.389 OA
ATOM     12  H   UNL     1      19.046 -33.359 -21.866  1.00  0.00     0.211 HD
ENDBRANCH   2  11
BRANCH   3  13
ATOM     13  C   UNL     1      16.077 -31.776 -20.466  1.00  0.00    -0.001 A 
ATOM     14  C   UNL     1      15.459 -32.544 -21.467  1.00  0.00     0.057 A 
ATOM     15  C   UNL     1      15.616 -31.877 -19.143  1.00  0.00     0.012 A 
ATOM     16  C   UNL     1      14.383 -33.389 -21.156  1.00  0.00     0.157 A 
ATOM     17  C   UNL     1      14.544 -32.719 -18.831  1.00  0.00     0.050 A 
ATOM     18  C   UNL     1      13.924 -33.474 -19.831  1.00  0.00     0.157 A 
BRANCH  16  19
ATOM     19  O   UNL     1      13.774 -34.143 -22.157  1.00  0.00    -0.504 OA
ATOM     20  H   UNL     1      12.794 -34.397 -22.110  1.00  0.00     0.293 HD
ENDBRANCH  16  19
BRANCH  18  21
ATOM     21  O   UNL     1      12.857 -34.304 -19.490  1.00  0.00    -0.504 OA
ATOM     22  H   UNL     1      12.881 -34.906 -18.677  1.00  0.00     0.293 HD
ENDBRANCH  18  21
ENDBRANCH   3  13
BRANCH   9  23
ATOM     23  O   UNL     1      20.967 -28.854 -23.731  1.00  0.00    -0.507 OA
ATOM     24  H   UNL     1      21.553 -28.280 -24.327  1.00  0.00     0.293 HD
ENDBRANCH   9  23
BRANCH   7  25
ATOM     25  O   UNL     1      17.462 -25.526 -23.786  1.00  0.00    -0.508 OA
ATOM     26  H   UNL     1      18.044 -24.897 -24.328  1.00  0.00     0.293 HD
ENDBRANCH   7  25
TORSDOF 6
ENDMDL
MODEL 7
REMARK VINA RESULT:    -6.863      1.940      3.332
REMARK INTER + INTRA:          -8.368
REMARK INTER:                  -8.032
REMARK INTRA:                  -0.337
REMARK UNBOUND:                -0.101
REMARK SMILES Oc1cc(O)c2c(c1)O[C@@H](c1ccc(O)c(O)c1)[C@H](O)C2
REMARK SMILES IDX 21 1 19 2 10 3 9 4 7 5 8 6 2 7 3 8 4 9 6 10 20 11 11 13
REMARK SMILES IDX 18 14 12 15 16 16 13 17 14 18 17 19 15 21 5 23 1 25
REMARK H PARENT 20 12 17 20 15 22 5 24 1 26
REMARK Flexibility Score: inf
ROOT
ATOM      1  C   UNL     1      16.207 -32.638 -21.211  1.00  0.00     0.079 C 
ATOM      2  C   UNL     1      14.693 -32.890 -21.129  1.00  0.00     0.164 C 
ATOM      3  C   UNL     1      14.256 -32.950 -19.649  1.00  0.00     0.232 C 
ATOM      4  O   UNL     1      14.645 -31.752 -18.972  1.00  0.00    -0.482 OA
ATOM      5  C   UNL     1      15.841 -31.083 -19.255  1.00  0.00     0.131 A 
ATOM      6  C   UNL     1      16.236 -30.015 -18.446  1.00  0.00     0.093 A 
ATOM      7  C   UNL     1      17.430 -29.333 -18.712  1.00  0.00     0.122 A 
ATOM      8  C   UNL     1      18.229 -29.723 -19.790  1.00  0.00     0.092 A 
ATOM      9  C   UNL     1      17.840 -30.791 -20.612  1.00  0.00     0.126 A 
ATOM     10  C   UNL     1      16.630 -31.465 -20.359  1.00  0.00     0.039 A 
ENDROOT
BRANCH   2  11
ATOM     11  O   UNL     1      14.398 -34.102 -21.776  1.00  0.00    -0.389 OA
ATOM     12  H   UNL     1      14.566 -33.961 -22.744  1.00  0.00     0.211 HD
ENDBRANCH   2  11
BRANCH   3  13
ATOM     13  C   UNL     1      12.762 -33.133 -19.525  1.00  0.00    -0.001 A 
ATOM     14  C   UNL     1      12.222 -34.384 -19.180  1.00  0.00     0.057 A 
ATOM     15  C   UNL     1      11.898 -32.041 -19.707  1.00  0.00     0.012 A 
ATOM     16  C   UNL     1      10.836 -34.547 -19.037  1.00  0.00     0.157 A 
ATOM     17  C   UNL     1      10.517 -32.202 -19.565  1.00  0.00     0.050 A 
ATOM     18  C   UNL     1       9.981 -33.450 -19.232  1.00  0.00     0.157 A 
BRANCH  16  19
ATOM     19  O   UNL     1      10.310 -35.793 -18.700  1.00  0.00    -0.504 OA
ATOM     20  H   UNL     1      10.551 -36.255 -17.831  1.00  0.00     0.293 HD
ENDBRANCH  16  19
BRANCH  18  21
ATOM     21  O   UNL     1       8.599 -33.581 -19.098  1.00  0.00    -0.504 OA
ATOM     22  H   UNL     1       8.176 -34.017 -18.289  1.00  0.00     0.293 HD
ENDBRANCH  18  21
ENDBRANCH   3  13
BRANCH   9  23
ATOM     23  O   UNL     1      18.652 -31.183 -21.676  1.00  0.00    -0.507 OA
ATOM     24  H   UNL     1      18.316 -31.812 -22.397  1.00  0.00     0.293 HD
ENDBRANCH   9  23
BRANCH   7  25
ATOM     25  O   UNL     1      17.833 -28.268 -17.908  1.00  0.00    -0.508 OA
ATOM     26  H   UNL     1      17.962 -28.378 -16.909  1.00  0.00     0.293 HD
ENDBRANCH   7  25
TORSDOF 6
ENDMDL
MODEL 8
REMARK VINA RESULT:    -6.856      5.953      7.599
REMARK INTER + INTRA:          -8.360
REMARK INTER:                  -7.986
REMARK INTRA:                  -0.374
REMARK UNBOUND:                -0.101
REMARK SMILES Oc1cc(O)c2c(c1)O[C@@H](c1ccc(O)c(O)c1)[C@H](O)C2
REMARK SMILES IDX 21 1 19 2 10 3 9 4 7 5 8 6 2 7 3 8 4 9 6 10 20 11 11 13
REMARK SMILES IDX 18 14 12 15 16 16 13 17 14 18 17 19 15 21 5 23 1 25
REMARK H PARENT 20 12 17 20 15 22 5 24 1 26
REMARK Flexibility Score: inf
ROOT
ATOM      1  C   UNL     1      11.292 -34.625 -13.322  1.00  0.00     0.079 C 
ATOM      2  C   UNL     1      10.457 -34.536 -14.610  1.00  0.00     0.164 C 
ATOM      3  C   UNL     1      10.591 -33.124 -15.218  1.00  0.00     0.232 C 
ATOM      4  O   UNL     1      11.968 -32.812 -15.442  1.00  0.00    -0.482 OA
ATOM      5  C   UNL     1      12.983 -33.229 -14.574  1.00  0.00     0.131 A 
ATOM      6  C   UNL     1      14.284 -32.753 -14.762  1.00  0.00     0.093 A 
ATOM      7  C   UNL     1      15.314 -33.157 -13.904  1.00  0.00     0.122 A 
ATOM      8  C   UNL     1      15.039 -34.039 -12.855  1.00  0.00     0.092 A 
ATOM      9  C   UNL     1      13.739 -34.527 -12.659  1.00  0.00     0.126 A 
ATOM     10  C   UNL     1      12.706 -34.138 -13.533  1.00  0.00     0.039 A 
ENDROOT
BRANCH   2  11
ATOM     11  O   UNL     1       9.114 -34.810 -14.300  1.00  0.00    -0.389 OA
ATOM     12  H   UNL     1       8.693 -33.947 -14.051  1.00  0.00     0.211 HD
ENDBRANCH   2  11
BRANCH   3  13
ATOM     13  C   UNL     1       9.834 -33.013 -16.521  1.00  0.00    -0.001 A 
ATOM     14  C   UNL     1       8.817 -32.056 -16.678  1.00  0.00     0.057 A 
ATOM     15  C   UNL     1      10.173 -33.837 -17.607  1.00  0.00     0.012 A 
ATOM     16  C   UNL     1       8.134 -31.934 -17.897  1.00  0.00     0.157 A 
ATOM     17  C   UNL     1       9.493 -33.717 -18.823  1.00  0.00     0.050 A 
ATOM     18  C   UNL     1       8.474 -32.771 -18.973  1.00  0.00     0.157 A 
BRANCH  16  19
ATOM     19  O   UNL     1       7.124 -30.986 -18.041  1.00  0.00    -0.504 OA
ATOM     20  H   UNL     1       6.151 -31.254 -18.130  1.00  0.00     0.293 HD
ENDBRANCH  16  19
BRANCH  18  21
ATOM     21  O   UNL     1       7.813 -32.675 -20.197  1.00  0.00    -0.504 OA
ATOM     22  H   UNL     1       6.813 -32.804 -20.280  1.00  0.00     0.293 HD
ENDBRANCH  18  21
ENDBRANCH   3  13
BRANCH   9  23
ATOM     23  O   UNL     1      13.472 -35.395 -11.600  1.00  0.00    -0.507 OA
ATOM     24  H   UNL     1      14.217 -35.812 -11.055  1.00  0.00     0.293 HD
ENDBRANCH   9  23
BRANCH   7  25
ATOM     25  O   UNL     1      16.613 -32.686 -14.083  1.00  0.00    -0.508 OA
ATOM     26  H   UNL     1      17.186 -32.995 -14.860  1.00  0.00     0.293 HD
ENDBRANCH   7  25
TORSDOF 6
ENDMDL
MODEL 9
REMARK VINA RESULT:    -6.756      1.447      7.043
REMARK INTER + INTRA:          -8.240
REMARK INTER:                  -8.268
REMARK INTRA:                   0.028
REMARK UNBOUND:                -0.101
REMARK SMILES Oc1cc(O)c2c(c1)O[C@@H](c1ccc(O)c(O)c1)[C@H](O)C2
REMARK SMILES IDX 21 1 19 2 10 3 9 4 7 5 8 6 2 7 3 8 4 9 6 10 20 11 11 13
REMARK SMILES IDX 18 14 12 15 16 16 13 17 14 18 17 19 15 21 5 23 1 25
REMARK H PARENT 20 12 17 20 15 22 5 24 1 26
REMARK Flexibility Score: inf
ROOT
ATOM      1  C   UNL     1      12.747 -34.073 -19.597  1.00  0.00     0.079 C 
ATOM      2  C   UNL     1      14.099 -33.756 -20.255  1.00  0.00     0.164 C 
ATOM      3  C   UNL     1      14.640 -32.417 -19.710  1.00  0.00     0.232 C 
ATOM      4  O   UNL     1      14.728 -32.465 -18.284  1.00  0.00    -0.482 OA
ATOM      5  C   UNL     1      13.789 -33.139 -17.495  1.00  0.00     0.131 A 
ATOM      6  C   UNL     1      13.843 -33.009 -16.105  1.00  0.00     0.093 A 
ATOM      7  C   UNL     1      12.912 -33.675 -15.298  1.00  0.00     0.122 A 
ATOM      8  C   UNL     1      11.926 -34.471 -15.886  1.00  0.00     0.092 A 
ATOM      9  C   UNL     1      11.865 -34.613 -17.280  1.00  0.00     0.126 A 
ATOM     10  C   UNL     1      12.812 -33.961 -18.092  1.00  0.00     0.039 A 
ENDROOT
BRANCH   2  11
ATOM     11  O   UNL     1      13.920 -33.682 -21.647  1.00  0.00    -0.389 OA
ATOM     12  H   UNL     1      14.739 -33.264 -22.022  1.00  0.00     0.211 HD
ENDBRANCH   2  11
BRANCH   3  13
ATOM     13  C   UNL     1      16.000 -32.099 -20.286  1.00  0.00    -0.001 A 
ATOM     14  C   UNL     1      16.728 -33.079 -20.982  1.00  0.00     0.057 A 
ATOM     15  C   UNL     1      16.532 -30.804 -20.170  1.00  0.00     0.012 A 
ATOM     16  C   UNL     1      17.978 -32.776 -21.541  1.00  0.00     0.157 A 
ATOM     17  C   UNL     1      17.778 -30.501 -20.726  1.00  0.00     0.050 A 
ATOM     18  C   UNL     1      18.505 -31.480 -21.410  1.00  0.00     0.157 A 
BRANCH  16  19
ATOM     19  O   UNL     1      18.694 -33.756 -22.226  1.00  0.00    -0.504 OA
ATOM     20  H   UNL     1      18.300 -34.669 -22.413  1.00  0.00     0.293 HD
ENDBRANCH  16  19
BRANCH  18  21
ATOM     21  O   UNL     1      19.745 -31.148 -21.953  1.00  0.00    -0.504 OA
ATOM     22  H   UNL     1      20.393 -30.531 -21.479  1.00  0.00     0.293 HD
ENDBRANCH  18  21
ENDBRANCH   3  13
BRANCH   9  23
ATOM     23  O   UNL     1      10.867 -35.398 -17.858  1.00  0.00    -0.507 OA
ATOM     24  H   UNL     1      11.069 -36.039 -18.617  1.00  0.00     0.293 HD
ENDBRANCH   9  23
BRANCH   7  25
ATOM     25  O   UNL     1      12.957 -33.549 -13.911  1.00  0.00    -0.508 OA
ATOM     26  H   UNL     1      13.180 -34.338 -13.314  1.00  0.00     0.293 HD
ENDBRANCH   7  25
TORSDOF 6
ENDMDL
