MODEL 1
REMARK VINA RESULT:    -3.186      0.000      0.000
REMARK INTER + INTRA:          -5.214
REMARK INTER:                  -4.862
REMARK INTRA:                  -0.352
REMARK UNBOUND:                -0.352
REMARK SMILES CC1=CCC[C@H](C)C(=O)C[C@@H](C(C)C)C(=O)C1
REMARK SMILES IDX 8 1 9 2 6 3 7 4 5 5 4 6 3 7 2 8 1 9 10 11 11 12 15 13 16 14
REMARK SMILES IDX 17 15 12 17 13 18 14 19
REMARK H PARENT
REMARK Flexibility Score: 70.00
ROOT
ATOM      1  C   UNL     1      12.978  58.641  22.393  1.00  0.00     0.136 C 
ATOM      2  O   UNL     1      11.755  58.682  22.422  1.00  0.00    -0.299 OA
ENDROOT
BRANCH   1   3
ATOM      3  C   UNL     1      13.647  57.328  22.023  1.00  0.00     0.053 C 
ATOM      4  C   UNL     1      13.570  57.077  20.512  1.00  0.00     0.016 C 
BRANCH   3   5
ATOM      5  C   UNL     1      15.104  57.243  22.524  1.00  0.00     0.015 C 
BRANCH   5   6
ATOM      6  C   UNL     1      16.141  57.466  21.399  1.00  0.00     0.028 C 
BRANCH   6   7
ATOM      7  C   UNL     1      17.380  58.145  21.935  1.00  0.00    -0.028 C 
ATOM      8  C   UNL     1      17.753  59.421  21.666  1.00  0.00    -0.070 CG0
ATOM      9  C   UNL     1      19.087  59.891  22.185  1.00  0.00     0.039 C 
ATOM     10  G   UNL     1      16.890  60.394  20.877  1.00  0.00     0.000 G0
ENDBRANCH   6   7
ENDBRANCH   5   6
ENDBRANCH   3   5
ENDBRANCH   1   3
BRANCH   1  11
ATOM     11  C   UNL     1      13.749  59.904  22.729  1.00  0.00     0.087 C 
BRANCH  11  12
ATOM     12  C   UNL     1      14.287  60.646  21.475  1.00  0.00     0.066 C 
BRANCH  12  13
ATOM     13  C   UNL     1      15.749  61.054  21.632  1.00  0.00     0.140 C 
ATOM     14  O   UNL     1      16.026  61.958  22.407  1.00  0.00    -0.299 OA
BRANCH  13  15
ATOM     15  C   UNL     1      16.896  60.403  20.882  1.00  0.00     0.106 CG0
ATOM     16  G   UNL     1      17.731  59.415  21.682  1.00  0.00     0.000 G0
ENDBRANCH  13  15
ENDBRANCH  12  13
BRANCH  12  17
ATOM     17  C   UNL     1      13.411  61.860  21.032  1.00  0.00    -0.006 C 
ATOM     18  C   UNL     1      12.506  61.503  19.841  1.00  0.00     0.008 C 
ATOM     19  C   UNL     1      12.568  62.485  22.157  1.00  0.00     0.008 C 
ENDBRANCH  12  17
ENDBRANCH  11  12
ENDBRANCH   1  11
TORSDOF 1
ENDMDL
MODEL 2
REMARK VINA RESULT:    -3.175     12.651     14.175
REMARK INTER + INTRA:          -5.197
REMARK INTER:                  -4.725
REMARK INTRA:                  -0.472
REMARK UNBOUND:                -0.352
REMARK SMILES CC1=CCC[C@H](C)C(=O)C[C@@H](C(C)C)C(=O)C1
REMARK SMILES IDX 8 1 9 2 6 3 7 4 5 5 4 6 3 7 2 8 1 9 10 11 11 12 15 13 16 14
REMARK SMILES IDX 17 15 12 17 13 18 14 19
REMARK H PARENT
REMARK Flexibility Score: 70.00
ROOT
ATOM      1  C   UNL     1      15.506  55.484  33.934  1.00  0.00     0.136 C 
ATOM      2  O   UNL     1      14.303  55.495  34.154  1.00  0.00    -0.299 OA
ENDROOT
BRANCH   1   3
ATOM      3  C   UNL     1      16.296  56.758  34.182  1.00  0.00     0.053 C 
ATOM      4  C   UNL     1      16.857  56.790  35.610  1.00  0.00     0.016 C 
BRANCH   3   5
ATOM      5  C   UNL     1      17.417  56.972  33.144  1.00  0.00     0.015 C 
BRANCH   5   6
ATOM      6  C   UNL     1      18.829  56.714  33.720  1.00  0.00     0.028 C 
BRANCH   6   7
ATOM      7  C   UNL     1      19.596  55.744  32.851  1.00  0.00    -0.028 C 
ATOM      8  C   UNL     1      19.880  54.458  33.175  1.00  0.00    -0.070 CG0
ATOM      9  C   UNL     1      20.767  53.675  32.242  1.00  0.00     0.039 C 
ATOM     10  G   UNL     1      19.343  53.774  34.423  1.00  0.00     0.000 G0
ENDBRANCH   6   7
ENDBRANCH   5   6
ENDBRANCH   3   5
ENDBRANCH   1   3
BRANCH   1  11
ATOM     11  C   UNL     1      16.134  54.199  33.427  1.00  0.00     0.087 C 
BRANCH  11  12
ATOM     12  C   UNL     1      16.717  53.312  34.562  1.00  0.00     0.066 C 
BRANCH  12  13
ATOM     13  C   UNL     1      18.145  52.865  34.264  1.00  0.00     0.140 C 
ATOM     14  O   UNL     1      18.332  51.726  33.861  1.00  0.00    -0.299 OA
BRANCH  13  15
ATOM     15  C   UNL     1      19.365  53.752  34.435  1.00  0.00     0.106 CG0
ATOM     16  G   UNL     1      19.862  54.441  33.173  1.00  0.00     0.000 G0
ENDBRANCH  13  15
ENDBRANCH  12  13
BRANCH  12  17
ATOM     17  C   UNL     1      15.817  52.095  34.942  1.00  0.00    -0.006 C 
ATOM     18  C   UNL     1      15.372  52.155  36.413  1.00  0.00     0.008 C 
ATOM     19  C   UNL     1      14.589  51.900  34.035  1.00  0.00     0.008 C 
ENDBRANCH  12  17
ENDBRANCH  11  12
ENDBRANCH   1  11
TORSDOF 1
ENDMDL
MODEL 3
REMARK VINA RESULT:    -3.022     12.612     14.508
REMARK INTER + INTRA:          -4.964
REMARK INTER:                  -4.596
REMARK INTRA:                  -0.368
REMARK UNBOUND:                -0.352
REMARK SMILES CC1=CCC[C@H](C)C(=O)C[C@@H](C(C)C)C(=O)C1
REMARK SMILES IDX 8 1 9 2 6 3 7 4 5 5 4 6 3 7 2 8 1 9 10 11 11 12 15 13 16 14
REMARK SMILES IDX 17 15 12 17 13 18 14 19
REMARK H PARENT
REMARK Flexibility Score: 70.00
ROOT
ATOM      1  C   UNL     1      16.890  52.475  35.130  1.00  0.00     0.136 C 
ATOM      2  O   UNL     1      17.389  53.300  35.883  1.00  0.00    -0.299 OA
ENDROOT
BRANCH   1   3
ATOM      3  C   UNL     1      15.448  52.060  35.368  1.00  0.00     0.053 C 
ATOM      4  C   UNL     1      15.228  51.646  36.829  1.00  0.00     0.016 C 
BRANCH   3   5
ATOM      5  C   UNL     1      14.440  53.148  34.944  1.00  0.00     0.015 C 
BRANCH   5   6
ATOM      6  C   UNL     1      13.876  52.924  33.521  1.00  0.00     0.028 C 
BRANCH   6   7
ATOM      7  C   UNL     1      13.777  51.450  33.207  1.00  0.00    -0.028 C 
ATOM      8  C   UNL     1      14.382  50.828  32.165  1.00  0.00    -0.070 CG0
ATOM      9  C   UNL     1      14.067  49.373  31.931  1.00  0.00     0.039 C 
ATOM     10  G   UNL     1      15.361  51.526  31.232  1.00  0.00     0.000 G0
ENDBRANCH   6   7
ENDBRANCH   5   6
ENDBRANCH   3   5
ENDBRANCH   1   3
BRANCH   1  11
ATOM     11  C   UNL     1      17.743  51.918  34.005  1.00  0.00     0.087 C 
BRANCH  11  12
ATOM     12  C   UNL     1      17.419  52.546  32.622  1.00  0.00     0.066 C 
BRANCH  12  13
ATOM     13  C   UNL     1      16.821  51.528  31.655  1.00  0.00     0.140 C 
ATOM     14  O   UNL     1      17.545  50.653  31.201  1.00  0.00    -0.299 OA
BRANCH  13  15
ATOM     15  C   UNL     1      15.368  51.528  31.216  1.00  0.00     0.106 CG0
ATOM     16  G   UNL     1      14.392  50.849  32.165  1.00  0.00     0.000 G0
ENDBRANCH  13  15
ENDBRANCH  12  13
BRANCH  12  17
ATOM     17  C   UNL     1      18.621  53.299  31.969  1.00  0.00    -0.006 C 
ATOM     18  C   UNL     1      18.422  54.823  32.001  1.00  0.00     0.008 C 
ATOM     19  C   UNL     1      19.996  52.942  32.560  1.00  0.00     0.008 C 
ENDBRANCH  12  17
ENDBRANCH  11  12
ENDBRANCH   1  11
TORSDOF 1
ENDMDL
MODEL 4
REMARK VINA RESULT:    -2.965     12.502     13.624
REMARK INTER + INTRA:          -4.877
REMARK INTER:                  -4.555
REMARK INTRA:                  -0.322
REMARK UNBOUND:                -0.352
REMARK SMILES CC1=CCC[C@H](C)C(=O)C[C@@H](C(C)C)C(=O)C1
REMARK SMILES IDX 8 1 9 2 6 3 7 4 5 5 4 6 3 7 2 8 1 9 10 11 11 12 15 13 16 14
REMARK SMILES IDX 17 15 12 17 13 18 14 19
REMARK H PARENT
REMARK Flexibility Score: 70.00
ROOT
ATOM      1  C   UNL     1      15.395  54.206  35.619  1.00  0.00     0.136 C 
ATOM      2  O   UNL     1      14.201  54.215  35.354  1.00  0.00    -0.299 OA
ENDROOT
BRANCH   1   3
ATOM      3  C   UNL     1      15.997  52.933  36.192  1.00  0.00     0.053 C 
ATOM      4  C   UNL     1      14.981  52.187  37.066  1.00  0.00     0.016 C 
BRANCH   3   5
ATOM      5  C   UNL     1      16.573  52.007  35.100  1.00  0.00     0.015 C 
BRANCH   5   6
ATOM      6  C   UNL     1      18.076  52.254  34.832  1.00  0.00     0.028 C 
BRANCH   6   7
ATOM      7  C   UNL     1      18.336  52.440  33.356  1.00  0.00    -0.028 C 
ATOM      8  C   UNL     1      18.486  53.634  32.731  1.00  0.00    -0.070 CG0
ATOM      9  C   UNL     1      18.612  53.634  31.229  1.00  0.00     0.039 C 
ATOM     10  G   UNL     1      18.540  54.962  33.471  1.00  0.00     0.000 G0
ENDBRANCH   6   7
ENDBRANCH   5   6
ENDBRANCH   3   5
ENDBRANCH   1   3
BRANCH   1  11
ATOM     11  C   UNL     1      16.200  55.466  35.360  1.00  0.00     0.087 C 
BRANCH  11  12
ATOM     12  C   UNL     1      16.087  55.975  33.897  1.00  0.00     0.066 C 
BRANCH  12  13
ATOM     13  C   UNL     1      17.432  55.960  33.178  1.00  0.00     0.140 C 
ATOM     14  O   UNL     1      17.637  56.783  32.297  1.00  0.00    -0.299 OA
BRANCH  13  15
ATOM     15  C   UNL     1      18.549  54.980  33.488  1.00  0.00     0.106 CG0
ATOM     16  G   UNL     1      18.485  53.651  32.749  1.00  0.00     0.000 G0
ENDBRANCH  13  15
ENDBRANCH  12  13
BRANCH  12  17
ATOM     17  C   UNL     1      15.396  57.369  33.763  1.00  0.00    -0.006 C 
ATOM     18  C   UNL     1      14.024  57.259  33.076  1.00  0.00     0.008 C 
ATOM     19  C   UNL     1      15.255  58.144  35.085  1.00  0.00     0.008 C 
ENDBRANCH  12  17
ENDBRANCH  11  12
ENDBRANCH   1  11
TORSDOF 1
ENDMDL
MODEL 5
REMARK VINA RESULT:    -2.960      1.738      3.736
REMARK INTER + INTRA:          -4.870
REMARK INTER:                  -4.422
REMARK INTRA:                  -0.448
REMARK UNBOUND:                -0.352
REMARK SMILES CC1=CCC[C@H](C)C(=O)C[C@@H](C(C)C)C(=O)C1
REMARK SMILES IDX 8 1 9 2 6 3 7 4 5 5 4 6 3 7 2 8 1 9 10 11 11 12 15 13 16 14
REMARK SMILES IDX 17 15 12 17 13 18 14 19
REMARK H PARENT
REMARK Flexibility Score: 70.00
ROOT
ATOM      1  C   UNL     1      12.844  60.047  21.070  1.00  0.00     0.136 C 
ATOM      2  O   UNL     1      11.661  59.810  20.871  1.00  0.00    -0.299 OA
ENDROOT
BRANCH   1   3
ATOM      3  C   UNL     1      13.302  61.496  21.055  1.00  0.00     0.053 C 
ATOM      4  C   UNL     1      13.134  62.141  22.437  1.00  0.00     0.016 C 
BRANCH   3   5
ATOM      5  C   UNL     1      14.749  61.655  20.544  1.00  0.00     0.015 C 
BRANCH   5   6
ATOM      6  C   UNL     1      15.768  61.891  21.684  1.00  0.00     0.028 C 
BRANCH   6   7
ATOM      7  C   UNL     1      16.951  60.960  21.550  1.00  0.00    -0.028 C 
ATOM      8  C   UNL     1      17.238  59.934  22.388  1.00  0.00    -0.070 CG0
ATOM      9  C   UNL     1      18.531  59.189  22.175  1.00  0.00     0.039 C 
ATOM     10  G   UNL     1      16.320  59.499  23.521  1.00  0.00     0.000 G0
ENDBRANCH   6   7
ENDBRANCH   5   6
ENDBRANCH   3   5
ENDBRANCH   1   3
BRANCH   1  11
ATOM     11  C   UNL     1      13.781  58.879  21.318  1.00  0.00     0.087 C 
BRANCH  11  12
ATOM     12  C   UNL     1      13.927  58.520  22.822  1.00  0.00     0.066 C 
BRANCH  12  13
ATOM     13  C   UNL     1      15.386  58.341  23.231  1.00  0.00     0.140 C 
ATOM     14  O   UNL     1      15.836  57.208  23.322  1.00  0.00    -0.299 OA
BRANCH  13  15
ATOM     15  C   UNL     1      16.328  59.491  23.534  1.00  0.00     0.106 CG0
ATOM     16  G   UNL     1      17.229  59.926  22.387  1.00  0.00     0.000 G0
ENDBRANCH  13  15
ENDBRANCH  12  13
BRANCH  12  17
ATOM     17  C   UNL     1      13.066  57.295  23.268  1.00  0.00    -0.006 C 
ATOM     18  C   UNL     1      11.832  57.732  24.073  1.00  0.00     0.008 C 
ATOM     19  C   UNL     1      12.637  56.364  22.121  1.00  0.00     0.008 C 
ENDBRANCH  12  17
ENDBRANCH  11  12
ENDBRANCH   1  11
TORSDOF 1
ENDMDL
MODEL 6
REMARK VINA RESULT:    -2.809      8.520     11.005
REMARK INTER + INTRA:          -4.638
REMARK INTER:                  -4.597
REMARK INTRA:                  -0.041
REMARK UNBOUND:                -0.352
REMARK SMILES CC1=CCC[C@H](C)C(=O)C[C@@H](C(C)C)C(=O)C1
REMARK SMILES IDX 8 1 9 2 6 3 7 4 5 5 4 6 3 7 2 8 1 9 10 11 11 12 15 13 16 14
REMARK SMILES IDX 17 15 12 17 13 18 14 19
REMARK H PARENT
REMARK Flexibility Score: 70.00
ROOT
ATOM      1  C   UNL     1      11.989  50.303  20.653  1.00  0.00     0.136 C 
ATOM      2  O   UNL     1      11.859  49.363  19.881  1.00  0.00    -0.299 OA
ENDROOT
BRANCH   1   3
ATOM      3  C   UNL     1      12.517  51.619  20.105  1.00  0.00     0.053 C 
ATOM      4  C   UNL     1      12.134  51.795  18.631  1.00  0.00     0.016 C 
BRANCH   3   5
ATOM      5  C   UNL     1      12.066  52.833  20.943  1.00  0.00     0.015 C 
BRANCH   5   6
ATOM      6  C   UNL     1      10.624  53.288  20.615  1.00  0.00     0.028 C 
BRANCH   6   7
ATOM      7  C   UNL     1       9.934  53.823  21.849  1.00  0.00    -0.028 C 
ATOM      8  C   UNL     1       8.971  53.176  22.550  1.00  0.00    -0.070 CG0
ATOM      9  C   UNL     1       8.303  53.916  23.680  1.00  0.00     0.039 C 
ATOM     10  G   UNL     1       8.542  51.747  22.255  1.00  0.00     0.000 G0
ENDBRANCH   6   7
ENDBRANCH   5   6
ENDBRANCH   3   5
ENDBRANCH   1   3
BRANCH   1  11
ATOM     11  C   UNL     1      11.616  50.096  22.109  1.00  0.00     0.087 C 
BRANCH  11  12
ATOM     12  C   UNL     1      10.158  49.596  22.304  1.00  0.00     0.066 C 
BRANCH  12  13
ATOM     13  C   UNL     1       9.280  50.639  22.988  1.00  0.00     0.140 C 
ATOM     14  O   UNL     1       9.161  50.600  24.204  1.00  0.00    -0.299 OA
BRANCH  13  15
ATOM     15  C   UNL     1       8.537  51.738  22.250  1.00  0.00     0.106 CG0
ATOM     16  G   UNL     1       8.977  53.160  22.567  1.00  0.00     0.000 G0
ENDBRANCH  13  15
ENDBRANCH  12  13
BRANCH  12  17
ATOM     17  C   UNL     1      10.052  48.215  23.024  1.00  0.00    -0.006 C 
ATOM     18  C   UNL     1       8.609  47.684  23.023  1.00  0.00     0.008 C 
ATOM     19  C   UNL     1      11.004  47.135  22.481  1.00  0.00     0.008 C 
ENDBRANCH  12  17
ENDBRANCH  11  12
ENDBRANCH   1  11
TORSDOF 1
ENDMDL
MODEL 7
REMARK VINA RESULT:    -2.728     12.511     14.077
REMARK INTER + INTRA:          -4.515
REMARK INTER:                  -4.393
REMARK INTRA:                  -0.122
REMARK UNBOUND:                -0.352
REMARK SMILES CC1=CCC[C@H](C)C(=O)C[C@@H](C(C)C)C(=O)C1
REMARK SMILES IDX 8 1 9 2 6 3 7 4 5 5 4 6 3 7 2 8 1 9 10 11 11 12 15 13 16 14
REMARK SMILES IDX 17 15 12 17 13 18 14 19
REMARK H PARENT
REMARK Flexibility Score: 70.00
ROOT
ATOM      1  C   UNL     1      14.282  51.712  34.002  1.00  0.00     0.136 C 
ATOM      2  O   UNL     1      13.434  50.838  34.120  1.00  0.00    -0.299 OA
ENDROOT
BRANCH   1   3
ATOM      3  C   UNL     1      14.889  52.303  35.264  1.00  0.00     0.053 C 
ATOM      4  C   UNL     1      15.106  51.222  36.330  1.00  0.00     0.016 C 
BRANCH   3   5
ATOM      5  C   UNL     1      16.195  53.076  34.987  1.00  0.00     0.015 C 
BRANCH   5   6
ATOM      6  C   UNL     1      17.433  52.154  34.894  1.00  0.00     0.028 C 
BRANCH   6   7
ATOM      7  C   UNL     1      18.543  52.820  34.115  1.00  0.00    -0.028 C 
ATOM      8  C   UNL     1      18.964  52.451  32.880  1.00  0.00    -0.070 CG0
ATOM      9  C   UNL     1      20.172  53.148  32.308  1.00  0.00     0.039 C 
ATOM     10  G   UNL     1      18.274  51.380  32.048  1.00  0.00     0.000 G0
ENDBRANCH   6   7
ENDBRANCH   5   6
ENDBRANCH   3   5
ENDBRANCH   1   3
BRANCH   1  11
ATOM     11  C   UNL     1      14.676  52.150  32.604  1.00  0.00     0.087 C 
BRANCH  11  12
ATOM     12  C   UNL     1      15.600  51.132  31.880  1.00  0.00     0.066 C 
BRANCH  12  13
ATOM     13  C   UNL     1      16.923  51.760  31.453  1.00  0.00     0.140 C 
ATOM     14  O   UNL     1      16.911  52.626  30.590  1.00  0.00    -0.299 OA
BRANCH  13  15
ATOM     15  C   UNL     1      18.271  51.379  32.038  1.00  0.00     0.106 CG0
ATOM     16  G   UNL     1      18.949  52.447  32.883  1.00  0.00     0.000 G0
ENDBRANCH  13  15
ENDBRANCH  12  13
BRANCH  12  17
ATOM     17  C   UNL     1      14.918  50.395  30.684  1.00  0.00    -0.006 C 
ATOM     18  C   UNL     1      14.716  48.900  30.978  1.00  0.00     0.008 C 
ATOM     19  C   UNL     1      13.589  51.019  30.223  1.00  0.00     0.008 C 
ENDBRANCH  12  17
ENDBRANCH  11  12
ENDBRANCH   1  11
TORSDOF 1
ENDMDL
MODEL 8
REMARK VINA RESULT:    -2.667     12.628     14.231
REMARK INTER + INTRA:          -4.421
REMARK INTER:                  -4.262
REMARK INTRA:                  -0.160
REMARK UNBOUND:                -0.352
REMARK SMILES CC1=CCC[C@H](C)C(=O)C[C@@H](C(C)C)C(=O)C1
REMARK SMILES IDX 8 1 9 2 6 3 7 4 5 5 4 6 3 7 2 8 1 9 10 11 11 12 15 13 16 14
REMARK SMILES IDX 17 15 12 17 13 18 14 19
REMARK H PARENT
REMARK Flexibility Score: 70.00
ROOT
ATOM      1  C   UNL     1      16.862  52.154  34.477  1.00  0.00     0.136 C 
ATOM      2  O   UNL     1      17.757  51.557  35.059  1.00  0.00    -0.299 OA
ENDROOT
BRANCH   1   3
ATOM      3  C   UNL     1      15.464  52.119  35.073  1.00  0.00     0.053 C 
ATOM      4  C   UNL     1      15.519  51.990  36.601  1.00  0.00     0.016 C 
BRANCH   3   5
ATOM      5  C   UNL     1      14.610  53.332  34.652  1.00  0.00     0.015 C 
BRANCH   5   6
ATOM      6  C   UNL     1      14.837  54.570  35.550  1.00  0.00     0.028 C 
BRANCH   6   7
ATOM      7  C   UNL     1      14.737  55.845  34.745  1.00  0.00    -0.028 C 
ATOM      8  C   UNL     1      15.790  56.579  34.307  1.00  0.00    -0.070 CG0
ATOM      9  C   UNL     1      15.500  57.893  33.628  1.00  0.00     0.039 C 
ATOM     10  G   UNL     1      17.237  56.138  34.462  1.00  0.00     0.000 G0
ENDBRANCH   6   7
ENDBRANCH   5   6
ENDBRANCH   3   5
ENDBRANCH   1   3
BRANCH   1  11
ATOM     11  C   UNL     1      17.204  52.893  33.196  1.00  0.00     0.087 C 
BRANCH  11  12
ATOM     12  C   UNL     1      18.340  53.936  33.375  1.00  0.00     0.066 C 
BRANCH  12  13
ATOM     13  C   UNL     1      17.825  55.369  33.281  1.00  0.00     0.140 C 
ATOM     14  O   UNL     1      17.867  55.939  32.200  1.00  0.00    -0.299 OA
BRANCH  13  15
ATOM     15  C   UNL     1      17.253  56.143  34.455  1.00  0.00     0.106 CG0
ATOM     16  G   UNL     1      15.804  56.584  34.311  1.00  0.00     0.000 G0
ENDBRANCH  13  15
ENDBRANCH  12  13
BRANCH  12  17
ATOM     17  C   UNL     1      19.559  53.716  32.424  1.00  0.00    -0.006 C 
ATOM     18  C   UNL     1      20.894  53.960  33.146  1.00  0.00     0.008 C 
ATOM     19  C   UNL     1      19.587  52.344  31.727  1.00  0.00     0.008 C 
ENDBRANCH  12  17
ENDBRANCH  11  12
ENDBRANCH   1  11
TORSDOF 1
ENDMDL
MODEL 9
REMARK VINA RESULT:    -2.607      3.204      5.018
REMARK INTER + INTRA:          -4.330
REMARK INTER:                  -3.923
REMARK INTRA:                  -0.407
REMARK UNBOUND:                -0.352
REMARK SMILES CC1=CCC[C@H](C)C(=O)C[C@@H](C(C)C)C(=O)C1
REMARK SMILES IDX 8 1 9 2 6 3 7 4 5 5 4 6 3 7 2 8 1 9 10 11 11 12 15 13 16 14
REMARK SMILES IDX 17 15 12 17 13 18 14 19
REMARK H PARENT
REMARK Flexibility Score: 70.00
ROOT
ATOM      1  C   UNL     1      13.563  61.566  21.978  1.00  0.00     0.136 C 
ATOM      2  O   UNL     1      13.257  61.009  20.933  1.00  0.00    -0.299 OA
ENDROOT
BRANCH   1   3
ATOM      3  C   UNL     1      12.481  61.789  23.021  1.00  0.00     0.053 C 
ATOM      4  C   UNL     1      12.416  60.615  24.007  1.00  0.00     0.016 C 
BRANCH   3   5
ATOM      5  C   UNL     1      12.643  63.129  23.767  1.00  0.00     0.015 C 
BRANCH   5   6
ATOM      6  C   UNL     1      13.231  62.960  25.188  1.00  0.00     0.028 C 
BRANCH   6   7
ATOM      7  C   UNL     1      14.358  63.939  25.424  1.00  0.00    -0.028 C 
ATOM      8  C   UNL     1      15.659  63.605  25.607  1.00  0.00    -0.070 CG0
ATOM      9  C   UNL     1      16.627  64.705  25.959  1.00  0.00     0.039 C 
ATOM     10  G   UNL     1      16.184  62.184  25.468  1.00  0.00     0.000 G0
ENDBRANCH   6   7
ENDBRANCH   5   6
ENDBRANCH   3   5
ENDBRANCH   1   3
BRANCH   1  11
ATOM     11  C   UNL     1      15.005  62.000  22.167  1.00  0.00     0.087 C 
BRANCH  11  12
ATOM     12  C   UNL     1      15.821  61.037  23.072  1.00  0.00     0.066 C 
BRANCH  12  13
ATOM     13  C   UNL     1      16.674  61.790  24.089  1.00  0.00     0.140 C 
ATOM     14  O   UNL     1      17.817  62.098  23.784  1.00  0.00    -0.299 OA
BRANCH  13  15
ATOM     15  C   UNL     1      16.190  62.189  25.471  1.00  0.00     0.106 CG0
ATOM     16  G   UNL     1      15.664  63.611  25.601  1.00  0.00     0.000 G0
ENDBRANCH  13  15
ENDBRANCH  12  13
BRANCH  12  17
ATOM     17  C   UNL     1      16.678  59.998  22.283  1.00  0.00    -0.006 C 
ATOM     18  C   UNL     1      16.169  58.563  22.496  1.00  0.00     0.008 C 
ATOM     19  C   UNL     1      16.806  60.286  20.777  1.00  0.00     0.008 C 
ENDBRANCH  12  17
ENDBRANCH  11  12
ENDBRANCH   1  11
TORSDOF 1
ENDMDL
