MODEL 1
REMARK VINA RESULT:    -5.823      0.000      0.000
REMARK INTER + INTRA:          -9.316
REMARK INTER:                  -7.866
REMARK INTRA:                  -1.450
REMARK UNBOUND:                -1.450
REMARK SMILES CC(=O)CCC=C(C)CCC=C(C)C
REMARK SMILES IDX 7 1 6 2 8 3 9 4 10 5 11 6 13 7 12 8 14 9 5 10 4 11 2 12 3 13
REMARK SMILES IDX 1 14
REMARK H PARENT
REMARK Flexibility Score: inf
ROOT
ATOM      1  C   UNL     1      -8.347  34.477  22.656  1.00  0.00    -0.077 C 
ATOM      2  C   UNL     1      -8.469  34.301  23.993  1.00  0.00    -0.028 C 
ATOM      3  C   UNL     1      -7.511  35.635  22.170  1.00  0.00     0.039 C 
ENDROOT
BRANCH   1   4
ATOM      4  C   UNL     1      -8.997  33.566  21.628  1.00  0.00     0.034 C 
BRANCH   4   5
ATOM      5  C   UNL     1      -8.067  32.431  21.175  1.00  0.00     0.032 C 
BRANCH   5   6
ATOM      6  C   UNL     1      -8.521  31.088  21.697  1.00  0.00    -0.028 C 
ATOM      7  C   UNL     1      -6.601  30.863  23.290  1.00  0.00     0.039 C 
ATOM      8  C   UNL     1      -7.858  30.359  22.622  1.00  0.00    -0.080 C 
ATOM      9  C   UNL     1      -8.412  29.011  23.003  1.00  0.00     0.039 C 
ENDBRANCH   5   6
ENDBRANCH   4   5
ENDBRANCH   1   4
BRANCH   2  10
ATOM     10  C   UNL     1      -9.277  33.220  24.674  1.00  0.00     0.035 C 
BRANCH  10  11
ATOM     11  C   UNL     1      -8.585  32.728  25.951  1.00  0.00     0.079 C 
BRANCH  11  12
ATOM     12  C   UNL     1      -8.807  31.256  26.180  1.00  0.00     0.130 C 
ATOM     13  O   UNL     1      -9.850  30.737  25.811  1.00  0.00    -0.300 OA
ATOM     14  C   UNL     1      -7.782  30.420  26.886  1.00  0.00     0.087 C 
ENDBRANCH  11  12
ENDBRANCH  10  11
ENDBRANCH   2  10
TORSDOF 6
ENDMDL
MODEL 2
REMARK VINA RESULT:    -5.799      2.036      2.877
REMARK INTER + INTRA:          -9.283
REMARK INTER:                  -8.129
REMARK INTRA:                  -1.154
REMARK UNBOUND:                -1.450
REMARK SMILES CC(=O)CCC=C(C)CCC=C(C)C
REMARK SMILES IDX 7 1 6 2 8 3 9 4 10 5 11 6 13 7 12 8 14 9 5 10 4 11 2 12 3 13
REMARK SMILES IDX 1 14
REMARK H PARENT
REMARK Flexibility Score: inf
ROOT
ATOM      1  C   UNL     1      -7.904  34.102  21.248  1.00  0.00    -0.077 C 
ATOM      2  C   UNL     1      -7.490  35.138  22.016  1.00  0.00    -0.028 C 
ATOM      3  C   UNL     1      -7.117  33.791  19.999  1.00  0.00     0.039 C 
ENDROOT
BRANCH   1   4
ATOM      4  C   UNL     1      -9.106  33.236  21.586  1.00  0.00     0.034 C 
BRANCH   4   5
ATOM      5  C   UNL     1      -8.713  31.796  21.948  1.00  0.00     0.032 C 
BRANCH   5   6
ATOM      6  C   UNL     1      -8.712  31.571  23.442  1.00  0.00    -0.028 C 
ATOM      7  C   UNL     1      -6.356  30.721  23.488  1.00  0.00     0.039 C 
ATOM      8  C   UNL     1      -7.674  31.061  24.142  1.00  0.00    -0.080 C 
ATOM      9  C   UNL     1      -7.845  30.848  25.623  1.00  0.00     0.039 C 
ENDBRANCH   5   6
ENDBRANCH   4   5
ENDBRANCH   1   4
BRANCH   2  10
ATOM     10  C   UNL     1      -8.154  35.619  23.286  1.00  0.00     0.035 C 
BRANCH  10  11
ATOM     11  C   UNL     1      -7.557  34.932  24.520  1.00  0.00     0.079 C 
BRANCH  11  12
ATOM     12  C   UNL     1      -8.313  35.277  25.776  1.00  0.00     0.130 C 
ATOM     13  O   UNL     1      -8.959  36.313  25.828  1.00  0.00    -0.300 OA
ATOM     14  C   UNL     1      -8.257  34.385  26.981  1.00  0.00     0.087 C 
ENDBRANCH  11  12
ENDBRANCH  10  11
ENDBRANCH   2  10
TORSDOF 6
ENDMDL
MODEL 3
REMARK VINA RESULT:    -5.756      1.493      2.991
REMARK INTER + INTRA:          -9.225
REMARK INTER:                  -7.814
REMARK INTRA:                  -1.411
REMARK UNBOUND:                -1.450
REMARK SMILES CC(=O)CCC=C(C)CCC=C(C)C
REMARK SMILES IDX 7 1 6 2 8 3 9 4 10 5 11 6 13 7 12 8 14 9 5 10 4 11 2 12 3 13
REMARK SMILES IDX 1 14
REMARK H PARENT
REMARK Flexibility Score: inf
ROOT
ATOM      1  C   UNL     1      -8.305  34.981  24.968  1.00  0.00    -0.077 C 
ATOM      2  C   UNL     1      -8.636  33.906  25.722  1.00  0.00    -0.028 C 
ATOM      3  C   UNL     1      -9.004  36.286  25.255  1.00  0.00     0.039 C 
ENDROOT
BRANCH   1   4
ATOM      4  C   UNL     1      -7.263  34.940  23.862  1.00  0.00     0.034 C 
BRANCH   4   5
ATOM      5  C   UNL     1      -7.870  35.168  22.470  1.00  0.00     0.032 C 
BRANCH   5   6
ATOM      6  C   UNL     1      -8.675  33.978  22.004  1.00  0.00    -0.028 C 
ATOM      7  C   UNL     1      -7.059  33.376  20.187  1.00  0.00     0.039 C 
ATOM      8  C   UNL     1      -8.341  33.184  20.963  1.00  0.00    -0.080 C 
ATOM      9  C   UNL     1      -9.275  32.064  20.587  1.00  0.00     0.039 C 
ENDBRANCH   5   6
ENDBRANCH   4   5
ENDBRANCH   1   4
BRANCH   2  10
ATOM     10  C   UNL     1      -8.069  32.512  25.574  1.00  0.00     0.035 C 
BRANCH  10  11
ATOM     11  C   UNL     1      -8.941  31.651  24.652  1.00  0.00     0.079 C 
BRANCH  11  12
ATOM     12  C   UNL     1      -8.115  30.707  23.818  1.00  0.00     0.130 C 
ATOM     13  O   UNL     1      -8.598  29.647  23.448  1.00  0.00    -0.300 OA
ATOM     14  C   UNL     1      -6.694  31.029  23.464  1.00  0.00     0.087 C 
ENDBRANCH  11  12
ENDBRANCH  10  11
ENDBRANCH   2  10
TORSDOF 6
ENDMDL
MODEL 4
REMARK VINA RESULT:    -5.591      2.078      4.080
REMARK INTER + INTRA:          -9.002
REMARK INTER:                  -7.679
REMARK INTRA:                  -1.324
REMARK UNBOUND:                -1.450
REMARK SMILES CC(=O)CCC=C(C)CCC=C(C)C
REMARK SMILES IDX 7 1 6 2 8 3 9 4 10 5 11 6 13 7 12 8 14 9 5 10 4 11 2 12 3 13
REMARK SMILES IDX 1 14
REMARK H PARENT
REMARK Flexibility Score: inf
ROOT
ATOM      1  C   UNL     1      -8.694  33.463  25.914  1.00  0.00    -0.077 C 
ATOM      2  C   UNL     1      -8.534  34.140  24.753  1.00  0.00    -0.028 C 
ATOM      3  C   UNL     1      -8.223  34.123  27.187  1.00  0.00     0.039 C 
ENDROOT
BRANCH   1   4
ATOM      4  C   UNL     1      -9.331  32.086  26.001  1.00  0.00     0.034 C 
BRANCH   4   5
ATOM      5  C   UNL     1      -8.306  30.951  25.860  1.00  0.00     0.032 C 
BRANCH   5   6
ATOM      6  C   UNL     1      -8.632  30.036  24.703  1.00  0.00    -0.028 C 
ATOM      7  C   UNL     1      -6.575  30.646  23.412  1.00  0.00     0.039 C 
ATOM      8  C   UNL     1      -7.883  29.911  23.586  1.00  0.00    -0.080 C 
ATOM      9  C   UNL     1      -8.370  28.993  22.496  1.00  0.00     0.039 C 
ENDBRANCH   5   6
ENDBRANCH   4   5
ENDBRANCH   1   4
BRANCH   2  10
ATOM     10  C   UNL     1      -8.918  33.642  23.378  1.00  0.00     0.035 C 
BRANCH  10  11
ATOM     11  C   UNL     1      -7.900  34.087  22.321  1.00  0.00     0.079 C 
BRANCH  11  12
ATOM     12  C   UNL     1      -7.979  33.245  21.074  1.00  0.00     0.130 C 
ATOM     13  O   UNL     1      -7.126  33.367  20.207  1.00  0.00    -0.300 OA
ATOM     14  C   UNL     1      -9.108  32.282  20.863  1.00  0.00     0.087 C 
ENDBRANCH  11  12
ENDBRANCH  10  11
ENDBRANCH   2  10
TORSDOF 6
ENDMDL
MODEL 5
REMARK VINA RESULT:    -5.554      1.764      3.985
REMARK INTER + INTRA:          -8.952
REMARK INTER:                  -7.978
REMARK INTRA:                  -0.974
REMARK UNBOUND:                -1.450
REMARK SMILES CC(=O)CCC=C(C)CCC=C(C)C
REMARK SMILES IDX 7 1 6 2 8 3 9 4 10 5 11 6 13 7 12 8 14 9 5 10 4 11 2 12 3 13
REMARK SMILES IDX 1 14
REMARK H PARENT
REMARK Flexibility Score: inf
ROOT
ATOM      1  C   UNL     1      -7.743  33.611  20.900  1.00  0.00    -0.077 C 
ATOM      2  C   UNL     1      -7.937  32.277  21.018  1.00  0.00    -0.028 C 
ATOM      3  C   UNL     1      -6.813  34.096  19.815  1.00  0.00     0.039 C 
ENDROOT
BRANCH   1   4
ATOM      4  C   UNL     1      -8.420  34.639  21.792  1.00  0.00     0.034 C 
BRANCH   4   5
ATOM      5  C   UNL     1      -7.487  35.173  22.889  1.00  0.00     0.032 C 
BRANCH   5   6
ATOM      6  C   UNL     1      -7.694  34.457  24.203  1.00  0.00    -0.028 C 
ATOM      7  C   UNL     1      -8.951  36.357  25.242  1.00  0.00     0.039 C 
ATOM      8  C   UNL     1      -8.321  34.985  25.277  1.00  0.00    -0.080 C 
ATOM      9  C   UNL     1      -8.402  34.163  26.536  1.00  0.00     0.039 C 
ENDBRANCH   5   6
ENDBRANCH   4   5
ENDBRANCH   1   4
BRANCH   2  10
ATOM     10  C   UNL     1      -8.808  31.597  22.050  1.00  0.00     0.035 C 
BRANCH  10  11
ATOM     11  C   UNL     1      -8.155  30.308  22.566  1.00  0.00     0.079 C 
BRANCH  11  12
ATOM     12  C   UNL     1      -7.261  30.566  23.750  1.00  0.00     0.130 C 
ATOM     13  O   UNL     1      -6.048  30.587  23.599  1.00  0.00    -0.300 OA
ATOM     14  C   UNL     1      -7.834  30.763  25.122  1.00  0.00     0.087 C 
ENDBRANCH  11  12
ENDBRANCH  10  11
ENDBRANCH   2  10
TORSDOF 6
ENDMDL
MODEL 6
REMARK VINA RESULT:    -5.554      1.137      3.227
REMARK INTER + INTRA:          -8.952
REMARK INTER:                  -7.394
REMARK INTRA:                  -1.558
REMARK UNBOUND:                -1.450
REMARK SMILES CC(=O)CCC=C(C)CCC=C(C)C
REMARK SMILES IDX 7 1 6 2 8 3 9 4 10 5 11 6 13 7 12 8 14 9 5 10 4 11 2 12 3 13
REMARK SMILES IDX 1 14
REMARK H PARENT
REMARK Flexibility Score: inf
ROOT
ATOM      1  C   UNL     1      -7.972  32.331  21.412  1.00  0.00    -0.077 C 
ATOM      2  C   UNL     1      -7.121  31.480  22.032  1.00  0.00    -0.028 C 
ATOM      3  C   UNL     1      -7.383  33.383  20.505  1.00  0.00     0.039 C 
ENDROOT
BRANCH   1   4
ATOM      4  C   UNL     1      -9.483  32.273  21.574  1.00  0.00     0.034 C 
BRANCH   4   5
ATOM      5  C   UNL     1     -10.040  33.476  22.349  1.00  0.00     0.032 C 
BRANCH   5   6
ATOM      6  C   UNL     1      -9.700  33.407  23.819  1.00  0.00    -0.028 C 
ATOM      7  C   UNL     1      -8.012  35.252  23.694  1.00  0.00     0.039 C 
ATOM      8  C   UNL     1      -8.772  34.174  24.431  1.00  0.00    -0.080 C 
ATOM      9  C   UNL     1      -8.510  33.950  25.896  1.00  0.00     0.039 C 
ENDBRANCH   5   6
ENDBRANCH   4   5
ENDBRANCH   1   4
BRANCH   2  10
ATOM     10  C   UNL     1      -7.513  30.379  22.991  1.00  0.00     0.035 C 
BRANCH  10  11
ATOM     11  C   UNL     1      -7.113  30.728  24.430  1.00  0.00     0.079 C 
BRANCH  11  12
ATOM     12  C   UNL     1      -8.191  30.363  25.417  1.00  0.00     0.130 C 
ATOM     13  O   UNL     1      -9.311  30.086  25.014  1.00  0.00    -0.300 OA
ATOM     14  C   UNL     1      -7.922  30.369  26.892  1.00  0.00     0.087 C 
ENDBRANCH  11  12
ENDBRANCH  10  11
ENDBRANCH   2  10
TORSDOF 6
ENDMDL
MODEL 7
REMARK VINA RESULT:    -5.455      2.269      5.209
REMARK INTER + INTRA:          -8.819
REMARK INTER:                  -7.916
REMARK INTRA:                  -0.903
REMARK UNBOUND:                -1.450
REMARK SMILES CC(=O)CCC=C(C)CCC=C(C)C
REMARK SMILES IDX 7 1 6 2 8 3 9 4 10 5 11 6 13 7 12 8 14 9 5 10 4 11 2 12 3 13
REMARK SMILES IDX 1 14
REMARK H PARENT
REMARK Flexibility Score: inf
ROOT
ATOM      1  C   UNL     1      -7.583  31.055  23.224  1.00  0.00    -0.077 C 
ATOM      2  C   UNL     1      -7.547  31.576  21.975  1.00  0.00    -0.028 C 
ATOM      3  C   UNL     1      -6.302  30.501  23.795  1.00  0.00     0.039 C 
ENDROOT
BRANCH   1   4
ATOM      4  C   UNL     1      -8.840  31.012  24.078  1.00  0.00     0.034 C 
BRANCH   4   5
ATOM      5  C   UNL     1      -8.672  31.750  25.414  1.00  0.00     0.032 C 
BRANCH   5   6
ATOM      6  C   UNL     1      -8.574  33.245  25.225  1.00  0.00    -0.028 C 
ATOM      7  C   UNL     1      -8.149  33.701  27.650  1.00  0.00     0.039 C 
ATOM      8  C   UNL     1      -8.371  34.135  26.221  1.00  0.00    -0.080 C 
ATOM      9  C   UNL     1      -8.350  35.601  25.878  1.00  0.00     0.039 C 
ENDBRANCH   5   6
ENDBRANCH   4   5
ENDBRANCH   1   4
BRANCH   2  10
ATOM     10  C   UNL     1      -8.723  32.156  21.223  1.00  0.00     0.035 C 
BRANCH  10  11
ATOM     11  C   UNL     1      -8.985  33.610  21.635  1.00  0.00     0.079 C 
BRANCH  11  12
ATOM     12  C   UNL     1      -7.818  34.505  21.312  1.00  0.00     0.130 C 
ATOM     13  O   UNL     1      -7.157  34.297  20.305  1.00  0.00    -0.300 OA
ATOM     14  C   UNL     1      -7.429  35.628  22.226  1.00  0.00     0.087 C 
ENDBRANCH  11  12
ENDBRANCH  10  11
ENDBRANCH   2  10
TORSDOF 6
ENDMDL
MODEL 8
REMARK VINA RESULT:    -5.413      1.391      3.678
REMARK INTER + INTRA:          -8.761
REMARK INTER:                  -7.636
REMARK INTRA:                  -1.125
REMARK UNBOUND:                -1.450
REMARK SMILES CC(=O)CCC=C(C)CCC=C(C)C
REMARK SMILES IDX 7 1 6 2 8 3 9 4 10 5 11 6 13 7 12 8 14 9 5 10 4 11 2 12 3 13
REMARK SMILES IDX 1 14
REMARK H PARENT
REMARK Flexibility Score: inf
ROOT
ATOM      1  C   UNL     1      -7.576  30.621  23.769  1.00  0.00    -0.077 C 
ATOM      2  C   UNL     1      -7.860  30.733  25.088  1.00  0.00    -0.028 C 
ATOM      3  C   UNL     1      -6.124  30.585  23.360  1.00  0.00     0.039 C 
ENDROOT
BRANCH   1   4
ATOM      4  C   UNL     1      -8.640  30.517  22.688  1.00  0.00     0.034 C 
BRANCH   4   5
ATOM      5  C   UNL     1      -8.442  31.547  21.565  1.00  0.00     0.032 C 
BRANCH   5   6
ATOM      6  C   UNL     1      -8.426  32.962  22.093  1.00  0.00    -0.028 C 
ATOM      7  C   UNL     1      -7.093  33.851  20.169  1.00  0.00     0.039 C 
ATOM      8  C   UNL     1      -7.800  33.999  21.495  1.00  0.00    -0.080 C 
ATOM      9  C   UNL     1      -7.832  35.343  22.174  1.00  0.00     0.039 C 
ENDBRANCH   5   6
ENDBRANCH   4   5
ENDBRANCH   1   4
BRANCH   2  10
ATOM     10  C   UNL     1      -9.244  30.808  25.692  1.00  0.00     0.035 C 
BRANCH  10  11
ATOM     11  C   UNL     1      -9.792  32.240  25.651  1.00  0.00     0.079 C 
BRANCH  11  12
ATOM     12  C   UNL     1      -8.912  33.201  26.408  1.00  0.00     0.130 C 
ATOM     13  O   UNL     1      -8.701  33.018  27.598  1.00  0.00    -0.300 OA
ATOM     14  C   UNL     1      -8.318  34.400  25.733  1.00  0.00     0.087 C 
ENDBRANCH  11  12
ENDBRANCH  10  11
ENDBRANCH   2  10
TORSDOF 6
ENDMDL
MODEL 9
REMARK VINA RESULT:    -5.323      1.986      4.283
REMARK INTER + INTRA:          -8.640
REMARK INTER:                  -7.471
REMARK INTRA:                  -1.169
REMARK UNBOUND:                -1.450
REMARK SMILES CC(=O)CCC=C(C)CCC=C(C)C
REMARK SMILES IDX 7 1 6 2 8 3 9 4 10 5 11 6 13 7 12 8 14 9 5 10 4 11 2 12 3 13
REMARK SMILES IDX 1 14
REMARK H PARENT
REMARK Flexibility Score: inf
ROOT
ATOM      1  C   UNL     1      -8.670  30.496  25.010  1.00  0.00    -0.077 C 
ATOM      2  C   UNL     1      -9.221  31.577  25.610  1.00  0.00    -0.028 C 
ATOM      3  C   UNL     1      -9.428  29.193  25.068  1.00  0.00     0.039 C 
ENDROOT
BRANCH   1   4
ATOM      4  C   UNL     1      -7.339  30.532  24.276  1.00  0.00     0.034 C 
BRANCH   4   5
ATOM      5  C   UNL     1      -7.505  30.483  22.750  1.00  0.00     0.032 C 
BRANCH   5   6
ATOM      6  C   UNL     1      -7.177  31.809  22.104  1.00  0.00    -0.028 C 
ATOM      7  C   UNL     1      -9.396  31.997  20.957  1.00  0.00     0.039 C 
ATOM      8  C   UNL     1      -8.001  32.484  21.274  1.00  0.00    -0.080 C 
ATOM      9  C   UNL     1      -7.509  33.771  20.666  1.00  0.00     0.039 C 
ENDBRANCH   5   6
ENDBRANCH   4   5
ENDBRANCH   1   4
BRANCH   2  10
ATOM     10  C   UNL     1      -8.609  32.958  25.682  1.00  0.00     0.035 C 
BRANCH  10  11
ATOM     11  C   UNL     1      -9.097  33.843  24.528  1.00  0.00     0.079 C 
BRANCH  11  12
ATOM     12  C   UNL     1      -8.359  35.154  24.474  1.00  0.00     0.130 C 
ATOM     13  O   UNL     1      -7.298  35.227  23.871  1.00  0.00    -0.300 OA
ATOM     14  C   UNL     1      -8.887  36.368  25.179  1.00  0.00     0.087 C 
ENDBRANCH  11  12
ENDBRANCH  10  11
ENDBRANCH   2  10
TORSDOF 6
ENDMDL
