MODEL 1
REMARK VINA RESULT:    -1.262      0.000      0.000
REMARK INTER + INTRA:          -0.758
REMARK INTER:                  -1.446
REMARK INTRA:                   0.688
REMARK UNBOUND:                 0.688
REMARK SMILES C=C(C)[C@H]1CC[C@@]2(C(=O)[O-])CC[C@]3(C)[C@@H](CC[C@H]4[C@@]5(C)CC[C@H](O)C(C)(C)[C@@H]5CC[C@@]43C)[C@@H]12
REMARK SMILES IDX 7 1 6 2 33 3 11 4 5 5 15 6 4 7 12 8 16 9 13 10 17 11 31 12
REMARK SMILES IDX 14 13 18 14 30 15 32 16 19 17 29 18 21 19 20 20 28 21 22 22
REMARK SMILES IDX 25 23 23 24 26 25 27 26 8 27 9 28 10 29 2 30 3 31 1 32 24 33
REMARK H PARENT 24 34
REMARK Flexibility Score: inf
ROOT
ATOM      1  C   UNL     1      91.815 111.430 106.730  1.00  0.00     0.014 C 
ATOM      2  C   UNL     1      90.961 112.411 105.875  1.00  0.00     0.014 C 
ATOM      3  C   UNL     1      92.001 112.137 108.113  1.00  0.00     0.012 C 
ATOM      4  C   UNL     1      93.161 111.151 105.999  1.00  0.00     0.014 C 
ATOM      5  C   UNL     1      90.837 113.707 106.666  1.00  0.00     0.009 C 
ATOM      6  C   UNL     1      93.492 112.489 108.477  1.00  0.00     0.000 C 
ATOM      7  C   UNL     1      90.958 113.282 108.121  1.00  0.00     0.018 C 
ATOM      8  C   UNL     1      94.265 110.569 106.894  1.00  0.00     0.008 C 
ATOM      9  C   UNL     1      94.040 113.759 107.767  1.00  0.00     0.005 C 
ATOM     10  C   UNL     1      94.428 111.214 108.333  1.00  0.00    -0.024 C 
ATOM     11  C   UNL     1      95.511 114.047 108.066  1.00  0.00     0.005 C 
ATOM     12  C   UNL     1      95.970 111.579 108.657  1.00  0.00    -0.024 C 
ATOM     13  C   UNL     1      93.939 110.140 109.361  1.00  0.00     0.012 C 
ATOM     14  C   UNL     1      96.399 112.822 107.774  1.00  0.00     0.002 C 
ATOM     15  C   UNL     1      96.907 110.327 108.364  1.00  0.00     0.008 C 
ATOM     16  C   UNL     1      96.116 111.940 110.180  1.00  0.00     0.012 C 
ATOM     17  C   UNL     1      97.963 113.169 107.646  1.00  0.00    -0.026 C 
ATOM     18  C   UNL     1      98.194 110.629 107.573  1.00  0.00     0.005 C 
ATOM     19  C   UNL     1      98.412 114.377 108.527  1.00  0.00     0.010 C 
ATOM     20  C   UNL     1      98.190 113.554 106.144  1.00  0.00     0.012 C 
ATOM     21  C   UNL     1      98.819 111.933 108.101  1.00  0.00     0.003 C 
ATOM     22  C   UNL     1      99.938 114.629 108.490  1.00  0.00     0.033 C 
ATOM     23  C   UNL     1     100.387 112.085 108.026  1.00  0.00    -0.006 C 
ATOM     24  C   UNL     1     100.774 113.375 108.833  1.00  0.00     0.120 C 
ATOM     25  C   UNL     1     100.933 112.105 106.574  1.00  0.00     0.014 C 
ATOM     26  C   UNL     1     101.065 110.882 108.748  1.00  0.00     0.014 C 
ENDROOT
BRANCH   1  27
ATOM     27  C   UNL     1      91.030 110.133 106.925  1.00  0.00     0.048 C 
ATOM     28  O   UNL     1      90.017 110.081 107.674  1.00  0.00    -0.550 OA
ATOM     29  O   UNL     1      91.432 108.977 106.265  1.00  0.00    -0.550 OA
ENDBRANCH   1  27
BRANCH   7  30
ATOM     30  C   UNL     1      91.146 114.399 109.145  1.00  0.00    -0.077 C 
ATOM     31  C   UNL     1      92.276 114.359 110.149  1.00  0.00     0.039 C 
ATOM     32  C   UNL     1      90.425 115.526 109.022  1.00  0.00     0.008 C 
ENDBRANCH   7  30
BRANCH  24  33
ATOM     33  O   UNL     1     102.152 113.654 108.746  1.00  0.00    -0.393 OA
ATOM     34  H   UNL     1     102.260 114.609 108.502  1.00  0.00     0.210 HD
ENDBRANCH  24  33
TORSDOF 3
ENDMDL
MODEL 2
REMARK VINA RESULT:    -0.309      1.943      7.832
REMARK INTER + INTRA:           0.335
REMARK INTER:                   0.217
REMARK INTRA:                   0.117
REMARK UNBOUND:                 0.688
REMARK SMILES C=C(C)[C@H]1CC[C@@]2(C(=O)[O-])CC[C@]3(C)[C@@H](CC[C@H]4[C@@]5(C)CC[C@H](O)C(C)(C)[C@@H]5CC[C@@]43C)[C@@H]12
REMARK SMILES IDX 7 1 6 2 33 3 11 4 5 5 15 6 4 7 12 8 16 9 13 10 17 11 31 12
REMARK SMILES IDX 14 13 18 14 30 15 32 16 19 17 29 18 21 19 20 20 28 21 22 22
REMARK SMILES IDX 25 23 23 24 26 25 27 26 8 27 9 28 10 29 2 30 3 31 1 32 24 33
REMARK H PARENT 24 34
REMARK Flexibility Score: inf
ROOT
ATOM      1  C   UNL     1      98.633 110.983 107.432  1.00  0.00     0.014 C 
ATOM      2  C   UNL     1      99.130 110.408 106.074  1.00  0.00     0.014 C 
ATOM      3  C   UNL     1      97.800 109.834 108.090  1.00  0.00     0.012 C 
ATOM      4  C   UNL     1      97.800 112.271 107.168  1.00  0.00     0.014 C 
ATOM      5  C   UNL     1      98.442 109.063 105.875  1.00  0.00     0.009 C 
ATOM      6  C   UNL     1      96.276 110.167 108.304  1.00  0.00     0.000 C 
ATOM      7  C   UNL     1      98.163 108.563 107.284  1.00  0.00     0.018 C 
ATOM      8  C   UNL     1      96.898 112.697 108.337  1.00  0.00     0.008 C 
ATOM      9  C   UNL     1      95.408 110.044 107.019  1.00  0.00     0.005 C 
ATOM     10  C   UNL     1      96.097 111.545 109.074  1.00  0.00    -0.024 C 
ATOM     11  C   UNL     1      93.948 110.444 107.220  1.00  0.00     0.005 C 
ATOM     12  C   UNL     1      94.534 111.918 109.254  1.00  0.00    -0.024 C 
ATOM     13  C   UNL     1      96.744 111.390 110.492  1.00  0.00     0.012 C 
ATOM     14  C   UNL     1      93.825 111.850 107.840  1.00  0.00     0.002 C 
ATOM     15  C   UNL     1      94.382 113.366 109.894  1.00  0.00     0.008 C 
ATOM     16  C   UNL     1      93.857 110.889 110.232  1.00  0.00     0.012 C 
ATOM     17  C   UNL     1      92.366 112.505 107.681  1.00  0.00    -0.026 C 
ATOM     18  C   UNL     1      93.349 114.287 109.219  1.00  0.00     0.005 C 
ATOM     19  C   UNL     1      91.207 111.459 107.665  1.00  0.00     0.010 C 
ATOM     20  C   UNL     1      92.378 113.236 106.295  1.00  0.00     0.012 C 
ATOM     21  C   UNL     1      92.085 113.473 108.886  1.00  0.00     0.003 C 
ATOM     22  C   UNL     1      89.801 112.103 107.631  1.00  0.00     0.033 C 
ATOM     23  C   UNL     1      90.699 114.225 108.889  1.00  0.00    -0.006 C 
ATOM     24  C   UNL     1      89.574 113.136 108.758  1.00  0.00     0.120 C 
ATOM     25  C   UNL     1      90.594 115.324 107.800  1.00  0.00     0.014 C 
ATOM     26  C   UNL     1      90.488 114.927 110.263  1.00  0.00     0.014 C 
ENDROOT
BRANCH   1  27
ATOM     27  C   UNL     1      99.846 111.296 108.308  1.00  0.00     0.048 C 
ATOM     28  O   UNL     1     100.080 110.651 109.366  1.00  0.00    -0.550 OA
ATOM     29  O   UNL     1     100.719 112.314 107.940  1.00  0.00    -0.550 OA
ENDBRANCH   1  27
BRANCH   7  30
ATOM     30  C   UNL     1      97.232 107.360 107.408  1.00  0.00    -0.077 C 
ATOM     31  C   UNL     1      95.971 107.257 106.580  1.00  0.00     0.039 C 
ATOM     32  C   UNL     1      97.639 106.288 108.109  1.00  0.00     0.008 C 
ENDBRANCH   7  30
BRANCH  24  33
ATOM     33  O   UNL     1      88.294 113.716 108.655  1.00  0.00    -0.393 OA
ATOM     34  H   UNL     1      88.239 114.462 109.306  1.00  0.00     0.210 HD
ENDBRANCH  24  33
TORSDOF 3
ENDMDL
MODEL 3
REMARK VINA RESULT:     0.929      1.730      7.949
REMARK INTER + INTRA:           1.753
REMARK INTER:                   1.902
REMARK INTRA:                  -0.149
REMARK UNBOUND:                 0.688
REMARK SMILES C=C(C)[C@H]1CC[C@@]2(C(=O)[O-])CC[C@]3(C)[C@@H](CC[C@H]4[C@@]5(C)CC[C@H](O)C(C)(C)[C@@H]5CC[C@@]43C)[C@@H]12
REMARK SMILES IDX 7 1 6 2 33 3 11 4 5 5 15 6 4 7 12 8 16 9 13 10 17 11 31 12
REMARK SMILES IDX 14 13 18 14 30 15 32 16 19 17 29 18 21 19 20 20 28 21 22 22
REMARK SMILES IDX 25 23 23 24 26 25 27 26 8 27 9 28 10 29 2 30 3 31 1 32 24 33
REMARK H PARENT 24 34
REMARK Flexibility Score: inf
ROOT
ATOM      1  C   UNL     1     100.356 111.839 108.503  1.00  0.00     0.014 C 
ATOM      2  C   UNL     1     101.058 110.627 109.181  1.00  0.00     0.014 C 
ATOM      3  C   UNL     1      99.708 112.651 109.672  1.00  0.00     0.012 C 
ATOM      4  C   UNL     1      99.314 111.315 107.471  1.00  0.00     0.014 C 
ATOM      5  C   UNL     1     100.658 110.639 110.651  1.00  0.00     0.009 C 
ATOM      6  C   UNL     1      98.137 112.736 109.623  1.00  0.00     0.000 C 
ATOM      7  C   UNL     1     100.370 112.100 110.958  1.00  0.00     0.018 C 
ATOM      8  C   UNL     1      98.258 112.348 107.050  1.00  0.00     0.008 C 
ATOM      9  C   UNL     1      97.412 111.455 110.129  1.00  0.00     0.005 C 
ATOM     10  C   UNL     1      97.638 113.242 108.203  1.00  0.00    -0.024 C 
ATOM     11  C   UNL     1      95.891 111.517 110.005  1.00  0.00     0.005 C 
ATOM     12  C   UNL     1      96.023 113.283 108.129  1.00  0.00    -0.024 C 
ATOM     13  C   UNL     1      98.189 114.691 107.989  1.00  0.00     0.012 C 
ATOM     14  C   UNL     1      95.453 111.873 108.570  1.00  0.00     0.002 C 
ATOM     15  C   UNL     1      95.547 113.650 106.656  1.00  0.00     0.008 C 
ATOM     16  C   UNL     1      95.480 114.396 109.098  1.00  0.00     0.012 C 
ATOM     17  C   UNL     1      93.913 111.536 108.259  1.00  0.00    -0.026 C 
ATOM     18  C   UNL     1      94.413 112.777 106.086  1.00  0.00     0.005 C 
ATOM     19  C   UNL     1      92.980 111.653 109.505  1.00  0.00     0.010 C 
ATOM     20  C   UNL     1      93.894 110.045 107.778  1.00  0.00     0.012 C 
ATOM     21  C   UNL     1      93.359 112.537 107.182  1.00  0.00     0.003 C 
ATOM     22  C   UNL     1      91.484 111.444 109.173  1.00  0.00     0.033 C 
ATOM     23  C   UNL     1      91.858 112.346 106.736  1.00  0.00    -0.006 C 
ATOM     24  C   UNL     1      90.976 112.359 108.036  1.00  0.00     0.120 C 
ATOM     25  C   UNL     1      91.631 111.076 105.875  1.00  0.00     0.014 C 
ATOM     26  C   UNL     1      91.409 113.564 105.875  1.00  0.00     0.014 C 
ENDROOT
BRANCH   1  27
ATOM     27  C   UNL     1     101.413 112.699 107.812  1.00  0.00     0.048 C 
ATOM     28  O   UNL     1     101.760 112.486 106.619  1.00  0.00    -0.550 OA
ATOM     29  O   UNL     1     102.012 113.746 108.504  1.00  0.00    -0.550 OA
ENDBRANCH   1  27
BRANCH   7  30
ATOM     30  C   UNL     1      99.680 112.393 112.288  1.00  0.00    -0.077 C 
ATOM     31  C   UNL     1      98.704 111.411 112.897  1.00  0.00     0.039 C 
ATOM     32  C   UNL     1     100.094 113.438 113.024  1.00  0.00     0.008 C 
ENDBRANCH   7  30
BRANCH  24  33
ATOM     33  O   UNL     1      89.621 112.099 107.752  1.00  0.00    -0.393 OA
ATOM     34  H   UNL     1      89.547 111.855 106.793  1.00  0.00     0.210 HD
ENDBRANCH  24  33
TORSDOF 3
ENDMDL
