MODEL 1
REMARK VINA RESULT:    -3.523      0.000      0.000
REMARK INTER + INTRA:          -5.313
REMARK INTER:                  -4.759
REMARK INTRA:                  -0.554
REMARK UNBOUND:                -0.554
REMARK SMILES CCCCCCCC(=O)[O-]
REMARK SMILES IDX 5 1 6 2 7 3 8 4 9 5 10 6 4 7 3 8 2 9 1 10
REMARK H PARENT
REMARK Flexibility Score: inf
ROOT
ATOM      1  C   UNL     1      26.459  56.632  25.120  1.00  0.00     0.000 C 
ENDROOT
BRANCH   1   2
ATOM      2  C   UNL     1      27.095  57.930  25.651  1.00  0.00     0.006 C 
BRANCH   2   3
ATOM      3  C   UNL     1      26.359  59.191  25.181  1.00  0.00     0.053 C 
BRANCH   3   4
ATOM      4  C   UNL     1      25.531  59.756  26.291  1.00  0.00     0.041 C 
ATOM      5  O   UNL     1      24.317  59.438  26.402  1.00  0.00    -0.550 OA
ATOM      6  O   UNL     1      26.111  60.596  27.233  1.00  0.00    -0.550 OA
ENDBRANCH   3   4
ENDBRANCH   2   3
ENDBRANCH   1   2
BRANCH   1   7
ATOM      7  C   UNL     1      25.436  56.826  23.987  1.00  0.00     0.000 C 
BRANCH   7   8
ATOM      8  C   UNL     1      24.006  56.446  24.398  1.00  0.00    -0.000 C 
BRANCH   8   9
ATOM      9  C   UNL     1      23.977  55.866  25.817  1.00  0.00    -0.003 C 
ATOM     10  C   UNL     1      22.660  56.183  26.516  1.00  0.00     0.004 C 
ENDBRANCH   8   9
ENDBRANCH   7   8
ENDBRANCH   1   7
TORSDOF 6
ENDMDL
MODEL 2
REMARK VINA RESULT:    -3.459     19.823     21.778
REMARK INTER + INTRA:          -5.226
REMARK INTER:                  -4.804
REMARK INTRA:                  -0.422
REMARK UNBOUND:                -0.554
REMARK SMILES CCCCCCCC(=O)[O-]
REMARK SMILES IDX 5 1 6 2 7 3 8 4 9 5 10 6 4 7 3 8 2 9 1 10
REMARK H PARENT
REMARK Flexibility Score: inf
ROOT
ATOM      1  C   UNL     1       9.735  56.135  42.313  1.00  0.00     0.000 C 
ENDROOT
BRANCH   1   2
ATOM      2  C   UNL     1       9.076  57.500  42.038  1.00  0.00     0.006 C 
BRANCH   2   3
ATOM      3  C   UNL     1       9.935  58.682  42.504  1.00  0.00     0.053 C 
BRANCH   3   4
ATOM      4  C   UNL     1       9.737  59.858  41.600  1.00  0.00     0.041 C 
ATOM      5  O   UNL     1       8.673  60.528  41.655  1.00  0.00    -0.550 OA
ATOM      6  O   UNL     1      10.750  60.243  40.730  1.00  0.00    -0.550 OA
ENDBRANCH   3   4
ENDBRANCH   2   3
ENDBRANCH   1   2
BRANCH   1   7
ATOM      7  C   UNL     1      11.262  56.178  42.503  1.00  0.00     0.000 C 
BRANCH   7   8
ATOM      8  C   UNL     1      12.028  55.496  41.361  1.00  0.00    -0.000 C 
BRANCH   8   9
ATOM      9  C   UNL     1      13.409  56.135  41.167  1.00  0.00    -0.003 C 
ATOM     10  C   UNL     1      13.298  57.647  40.995  1.00  0.00     0.004 C 
ENDBRANCH   8   9
ENDBRANCH   7   8
ENDBRANCH   1   7
TORSDOF 6
ENDMDL
MODEL 3
REMARK VINA RESULT:    -3.418      1.705      2.532
REMARK INTER + INTRA:          -5.170
REMARK INTER:                  -4.639
REMARK INTRA:                  -0.531
REMARK UNBOUND:                -0.554
REMARK SMILES CCCCCCCC(=O)[O-]
REMARK SMILES IDX 5 1 6 2 7 3 8 4 9 5 10 6 4 7 3 8 2 9 1 10
REMARK H PARENT
REMARK Flexibility Score: inf
ROOT
ATOM      1  C   UNL     1      24.103  56.634  24.232  1.00  0.00     0.000 C 
ENDROOT
BRANCH   1   2
ATOM      2  C   UNL     1      25.628  56.839  24.171  1.00  0.00     0.006 C 
BRANCH   2   3
ATOM      3  C   UNL     1      26.045  58.295  24.416  1.00  0.00     0.053 C 
BRANCH   3   4
ATOM      4  C   UNL     1      26.894  58.395  25.643  1.00  0.00     0.041 C 
ATOM      5  O   UNL     1      27.738  57.498  25.906  1.00  0.00    -0.550 OA
ATOM      6  O   UNL     1      26.788  59.504  26.474  1.00  0.00    -0.550 OA
ENDBRANCH   3   4
ENDBRANCH   2   3
ENDBRANCH   1   2
BRANCH   1   7
ATOM      7  C   UNL     1      23.601  55.845  25.455  1.00  0.00     0.000 C 
BRANCH   7   8
ATOM      8  C   UNL     1      22.863  56.724  26.475  1.00  0.00    -0.000 C 
BRANCH   8   9
ATOM      9  C   UNL     1      22.594  58.121  25.903  1.00  0.00    -0.003 C 
ATOM     10  C   UNL     1      23.160  59.208  26.812  1.00  0.00     0.004 C 
ENDBRANCH   8   9
ENDBRANCH   7   8
ENDBRANCH   1   7
TORSDOF 6
ENDMDL
MODEL 4
REMARK VINA RESULT:    -3.416     19.407     21.328
REMARK INTER + INTRA:          -5.169
REMARK INTER:                  -4.796
REMARK INTRA:                  -0.373
REMARK UNBOUND:                -0.554
REMARK SMILES CCCCCCCC(=O)[O-]
REMARK SMILES IDX 5 1 6 2 7 3 8 4 9 5 10 6 4 7 3 8 2 9 1 10
REMARK H PARENT
REMARK Flexibility Score: inf
ROOT
ATOM      1  C   UNL     1      12.071  55.579  41.436  1.00  0.00     0.000 C 
ENDROOT
BRANCH   1   2
ATOM      2  C   UNL     1      11.294  56.406  42.477  1.00  0.00     0.006 C 
BRANCH   2   3
ATOM      3  C   UNL     1       9.774  56.227  42.367  1.00  0.00     0.053 C 
BRANCH   3   4
ATOM      4  C   UNL     1       9.122  57.522  41.997  1.00  0.00     0.041 C 
ATOM      5  O   UNL     1       7.875  57.582  41.836  1.00  0.00    -0.550 OA
ATOM      6  O   UNL     1       9.888  58.676  41.878  1.00  0.00    -0.550 OA
ENDBRANCH   3   4
ENDBRANCH   2   3
ENDBRANCH   1   2
BRANCH   1   7
ATOM      7  C   UNL     1      13.449  56.147  41.052  1.00  0.00     0.000 C 
BRANCH   7   8
ATOM      8  C   UNL     1      13.622  57.621  41.447  1.00  0.00    -0.000 C 
BRANCH   8   9
ATOM      9  C   UNL     1      13.854  58.498  40.211  1.00  0.00    -0.003 C 
ATOM     10  C   UNL     1      12.826  59.621  40.130  1.00  0.00     0.004 C 
ENDBRANCH   8   9
ENDBRANCH   7   8
ENDBRANCH   1   7
TORSDOF 6
ENDMDL
MODEL 5
REMARK VINA RESULT:    -3.359      1.606      2.181
REMARK INTER + INTRA:          -5.091
REMARK INTER:                  -4.892
REMARK INTRA:                  -0.199
REMARK UNBOUND:                -0.554
REMARK SMILES CCCCCCCC(=O)[O-]
REMARK SMILES IDX 5 1 6 2 7 3 8 4 9 5 10 6 4 7 3 8 2 9 1 10
REMARK H PARENT
REMARK Flexibility Score: inf
ROOT
ATOM      1  C   UNL     1      25.043  55.985  25.573  1.00  0.00     0.000 C 
ENDROOT
BRANCH   1   2
ATOM      2  C   UNL     1      26.186  56.564  24.718  1.00  0.00     0.006 C 
BRANCH   2   3
ATOM      3  C   UNL     1      27.113  57.493  25.512  1.00  0.00     0.053 C 
BRANCH   3   4
ATOM      4  C   UNL     1      26.579  58.890  25.508  1.00  0.00     0.041 C 
ATOM      5  O   UNL     1      25.865  59.294  24.553  1.00  0.00    -0.550 OA
ATOM      6  O   UNL     1      26.829  59.733  26.585  1.00  0.00    -0.550 OA
ENDBRANCH   3   4
ENDBRANCH   2   3
ENDBRANCH   1   2
BRANCH   1   7
ATOM      7  C   UNL     1      23.629  56.220  25.011  1.00  0.00     0.000 C 
BRANCH   7   8
ATOM      8  C   UNL     1      22.525  55.619  25.893  1.00  0.00    -0.000 C 
BRANCH   8   9
ATOM      9  C   UNL     1      21.366  55.091  25.039  1.00  0.00    -0.003 C 
ATOM     10  C   UNL     1      20.840  53.766  25.581  1.00  0.00     0.004 C 
ENDBRANCH   8   9
ENDBRANCH   7   8
ENDBRANCH   1   7
TORSDOF 6
ENDMDL
MODEL 6
REMARK VINA RESULT:    -3.320      2.183      3.960
REMARK INTER + INTRA:          -5.039
REMARK INTER:                  -4.618
REMARK INTRA:                  -0.421
REMARK UNBOUND:                -0.554
REMARK SMILES CCCCCCCC(=O)[O-]
REMARK SMILES IDX 5 1 6 2 7 3 8 4 9 5 10 6 4 7 3 8 2 9 1 10
REMARK H PARENT
REMARK Flexibility Score: inf
ROOT
ATOM      1  C   UNL     1      27.069  57.653  25.511  1.00  0.00     0.000 C 
ENDROOT
BRANCH   1   2
ATOM      2  C   UNL     1      26.322  56.518  24.787  1.00  0.00     0.006 C 
BRANCH   2   3
ATOM      3  C   UNL     1      25.025  56.989  24.116  1.00  0.00     0.053 C 
BRANCH   3   4
ATOM      4  C   UNL     1      23.850  56.254  24.678  1.00  0.00     0.041 C 
ATOM      5  O   UNL     1      22.987  55.754  23.908  1.00  0.00    -0.550 OA
ATOM      6  O   UNL     1      23.732  56.078  26.051  1.00  0.00    -0.550 OA
ENDBRANCH   3   4
ENDBRANCH   2   3
ENDBRANCH   1   2
BRANCH   1   7
ATOM      7  C   UNL     1      26.435  59.048  25.360  1.00  0.00     0.000 C 
BRANCH   7   8
ATOM      8  C   UNL     1      26.824  60.010  26.491  1.00  0.00    -0.000 C 
BRANCH   8   9
ATOM      9  C   UNL     1      25.589  60.719  27.059  1.00  0.00    -0.003 C 
ATOM     10  C   UNL     1      24.315  59.938  26.752  1.00  0.00     0.004 C 
ENDBRANCH   8   9
ENDBRANCH   7   8
ENDBRANCH   1   7
TORSDOF 6
ENDMDL
MODEL 7
REMARK VINA RESULT:    -3.306      0.795      1.081
REMARK INTER + INTRA:          -5.020
REMARK INTER:                  -4.624
REMARK INTRA:                  -0.396
REMARK UNBOUND:                -0.554
REMARK SMILES CCCCCCCC(=O)[O-]
REMARK SMILES IDX 5 1 6 2 7 3 8 4 9 5 10 6 4 7 3 8 2 9 1 10
REMARK H PARENT
REMARK Flexibility Score: inf
ROOT
ATOM      1  C   UNL     1      27.012  57.589  25.534  1.00  0.00     0.000 C 
ENDROOT
BRANCH   1   2
ATOM      2  C   UNL     1      26.402  58.974  25.248  1.00  0.00     0.006 C 
BRANCH   2   3
ATOM      3  C   UNL     1      26.678  59.990  26.365  1.00  0.00     0.053 C 
BRANCH   3   4
ATOM      4  C   UNL     1      25.395  60.438  26.990  1.00  0.00     0.041 C 
ATOM      5  O   UNL     1      24.291  60.075  26.505  1.00  0.00    -0.550 OA
ATOM      6  O   UNL     1      25.418  61.218  28.140  1.00  0.00    -0.550 OA
ENDBRANCH   3   4
ENDBRANCH   2   3
ENDBRANCH   1   2
BRANCH   1   7
ATOM      7  C   UNL     1      26.227  56.401  24.950  1.00  0.00     0.000 C 
BRANCH   7   8
ATOM      8  C   UNL     1      24.801  56.775  24.521  1.00  0.00    -0.000 C 
BRANCH   8   9
ATOM      9  C   UNL     1      23.763  55.917  25.254  1.00  0.00    -0.003 C 
ATOM     10  C   UNL     1      22.946  56.754  26.233  1.00  0.00     0.004 C 
ENDBRANCH   8   9
ENDBRANCH   7   8
ENDBRANCH   1   7
TORSDOF 6
ENDMDL
MODEL 8
REMARK VINA RESULT:    -3.239      2.447      3.798
REMARK INTER + INTRA:          -4.929
REMARK INTER:                  -4.513
REMARK INTRA:                  -0.415
REMARK UNBOUND:                -0.554
REMARK SMILES CCCCCCCC(=O)[O-]
REMARK SMILES IDX 5 1 6 2 7 3 8 4 9 5 10 6 4 7 3 8 2 9 1 10
REMARK H PARENT
REMARK Flexibility Score: inf
ROOT
ATOM      1  C   UNL     1      26.038  60.587  27.016  1.00  0.00     0.000 C 
ENDROOT
BRANCH   1   2
ATOM      2  C   UNL     1      26.923  59.593  26.241  1.00  0.00     0.006 C 
BRANCH   2   3
ATOM      3  C   UNL     1      26.212  58.983  25.026  1.00  0.00     0.053 C 
BRANCH   3   4
ATOM      4  C   UNL     1      26.528  57.525  24.916  1.00  0.00     0.041 C 
ATOM      5  O   UNL     1      27.359  56.995  25.699  1.00  0.00    -0.550 OA
ATOM      6  O   UNL     1      25.869  56.740  23.977  1.00  0.00    -0.550 OA
ENDBRANCH   3   4
ENDBRANCH   2   3
ENDBRANCH   1   2
BRANCH   1   7
ATOM      7  C   UNL     1      24.532  60.490  26.713  1.00  0.00     0.000 C 
BRANCH   7   8
ATOM      8  C   UNL     1      23.674  60.338  27.977  1.00  0.00    -0.000 C 
BRANCH   8   9
ATOM      9  C   UNL     1      22.552  59.316  27.761  1.00  0.00    -0.003 C 
ATOM     10  C   UNL     1      22.846  58.418  26.563  1.00  0.00     0.004 C 
ENDBRANCH   8   9
ENDBRANCH   7   8
ENDBRANCH   1   7
TORSDOF 6
ENDMDL
MODEL 9
REMARK VINA RESULT:    -3.202      2.827      4.502
REMARK INTER + INTRA:          -4.879
REMARK INTER:                  -4.358
REMARK INTRA:                  -0.521
REMARK UNBOUND:                -0.554
REMARK SMILES CCCCCCCC(=O)[O-]
REMARK SMILES IDX 5 1 6 2 7 3 8 4 9 5 10 6 4 7 3 8 2 9 1 10
REMARK H PARENT
REMARK Flexibility Score: inf
ROOT
ATOM      1  C   UNL     1      23.687  58.719  25.030  1.00  0.00     0.000 C 
ENDROOT
BRANCH   1   2
ATOM      2  C   UNL     1      22.571  58.023  25.831  1.00  0.00     0.006 C 
BRANCH   2   3
ATOM      3  C   UNL     1      22.970  56.625  26.320  1.00  0.00     0.053 C 
BRANCH   3   4
ATOM      4  C   UNL     1      22.410  55.576  25.412  1.00  0.00     0.041 C 
ATOM      5  O   UNL     1      21.564  54.749  25.843  1.00  0.00    -0.550 OA
ATOM      6  O   UNL     1      22.787  55.541  24.074  1.00  0.00    -0.550 OA
ENDBRANCH   3   4
ENDBRANCH   2   3
ENDBRANCH   1   2
BRANCH   1   7
ATOM      7  C   UNL     1      24.879  59.211  25.870  1.00  0.00     0.000 C 
BRANCH   7   8
ATOM      8  C   UNL     1      26.234  58.737  25.325  1.00  0.00    -0.000 C 
BRANCH   8   9
ATOM      9  C   UNL     1      26.066  57.501  24.433  1.00  0.00    -0.003 C 
ATOM     10  C   UNL     1      26.513  56.234  25.156  1.00  0.00     0.004 C 
ENDBRANCH   8   9
ENDBRANCH   7   8
ENDBRANCH   1   7
TORSDOF 6
ENDMDL
