MODEL 1
REMARK VINA RESULT:    -4.225      0.000      0.000
REMARK INTER + INTRA:          -5.293
REMARK INTER:                  -5.090
REMARK INTRA:                  -0.203
REMARK UNBOUND:                -0.203
REMARK SMILES C=CCc1ccc(O)c(OC)c1
REMARK SMILES IDX 9 1 7 2 6 3 5 4 4 5 12 6 10 7 11 8 8 9 3 11 2 12 1 13
REMARK H PARENT 8 10
REMARK Flexibility Score: inf
ROOT
ATOM      1  C   UNL     1     -17.654 -27.513  19.817  1.00  0.00     0.160 A 
ATOM      2  C   UNL     1     -16.443 -27.425  19.105  1.00  0.00     0.157 A 
ATOM      3  C   UNL     1     -15.926 -26.173  18.755  1.00  0.00     0.050 A 
ATOM      4  C   UNL     1     -16.601 -25.005  19.109  1.00  0.00     0.008 A 
ATOM      5  C   UNL     1     -17.804 -25.073  19.827  1.00  0.00    -0.040 A 
ATOM      6  C   UNL     1     -18.331 -26.328  20.172  1.00  0.00     0.054 A 
ENDROOT
BRANCH   1   7
ATOM      7  O   UNL     1     -18.153 -28.782  20.151  1.00  0.00    -0.493 OA
ATOM      8  C   UNL     1     -18.402 -29.229  21.480  1.00  0.00     0.278 C 
ENDBRANCH   1   7
BRANCH   2   9
ATOM      9  O   UNL     1     -15.740 -28.571  18.734  1.00  0.00    -0.504 OA
ATOM     10  H   UNL     1     -16.142 -29.280  18.132  1.00  0.00     0.293 HD
ENDBRANCH   2   9
BRANCH   5  11
ATOM     11  C   UNL     1     -18.549 -23.815  20.186  1.00  0.00     0.062 C 
BRANCH  11  12
ATOM     12  C   UNL     1     -20.030 -24.071  20.242  1.00  0.00    -0.030 C 
ATOM     13  C   UNL     1     -20.916 -23.159  19.832  1.00  0.00     0.004 C 
ENDBRANCH  11  12
ENDBRANCH   5  11
TORSDOF 4
ENDMDL
MODEL 2
REMARK VINA RESULT:    -4.050      1.166      2.807
REMARK INTER + INTRA:          -5.082
REMARK INTER:                  -4.858
REMARK INTRA:                  -0.223
REMARK UNBOUND:                -0.203
REMARK SMILES C=CCc1ccc(O)c(OC)c1
REMARK SMILES IDX 9 1 7 2 6 3 5 4 4 5 12 6 10 7 11 8 8 9 3 11 2 12 1 13
REMARK H PARENT 8 10
REMARK Flexibility Score: inf
ROOT
ATOM      1  C   UNL     1     -15.556 -26.385  18.947  1.00  0.00     0.160 A 
ATOM      2  C   UNL     1     -16.190 -27.621  19.173  1.00  0.00     0.157 A 
ATOM      3  C   UNL     1     -17.499 -27.657  19.662  1.00  0.00     0.050 A 
ATOM      4  C   UNL     1     -18.188 -26.474  19.928  1.00  0.00     0.008 A 
ATOM      5  C   UNL     1     -17.576 -25.233  19.699  1.00  0.00    -0.040 A 
ATOM      6  C   UNL     1     -16.258 -25.193  19.216  1.00  0.00     0.054 A 
ENDROOT
BRANCH   1   7
ATOM      7  O   UNL     1     -14.239 -26.377  18.459  1.00  0.00    -0.493 OA
ATOM      8  C   UNL     1     -13.164 -25.650  19.044  1.00  0.00     0.278 C 
ENDBRANCH   1   7
BRANCH   2   9
ATOM      9  O   UNL     1     -15.532 -28.824  18.918  1.00  0.00    -0.504 OA
ATOM     10  H   UNL     1     -14.865 -28.926  18.162  1.00  0.00     0.293 HD
ENDBRANCH   2   9
BRANCH   5  11
ATOM     11  C   UNL     1     -18.307 -23.954  20.011  1.00  0.00     0.062 C 
BRANCH  11  12
ATOM     12  C   UNL     1     -19.762 -24.223  20.275  1.00  0.00    -0.030 C 
ATOM     13  C   UNL     1     -20.715 -23.370  19.890  1.00  0.00     0.004 C 
ENDBRANCH  11  12
ENDBRANCH   5  11
TORSDOF 4
ENDMDL
MODEL 3
REMARK VINA RESULT:    -3.988     11.335     13.201
REMARK INTER + INTRA:          -5.007
REMARK INTER:                  -4.761
REMARK INTRA:                  -0.246
REMARK UNBOUND:                -0.203
REMARK SMILES C=CCc1ccc(O)c(OC)c1
REMARK SMILES IDX 9 1 7 2 6 3 5 4 4 5 12 6 10 7 11 8 8 9 3 11 2 12 1 13
REMARK H PARENT 8 10
REMARK Flexibility Score: inf
ROOT
ATOM      1  C   UNL     1     -15.775 -31.780  10.404  1.00  0.00     0.160 A 
ATOM      2  C   UNL     1     -16.900 -31.046   9.987  1.00  0.00     0.157 A 
ATOM      3  C   UNL     1     -17.598 -31.426   8.836  1.00  0.00     0.050 A 
ATOM      4  C   UNL     1     -17.188 -32.534   8.095  1.00  0.00     0.008 A 
ATOM      5  C   UNL     1     -16.075 -33.284   8.501  1.00  0.00    -0.040 A 
ATOM      6  C   UNL     1     -15.367 -32.900   9.651  1.00  0.00     0.054 A 
ENDROOT
BRANCH   1   7
ATOM      7  O   UNL     1     -15.090 -31.374  11.561  1.00  0.00    -0.493 OA
ATOM      8  C   UNL     1     -13.870 -30.640  11.563  1.00  0.00     0.278 C 
ENDBRANCH   1   7
BRANCH   2   9
ATOM      9  O   UNL     1     -17.340 -29.932  10.704  1.00  0.00    -0.504 OA
ATOM     10  H   UNL     1     -17.331 -28.999  10.309  1.00  0.00     0.293 HD
ENDBRANCH   2   9
BRANCH   5  11
ATOM     11  C   UNL     1     -15.614 -34.465   7.688  1.00  0.00     0.062 C 
BRANCH  11  12
ATOM     12  C   UNL     1     -16.774 -35.114   6.986  1.00  0.00    -0.030 C 
ATOM     13  C   UNL     1     -17.085 -36.398   7.186  1.00  0.00     0.004 C 
ENDBRANCH  11  12
ENDBRANCH   5  11
TORSDOF 4
ENDMDL
MODEL 4
REMARK VINA RESULT:    -3.948      2.152      4.670
REMARK INTER + INTRA:          -4.958
REMARK INTER:                  -4.745
REMARK INTRA:                  -0.214
REMARK UNBOUND:                -0.203
REMARK SMILES C=CCc1ccc(O)c(OC)c1
REMARK SMILES IDX 9 1 7 2 6 3 5 4 4 5 12 6 10 7 11 8 8 9 3 11 2 12 1 13
REMARK H PARENT 8 10
REMARK Flexibility Score: inf
ROOT
ATOM      1  C   UNL     1     -17.239 -27.436  19.401  1.00  0.00     0.160 A 
ATOM      2  C   UNL     1     -17.594 -26.079  19.297  1.00  0.00     0.157 A 
ATOM      3  C   UNL     1     -16.655 -25.141  18.855  1.00  0.00     0.050 A 
ATOM      4  C   UNL     1     -15.363 -25.541  18.513  1.00  0.00     0.008 A 
ATOM      5  C   UNL     1     -14.994 -26.891  18.601  1.00  0.00    -0.040 A 
ATOM      6  C   UNL     1     -15.931 -27.834  19.052  1.00  0.00     0.054 A 
ENDROOT
BRANCH   1   7
ATOM      7  O   UNL     1     -18.199 -28.357  19.851  1.00  0.00    -0.493 OA
ATOM      8  C   UNL     1     -18.149 -29.029  21.105  1.00  0.00     0.278 C 
ENDBRANCH   1   7
BRANCH   2   9
ATOM      9  O   UNL     1     -18.876 -25.643  19.629  1.00  0.00    -0.504 OA
ATOM     10  H   UNL     1     -19.271 -24.789  19.252  1.00  0.00     0.293 HD
ENDBRANCH   2   9
BRANCH   5  11
ATOM     11  C   UNL     1     -13.592 -27.322  18.259  1.00  0.00     0.062 C 
BRANCH  11  12
ATOM     12  C   UNL     1     -13.594 -28.246  17.074  1.00  0.00    -0.030 C 
ATOM     13  C   UNL     1     -12.849 -28.002  15.992  1.00  0.00     0.004 C 
ENDBRANCH  11  12
ENDBRANCH   5  11
TORSDOF 4
ENDMDL
MODEL 5
REMARK VINA RESULT:    -3.933     11.388     13.274
REMARK INTER + INTRA:          -4.941
REMARK INTER:                  -4.689
REMARK INTRA:                  -0.252
REMARK UNBOUND:                -0.203
REMARK SMILES C=CCc1ccc(O)c(OC)c1
REMARK SMILES IDX 9 1 7 2 6 3 5 4 4 5 12 6 10 7 11 8 8 9 3 11 2 12 1 13
REMARK H PARENT 8 10
REMARK Flexibility Score: inf
ROOT
ATOM      1  C   UNL     1     -15.398 -30.881   9.754  1.00  0.00     0.160 A 
ATOM      2  C   UNL     1     -16.756 -30.593   9.987  1.00  0.00     0.157 A 
ATOM      3  C   UNL     1     -17.748 -31.268   9.268  1.00  0.00     0.050 A 
ATOM      4  C   UNL     1     -17.403 -32.230   8.319  1.00  0.00     0.008 A 
ATOM      5  C   UNL     1     -16.055 -32.537   8.081  1.00  0.00    -0.040 A 
ATOM      6  C   UNL     1     -15.057 -31.855   8.794  1.00  0.00     0.054 A 
ENDROOT
BRANCH   1   7
ATOM      7  O   UNL     1     -14.422 -30.186  10.487  1.00  0.00    -0.493 OA
ATOM      8  C   UNL     1     -13.645 -29.107   9.978  1.00  0.00     0.278 C 
ENDBRANCH   1   7
BRANCH   2   9
ATOM      9  O   UNL     1     -17.139 -29.638  10.929  1.00  0.00    -0.504 OA
ATOM     10  H   UNL     1     -16.464 -29.146  11.503  1.00  0.00     0.293 HD
ENDBRANCH   2   9
BRANCH   5  11
ATOM     11  C   UNL     1     -15.679 -33.555   7.037  1.00  0.00     0.062 C 
BRANCH  11  12
ATOM     12  C   UNL     1     -16.862 -34.408   6.674  1.00  0.00    -0.030 C 
ATOM     13  C   UNL     1     -16.864 -35.729   6.876  1.00  0.00     0.004 C 
ENDBRANCH  11  12
ENDBRANCH   5  11
TORSDOF 4
ENDMDL
MODEL 6
REMARK VINA RESULT:    -3.756      2.338      4.592
REMARK INTER + INTRA:          -4.727
REMARK INTER:                  -4.505
REMARK INTRA:                  -0.222
REMARK UNBOUND:                -0.203
REMARK SMILES C=CCc1ccc(O)c(OC)c1
REMARK SMILES IDX 9 1 7 2 6 3 5 4 4 5 12 6 10 7 11 8 8 9 3 11 2 12 1 13
REMARK H PARENT 8 10
REMARK Flexibility Score: inf
ROOT
ATOM      1  C   UNL     1     -17.087 -26.062  19.340  1.00  0.00     0.160 A 
ATOM      2  C   UNL     1     -16.741 -27.412  19.144  1.00  0.00     0.157 A 
ATOM      3  C   UNL     1     -15.408 -27.767  18.918  1.00  0.00     0.050 A 
ATOM      4  C   UNL     1     -14.411 -26.792  18.887  1.00  0.00     0.008 A 
ATOM      5  C   UNL     1     -14.736 -25.443  19.090  1.00  0.00    -0.040 A 
ATOM      6  C   UNL     1     -16.074 -25.081  19.308  1.00  0.00     0.054 A 
ENDROOT
BRANCH   1   7
ATOM      7  O   UNL     1     -18.434 -25.731  19.560  1.00  0.00    -0.493 OA
ATOM      8  C   UNL     1     -18.900 -24.437  19.927  1.00  0.00     0.278 C 
ENDBRANCH   1   7
BRANCH   2   9
ATOM      9  O   UNL     1     -17.710 -28.414  19.170  1.00  0.00    -0.504 OA
ATOM     10  H   UNL     1     -18.573 -28.344  18.643  1.00  0.00     0.293 HD
ENDBRANCH   2   9
BRANCH   5  11
ATOM     11  C   UNL     1     -13.666 -24.384  19.029  1.00  0.00     0.062 C 
BRANCH  11  12
ATOM     12  C   UNL     1     -12.326 -24.998  18.734  1.00  0.00    -0.030 C 
ATOM     13  C   UNL     1     -11.489 -24.461  17.840  1.00  0.00     0.004 C 
ENDBRANCH  11  12
ENDBRANCH   5  11
TORSDOF 4
ENDMDL
MODEL 7
REMARK VINA RESULT:    -3.678     11.696     13.517
REMARK INTER + INTRA:          -4.633
REMARK INTER:                  -4.403
REMARK INTRA:                  -0.230
REMARK UNBOUND:                -0.203
REMARK SMILES C=CCc1ccc(O)c(OC)c1
REMARK SMILES IDX 9 1 7 2 6 3 5 4 4 5 12 6 10 7 11 8 8 9 3 11 2 12 1 13
REMARK H PARENT 8 10
REMARK Flexibility Score: inf
ROOT
ATOM      1  C   UNL     1     -15.996 -31.516   9.835  1.00  0.00     0.160 A 
ATOM      2  C   UNL     1     -14.867 -32.177  10.352  1.00  0.00     0.157 A 
ATOM      3  C   UNL     1     -14.415 -33.360   9.760  1.00  0.00     0.050 A 
ATOM      4  C   UNL     1     -15.075 -33.894   8.653  1.00  0.00     0.008 A 
ATOM      5  C   UNL     1     -16.197 -33.244   8.118  1.00  0.00    -0.040 A 
ATOM      6  C   UNL     1     -16.658 -32.060   8.715  1.00  0.00     0.054 A 
ENDROOT
BRANCH   1   7
ATOM      7  O   UNL     1     -16.431 -30.332  10.451  1.00  0.00    -0.493 OA
ATOM      8  C   UNL     1     -16.446 -29.053   9.826  1.00  0.00     0.278 C 
ENDBRANCH   1   7
BRANCH   2   9
ATOM      9  O   UNL     1     -14.181 -31.673  11.457  1.00  0.00    -0.504 OA
ATOM     10  H   UNL     1     -13.802 -30.733  11.474  1.00  0.00     0.293 HD
ENDBRANCH   2   9
BRANCH   5  11
ATOM     11  C   UNL     1     -16.929 -33.832   6.940  1.00  0.00     0.062 C 
BRANCH  11  12
ATOM     12  C   UNL     1     -16.901 -35.334   6.993  1.00  0.00    -0.030 C 
ATOM     13  C   UNL     1     -16.646 -36.070   5.907  1.00  0.00     0.004 C 
ENDBRANCH  11  12
ENDBRANCH   5  11
TORSDOF 4
ENDMDL
MODEL 8
REMARK VINA RESULT:    -3.655      2.238      4.324
REMARK INTER + INTRA:          -4.605
REMARK INTER:                  -4.423
REMARK INTRA:                  -0.182
REMARK UNBOUND:                -0.203
REMARK SMILES C=CCc1ccc(O)c(OC)c1
REMARK SMILES IDX 9 1 7 2 6 3 5 4 4 5 12 6 10 7 11 8 8 9 3 11 2 12 1 13
REMARK H PARENT 8 10
REMARK Flexibility Score: inf
ROOT
ATOM      1  C   UNL     1     -15.722 -28.038  19.719  1.00  0.00     0.160 A 
ATOM      2  C   UNL     1     -17.095 -27.789  19.538  1.00  0.00     0.157 A 
ATOM      3  C   UNL     1     -17.537 -26.502  19.218  1.00  0.00     0.050 A 
ATOM      4  C   UNL     1     -16.625 -25.456  19.074  1.00  0.00     0.008 A 
ATOM      5  C   UNL     1     -15.252 -25.688  19.241  1.00  0.00    -0.040 A 
ATOM      6  C   UNL     1     -14.805 -26.978  19.571  1.00  0.00     0.054 A 
ENDROOT
BRANCH   1   7
ATOM      7  O   UNL     1     -15.305 -29.340  20.044  1.00  0.00    -0.493 OA
ATOM      8  C   UNL     1     -14.107 -29.947  19.572  1.00  0.00     0.278 C 
ENDBRANCH   1   7
BRANCH   2   9
ATOM      9  O   UNL     1     -18.036 -28.810  19.673  1.00  0.00    -0.504 OA
ATOM     10  H   UNL     1     -18.972 -28.735  19.292  1.00  0.00     0.293 HD
ENDBRANCH   2   9
BRANCH   5  11
ATOM     11  C   UNL     1     -14.267 -24.556  19.113  1.00  0.00     0.062 C 
BRANCH  11  12
ATOM     12  C   UNL     1     -12.904 -25.074  18.746  1.00  0.00    -0.030 C 
ATOM     13  C   UNL     1     -11.866 -24.253  18.564  1.00  0.00     0.004 C 
ENDBRANCH  11  12
ENDBRANCH   5  11
TORSDOF 4
ENDMDL
MODEL 9
REMARK VINA RESULT:    -3.603      8.199     10.210
REMARK INTER + INTRA:          -4.544
REMARK INTER:                  -4.296
REMARK INTRA:                  -0.248
REMARK UNBOUND:                -0.203
REMARK SMILES C=CCc1ccc(O)c(OC)c1
REMARK SMILES IDX 9 1 7 2 6 3 5 4 4 5 12 6 10 7 11 8 8 9 3 11 2 12 1 13
REMARK H PARENT 8 10
REMARK Flexibility Score: inf
ROOT
ATOM      1  C   UNL     1     -15.120 -29.614  10.420  1.00  0.00     0.160 A 
ATOM      2  C   UNL     1     -16.031 -30.496  11.030  1.00  0.00     0.157 A 
ATOM      3  C   UNL     1     -15.728 -31.070  12.269  1.00  0.00     0.050 A 
ATOM      4  C   UNL     1     -14.526 -30.772  12.911  1.00  0.00     0.008 A 
ATOM      5  C   UNL     1     -13.611 -29.887  12.323  1.00  0.00    -0.040 A 
ATOM      6  C   UNL     1     -13.908 -29.316  11.075  1.00  0.00     0.054 A 
ENDROOT
BRANCH   1   7
ATOM      7  O   UNL     1     -15.448 -29.055   9.174  1.00  0.00    -0.493 OA
ATOM      8  C   UNL     1     -15.854 -27.705   8.974  1.00  0.00     0.278 C 
ENDBRANCH   1   7
BRANCH   2   9
ATOM      9  O   UNL     1     -17.243 -30.816  10.418  1.00  0.00    -0.504 OA
ATOM     10  H   UNL     1     -17.964 -30.124  10.254  1.00  0.00     0.293 HD
ENDBRANCH   2   9
BRANCH   5  11
ATOM     11  C   UNL     1     -12.300 -29.585  13.000  1.00  0.00     0.062 C 
BRANCH  11  12
ATOM     12  C   UNL     1     -12.400 -28.330  13.820  1.00  0.00    -0.030 C 
ATOM     13  C   UNL     1     -12.793 -28.354  15.097  1.00  0.00     0.004 C 
ENDBRANCH  11  12
ENDBRANCH   5  11
TORSDOF 4
ENDMDL
