MODEL 1
REMARK VINA RESULT:     0.505      0.000      0.000
REMARK INTER + INTRA:           0.830
REMARK INTER:                   1.096
REMARK INTRA:                  -0.266
REMARK UNBOUND:                -0.266
REMARK SMILES CCCCCCCCCCCCCCCCCCCCCC(=O)[O-]
REMARK SMILES IDX 12 1 11 2 10 3 9 4 8 5 7 6 6 7 5 8 4 9 3 10 2 11 1 12 13 13
REMARK SMILES IDX 14 14 15 15 16 16 17 17 18 18 19 19 20 20 21 21 22 22 23 23
REMARK SMILES IDX 24 24
REMARK H PARENT
REMARK Flexibility Score: inf
ROOT
ATOM      1  C   UNL     1     -10.083   0.854 -34.594  1.00  0.00     0.000 C 
ENDROOT
BRANCH   1   2
ATOM      2  C   UNL     1      -9.898   2.378 -34.542  1.00  0.00     0.000 C 
BRANCH   2   3
ATOM      3  C   UNL     1      -9.692   2.906 -33.114  1.00  0.00     0.000 C 
BRANCH   3   4
ATOM      4  C   UNL     1     -10.047   4.399 -33.032  1.00  0.00    -0.000 C 
BRANCH   4   5
ATOM      5  C   UNL     1     -10.031   5.098 -34.403  1.00  0.00    -0.000 C 
BRANCH   5   6
ATOM      6  C   UNL     1      -9.077   4.480 -35.444  1.00  0.00    -0.000 C 
BRANCH   6   7
ATOM      7  C   UNL     1      -9.257   4.991 -36.889  1.00  0.00    -0.000 C 
BRANCH   7   8
ATOM      8  C   UNL     1     -10.715   5.034 -37.386  1.00  0.00    -0.000 C 
BRANCH   8   9
ATOM      9  C   UNL     1     -10.897   4.682 -38.874  1.00  0.00    -0.000 C 
BRANCH   9  10
ATOM     10  C   UNL     1     -11.933   3.563 -39.119  1.00  0.00    -0.000 C 
BRANCH  10  11
ATOM     11  C   UNL     1     -12.843   3.333 -37.904  1.00  0.00    -0.003 C 
ATOM     12  C   UNL     1     -12.793   1.879 -37.446  1.00  0.00     0.004 C 
ENDBRANCH  10  11
ENDBRANCH   9  10
ENDBRANCH   8   9
ENDBRANCH   7   8
ENDBRANCH   6   7
ENDBRANCH   5   6
ENDBRANCH   4   5
ENDBRANCH   3   4
ENDBRANCH   2   3
ENDBRANCH   1   2
BRANCH   1  13
ATOM     13  C   UNL     1      -9.022   0.154 -35.466  1.00  0.00     0.000 C 
BRANCH  13  14
ATOM     14  C   UNL     1      -8.890   0.789 -36.867  1.00  0.00     0.000 C 
BRANCH  14  15
ATOM     15  C   UNL     1      -9.801   0.156 -37.937  1.00  0.00     0.000 C 
BRANCH  15  16
ATOM     16  C   UNL     1      -9.071  -0.496 -39.123  1.00  0.00     0.000 C 
BRANCH  16  17
ATOM     17  C   UNL     1      -8.889  -2.014 -38.955  1.00  0.00     0.000 C 
BRANCH  17  18
ATOM     18  C   UNL     1      -9.097  -2.484 -37.503  1.00  0.00     0.000 C 
BRANCH  18  19
ATOM     19  C   UNL     1      -8.876  -3.990 -37.266  1.00  0.00     0.000 C 
BRANCH  19  20
ATOM     20  C   UNL     1      -9.698  -4.874 -38.221  1.00  0.00     0.006 C 
BRANCH  20  21
ATOM     21  C   UNL     1     -11.203  -4.586 -38.126  1.00  0.00     0.053 C 
BRANCH  21  22
ATOM     22  C   UNL     1     -11.835  -5.282 -36.959  1.00  0.00     0.041 C 
ATOM     23  O   UNL     1     -11.549  -4.935 -35.782  1.00  0.00    -0.550 OA
ATOM     24  O   UNL     1     -12.718  -6.334 -37.172  1.00  0.00    -0.550 OA
ENDBRANCH  21  22
ENDBRANCH  20  21
ENDBRANCH  19  20
ENDBRANCH  18  19
ENDBRANCH  17  18
ENDBRANCH  16  17
ENDBRANCH  15  16
ENDBRANCH  14  15
ENDBRANCH  13  14
ENDBRANCH   1  13
TORSDOF 20
ENDMDL
MODEL 2
REMARK VINA RESULT:     0.613      2.968      7.741
REMARK INTER + INTRA:           1.063
REMARK INTER:                   2.027
REMARK INTRA:                  -0.963
REMARK UNBOUND:                -0.266
REMARK SMILES CCCCCCCCCCCCCCCCCCCCCC(=O)[O-]
REMARK SMILES IDX 12 1 11 2 10 3 9 4 8 5 7 6 6 7 5 8 4 9 3 10 2 11 1 12 13 13
REMARK SMILES IDX 14 14 15 15 16 16 17 17 18 18 19 19 20 20 21 21 22 22 23 23
REMARK SMILES IDX 24 24
REMARK H PARENT
REMARK Flexibility Score: inf
ROOT
ATOM      1  C   UNL     1     -10.038  -0.515 -36.409  1.00  0.00     0.000 C 
ENDROOT
BRANCH   1   2
ATOM      2  C   UNL     1      -9.892   0.032 -37.837  1.00  0.00     0.000 C 
BRANCH   2   3
ATOM      3  C   UNL     1      -9.021  -0.860 -38.733  1.00  0.00     0.000 C 
BRANCH   3   4
ATOM      4  C   UNL     1      -9.777  -2.139 -39.125  1.00  0.00    -0.000 C 
BRANCH   4   5
ATOM      5  C   UNL     1      -8.891  -3.398 -39.084  1.00  0.00    -0.000 C 
BRANCH   5   6
ATOM      6  C   UNL     1      -9.066  -4.284 -37.835  1.00  0.00    -0.000 C 
BRANCH   6   7
ATOM      7  C   UNL     1     -10.360  -5.123 -37.798  1.00  0.00    -0.000 C 
BRANCH   7   8
ATOM      8  C   UNL     1     -11.386  -4.688 -36.733  1.00  0.00    -0.000 C 
BRANCH   8   9
ATOM      9  C   UNL     1     -10.860  -3.653 -35.721  1.00  0.00    -0.000 C 
BRANCH   9  10
ATOM     10  C   UNL     1     -11.982  -2.875 -34.998  1.00  0.00    -0.000 C 
BRANCH  10  11
ATOM     11  C   UNL     1     -12.446  -3.580 -33.715  1.00  0.00    -0.003 C 
ATOM     12  C   UNL     1     -13.498  -4.641 -34.019  1.00  0.00     0.004 C 
ENDBRANCH  10  11
ENDBRANCH   9  10
ENDBRANCH   8   9
ENDBRANCH   7   8
ENDBRANCH   6   7
ENDBRANCH   5   6
ENDBRANCH   4   5
ENDBRANCH   3   4
ENDBRANCH   2   3
ENDBRANCH   1   2
BRANCH   1  13
ATOM     13  C   UNL     1      -9.712   0.536 -35.332  1.00  0.00     0.000 C 
BRANCH  13  14
ATOM     14  C   UNL     1      -8.936   1.746 -35.896  1.00  0.00     0.000 C 
BRANCH  14  15
ATOM     15  C   UNL     1      -8.974   2.997 -34.997  1.00  0.00     0.000 C 
BRANCH  15  16
ATOM     16  C   UNL     1     -10.165   3.942 -35.229  1.00  0.00     0.000 C 
BRANCH  16  17
ATOM     17  C   UNL     1      -9.832   5.107 -36.177  1.00  0.00     0.000 C 
BRANCH  17  18
ATOM     18  C   UNL     1      -8.876   4.698 -37.314  1.00  0.00     0.000 C 
BRANCH  18  19
ATOM     19  C   UNL     1      -9.332   5.103 -38.728  1.00  0.00     0.000 C 
BRANCH  19  20
ATOM     20  C   UNL     1     -10.787   4.700 -39.026  1.00  0.00     0.006 C 
BRANCH  20  21
ATOM     21  C   UNL     1     -11.209   3.440 -38.257  1.00  0.00     0.053 C 
BRANCH  21  22
ATOM     22  C   UNL     1     -12.697   3.345 -38.106  1.00  0.00     0.041 C 
ATOM     23  O   UNL     1     -13.416   4.368 -38.260  1.00  0.00    -0.550 OA
ATOM     24  O   UNL     1     -13.286   2.133 -37.766  1.00  0.00    -0.550 OA
ENDBRANCH  21  22
ENDBRANCH  20  21
ENDBRANCH  19  20
ENDBRANCH  18  19
ENDBRANCH  17  18
ENDBRANCH  16  17
ENDBRANCH  15  16
ENDBRANCH  14  15
ENDBRANCH  13  14
ENDBRANCH   1  13
TORSDOF 20
ENDMDL
MODEL 3
REMARK VINA RESULT:     2.151     18.750     22.834
REMARK INTER + INTRA:           4.400
REMARK INTER:                   5.669
REMARK INTRA:                  -1.269
REMARK UNBOUND:                -0.266
REMARK SMILES CCCCCCCCCCCCCCCCCCCCCC(=O)[O-]
REMARK SMILES IDX 12 1 11 2 10 3 9 4 8 5 7 6 6 7 5 8 4 9 3 10 2 11 1 12 13 13
REMARK SMILES IDX 14 14 15 15 16 16 17 17 18 18 19 19 20 20 21 21 22 22 23 23
REMARK SMILES IDX 24 24
REMARK H PARENT
REMARK Flexibility Score: inf
ROOT
ATOM      1  C   UNL     1     -23.719 -14.597 -23.747  1.00  0.00     0.000 C 
ENDROOT
BRANCH   1   2
ATOM      2  C   UNL     1     -24.857 -15.045 -22.817  1.00  0.00     0.000 C 
BRANCH   2   3
ATOM      3  C   UNL     1     -24.452 -15.049 -21.335  1.00  0.00     0.000 C 
BRANCH   3   4
ATOM      4  C   UNL     1     -22.924 -15.125 -21.191  1.00  0.00    -0.000 C 
BRANCH   4   5
ATOM      5  C   UNL     1     -22.415 -14.532 -19.864  1.00  0.00    -0.000 C 
BRANCH   5   6
ATOM      6  C   UNL     1     -22.629 -13.014 -19.698  1.00  0.00    -0.000 C 
BRANCH   6   7
ATOM      7  C   UNL     1     -21.475 -12.258 -19.008  1.00  0.00    -0.000 C 
BRANCH   7   8
ATOM      8  C   UNL     1     -20.159 -13.052 -18.887  1.00  0.00    -0.000 C 
BRANCH   8   9
ATOM      9  C   UNL     1     -18.883 -12.192 -18.951  1.00  0.00    -0.000 C 
BRANCH   9  10
ATOM     10  C   UNL     1     -18.399 -11.915 -20.391  1.00  0.00    -0.000 C 
BRANCH  10  11
ATOM     11  C   UNL     1     -18.640 -10.460 -20.819  1.00  0.00    -0.003 C 
ATOM     12  C   UNL     1     -18.416  -9.499 -19.655  1.00  0.00     0.004 C 
ENDBRANCH  10  11
ENDBRANCH   9  10
ENDBRANCH   8   9
ENDBRANCH   7   8
ENDBRANCH   6   7
ENDBRANCH   5   6
ENDBRANCH   4   5
ENDBRANCH   3   4
ENDBRANCH   2   3
ENDBRANCH   1   2
BRANCH   1  13
ATOM     13  C   UNL     1     -24.198 -13.645 -24.859  1.00  0.00     0.000 C 
BRANCH  13  14
ATOM     14  C   UNL     1     -25.726 -13.427 -24.839  1.00  0.00     0.000 C 
BRANCH  14  15
ATOM     15  C   UNL     1     -26.207 -12.236 -25.690  1.00  0.00     0.000 C 
BRANCH  15  16
ATOM     16  C   UNL     1     -25.232 -11.051 -25.779  1.00  0.00     0.000 C 
BRANCH  16  17
ATOM     17  C   UNL     1     -25.935  -9.717 -26.084  1.00  0.00     0.000 C 
BRANCH  17  18
ATOM     18  C   UNL     1     -25.005  -8.693 -26.762  1.00  0.00     0.000 C 
BRANCH  18  19
ATOM     19  C   UNL     1     -23.516  -8.813 -26.386  1.00  0.00     0.000 C 
BRANCH  19  20
ATOM     20  C   UNL     1     -22.746  -7.492 -26.561  1.00  0.00     0.006 C 
BRANCH  20  21
ATOM     21  C   UNL     1     -21.338  -7.713 -27.132  1.00  0.00     0.053 C 
BRANCH  21  22
ATOM     22  C   UNL     1     -21.151  -7.020 -28.447  1.00  0.00     0.041 C 
ATOM     23  O   UNL     1     -21.223  -7.671 -29.523  1.00  0.00    -0.550 OA
ATOM     24  O   UNL     1     -20.865  -5.660 -28.483  1.00  0.00    -0.550 OA
ENDBRANCH  21  22
ENDBRANCH  20  21
ENDBRANCH  19  20
ENDBRANCH  18  19
ENDBRANCH  17  18
ENDBRANCH  16  17
ENDBRANCH  15  16
ENDBRANCH  14  15
ENDBRANCH  13  14
ENDBRANCH   1  13
TORSDOF 20
ENDMDL
MODEL 4
REMARK VINA RESULT:     2.234     18.347     22.443
REMARK INTER + INTRA:           4.579
REMARK INTER:                   5.887
REMARK INTRA:                  -1.308
REMARK UNBOUND:                -0.266
REMARK SMILES CCCCCCCCCCCCCCCCCCCCCC(=O)[O-]
REMARK SMILES IDX 12 1 11 2 10 3 9 4 8 5 7 6 6 7 5 8 4 9 3 10 2 11 1 12 13 13
REMARK SMILES IDX 14 14 15 15 16 16 17 17 18 18 19 19 20 20 21 21 22 22 23 23
REMARK SMILES IDX 24 24
REMARK H PARENT
REMARK Flexibility Score: inf
ROOT
ATOM      1  C   UNL     1     -23.376 -14.526 -24.020  1.00  0.00     0.000 C 
ENDROOT
BRANCH   1   2
ATOM      2  C   UNL     1     -24.629 -14.893 -23.209  1.00  0.00     0.000 C 
BRANCH   2   3
ATOM      3  C   UNL     1     -24.356 -14.994 -21.701  1.00  0.00     0.000 C 
BRANCH   3   4
ATOM      4  C   UNL     1     -22.849 -15.125 -21.429  1.00  0.00    -0.000 C 
BRANCH   4   5
ATOM      5  C   UNL     1     -22.457 -14.709 -20.000  1.00  0.00    -0.000 C 
BRANCH   5   6
ATOM      6  C   UNL     1     -22.633 -13.211 -19.680  1.00  0.00    -0.000 C 
BRANCH   6   7
ATOM      7  C   UNL     1     -21.483 -12.570 -18.875  1.00  0.00    -0.000 C 
BRANCH   7   8
ATOM      8  C   UNL     1     -20.122 -13.280 -19.009  1.00  0.00    -0.000 C 
BRANCH   8   9
ATOM      9  C   UNL     1     -18.900 -12.347 -18.920  1.00  0.00    -0.000 C 
BRANCH   9  10
ATOM     10  C   UNL     1     -18.497 -11.730 -20.277  1.00  0.00    -0.000 C 
BRANCH  10  11
ATOM     11  C   UNL     1     -18.217 -10.224 -20.173  1.00  0.00    -0.003 C 
ATOM     12  C   UNL     1     -19.488  -9.449 -19.837  1.00  0.00     0.004 C 
ENDBRANCH  10  11
ENDBRANCH   9  10
ENDBRANCH   8   9
ENDBRANCH   7   8
ENDBRANCH   6   7
ENDBRANCH   5   6
ENDBRANCH   4   5
ENDBRANCH   3   4
ENDBRANCH   2   3
ENDBRANCH   1   2
BRANCH   1  13
ATOM     13  C   UNL     1     -23.573 -13.264 -24.881  1.00  0.00     0.000 C 
BRANCH  13  14
ATOM     14  C   UNL     1     -25.044 -12.798 -24.927  1.00  0.00     0.000 C 
BRANCH  14  15
ATOM     15  C   UNL     1     -25.272 -11.500 -25.726  1.00  0.00     0.000 C 
BRANCH  15  16
ATOM     16  C   UNL     1     -24.298 -10.352 -25.413  1.00  0.00     0.000 C 
BRANCH  16  17
ATOM     17  C   UNL     1     -24.666  -9.041 -26.127  1.00  0.00     0.000 C 
BRANCH  17  18
ATOM     18  C   UNL     1     -23.570  -8.560 -27.097  1.00  0.00     0.000 C 
BRANCH  18  19
ATOM     19  C   UNL     1     -22.703  -7.397 -26.578  1.00  0.00     0.000 C 
BRANCH  19  20
ATOM     20  C   UNL     1     -21.394  -7.227 -27.370  1.00  0.00     0.006 C 
BRANCH  20  21
ATOM     21  C   UNL     1     -21.629  -6.583 -28.744  1.00  0.00     0.053 C 
BRANCH  21  22
ATOM     22  C   UNL     1     -21.406  -7.554 -29.864  1.00  0.00     0.041 C 
ATOM     23  O   UNL     1     -21.705  -7.238 -31.046  1.00  0.00    -0.550 OA
ATOM     24  O   UNL     1     -20.897  -8.820 -29.597  1.00  0.00    -0.550 OA
ENDBRANCH  21  22
ENDBRANCH  20  21
ENDBRANCH  19  20
ENDBRANCH  18  19
ENDBRANCH  17  18
ENDBRANCH  16  17
ENDBRANCH  15  16
ENDBRANCH  14  15
ENDBRANCH  13  14
ENDBRANCH   1  13
TORSDOF 20
ENDMDL
MODEL 5
REMARK VINA RESULT:     2.719     18.661     22.255
REMARK INTER + INTRA:           5.633
REMARK INTER:                   6.786
REMARK INTRA:                  -1.153
REMARK UNBOUND:                -0.266
REMARK SMILES CCCCCCCCCCCCCCCCCCCCCC(=O)[O-]
REMARK SMILES IDX 12 1 11 2 10 3 9 4 8 5 7 6 6 7 5 8 4 9 3 10 2 11 1 12 13 13
REMARK SMILES IDX 14 14 15 15 16 16 17 17 18 18 19 19 20 20 21 21 22 22 23 23
REMARK SMILES IDX 24 24
REMARK H PARENT
REMARK Flexibility Score: inf
ROOT
ATOM      1  C   UNL     1     -24.780 -13.677 -24.058  1.00  0.00     0.000 C 
ENDROOT
BRANCH   1   2
ATOM      2  C   UNL     1     -23.489 -13.345 -24.823  1.00  0.00     0.000 C 
BRANCH   2   3
ATOM      3  C   UNL     1     -23.569 -12.011 -25.579  1.00  0.00     0.000 C 
BRANCH   3   4
ATOM      4  C   UNL     1     -24.857 -11.256 -25.215  1.00  0.00    -0.000 C 
BRANCH   4   5
ATOM      5  C   UNL     1     -25.049  -9.965 -26.031  1.00  0.00    -0.000 C 
BRANCH   5   6
ATOM      6  C   UNL     1     -24.144  -8.787 -25.619  1.00  0.00    -0.000 C 
BRANCH   6   7
ATOM      7  C   UNL     1     -23.528  -7.989 -26.787  1.00  0.00    -0.000 C 
BRANCH   7   8
ATOM      8  C   UNL     1     -22.039  -8.279 -27.057  1.00  0.00    -0.000 C 
BRANCH   8   9
ATOM      9  C   UNL     1     -21.162  -7.025 -27.232  1.00  0.00    -0.000 C 
BRANCH   9  10
ATOM     10  C   UNL     1     -20.735  -6.771 -28.694  1.00  0.00    -0.000 C 
BRANCH  10  11
ATOM     11  C   UNL     1     -21.193  -7.892 -29.639  1.00  0.00    -0.003 C 
ATOM     12  C   UNL     1     -22.336  -7.425 -30.535  1.00  0.00     0.004 C 
ENDBRANCH  10  11
ENDBRANCH   9  10
ENDBRANCH   8   9
ENDBRANCH   7   8
ENDBRANCH   6   7
ENDBRANCH   5   6
ENDBRANCH   4   5
ENDBRANCH   3   4
ENDBRANCH   2   3
ENDBRANCH   1   2
BRANCH   1  13
ATOM     13  C   UNL     1     -24.780 -15.105 -23.481  1.00  0.00     0.000 C 
BRANCH  13  14
ATOM     14  C   UNL     1     -24.812 -15.123 -21.937  1.00  0.00     0.000 C 
BRANCH  14  15
ATOM     15  C   UNL     1     -23.509 -14.640 -21.271  1.00  0.00     0.000 C 
BRANCH  15  16
ATOM     16  C   UNL     1     -23.452 -14.793 -19.742  1.00  0.00     0.000 C 
BRANCH  16  17
ATOM     17  C   UNL     1     -22.378 -13.906 -19.090  1.00  0.00     0.000 C 
BRANCH  17  18
ATOM     18  C   UNL     1     -21.042 -14.643 -18.875  1.00  0.00     0.000 C 
BRANCH  18  19
ATOM     19  C   UNL     1     -19.781 -13.792 -19.114  1.00  0.00     0.000 C 
BRANCH  19  20
ATOM     20  C   UNL     1     -20.047 -12.281 -18.997  1.00  0.00     0.006 C 
BRANCH  20  21
ATOM     21  C   UNL     1     -19.458 -11.495 -20.178  1.00  0.00     0.053 C 
BRANCH  21  22
ATOM     22  C   UNL     1     -19.000 -10.128 -19.770  1.00  0.00     0.041 C 
ATOM     23  O   UNL     1     -19.651  -9.470 -18.915  1.00  0.00    -0.550 OA
ATOM     24  O   UNL     1     -17.871  -9.569 -20.357  1.00  0.00    -0.550 OA
ENDBRANCH  21  22
ENDBRANCH  20  21
ENDBRANCH  19  20
ENDBRANCH  18  19
ENDBRANCH  17  18
ENDBRANCH  16  17
ENDBRANCH  15  16
ENDBRANCH  14  15
ENDBRANCH  13  14
ENDBRANCH   1  13
TORSDOF 20
ENDMDL
