MODEL 1
REMARK VINA RESULT:    -5.469      0.000      0.000
REMARK INTER + INTRA:         -12.595
REMARK INTER:                  -9.945
REMARK INTRA:                  -2.649
REMARK UNBOUND:                -2.649
REMARK SMILES CCCCCCCCCCCCCCCC(=O)[O-]
REMARK SMILES IDX 9 1 10 2 11 3 12 4 13 5 14 6 15 7 16 8 17 9 18 10 8 11 7 12
REMARK SMILES IDX 6 13 5 14 4 15 3 16 2 17 1 18
REMARK H PARENT
REMARK Flexibility Score: inf
ROOT
ATOM      1  C   UNL     1       7.749  24.228  42.548  1.00  0.00     0.000 C 
ENDROOT
BRANCH   1   2
ATOM      2  C   UNL     1       7.552  24.525  44.041  1.00  0.00     0.000 C 
BRANCH   2   3
ATOM      3  C   UNL     1       8.675  23.900  44.878  1.00  0.00     0.000 C 
BRANCH   3   4
ATOM      4  C   UNL     1       8.101  23.085  46.046  1.00  0.00     0.000 C 
BRANCH   4   5
ATOM      5  C   UNL     1       8.294  21.571  45.863  1.00  0.00     0.000 C 
BRANCH   5   6
ATOM      6  C   UNL     1       9.690  21.214  45.323  1.00  0.00     0.006 C 
BRANCH   6   7
ATOM      7  C   UNL     1       9.617  20.422  44.010  1.00  0.00     0.053 C 
BRANCH   7   8
ATOM      8  C   UNL     1       9.344  18.970  44.253  1.00  0.00     0.041 C 
ATOM      9  O   UNL     1       8.158  18.545  44.289  1.00  0.00    -0.550 OA
ATOM     10  O   UNL     1      10.398  18.078  44.402  1.00  0.00    -0.550 OA
ENDBRANCH   7   8
ENDBRANCH   6   7
ENDBRANCH   5   6
ENDBRANCH   4   5
ENDBRANCH   3   4
ENDBRANCH   2   3
ENDBRANCH   1   2
BRANCH   1  11
ATOM     11  C   UNL     1       7.762  22.720  42.235  1.00  0.00     0.000 C 
BRANCH  11  12
ATOM     12  C   UNL     1       6.369  22.078  42.072  1.00  0.00    -0.000 C 
BRANCH  12  13
ATOM     13  C   UNL     1       5.953  21.124  43.209  1.00  0.00    -0.000 C 
BRANCH  13  14
ATOM     14  C   UNL     1       4.587  21.434  43.853  1.00  0.00    -0.000 C 
BRANCH  14  15
ATOM     15  C   UNL     1       4.655  22.237  45.166  1.00  0.00    -0.000 C 
BRANCH  15  16
ATOM     16  C   UNL     1       4.245  23.707  44.989  1.00  0.00    -0.000 C 
BRANCH  16  17
ATOM     17  C   UNL     1       3.547  23.923  43.640  1.00  0.00    -0.003 C 
ATOM     18  C   UNL     1       3.998  25.227  42.990  1.00  0.00     0.004 C 
ENDBRANCH  16  17
ENDBRANCH  15  16
ENDBRANCH  14  15
ENDBRANCH  13  14
ENDBRANCH  12  13
ENDBRANCH  11  12
ENDBRANCH   1  11
TORSDOF 14
ENDMDL
MODEL 2
REMARK VINA RESULT:    -5.385      2.978      5.490
REMARK INTER + INTRA:         -12.442
REMARK INTER:                  -9.940
REMARK INTRA:                  -2.501
REMARK UNBOUND:                -2.649
REMARK SMILES CCCCCCCCCCCCCCCC(=O)[O-]
REMARK SMILES IDX 9 1 10 2 11 3 12 4 13 5 14 6 15 7 16 8 17 9 18 10 8 11 7 12
REMARK SMILES IDX 6 13 5 14 4 15 3 16 2 17 1 18
REMARK H PARENT
REMARK Flexibility Score: inf
ROOT
ATOM      1  C   UNL     1       6.228  21.872  46.390  1.00  0.00     0.000 C 
ENDROOT
BRANCH   1   2
ATOM      2  C   UNL     1       6.627  23.336  46.623  1.00  0.00     0.000 C 
BRANCH   2   3
ATOM      3  C   UNL     1       8.108  23.560  46.296  1.00  0.00     0.000 C 
BRANCH   3   4
ATOM      4  C   UNL     1       8.381  23.338  44.801  1.00  0.00     0.000 C 
BRANCH   4   5
ATOM      5  C   UNL     1       8.028  24.565  43.946  1.00  0.00     0.000 C 
BRANCH   5   6
ATOM      6  C   UNL     1       6.725  24.376  43.149  1.00  0.00     0.006 C 
BRANCH   6   7
ATOM      7  C   UNL     1       5.612  25.318  43.627  1.00  0.00     0.053 C 
BRANCH   7   8
ATOM      8  C   UNL     1       4.355  25.141  42.832  1.00  0.00     0.041 C 
ATOM      9  O   UNL     1       3.423  25.984  42.925  1.00  0.00    -0.550 OA
ATOM     10  O   UNL     1       4.227  24.067  41.961  1.00  0.00    -0.550 OA
ENDBRANCH   7   8
ENDBRANCH   6   7
ENDBRANCH   5   6
ENDBRANCH   4   5
ENDBRANCH   3   4
ENDBRANCH   2   3
ENDBRANCH   1   2
BRANCH   1  11
ATOM     11  C   UNL     1       4.777  21.718  45.899  1.00  0.00     0.000 C 
BRANCH  11  12
ATOM     12  C   UNL     1       4.616  21.608  44.369  1.00  0.00    -0.000 C 
BRANCH  12  13
ATOM     13  C   UNL     1       5.135  20.295  43.751  1.00  0.00    -0.000 C 
BRANCH  13  14
ATOM     14  C   UNL     1       6.089  20.472  42.552  1.00  0.00    -0.000 C 
BRANCH  14  15
ATOM     15  C   UNL     1       7.587  20.476  42.907  1.00  0.00    -0.000 C 
BRANCH  15  16
ATOM     16  C   UNL     1       7.946  19.447  43.990  1.00  0.00    -0.000 C 
BRANCH  16  17
ATOM     17  C   UNL     1       9.281  19.797  44.657  1.00  0.00    -0.003 C 
ATOM     18  C   UNL     1       9.166  19.754  46.177  1.00  0.00     0.004 C 
ENDBRANCH  16  17
ENDBRANCH  15  16
ENDBRANCH  14  15
ENDBRANCH  13  14
ENDBRANCH  12  13
ENDBRANCH  11  12
ENDBRANCH   1  11
TORSDOF 14
ENDMDL
MODEL 3
REMARK VINA RESULT:    -5.314      1.267      2.696
REMARK INTER + INTRA:         -12.313
REMARK INTER:                  -9.606
REMARK INTRA:                  -2.706
REMARK UNBOUND:                -2.649
REMARK SMILES CCCCCCCCCCCCCCCC(=O)[O-]
REMARK SMILES IDX 9 1 10 2 11 3 12 4 13 5 14 6 15 7 16 8 17 9 18 10 8 11 7 12
REMARK SMILES IDX 6 13 5 14 4 15 3 16 2 17 1 18
REMARK H PARENT
REMARK Flexibility Score: inf
ROOT
ATOM      1  C   UNL     1       4.508  20.406  44.375  1.00  0.00     0.000 C 
ENDROOT
BRANCH   1   2
ATOM      2  C   UNL     1       4.470  21.461  45.490  1.00  0.00     0.000 C 
BRANCH   2   3
ATOM      3  C   UNL     1       5.729  21.384  46.362  1.00  0.00     0.000 C 
BRANCH   3   4
ATOM      4  C   UNL     1       6.367  22.771  46.531  1.00  0.00     0.000 C 
BRANCH   4   5
ATOM      5  C   UNL     1       7.873  22.772  46.226  1.00  0.00     0.000 C 
BRANCH   5   6
ATOM      6  C   UNL     1       8.420  21.361  45.946  1.00  0.00     0.006 C 
BRANCH   6   7
ATOM      7  C   UNL     1       9.634  21.387  45.008  1.00  0.00     0.053 C 
BRANCH   7   8
ATOM      8  C   UNL     1       9.630  20.225  44.062  1.00  0.00     0.041 C 
ATOM      9  O   UNL     1       9.544  20.420  42.820  1.00  0.00    -0.550 OA
ATOM     10  O   UNL     1       9.758  18.931  44.548  1.00  0.00    -0.550 OA
ENDBRANCH   7   8
ENDBRANCH   6   7
ENDBRANCH   5   6
ENDBRANCH   4   5
ENDBRANCH   3   4
ENDBRANCH   2   3
ENDBRANCH   1   2
BRANCH   1  11
ATOM     11  C   UNL     1       5.904  20.253  43.744  1.00  0.00     0.000 C 
BRANCH  11  12
ATOM     12  C   UNL     1       5.952  20.453  42.215  1.00  0.00    -0.000 C 
BRANCH  12  13
ATOM     13  C   UNL     1       5.921  21.921  41.748  1.00  0.00    -0.000 C 
BRANCH  13  14
ATOM     14  C   UNL     1       6.698  22.907  42.645  1.00  0.00    -0.000 C 
BRANCH  14  15
ATOM     15  C   UNL     1       5.880  24.109  43.150  1.00  0.00    -0.000 C 
BRANCH  15  16
ATOM     16  C   UNL     1       4.482  24.188  42.517  1.00  0.00    -0.000 C 
BRANCH  16  17
ATOM     17  C   UNL     1       3.393  24.219  43.596  1.00  0.00    -0.003 C 
ATOM     18  C   UNL     1       3.885  24.924  44.856  1.00  0.00     0.004 C 
ENDBRANCH  16  17
ENDBRANCH  15  16
ENDBRANCH  14  15
ENDBRANCH  13  14
ENDBRANCH  12  13
ENDBRANCH  11  12
ENDBRANCH   1  11
TORSDOF 14
ENDMDL
MODEL 4
REMARK VINA RESULT:    -5.283      2.946      5.260
REMARK INTER + INTRA:         -12.255
REMARK INTER:                  -9.784
REMARK INTRA:                  -2.471
REMARK UNBOUND:                -2.649
REMARK SMILES CCCCCCCCCCCCCCCC(=O)[O-]
REMARK SMILES IDX 9 1 10 2 11 3 12 4 13 5 14 6 15 7 16 8 17 9 18 10 8 11 7 12
REMARK SMILES IDX 6 13 5 14 4 15 3 16 2 17 1 18
REMARK H PARENT
REMARK Flexibility Score: inf
ROOT
ATOM      1  C   UNL     1       5.606  21.006  42.077  1.00  0.00     0.000 C 
ENDROOT
BRANCH   1   2
ATOM      2  C   UNL     1       6.590  22.044  41.520  1.00  0.00     0.000 C 
BRANCH   2   3
ATOM      3  C   UNL     1       7.785  22.230  42.463  1.00  0.00     0.000 C 
BRANCH   3   4
ATOM      4  C   UNL     1       8.195  23.708  42.547  1.00  0.00     0.000 C 
BRANCH   4   5
ATOM      5  C   UNL     1       7.555  24.434  43.740  1.00  0.00     0.000 C 
BRANCH   5   6
ATOM      6  C   UNL     1       6.261  25.174  43.358  1.00  0.00     0.006 C 
BRANCH   6   7
ATOM      7  C   UNL     1       5.061  24.709  44.194  1.00  0.00     0.053 C 
BRANCH   7   8
ATOM      8  C   UNL     1       3.957  24.179  43.332  1.00  0.00     0.041 C 
ATOM      9  O   UNL     1       4.023  24.287  42.078  1.00  0.00    -0.550 OA
ATOM     10  O   UNL     1       2.872  23.532  43.910  1.00  0.00    -0.550 OA
ENDBRANCH   7   8
ENDBRANCH   6   7
ENDBRANCH   5   6
ENDBRANCH   4   5
ENDBRANCH   3   4
ENDBRANCH   2   3
ENDBRANCH   1   2
BRANCH   1  11
ATOM     11  C   UNL     1       5.910  20.616  43.536  1.00  0.00     0.000 C 
BRANCH  11  12
ATOM     12  C   UNL     1       4.669  20.464  44.440  1.00  0.00    -0.000 C 
BRANCH  12  13
ATOM     13  C   UNL     1       4.711  21.278  45.748  1.00  0.00    -0.000 C 
BRANCH  13  14
ATOM     14  C   UNL     1       6.054  21.225  46.505  1.00  0.00    -0.000 C 
BRANCH  14  15
ATOM     15  C   UNL     1       6.829  22.555  46.547  1.00  0.00    -0.000 C 
BRANCH  15  16
ATOM     16  C   UNL     1       8.312  22.394  46.180  1.00  0.00    -0.000 C 
BRANCH  16  17
ATOM     17  C   UNL     1       8.645  20.929  45.874  1.00  0.00    -0.003 C 
ATOM     18  C   UNL     1      10.014  20.801  45.213  1.00  0.00     0.004 C 
ENDBRANCH  16  17
ENDBRANCH  15  16
ENDBRANCH  14  15
ENDBRANCH  13  14
ENDBRANCH  12  13
ENDBRANCH  11  12
ENDBRANCH   1  11
TORSDOF 14
ENDMDL
MODEL 5
REMARK VINA RESULT:    -5.262      2.978      5.832
REMARK INTER + INTRA:         -12.218
REMARK INTER:                  -9.869
REMARK INTRA:                  -2.350
REMARK UNBOUND:                -2.649
REMARK SMILES CCCCCCCCCCCCCCCC(=O)[O-]
REMARK SMILES IDX 9 1 10 2 11 3 12 4 13 5 14 6 15 7 16 8 17 9 18 10 8 11 7 12
REMARK SMILES IDX 6 13 5 14 4 15 3 16 2 17 1 18
REMARK H PARENT
REMARK Flexibility Score: inf
ROOT
ATOM      1  C   UNL     1       6.340  20.490  42.414  1.00  0.00     0.000 C 
ENDROOT
BRANCH   1   2
ATOM      2  C   UNL     1       6.201  20.312  43.933  1.00  0.00     0.000 C 
BRANCH   2   3
ATOM      3  C   UNL     1       4.728  20.171  44.336  1.00  0.00     0.000 C 
BRANCH   3   4
ATOM      4  C   UNL     1       4.436  20.942  45.631  1.00  0.00     0.000 C 
BRANCH   4   5
ATOM      5  C   UNL     1       4.691  22.451  45.492  1.00  0.00     0.000 C 
BRANCH   5   6
ATOM      6  C   UNL     1       3.857  23.091  44.368  1.00  0.00     0.006 C 
BRANCH   6   7
ATOM      7  C   UNL     1       3.724  24.610  44.540  1.00  0.00     0.053 C 
BRANCH   7   8
ATOM      8  C   UNL     1       3.662  25.315  43.220  1.00  0.00     0.041 C 
ATOM      9  O   UNL     1       2.994  26.377  43.098  1.00  0.00    -0.550 OA
ATOM     10  O   UNL     1       4.371  24.821  42.132  1.00  0.00    -0.550 OA
ENDBRANCH   7   8
ENDBRANCH   6   7
ENDBRANCH   5   6
ENDBRANCH   4   5
ENDBRANCH   3   4
ENDBRANCH   2   3
ENDBRANCH   1   2
BRANCH   1  11
ATOM     11  C   UNL     1       6.463  21.966  41.993  1.00  0.00     0.000 C 
BRANCH  11  12
ATOM     12  C   UNL     1       7.906  22.509  41.938  1.00  0.00    -0.000 C 
BRANCH  12  13
ATOM     13  C   UNL     1       8.110  23.889  42.593  1.00  0.00    -0.000 C 
BRANCH  13  14
ATOM     14  C   UNL     1       7.473  24.048  43.988  1.00  0.00    -0.000 C 
BRANCH  14  15
ATOM     15  C   UNL     1       8.444  23.879  45.170  1.00  0.00    -0.000 C 
BRANCH  15  16
ATOM     16  C   UNL     1       8.380  22.479  45.801  1.00  0.00    -0.000 C 
BRANCH  16  17
ATOM     17  C   UNL     1       9.436  21.553  45.188  1.00  0.00    -0.003 C 
ATOM     18  C   UNL     1       9.342  20.147  45.773  1.00  0.00     0.004 C 
ENDBRANCH  16  17
ENDBRANCH  15  16
ENDBRANCH  14  15
ENDBRANCH  13  14
ENDBRANCH  12  13
ENDBRANCH  11  12
ENDBRANCH   1  11
TORSDOF 14
ENDMDL
MODEL 6
REMARK VINA RESULT:    -5.165      3.497      5.672
REMARK INTER + INTRA:         -12.041
REMARK INTER:                  -9.660
REMARK INTRA:                  -2.382
REMARK UNBOUND:                -2.649
REMARK SMILES CCCCCCCCCCCCCCCC(=O)[O-]
REMARK SMILES IDX 9 1 10 2 11 3 12 4 13 5 14 6 15 7 16 8 17 9 18 10 8 11 7 12
REMARK SMILES IDX 6 13 5 14 4 15 3 16 2 17 1 18
REMARK H PARENT
REMARK Flexibility Score: inf
ROOT
ATOM      1  C   UNL     1       8.507  23.354  44.759  1.00  0.00     0.000 C 
ENDROOT
BRANCH   1   2
ATOM      2  C   UNL     1       7.573  23.868  45.864  1.00  0.00     0.000 C 
BRANCH   2   3
ATOM      3  C   UNL     1       6.923  22.703  46.619  1.00  0.00     0.000 C 
BRANCH   3   4
ATOM      4  C   UNL     1       5.551  22.358  46.021  1.00  0.00     0.000 C 
BRANCH   4   5
ATOM      5  C   UNL     1       4.894  23.555  45.316  1.00  0.00     0.000 C 
BRANCH   5   6
ATOM      6  C   UNL     1       3.980  23.128  44.154  1.00  0.00     0.006 C 
BRANCH   6   7
ATOM      7  C   UNL     1       4.056  24.103  42.971  1.00  0.00     0.053 C 
BRANCH   7   8
ATOM      8  C   UNL     1       3.396  25.410  43.284  1.00  0.00     0.041 C 
ATOM      9  O   UNL     1       3.878  26.486  42.840  1.00  0.00    -0.550 OA
ATOM     10  O   UNL     1       2.228  25.438  44.037  1.00  0.00    -0.550 OA
ENDBRANCH   7   8
ENDBRANCH   6   7
ENDBRANCH   5   6
ENDBRANCH   4   5
ENDBRANCH   3   4
ENDBRANCH   2   3
ENDBRANCH   1   2
BRANCH   1  11
ATOM     11  C   UNL     1       7.964  23.624  43.343  1.00  0.00     0.000 C 
BRANCH  11  12
ATOM     12  C   UNL     1       8.043  22.424  42.378  1.00  0.00    -0.000 C 
BRANCH  12  13
ATOM     13  C   UNL     1       6.682  21.879  41.902  1.00  0.00    -0.000 C 
BRANCH  13  14
ATOM     14  C   UNL     1       6.353  20.447  42.372  1.00  0.00    -0.000 C 
BRANCH  14  15
ATOM     15  C   UNL     1       6.666  20.161  43.852  1.00  0.00    -0.000 C 
BRANCH  15  16
ATOM     16  C   UNL     1       8.008  19.441  44.050  1.00  0.00    -0.000 C 
BRANCH  16  17
ATOM     17  C   UNL     1       8.557  19.683  45.461  1.00  0.00    -0.003 C 
ATOM     18  C   UNL     1      10.039  20.043  45.422  1.00  0.00     0.004 C 
ENDBRANCH  16  17
ENDBRANCH  15  16
ENDBRANCH  14  15
ENDBRANCH  13  14
ENDBRANCH  12  13
ENDBRANCH  11  12
ENDBRANCH   1  11
TORSDOF 14
ENDMDL
MODEL 7
REMARK VINA RESULT:    -5.111      2.128      3.809
REMARK INTER + INTRA:         -11.943
REMARK INTER:                  -9.807
REMARK INTRA:                  -2.137
REMARK UNBOUND:                -2.649
REMARK SMILES CCCCCCCCCCCCCCCC(=O)[O-]
REMARK SMILES IDX 9 1 10 2 11 3 12 4 13 5 14 6 15 7 16 8 17 9 18 10 8 11 7 12
REMARK SMILES IDX 6 13 5 14 4 15 3 16 2 17 1 18
REMARK H PARENT
REMARK Flexibility Score: inf
ROOT
ATOM      1  C   UNL     1       7.513  20.827  45.727  1.00  0.00     0.000 C 
ENDROOT
BRANCH   1   2
ATOM      2  C   UNL     1       8.774  21.695  45.612  1.00  0.00     0.000 C 
BRANCH   2   3
ATOM      3  C   UNL     1       9.960  20.872  45.094  1.00  0.00     0.000 C 
BRANCH   3   4
ATOM      4  C   UNL     1       9.530  19.952  43.942  1.00  0.00     0.000 C 
BRANCH   4   5
ATOM      5  C   UNL     1       9.728  18.463  44.268  1.00  0.00     0.000 C 
BRANCH   5   6
ATOM      6  C   UNL     1      10.936  18.215  45.189  1.00  0.00     0.006 C 
BRANCH   6   7
ATOM      7  C   UNL     1      11.785  17.026  44.720  1.00  0.00     0.053 C 
BRANCH   7   8
ATOM      8  C   UNL     1      12.659  16.500  45.817  1.00  0.00     0.041 C 
ATOM      9  O   UNL     1      12.175  16.272  46.958  1.00  0.00    -0.550 OA
ATOM     10  O   UNL     1      13.998  16.227  45.571  1.00  0.00    -0.550 OA
ENDBRANCH   7   8
ENDBRANCH   6   7
ENDBRANCH   5   6
ENDBRANCH   4   5
ENDBRANCH   3   4
ENDBRANCH   2   3
ENDBRANCH   1   2
BRANCH   1  11
ATOM     11  C   UNL     1       6.213  21.653  45.693  1.00  0.00     0.000 C 
BRANCH  11  12
ATOM     12  C   UNL     1       5.192  21.213  44.624  1.00  0.00    -0.000 C 
BRANCH  12  13
ATOM     13  C   UNL     1       5.678  20.102  43.674  1.00  0.00    -0.000 C 
BRANCH  13  14
ATOM     14  C   UNL     1       5.886  20.540  42.210  1.00  0.00    -0.000 C 
BRANCH  14  15
ATOM     15  C   UNL     1       6.167  22.041  42.015  1.00  0.00    -0.000 C 
BRANCH  15  16
ATOM     16  C   UNL     1       7.667  22.373  42.018  1.00  0.00    -0.000 C 
BRANCH  16  17
ATOM     17  C   UNL     1       7.921  23.755  42.631  1.00  0.00    -0.003 C 
ATOM     18  C   UNL     1       6.623  24.386  43.125  1.00  0.00     0.004 C 
ENDBRANCH  16  17
ENDBRANCH  15  16
ENDBRANCH  14  15
ENDBRANCH  13  14
ENDBRANCH  12  13
ENDBRANCH  11  12
ENDBRANCH   1  11
TORSDOF 14
ENDMDL
MODEL 8
REMARK VINA RESULT:    -5.101      4.049      6.328
REMARK INTER + INTRA:         -11.925
REMARK INTER:                  -9.496
REMARK INTRA:                  -2.429
REMARK UNBOUND:                -2.649
REMARK SMILES CCCCCCCCCCCCCCCC(=O)[O-]
REMARK SMILES IDX 9 1 10 2 11 3 12 4 13 5 14 6 15 7 16 8 17 9 18 10 8 11 7 12
REMARK SMILES IDX 6 13 5 14 4 15 3 16 2 17 1 18
REMARK H PARENT
REMARK Flexibility Score: inf
ROOT
ATOM      1  C   UNL     1       7.801  23.000  46.098  1.00  0.00     0.000 C 
ENDROOT
BRANCH   1   2
ATOM      2  C   UNL     1       7.867  24.149  45.080  1.00  0.00     0.000 C 
BRANCH   2   3
ATOM      3  C   UNL     1       7.801  23.614  43.644  1.00  0.00     0.000 C 
BRANCH   3   4
ATOM      4  C   UNL     1       6.717  24.342  42.836  1.00  0.00     0.000 C 
BRANCH   4   5
ATOM      5  C   UNL     1       5.641  24.980  43.728  1.00  0.00     0.000 C 
BRANCH   5   6
ATOM      6  C   UNL     1       4.396  25.414  42.935  1.00  0.00     0.006 C 
BRANCH   6   7
ATOM      7  C   UNL     1       3.124  25.383  43.793  1.00  0.00     0.053 C 
BRANCH   7   8
ATOM      8  C   UNL     1       2.160  26.459  43.396  1.00  0.00     0.041 C 
ATOM      9  O   UNL     1       2.452  27.262  42.469  1.00  0.00    -0.550 OA
ATOM     10  O   UNL     1       0.924  26.553  44.023  1.00  0.00    -0.550 OA
ENDBRANCH   7   8
ENDBRANCH   6   7
ENDBRANCH   5   6
ENDBRANCH   4   5
ENDBRANCH   3   4
ENDBRANCH   2   3
ENDBRANCH   1   2
BRANCH   1  11
ATOM     11  C   UNL     1       6.399  22.823  46.709  1.00  0.00     0.000 C 
BRANCH  11  12
ATOM     12  C   UNL     1       5.645  21.559  46.251  1.00  0.00    -0.000 C 
BRANCH  12  13
ATOM     13  C   UNL     1       4.451  21.816  45.311  1.00  0.00    -0.000 C 
BRANCH  13  14
ATOM     14  C   UNL     1       4.683  21.420  43.838  1.00  0.00    -0.000 C 
BRANCH  14  15
ATOM     15  C   UNL     1       5.487  20.124  43.633  1.00  0.00    -0.000 C 
BRANCH  15  16
ATOM     16  C   UNL     1       6.631  20.284  42.619  1.00  0.00    -0.000 C 
BRANCH  16  17
ATOM     17  C   UNL     1       7.994  20.228  43.318  1.00  0.00    -0.003 C 
ATOM     18  C   UNL     1       7.993  19.202  44.447  1.00  0.00     0.004 C 
ENDBRANCH  16  17
ENDBRANCH  15  16
ENDBRANCH  14  15
ENDBRANCH  13  14
ENDBRANCH  12  13
ENDBRANCH  11  12
ENDBRANCH   1  11
TORSDOF 14
ENDMDL
MODEL 9
REMARK VINA RESULT:    -5.086      3.047      5.727
REMARK INTER + INTRA:         -11.899
REMARK INTER:                  -9.412
REMARK INTRA:                  -2.487
REMARK UNBOUND:                -2.649
REMARK SMILES CCCCCCCCCCCCCCCC(=O)[O-]
REMARK SMILES IDX 9 1 10 2 11 3 12 4 13 5 14 6 15 7 16 8 17 9 18 10 8 11 7 12
REMARK SMILES IDX 6 13 5 14 4 15 3 16 2 17 1 18
REMARK H PARENT
REMARK Flexibility Score: inf
ROOT
ATOM      1  C   UNL     1       7.074  23.252  42.360  1.00  0.00     0.000 C 
ENDROOT
BRANCH   1   2
ATOM      2  C   UNL     1       7.833  21.918  42.314  1.00  0.00     0.000 C 
BRANCH   2   3
ATOM      3  C   UNL     1       6.938  20.762  42.777  1.00  0.00     0.000 C 
BRANCH   3   4
ATOM      4  C   UNL     1       5.465  21.194  42.831  1.00  0.00     0.000 C 
BRANCH   4   5
ATOM      5  C   UNL     1       4.806  20.882  44.183  1.00  0.00     0.000 C 
BRANCH   5   6
ATOM      6  C   UNL     1       4.348  22.150  44.924  1.00  0.00     0.006 C 
BRANCH   6   7
ATOM      7  C   UNL     1       3.603  23.123  44.001  1.00  0.00     0.053 C 
BRANCH   7   8
ATOM      8  C   UNL     1       3.943  24.549  44.306  1.00  0.00     0.041 C 
ATOM      9  O   UNL     1       3.871  24.979  45.488  1.00  0.00    -0.550 OA
ATOM     10  O   UNL     1       4.376  25.394  43.292  1.00  0.00    -0.550 OA
ENDBRANCH   7   8
ENDBRANCH   6   7
ENDBRANCH   5   6
ENDBRANCH   4   5
ENDBRANCH   3   4
ENDBRANCH   2   3
ENDBRANCH   1   2
BRANCH   1  11
ATOM     11  C   UNL     1       7.941  24.417  42.874  1.00  0.00     0.000 C 
BRANCH  11  12
ATOM     12  C   UNL     1       8.471  24.247  44.312  1.00  0.00    -0.000 C 
BRANCH  12  13
ATOM     13  C   UNL     1       7.405  23.870  45.360  1.00  0.00    -0.000 C 
BRANCH  13  14
ATOM     14  C   UNL     1       7.777  22.681  46.269  1.00  0.00    -0.000 C 
BRANCH  14  15
ATOM     15  C   UNL     1       8.928  21.800  45.749  1.00  0.00    -0.000 C 
BRANCH  15  16
ATOM     16  C   UNL     1       8.610  20.299  45.822  1.00  0.00    -0.000 C 
BRANCH  16  17
ATOM     17  C   UNL     1       9.853  19.459  45.504  1.00  0.00    -0.003 C 
ATOM     18  C   UNL     1       9.633  18.598  44.264  1.00  0.00     0.004 C 
ENDBRANCH  16  17
ENDBRANCH  15  16
ENDBRANCH  14  15
ENDBRANCH  13  14
ENDBRANCH  12  13
ENDBRANCH  11  12
ENDBRANCH   1  11
TORSDOF 14
ENDMDL
