MODEL 1
REMARK VINA RESULT:    -3.286      0.000      0.000
REMARK INTER + INTRA:          -4.045
REMARK INTER:                  -3.958
REMARK INTRA:                  -0.087
REMARK UNBOUND:                -0.087
REMARK SMILES CC[C@H](C)[C@H]([NH3+])C(=O)[O-]
REMARK SMILES IDX 3 1 4 2 5 3 6 4 7 8 8 9 9 10 2 11 1 12
REMARK H PARENT 6 5 6 6 6 7
REMARK Flexibility Score: inf
ROOT
ATOM      1  C   UNL     1       1.322  13.731  -8.616  1.00  0.00     0.050 C 
ATOM      2  C   UNL     1       1.007  15.091  -9.276  1.00  0.00     0.014 C 
ENDROOT
BRANCH   1   3
ATOM      3  C   UNL     1       0.367  13.481  -7.404  1.00  0.00     0.230 C 
BRANCH   3   4
ATOM      4  N   UNL     1       1.091  13.422  -6.124  1.00  0.00    -0.350 N 
ATOM      5  H   UNL     1       0.670  14.079  -5.429  1.00  0.00     0.345 HD
ATOM      6  H   UNL     1       2.096  13.677  -6.265  1.00  0.00     0.345 HD
ATOM      7  H   UNL     1       1.078  12.448  -5.745  1.00  0.00     0.345 HD
ENDBRANCH   3   4
BRANCH   3   8
ATOM      8  C   UNL     1      -0.419  12.205  -7.589  1.00  0.00     0.099 C 
ATOM      9  O   UNL     1      -0.202  11.462  -8.583  1.00  0.00    -0.544 OA
ATOM     10  O   UNL     1      -1.387  11.844  -6.660  1.00  0.00    -0.544 OA
ENDBRANCH   3   8
ENDBRANCH   1   3
BRANCH   1  11
ATOM     11  C   UNL     1       2.813  13.662  -8.191  1.00  0.00     0.006 C 
ATOM     12  C   UNL     1       3.790  13.753  -9.366  1.00  0.00     0.004 C 
ENDBRANCH   1  11
TORSDOF 4
ENDMDL
MODEL 2
REMARK VINA RESULT:    -3.186      1.250      1.448
REMARK INTER + INTRA:          -3.925
REMARK INTER:                  -3.828
REMARK INTRA:                  -0.097
REMARK UNBOUND:                -0.087
REMARK SMILES CC[C@H](C)[C@H]([NH3+])C(=O)[O-]
REMARK SMILES IDX 3 1 4 2 5 3 6 4 7 8 8 9 9 10 2 11 1 12
REMARK H PARENT 6 5 6 6 6 7
REMARK Flexibility Score: inf
ROOT
ATOM      1  C   UNL     1       1.578  14.414  -8.754  1.00  0.00     0.050 C 
ATOM      2  C   UNL     1       2.292  15.502  -7.924  1.00  0.00     0.014 C 
ENDROOT
BRANCH   1   3
ATOM      3  C   UNL     1       0.363  13.832  -7.959  1.00  0.00     0.230 C 
BRANCH   3   4
ATOM      4  N   UNL     1       0.770  13.224  -6.682  1.00  0.00    -0.350 N 
ATOM      5  H   UNL     1       0.793  12.182  -6.759  1.00  0.00     0.345 HD
ATOM      6  H   UNL     1       0.102  13.494  -5.923  1.00  0.00     0.345 HD
ATOM      7  H   UNL     1       1.711  13.579  -6.396  1.00  0.00     0.345 HD
ENDBRANCH   3   4
BRANCH   3   8
ATOM      8  C   UNL     1      -0.382  12.808  -8.782  1.00  0.00     0.099 C 
ATOM      9  O   UNL     1      -1.128  13.172  -9.729  1.00  0.00    -0.544 OA
ATOM     10  O   UNL     1      -0.246  11.455  -8.495  1.00  0.00    -0.544 OA
ENDBRANCH   3   8
ENDBRANCH   1   3
BRANCH   1  11
ATOM     11  C   UNL     1       2.574  13.299  -9.168  1.00  0.00     0.006 C 
ATOM     12  C   UNL     1       3.935  13.405  -8.474  1.00  0.00     0.004 C 
ENDBRANCH   1  11
TORSDOF 4
ENDMDL
MODEL 3
REMARK VINA RESULT:    -3.166      9.503     10.754
REMARK INTER + INTRA:          -3.901
REMARK INTER:                  -3.839
REMARK INTRA:                  -0.062
REMARK UNBOUND:                -0.087
REMARK SMILES CC[C@H](C)[C@H]([NH3+])C(=O)[O-]
REMARK SMILES IDX 3 1 4 2 5 3 6 4 7 8 8 9 9 10 2 11 1 12
REMARK H PARENT 6 5 6 6 6 7
REMARK Flexibility Score: inf
ROOT
ATOM      1  C   UNL     1       8.415   7.170  -9.305  1.00  0.00     0.050 C 
ATOM      2  C   UNL     1       6.934   7.481  -8.999  1.00  0.00     0.014 C 
ENDROOT
BRANCH   1   3
ATOM      3  C   UNL     1       8.534   6.320 -10.612  1.00  0.00     0.230 C 
BRANCH   3   4
ATOM      4  N   UNL     1       9.620   5.330 -10.538  1.00  0.00    -0.350 N 
ATOM      5  H   UNL     1      10.063   5.335  -9.591  1.00  0.00     0.345 HD
ATOM      6  H   UNL     1      10.352   5.540 -11.256  1.00  0.00     0.345 HD
ATOM      7  H   UNL     1       9.254   4.374 -10.753  1.00  0.00     0.345 HD
ENDBRANCH   3   4
BRANCH   3   8
ATOM      8  C   UNL     1       8.750   7.206 -11.815  1.00  0.00     0.099 C 
ATOM      9  O   UNL     1       7.769   7.725 -12.409  1.00  0.00    -0.544 OA
ATOM     10  O   UNL     1      10.039   7.451 -12.275  1.00  0.00    -0.544 OA
ENDBRANCH   3   8
ENDBRANCH   1   3
BRANCH   1  11
ATOM     11  C   UNL     1       9.085   6.459  -8.100  1.00  0.00     0.006 C 
ATOM     12  C   UNL     1       9.082   7.293  -6.816  1.00  0.00     0.004 C 
ENDBRANCH   1  11
TORSDOF 4
ENDMDL
MODEL 4
REMARK VINA RESULT:    -3.161      2.957      4.121
REMARK INTER + INTRA:          -3.895
REMARK INTER:                  -3.827
REMARK INTRA:                  -0.068
REMARK UNBOUND:                -0.087
REMARK SMILES CC[C@H](C)[C@H]([NH3+])C(=O)[O-]
REMARK SMILES IDX 3 1 4 2 5 3 6 4 7 8 8 9 9 10 2 11 1 12
REMARK H PARENT 6 5 6 6 6 7
REMARK Flexibility Score: inf
ROOT
ATOM      1  C   UNL     1       1.245  13.364  -8.007  1.00  0.00     0.050 C 
ATOM      2  C   UNL     1       0.820  13.673  -6.556  1.00  0.00     0.014 C 
ENDROOT
BRANCH   1   3
ATOM      3  C   UNL     1       2.315  14.397  -8.492  1.00  0.00     0.230 C 
BRANCH   3   4
ATOM      4  N   UNL     1       1.790  15.299  -9.530  1.00  0.00    -0.350 N 
ATOM      5  H   UNL     1       1.906  16.298  -9.247  1.00  0.00     0.345 HD
ATOM      6  H   UNL     1       0.775  15.109  -9.696  1.00  0.00     0.345 HD
ATOM      7  H   UNL     1       2.281  15.129 -10.438  1.00  0.00     0.345 HD
ENDBRANCH   3   4
BRANCH   3   8
ATOM      8  C   UNL     1       3.545  13.697  -9.017  1.00  0.00     0.099 C 
ATOM      9  O   UNL     1       4.185  12.898  -8.283  1.00  0.00    -0.544 OA
ATOM     10  O   UNL     1       3.977  13.932 -10.316  1.00  0.00    -0.544 OA
ENDBRANCH   3   8
ENDBRANCH   1   3
BRANCH   1  11
ATOM     11  C   UNL     1       0.010  13.339  -8.946  1.00  0.00     0.006 C 
ATOM     12  C   UNL     1      -0.899  12.126  -8.731  1.00  0.00     0.004 C 
ENDBRANCH   1  11
TORSDOF 4
ENDMDL
MODEL 5
REMARK VINA RESULT:    -3.151      3.161      4.586
REMARK INTER + INTRA:          -3.882
REMARK INTER:                  -3.800
REMARK INTRA:                  -0.083
REMARK UNBOUND:                -0.087
REMARK SMILES CC[C@H](C)[C@H]([NH3+])C(=O)[O-]
REMARK SMILES IDX 3 1 4 2 5 3 6 4 7 8 8 9 9 10 2 11 1 12
REMARK H PARENT 6 5 6 6 6 7
REMARK Flexibility Score: inf
ROOT
ATOM      1  C   UNL     1      -2.496  13.003  -9.080  1.00  0.00     0.050 C 
ATOM      2  C   UNL     1      -3.455  13.267  -7.900  1.00  0.00     0.014 C 
ENDROOT
BRANCH   1   3
ATOM      3  C   UNL     1      -1.093  13.631  -8.791  1.00  0.00     0.230 C 
BRANCH   3   4
ATOM      4  N   UNL     1      -0.713  14.638  -9.795  1.00  0.00    -0.350 N 
ATOM      5  H   UNL     1      -1.079  15.581  -9.531  1.00  0.00     0.345 HD
ATOM      6  H   UNL     1      -1.096  14.377 -10.733  1.00  0.00     0.345 HD
ATOM      7  H   UNL     1       0.326  14.676  -9.894  1.00  0.00     0.345 HD
ENDBRANCH   3   4
BRANCH   3   8
ATOM      8  C   UNL     1      -0.025  12.565  -8.730  1.00  0.00     0.099 C 
ATOM      9  O   UNL     1      -0.334  11.368  -8.489  1.00  0.00    -0.544 OA
ATOM     10  O   UNL     1       1.306  12.902  -8.938  1.00  0.00    -0.544 OA
ENDBRANCH   3   8
ENDBRANCH   1   3
BRANCH   1  11
ATOM     11  C   UNL     1      -3.098  13.540 -10.405  1.00  0.00     0.006 C 
ATOM     12  C   UNL     1      -4.543  13.095 -10.646  1.00  0.00     0.004 C 
ENDBRANCH   1  11
TORSDOF 4
ENDMDL
MODEL 6
REMARK VINA RESULT:    -3.060      3.536      4.487
REMARK INTER + INTRA:          -3.773
REMARK INTER:                  -3.691
REMARK INTRA:                  -0.082
REMARK UNBOUND:                -0.087
REMARK SMILES CC[C@H](C)[C@H]([NH3+])C(=O)[O-]
REMARK SMILES IDX 3 1 4 2 5 3 6 4 7 8 8 9 9 10 2 11 1 12
REMARK H PARENT 6 5 6 6 6 7
REMARK Flexibility Score: inf
ROOT
ATOM      1  C   UNL     1       1.830  14.118  -8.380  1.00  0.00     0.050 C 
ATOM      2  C   UNL     1       0.677  13.200  -8.841  1.00  0.00     0.014 C 
ENDROOT
BRANCH   1   3
ATOM      3  C   UNL     1       3.094  13.892  -9.273  1.00  0.00     0.230 C 
BRANCH   3   4
ATOM      4  N   UNL     1       4.205  13.281  -8.524  1.00  0.00    -0.350 N 
ATOM      5  H   UNL     1       5.110  13.412  -9.031  1.00  0.00     0.345 HD
ATOM      6  H   UNL     1       4.035  12.256  -8.396  1.00  0.00     0.345 HD
ATOM      7  H   UNL     1       4.269  13.698  -7.568  1.00  0.00     0.345 HD
ENDBRANCH   3   4
BRANCH   3   8
ATOM      8  C   UNL     1       3.564  15.190  -9.884  1.00  0.00     0.099 C 
ATOM      9  O   UNL     1       3.446  16.272  -9.251  1.00  0.00    -0.544 OA
ATOM     10  O   UNL     1       4.129  15.196 -11.154  1.00  0.00    -0.544 OA
ENDBRANCH   3   8
ENDBRANCH   1   3
BRANCH   1  11
ATOM     11  C   UNL     1       2.144  13.890  -6.878  1.00  0.00     0.006 C 
ATOM     12  C   UNL     1       0.928  13.454  -6.056  1.00  0.00     0.004 C 
ENDBRANCH   1  11
TORSDOF 4
ENDMDL
MODEL 7
REMARK VINA RESULT:    -3.008      1.857      2.457
REMARK INTER + INTRA:          -3.710
REMARK INTER:                  -3.595
REMARK INTRA:                  -0.115
REMARK UNBOUND:                -0.087
REMARK SMILES CC[C@H](C)[C@H]([NH3+])C(=O)[O-]
REMARK SMILES IDX 3 1 4 2 5 3 6 4 7 8 8 9 9 10 2 11 1 12
REMARK H PARENT 6 5 6 6 6 7
REMARK Flexibility Score: inf
ROOT
ATOM      1  C   UNL     1       2.577  14.474  -8.489  1.00  0.00     0.050 C 
ATOM      2  C   UNL     1       3.663  13.396  -8.692  1.00  0.00     0.014 C 
ENDROOT
BRANCH   1   3
ATOM      3  C   UNL     1       1.212  13.989  -9.077  1.00  0.00     0.230 C 
BRANCH   3   4
ATOM      4  N   UNL     1       0.271  15.099  -9.296  1.00  0.00    -0.350 N 
ATOM      5  H   UNL     1      -0.718  14.764  -9.235  1.00  0.00     0.345 HD
ATOM      6  H   UNL     1       0.426  15.526 -10.238  1.00  0.00     0.345 HD
ATOM      7  H   UNL     1       0.433  15.855  -8.593  1.00  0.00     0.345 HD
ENDBRANCH   3   4
BRANCH   3   8
ATOM      8  C   UNL     1       0.568  12.963  -8.175  1.00  0.00     0.099 C 
ATOM      9  O   UNL     1       0.490  13.166  -6.934  1.00  0.00    -0.544 OA
ATOM     10  O   UNL     1       0.058  11.788  -8.712  1.00  0.00    -0.544 OA
ENDBRANCH   3   8
ENDBRANCH   1   3
BRANCH   1  11
ATOM     11  C   UNL     1       3.021  15.822  -9.116  1.00  0.00     0.006 C 
ATOM     12  C   UNL     1       3.823  15.662 -10.411  1.00  0.00     0.004 C 
ENDBRANCH   1  11
TORSDOF 4
ENDMDL
MODEL 8
REMARK VINA RESULT:    -2.933      2.819      4.205
REMARK INTER + INTRA:          -3.619
REMARK INTER:                  -3.469
REMARK INTRA:                  -0.150
REMARK UNBOUND:                -0.087
REMARK SMILES CC[C@H](C)[C@H]([NH3+])C(=O)[O-]
REMARK SMILES IDX 3 1 4 2 5 3 6 4 7 8 8 9 9 10 2 11 1 12
REMARK H PARENT 6 5 6 6 6 7
REMARK Flexibility Score: inf
ROOT
ATOM      1  C   UNL     1      -1.735  14.169  -8.218  1.00  0.00     0.050 C 
ATOM      2  C   UNL     1      -1.915  15.680  -8.482  1.00  0.00     0.014 C 
ENDROOT
BRANCH   1   3
ATOM      3  C   UNL     1      -0.966  13.498  -9.403  1.00  0.00     0.230 C 
BRANCH   3   4
ATOM      4  N   UNL     1      -1.870  12.809 -10.337  1.00  0.00    -0.350 N 
ATOM      5  H   UNL     1      -1.560  11.823 -10.495  1.00  0.00     0.345 HD
ATOM      6  H   UNL     1      -1.892  13.308 -11.256  1.00  0.00     0.345 HD
ATOM      7  H   UNL     1      -2.848  12.817  -9.967  1.00  0.00     0.345 HD
ENDBRANCH   3   4
BRANCH   3   8
ATOM      8  C   UNL     1       0.063  12.518  -8.894  1.00  0.00     0.099 C 
ATOM      9  O   UNL     1      -0.290  11.382  -8.478  1.00  0.00    -0.544 OA
ATOM     10  O   UNL     1       1.408  12.866  -8.882  1.00  0.00    -0.544 OA
ENDBRANCH   3   8
ENDBRANCH   1   3
BRANCH   1  11
ATOM     11  C   UNL     1      -3.107  13.490  -7.971  1.00  0.00     0.006 C 
ATOM     12  C   UNL     1      -3.135  12.597  -6.728  1.00  0.00     0.004 C 
ENDBRANCH   1  11
TORSDOF 4
ENDMDL
MODEL 9
REMARK VINA RESULT:    -2.916      1.624      2.374
REMARK INTER + INTRA:          -3.599
REMARK INTER:                  -3.527
REMARK INTRA:                  -0.072
REMARK UNBOUND:                -0.087
REMARK SMILES CC[C@H](C)[C@H]([NH3+])C(=O)[O-]
REMARK SMILES IDX 3 1 4 2 5 3 6 4 7 8 8 9 9 10 2 11 1 12
REMARK H PARENT 6 5 6 6 6 7
REMARK Flexibility Score: inf
ROOT
ATOM      1  C   UNL     1       2.634  13.590  -8.334  1.00  0.00     0.050 C 
ATOM      2  C   UNL     1       3.714  13.728  -9.429  1.00  0.00     0.014 C 
ENDROOT
BRANCH   1   3
ATOM      3  C   UNL     1       1.208  13.766  -8.952  1.00  0.00     0.230 C 
BRANCH   3   4
ATOM      4  N   UNL     1       0.776  15.172  -8.969  1.00  0.00    -0.350 N 
ATOM      5  H   UNL     1       0.517  15.469  -9.937  1.00  0.00     0.345 HD
ATOM      6  H   UNL     1       1.542  15.792  -8.618  1.00  0.00     0.345 HD
ATOM      7  H   UNL     1      -0.038  15.308  -8.327  1.00  0.00     0.345 HD
ENDBRANCH   3   4
BRANCH   3   8
ATOM      8  C   UNL     1       0.189  12.942  -8.202  1.00  0.00     0.099 C 
ATOM      9  O   UNL     1      -0.476  13.453  -7.261  1.00  0.00    -0.544 OA
ATOM     10  O   UNL     1      -0.020  11.612  -8.547  1.00  0.00    -0.544 OA
ENDBRANCH   3   8
ENDBRANCH   1   3
BRANCH   1  11
ATOM     11  C   UNL     1       2.887  14.603  -7.186  1.00  0.00     0.006 C 
ATOM     12  C   UNL     1       3.824  14.074  -6.097  1.00  0.00     0.004 C 
ENDBRANCH   1  11
TORSDOF 4
ENDMDL
