MODEL 1
REMARK VINA RESULT:    -2.856      0.000      0.000
REMARK INTER + INTRA:          -4.126
REMARK INTER:                  -3.690
REMARK INTRA:                  -0.436
REMARK UNBOUND:                -0.436
REMARK SMILES CCCCCCC(=O)[O-]
REMARK SMILES IDX 5 1 6 2 7 3 8 4 9 5 4 6 3 7 2 8 1 9
REMARK H PARENT
REMARK Flexibility Score: inf
ROOT
ATOM      1  C   UNL     1       6.115  11.108   8.190  1.00  0.00     0.006 C 
ENDROOT
BRANCH   1   2
ATOM      2  C   UNL     1       6.368  12.548   7.728  1.00  0.00     0.053 C 
BRANCH   2   3
ATOM      3  C   UNL     1       7.719  13.040   8.150  1.00  0.00     0.041 C 
ATOM      4  O   UNL     1       8.114  12.874   9.334  1.00  0.00    -0.550 OA
ATOM      5  O   UNL     1       8.555  13.655   7.226  1.00  0.00    -0.550 OA
ENDBRANCH   2   3
ENDBRANCH   1   2
BRANCH   1   6
ATOM      6  C   UNL     1       6.918  10.085   7.368  1.00  0.00     0.000 C 
BRANCH   6   7
ATOM      7  C   UNL     1       8.031   9.403   8.183  1.00  0.00    -0.000 C 
BRANCH   7   8
ATOM      8  C   UNL     1       9.454   9.603   7.631  1.00  0.00    -0.003 C 
ATOM      9  C   UNL     1       9.473  10.209   6.229  1.00  0.00     0.004 C 
ENDBRANCH   7   8
ENDBRANCH   6   7
ENDBRANCH   1   6
TORSDOF 5
ENDMDL
MODEL 2
REMARK VINA RESULT:    -2.846      0.840      1.615
REMARK INTER + INTRA:          -4.113
REMARK INTER:                  -3.708
REMARK INTRA:                  -0.406
REMARK UNBOUND:                -0.436
REMARK SMILES CCCCCCC(=O)[O-]
REMARK SMILES IDX 5 1 6 2 7 3 8 4 9 5 4 6 3 7 2 8 1 9
REMARK H PARENT
REMARK Flexibility Score: inf
ROOT
ATOM      1  C   UNL     1       5.423  12.123   8.366  1.00  0.00     0.006 C 
ENDROOT
BRANCH   1   2
ATOM      2  C   UNL     1       6.141  13.244   7.603  1.00  0.00     0.053 C 
BRANCH   2   3
ATOM      3  C   UNL     1       7.582  13.353   8.000  1.00  0.00     0.041 C 
ATOM      4  O   UNL     1       8.435  13.789   7.183  1.00  0.00    -0.550 OA
ATOM      5  O   UNL     1       7.979  12.998   9.283  1.00  0.00    -0.550 OA
ENDBRANCH   2   3
ENDBRANCH   1   2
BRANCH   1   6
ATOM      6  C   UNL     1       5.438  10.793   7.593  1.00  0.00     0.000 C 
BRANCH   6   7
ATOM      7  C   UNL     1       6.568   9.850   8.045  1.00  0.00    -0.000 C 
BRANCH   7   8
ATOM      8  C   UNL     1       7.735   9.714   7.051  1.00  0.00    -0.003 C 
ATOM      9  C   UNL     1       9.094  10.026   7.676  1.00  0.00     0.004 C 
ENDBRANCH   7   8
ENDBRANCH   6   7
ENDBRANCH   1   6
TORSDOF 5
ENDMDL
MODEL 3
REMARK VINA RESULT:    -2.838      1.572      3.365
REMARK INTER + INTRA:          -4.104
REMARK INTER:                  -3.735
REMARK INTRA:                  -0.369
REMARK UNBOUND:                -0.436
REMARK SMILES CCCCCCC(=O)[O-]
REMARK SMILES IDX 5 1 6 2 7 3 8 4 9 5 4 6 3 7 2 8 1 9
REMARK H PARENT
REMARK Flexibility Score: inf
ROOT
ATOM      1  C   UNL     1       6.546  10.653   8.378  1.00  0.00     0.006 C 
ENDROOT
BRANCH   1   2
ATOM      2  C   UNL     1       7.793  10.611   7.487  1.00  0.00     0.053 C 
BRANCH   2   3
ATOM      3  C   UNL     1       8.842  11.575   7.951  1.00  0.00     0.041 C 
ATOM      4  O   UNL     1       9.313  11.490   9.116  1.00  0.00    -0.550 OA
ATOM      5  O   UNL     1       9.320  12.552   7.086  1.00  0.00    -0.550 OA
ENDBRANCH   2   3
ENDBRANCH   1   2
BRANCH   1   6
ATOM      6  C   UNL     1       5.288  11.072   7.597  1.00  0.00     0.000 C 
BRANCH   6   7
ATOM      7  C   UNL     1       4.783  12.475   7.983  1.00  0.00    -0.000 C 
BRANCH   7   8
ATOM      8  C   UNL     1       5.667  13.638   7.499  1.00  0.00    -0.003 C 
ATOM      9  C   UNL     1       6.379  14.364   8.639  1.00  0.00     0.004 C 
ENDBRANCH   7   8
ENDBRANCH   6   7
ENDBRANCH   1   6
TORSDOF 5
ENDMDL
MODEL 4
REMARK VINA RESULT:    -2.779      1.943      3.661
REMARK INTER + INTRA:          -4.027
REMARK INTER:                  -3.876
REMARK INTRA:                  -0.152
REMARK UNBOUND:                -0.436
REMARK SMILES CCCCCCC(=O)[O-]
REMARK SMILES IDX 5 1 6 2 7 3 8 4 9 5 4 6 3 7 2 8 1 9
REMARK H PARENT
REMARK Flexibility Score: inf
ROOT
ATOM      1  C   UNL     1       6.843  10.383   7.645  1.00  0.00     0.006 C 
ENDROOT
BRANCH   1   2
ATOM      2  C   UNL     1       8.284  10.419   7.119  1.00  0.00     0.053 C 
BRANCH   2   3
ATOM      3  C   UNL     1       9.086  11.506   7.768  1.00  0.00     0.041 C 
ATOM      4  O   UNL     1       9.438  11.402   8.973  1.00  0.00    -0.550 OA
ATOM      5  O   UNL     1       9.470  12.621   7.034  1.00  0.00    -0.550 OA
ENDBRANCH   2   3
ENDBRANCH   1   2
BRANCH   1   6
ATOM      6  C   UNL     1       6.247  11.792   7.801  1.00  0.00     0.000 C 
BRANCH   6   7
ATOM      7  C   UNL     1       4.710  11.806   7.708  1.00  0.00    -0.000 C 
BRANCH   7   8
ATOM      8  C   UNL     1       4.051  10.416   7.673  1.00  0.00    -0.003 C 
ATOM      9  C   UNL     1       2.533  10.476   7.507  1.00  0.00     0.004 C 
ENDBRANCH   7   8
ENDBRANCH   6   7
ENDBRANCH   1   6
TORSDOF 5
ENDMDL
MODEL 5
REMARK VINA RESULT:    -2.730      1.050      1.797
REMARK INTER + INTRA:          -3.964
REMARK INTER:                  -3.917
REMARK INTRA:                  -0.047
REMARK UNBOUND:                -0.436
REMARK SMILES CCCCCCC(=O)[O-]
REMARK SMILES IDX 5 1 6 2 7 3 8 4 9 5 4 6 3 7 2 8 1 9
REMARK H PARENT
REMARK Flexibility Score: inf
ROOT
ATOM      1  C   UNL     1       7.587  10.265   7.575  1.00  0.00     0.006 C 
ENDROOT
BRANCH   1   2
ATOM      2  C   UNL     1       6.898  11.630   7.696  1.00  0.00     0.053 C 
BRANCH   2   3
ATOM      3  C   UNL     1       7.830  12.679   8.224  1.00  0.00     0.041 C 
ATOM      4  O   UNL     1       8.090  12.735   9.455  1.00  0.00    -0.550 OA
ATOM      5  O   UNL     1       8.432  13.577   7.353  1.00  0.00    -0.550 OA
ENDBRANCH   2   3
ENDBRANCH   1   2
BRANCH   1   6
ATOM      6  C   UNL     1       9.105  10.397   7.368  1.00  0.00     0.000 C 
BRANCH   6   7
ATOM      7  C   UNL     1       9.538  10.121   5.916  1.00  0.00    -0.000 C 
BRANCH   7   8
ATOM      8  C   UNL     1      10.565   8.987   5.751  1.00  0.00    -0.003 C 
ATOM      9  C   UNL     1      10.647   8.070   6.970  1.00  0.00     0.004 C 
ENDBRANCH   7   8
ENDBRANCH   6   7
ENDBRANCH   1   6
TORSDOF 5
ENDMDL
MODEL 6
REMARK VINA RESULT:    -2.727      1.460      2.370
REMARK INTER + INTRA:          -3.959
REMARK INTER:                  -3.652
REMARK INTRA:                  -0.308
REMARK UNBOUND:                -0.436
REMARK SMILES CCCCCCC(=O)[O-]
REMARK SMILES IDX 5 1 6 2 7 3 8 4 9 5 4 6 3 7 2 8 1 9
REMARK H PARENT
REMARK Flexibility Score: inf
ROOT
ATOM      1  C   UNL     1       9.045  10.862   8.293  1.00  0.00     0.006 C 
ENDROOT
BRANCH   1   2
ATOM      2  C   UNL     1       7.739  11.505   7.809  1.00  0.00     0.053 C 
BRANCH   2   3
ATOM      3  C   UNL     1       7.897  12.978   7.578  1.00  0.00     0.041 C 
ATOM      4  O   UNL     1       8.983  13.439   7.140  1.00  0.00    -0.550 OA
ATOM      5  O   UNL     1       6.833  13.837   7.822  1.00  0.00    -0.550 OA
ENDBRANCH   2   3
ENDBRANCH   1   2
BRANCH   1   6
ATOM      6  C   UNL     1       9.435   9.635   7.451  1.00  0.00     0.000 C 
BRANCH   6   7
ATOM      7  C   UNL     1       9.705   9.983   5.975  1.00  0.00    -0.000 C 
BRANCH   7   8
ATOM      8  C   UNL     1       9.148   8.972   4.958  1.00  0.00    -0.003 C 
ATOM      9  C   UNL     1       8.174   7.971   5.580  1.00  0.00     0.004 C 
ENDBRANCH   7   8
ENDBRANCH   6   7
ENDBRANCH   1   6
TORSDOF 5
ENDMDL
MODEL 7
REMARK VINA RESULT:    -2.671      2.588      4.295
REMARK INTER + INTRA:          -3.888
REMARK INTER:                  -3.632
REMARK INTRA:                  -0.256
REMARK UNBOUND:                -0.436
REMARK SMILES CCCCCCC(=O)[O-]
REMARK SMILES IDX 5 1 6 2 7 3 8 4 9 5 4 6 3 7 2 8 1 9
REMARK H PARENT
REMARK Flexibility Score: inf
ROOT
ATOM      1  C   UNL     1       9.153  10.670   7.748  1.00  0.00     0.006 C 
ENDROOT
BRANCH   1   2
ATOM      2  C   UNL     1       8.442   9.821   6.687  1.00  0.00     0.053 C 
BRANCH   2   3
ATOM      3  C   UNL     1       9.347   9.492   5.539  1.00  0.00     0.041 C 
ATOM      4  O   UNL     1       8.903   8.868   4.539  1.00  0.00    -0.550 OA
ATOM      5  O   UNL     1      10.675   9.897   5.562  1.00  0.00    -0.550 OA
ENDBRANCH   2   3
ENDBRANCH   1   2
BRANCH   1   6
ATOM      6  C   UNL     1       8.172  11.558   8.534  1.00  0.00     0.000 C 
BRANCH   6   7
ATOM      7  C   UNL     1       7.729  12.804   7.745  1.00  0.00    -0.000 C 
BRANCH   7   8
ATOM      8  C   UNL     1       6.208  13.030   7.692  1.00  0.00    -0.003 C 
ATOM      9  C   UNL     1       5.406  11.732   7.763  1.00  0.00     0.004 C 
ENDBRANCH   7   8
ENDBRANCH   6   7
ENDBRANCH   1   6
TORSDOF 5
ENDMDL
MODEL 8
REMARK VINA RESULT:    -2.618      2.132      4.395
REMARK INTER + INTRA:          -3.819
REMARK INTER:                  -3.597
REMARK INTRA:                  -0.223
REMARK UNBOUND:                -0.436
REMARK SMILES CCCCCCC(=O)[O-]
REMARK SMILES IDX 5 1 6 2 7 3 8 4 9 5 4 6 3 7 2 8 1 9
REMARK H PARENT
REMARK Flexibility Score: inf
ROOT
ATOM      1  C   UNL     1       5.775  12.131   7.930  1.00  0.00     0.006 C 
ENDROOT
BRANCH   1   2
ATOM      2  C   UNL     1       7.063  11.337   7.679  1.00  0.00     0.053 C 
BRANCH   2   3
ATOM      3  C   UNL     1       8.273  12.066   8.177  1.00  0.00     0.041 C 
ATOM      4  O   UNL     1       8.420  12.285   9.408  1.00  0.00    -0.550 OA
ATOM      5  O   UNL     1       9.253  12.479   7.283  1.00  0.00    -0.550 OA
ENDBRANCH   2   3
ENDBRANCH   1   2
BRANCH   1   6
ATOM      6  C   UNL     1       5.889  13.588   7.449  1.00  0.00     0.000 C 
BRANCH   6   7
ATOM      7  C   UNL     1       5.340  14.601   8.470  1.00  0.00    -0.000 C 
BRANCH   7   8
ATOM      8  C   UNL     1       4.196  15.489   7.951  1.00  0.00    -0.003 C 
ATOM      9  C   UNL     1       3.765  15.141   6.527  1.00  0.00     0.004 C 
ENDBRANCH   7   8
ENDBRANCH   6   7
ENDBRANCH   1   6
TORSDOF 5
ENDMDL
MODEL 9
REMARK VINA RESULT:    -2.576     11.798     12.221
REMARK INTER + INTRA:          -3.765
REMARK INTER:                  -3.590
REMARK INTRA:                  -0.175
REMARK UNBOUND:                -0.436
REMARK SMILES CCCCCCC(=O)[O-]
REMARK SMILES IDX 5 1 6 2 7 3 8 4 9 5 4 6 3 7 2 8 1 9
REMARK H PARENT
REMARK Flexibility Score: inf
ROOT
ATOM      1  C   UNL     1      13.187  14.804  -1.817  1.00  0.00     0.006 C 
ENDROOT
BRANCH   1   2
ATOM      2  C   UNL     1      12.413  15.192  -3.083  1.00  0.00     0.053 C 
BRANCH   2   3
ATOM      3  C   UNL     1      11.257  14.271  -3.332  1.00  0.00     0.041 C 
ATOM      4  O   UNL     1      10.090  14.732  -3.437  1.00  0.00    -0.550 OA
ATOM      5  O   UNL     1      11.473  12.907  -3.476  1.00  0.00    -0.550 OA
ENDBRANCH   2   3
ENDBRANCH   1   2
BRANCH   1   6
ATOM      6  C   UNL     1      14.624  14.352  -2.131  1.00  0.00     0.000 C 
BRANCH   6   7
ATOM      7  C   UNL     1      14.944  12.950  -1.579  1.00  0.00    -0.000 C 
BRANCH   7   8
ATOM      8  C   UNL     1      16.281  12.841  -0.826  1.00  0.00    -0.003 C 
ATOM      9  C   UNL     1      17.214  14.024  -1.084  1.00  0.00     0.004 C 
ENDBRANCH   7   8
ENDBRANCH   6   7
ENDBRANCH   1   6
TORSDOF 5
ENDMDL
