MODEL 1
REMARK VINA RESULT:    -6.022      0.000      0.000
REMARK INTER + INTRA:          -6.022
REMARK INTER:                  -6.022
REMARK INTRA:                   0.000
REMARK UNBOUND:                 0.000
REMARK SMILES C=C1CCC[C@]2(C)CC(=O)C(=C(C)C)C[C@H]12
REMARK SMILES IDX 13 1 12 2 11 3 15 4 16 5 2 6 1 7 3 8 4 9 5 10 6 11 8 12 9 13
REMARK SMILES IDX 10 14 7 15 14 16
REMARK H PARENT
REMARK Flexibility Score: inf
ROOT
ATOM      1  C   UNL     1      14.928 107.890  19.601  1.00  0.00     0.039 C 
ATOM      2  C   UNL     1      13.984 108.958  20.102  1.00  0.00    -0.070 C 
ATOM      3  C   UNL     1      13.865 110.166  19.477  1.00  0.00    -0.006 C 
ATOM      4  C   UNL     1      12.842 111.203  19.913  1.00  0.00     0.047 C 
ATOM      5  C   UNL     1      13.370 112.645  19.705  1.00  0.00     0.025 C 
ATOM      6  C   UNL     1      12.308 113.628  20.184  1.00  0.00    -0.073 C 
ATOM      7  C   UNL     1      12.269 114.003  21.473  1.00  0.00     0.008 C 
ATOM      8  C   UNL     1      11.230 114.126  19.249  1.00  0.00     0.031 C 
ATOM      9  C   UNL     1      11.477 113.698  17.804  1.00  0.00     0.005 C 
ATOM     10  C   UNL     1      12.948 113.909  17.442  1.00  0.00     0.008 C 
ATOM     11  C   UNL     1      13.890 112.945  18.229  1.00  0.00    -0.018 C 
ATOM     12  C   UNL     1      14.057 111.635  17.398  1.00  0.00     0.088 C 
ATOM     13  C   UNL     1      14.604 110.524  18.239  1.00  0.00     0.159 C 
ATOM     14  O   UNL     1      15.680 109.962  17.904  1.00  0.00    -0.295 OA
ATOM     15  C   UNL     1      15.279 113.626  18.321  1.00  0.00     0.012 C 
ATOM     16  C   UNL     1      13.139 108.619  21.310  1.00  0.00     0.039 C 
ENDROOT
TORSDOF 0
ENDMDL
MODEL 2
REMARK VINA RESULT:    -5.934      4.671      7.207
REMARK INTER + INTRA:          -5.934
REMARK INTER:                  -5.934
REMARK INTRA:                   0.000
REMARK UNBOUND:                 0.000
REMARK SMILES C=C1CCC[C@]2(C)CC(=O)C(=C(C)C)C[C@H]12
REMARK SMILES IDX 13 1 12 2 11 3 15 4 16 5 2 6 1 7 3 8 4 9 5 10 6 11 8 12 9 13
REMARK SMILES IDX 10 14 7 15 14 16
REMARK H PARENT
REMARK Flexibility Score: inf
ROOT
ATOM      1  C   UNL     1      12.398 113.851  20.282  1.00  0.00     0.039 C 
ATOM      2  C   UNL     1      11.490 114.741  19.466  1.00  0.00    -0.070 C 
ATOM      3  C   UNL     1      10.801 115.777  20.028  1.00  0.00    -0.006 C 
ATOM      4  C   UNL     1       9.970 116.740  19.195  1.00  0.00     0.047 C 
ATOM      5  C   UNL     1       8.725 117.236  19.974  1.00  0.00     0.025 C 
ATOM      6  C   UNL     1       7.927 118.173  19.074  1.00  0.00    -0.073 C 
ATOM      7  C   UNL     1       7.003 117.678  18.236  1.00  0.00     0.008 C 
ATOM      8  C   UNL     1       8.220 119.656  19.038  1.00  0.00     0.031 C 
ATOM      9  C   UNL     1       9.214 120.073  20.122  1.00  0.00     0.005 C 
ATOM     10  C   UNL     1       8.849 119.406  21.449  1.00  0.00     0.008 C 
ATOM     11  C   UNL     1       9.052 117.858  21.403  1.00  0.00    -0.018 C 
ATOM     12  C   UNL     1      10.513 117.543  21.850  1.00  0.00     0.088 C 
ATOM     13  C   UNL     1      10.912 116.153  21.462  1.00  0.00     0.159 C 
ATOM     14  O   UNL     1      11.282 115.341  22.350  1.00  0.00    -0.295 OA
ATOM     15  C   UNL     1       8.093 117.234  22.449  1.00  0.00     0.012 C 
ATOM     16  C   UNL     1      11.404 114.462  17.983  1.00  0.00     0.039 C 
ENDROOT
TORSDOF 0
ENDMDL
MODEL 3
REMARK VINA RESULT:    -5.905      4.922      7.694
REMARK INTER + INTRA:          -5.905
REMARK INTER:                  -5.905
REMARK INTRA:                   0.000
REMARK UNBOUND:                 0.000
REMARK SMILES C=C1CCC[C@]2(C)CC(=O)C(=C(C)C)C[C@H]12
REMARK SMILES IDX 13 1 12 2 11 3 15 4 16 5 2 6 1 7 3 8 4 9 5 10 6 11 8 12 9 13
REMARK SMILES IDX 10 14 7 15 14 16
REMARK H PARENT
REMARK Flexibility Score: inf
ROOT
ATOM      1  C   UNL     1       7.526 118.505  22.531  1.00  0.00     0.039 C 
ATOM      2  C   UNL     1       8.516 117.432  22.143  1.00  0.00    -0.070 C 
ATOM      3  C   UNL     1       9.260 117.517  21.001  1.00  0.00    -0.006 C 
ATOM      4  C   UNL     1      10.332 116.495  20.659  1.00  0.00     0.047 C 
ATOM      5  C   UNL     1      10.441 116.275  19.129  1.00  0.00     0.025 C 
ATOM      6  C   UNL     1      11.512 115.225  18.860  1.00  0.00    -0.073 C 
ATOM      7  C   UNL     1      11.192 113.921  18.859  1.00  0.00     0.008 C 
ATOM      8  C   UNL     1      12.961 115.617  18.682  1.00  0.00     0.031 C 
ATOM      9  C   UNL     1      13.142 117.133  18.599  1.00  0.00     0.005 C 
ATOM     10  C   UNL     1      12.076 117.735  17.682  1.00  0.00     0.008 C 
ATOM     11  C   UNL     1      10.642 117.614  18.288  1.00  0.00    -0.018 C 
ATOM     12  C   UNL     1      10.366 118.884  19.150  1.00  0.00     0.088 C 
ATOM     13  C   UNL     1       9.204 118.674  20.070  1.00  0.00     0.159 C 
ATOM     14  O   UNL     1       8.209 119.443  20.002  1.00  0.00    -0.295 OA
ATOM     15  C   UNL     1       9.639 117.616  17.108  1.00  0.00     0.012 C 
ATOM     16  C   UNL     1       8.682 116.270  23.096  1.00  0.00     0.039 C 
ENDROOT
TORSDOF 0
ENDMDL
MODEL 4
REMARK VINA RESULT:    -5.836     11.611     14.231
REMARK INTER + INTRA:          -5.836
REMARK INTER:                  -5.836
REMARK INTRA:                   0.000
REMARK UNBOUND:                 0.000
REMARK SMILES C=C1CCC[C@]2(C)CC(=O)C(=C(C)C)C[C@H]12
REMARK SMILES IDX 13 1 12 2 11 3 15 4 16 5 2 6 1 7 3 8 4 9 5 10 6 11 8 12 9 13
REMARK SMILES IDX 10 14 7 15 14 16
REMARK H PARENT
REMARK Flexibility Score: inf
ROOT
ATOM      1  C   UNL     1      16.588 127.559  18.905  1.00  0.00     0.039 C 
ATOM      2  C   UNL     1      17.188 126.954  17.657  1.00  0.00    -0.070 C 
ATOM      3  C   UNL     1      16.732 125.777  17.136  1.00  0.00    -0.006 C 
ATOM      4  C   UNL     1      17.260 125.217  15.824  1.00  0.00     0.047 C 
ATOM      5  C   UNL     1      17.279 123.668  15.834  1.00  0.00     0.025 C 
ATOM      6  C   UNL     1      17.840 123.177  14.505  1.00  0.00    -0.073 C 
ATOM      7  C   UNL     1      19.166 123.029  14.347  1.00  0.00     0.008 C 
ATOM      8  C   UNL     1      16.936 122.937  13.318  1.00  0.00     0.031 C 
ATOM      9  C   UNL     1      15.457 123.042  13.690  1.00  0.00     0.005 C 
ATOM     10  C   UNL     1      15.196 122.301  15.002  1.00  0.00     0.008 C 
ATOM     11  C   UNL     1      15.885 122.999  16.218  1.00  0.00    -0.018 C 
ATOM     12  C   UNL     1      14.888 124.041  16.813  1.00  0.00     0.088 C 
ATOM     13  C   UNL     1      15.591 125.015  17.706  1.00  0.00     0.159 C 
ATOM     14  O   UNL     1      15.231 125.130  18.907  1.00  0.00    -0.295 OA
ATOM     15  C   UNL     1      16.133 121.913  17.295  1.00  0.00     0.012 C 
ATOM     16  C   UNL     1      18.297 127.728  16.981  1.00  0.00     0.039 C 
ENDROOT
TORSDOF 0
ENDMDL
MODEL 5
REMARK VINA RESULT:    -5.711      5.703      8.670
REMARK INTER + INTRA:          -5.711
REMARK INTER:                  -5.711
REMARK INTRA:                   0.000
REMARK UNBOUND:                 0.000
REMARK SMILES C=C1CCC[C@]2(C)CC(=O)C(=C(C)C)C[C@H]12
REMARK SMILES IDX 13 1 12 2 11 3 15 4 16 5 2 6 1 7 3 8 4 9 5 10 6 11 8 12 9 13
REMARK SMILES IDX 10 14 7 15 14 16
REMARK H PARENT
REMARK Flexibility Score: inf
ROOT
ATOM      1  C   UNL     1       9.756 120.857  23.101  1.00  0.00     0.039 C 
ATOM      2  C   UNL     1      10.474 119.670  22.503  1.00  0.00    -0.070 C 
ATOM      3  C   UNL     1      10.189 119.211  21.249  1.00  0.00    -0.006 C 
ATOM      4  C   UNL     1      10.980 118.085  20.602  1.00  0.00     0.047 C 
ATOM      5  C   UNL     1      10.085 117.220  19.679  1.00  0.00     0.025 C 
ATOM      6  C   UNL     1      10.933 116.100  19.086  1.00  0.00    -0.073 C 
ATOM      7  C   UNL     1      11.083 114.943  19.752  1.00  0.00     0.008 C 
ATOM      8  C   UNL     1      11.691 116.298  17.794  1.00  0.00     0.031 C 
ATOM      9  C   UNL     1      11.329 117.616  17.109  1.00  0.00     0.005 C 
ATOM     10  C   UNL     1       9.814 117.819  17.137  1.00  0.00     0.008 C 
ATOM     11  C   UNL     1       9.278 118.050  18.585  1.00  0.00    -0.018 C 
ATOM     12  C   UNL     1       9.310 119.581  18.881  1.00  0.00     0.088 C 
ATOM     13  C   UNL     1       9.196 119.852  20.348  1.00  0.00     0.159 C 
ATOM     14  O   UNL     1       8.253 120.569  20.778  1.00  0.00    -0.295 OA
ATOM     15  C   UNL     1       7.796 117.595  18.608  1.00  0.00     0.012 C 
ATOM     16  C   UNL     1      11.558 119.027  23.339  1.00  0.00     0.039 C 
ENDROOT
TORSDOF 0
ENDMDL
MODEL 6
REMARK VINA RESULT:    -5.691      5.701      7.242
REMARK INTER + INTRA:          -5.691
REMARK INTER:                  -5.691
REMARK INTRA:                   0.000
REMARK UNBOUND:                 0.000
REMARK SMILES C=C1CCC[C@]2(C)CC(=O)C(=C(C)C)C[C@H]12
REMARK SMILES IDX 13 1 12 2 11 3 15 4 16 5 2 6 1 7 3 8 4 9 5 10 6 11 8 12 9 13
REMARK SMILES IDX 10 14 7 15 14 16
REMARK H PARENT
REMARK Flexibility Score: inf
ROOT
ATOM      1  C   UNL     1      11.237 114.790  23.654  1.00  0.00     0.039 C 
ATOM      2  C   UNL     1      10.164 115.813  23.362  1.00  0.00    -0.070 C 
ATOM      3  C   UNL     1       9.978 116.326  22.110  1.00  0.00    -0.006 C 
ATOM      4  C   UNL     1       8.834 117.274  21.788  1.00  0.00     0.047 C 
ATOM      5  C   UNL     1       9.239 118.307  20.707  1.00  0.00     0.025 C 
ATOM      6  C   UNL     1       8.058 119.237  20.452  1.00  0.00    -0.073 C 
ATOM      7  C   UNL     1       7.892 120.336  21.206  1.00  0.00     0.008 C 
ATOM      8  C   UNL     1       7.008 118.898  19.419  1.00  0.00     0.031 C 
ATOM      9  C   UNL     1       7.398 117.684  18.578  1.00  0.00     0.005 C 
ATOM     10  C   UNL     1       8.865 117.789  18.159  1.00  0.00     0.008 C 
ATOM     11  C   UNL     1       9.834 117.662  19.377  1.00  0.00    -0.018 C 
ATOM     12  C   UNL     1      10.182 116.154  19.571  1.00  0.00     0.088 C 
ATOM     13  C   UNL     1      10.768 115.903  20.925  1.00  0.00     0.159 C 
ATOM     14  O   UNL     1      11.913 115.387  21.022  1.00  0.00    -0.295 OA
ATOM     15  C   UNL     1      11.143 118.405  19.006  1.00  0.00     0.012 C 
ATOM     16  C   UNL     1       9.270 116.220  24.511  1.00  0.00     0.039 C 
ENDROOT
TORSDOF 0
ENDMDL
MODEL 7
REMARK VINA RESULT:    -5.665      2.385      5.137
REMARK INTER + INTRA:          -5.665
REMARK INTER:                  -5.665
REMARK INTRA:                   0.000
REMARK UNBOUND:                 0.000
REMARK SMILES C=C1CCC[C@]2(C)CC(=O)C(=C(C)C)C[C@H]12
REMARK SMILES IDX 13 1 12 2 11 3 15 4 16 5 2 6 1 7 3 8 4 9 5 10 6 11 8 12 9 13
REMARK SMILES IDX 10 14 7 15 14 16
REMARK H PARENT
REMARK Flexibility Score: inf
ROOT
ATOM      1  C   UNL     1      10.323 116.982  20.268  1.00  0.00     0.039 C 
ATOM      2  C   UNL     1      10.994 115.710  20.730  1.00  0.00    -0.070 C 
ATOM      3  C   UNL     1      11.586 114.847  19.852  1.00  0.00    -0.006 C 
ATOM      4  C   UNL     1      12.354 113.622  20.319  1.00  0.00     0.047 C 
ATOM      5  C   UNL     1      12.214 112.447  19.317  1.00  0.00     0.025 C 
ATOM      6  C   UNL     1      12.985 111.249  19.858  1.00  0.00    -0.073 C 
ATOM      7  C   UNL     1      12.388 110.387  20.699  1.00  0.00     0.008 C 
ATOM      8  C   UNL     1      14.449 111.055  19.538  1.00  0.00     0.031 C 
ATOM      9  C   UNL     1      14.946 112.049  18.489  1.00  0.00     0.005 C 
ATOM     10  C   UNL     1      13.931 112.157  17.351  1.00  0.00     0.008 C 
ATOM     11  C   UNL     1      12.595 112.819  17.816  1.00  0.00    -0.018 C 
ATOM     12  C   UNL     1      12.718 114.361  17.616  1.00  0.00     0.088 C 
ATOM     13  C   UNL     1      11.666 115.094  18.389  1.00  0.00     0.159 C 
ATOM     14  O   UNL     1      10.864 115.854  17.783  1.00  0.00    -0.295 OA
ATOM     15  C   UNL     1      11.473 112.309  16.876  1.00  0.00     0.012 C 
ATOM     16  C   UNL     1      11.021 115.447  22.218  1.00  0.00     0.039 C 
ENDROOT
TORSDOF 0
ENDMDL
MODEL 8
REMARK VINA RESULT:    -5.659     12.505     14.271
REMARK INTER + INTRA:          -5.659
REMARK INTER:                  -5.659
REMARK INTRA:                   0.000
REMARK UNBOUND:                 0.000
REMARK SMILES C=C1CCC[C@]2(C)CC(=O)C(=C(C)C)C[C@H]12
REMARK SMILES IDX 13 1 12 2 11 3 15 4 16 5 2 6 1 7 3 8 4 9 5 10 6 11 8 12 9 13
REMARK SMILES IDX 10 14 7 15 14 16
REMARK H PARENT
REMARK Flexibility Score: inf
ROOT
ATOM      1  C   UNL     1      17.258 122.453  12.890  1.00  0.00     0.039 C 
ATOM      2  C   UNL     1      16.450 123.046  14.021  1.00  0.00    -0.070 C 
ATOM      3  C   UNL     1      16.988 123.945  14.897  1.00  0.00    -0.006 C 
ATOM      4  C   UNL     1      16.153 124.624  15.970  1.00  0.00     0.047 C 
ATOM      5  C   UNL     1      16.983 124.893  17.251  1.00  0.00     0.025 C 
ATOM      6  C   UNL     1      16.081 125.550  18.289  1.00  0.00    -0.073 C 
ATOM      7  C   UNL     1      15.349 124.792  19.122  1.00  0.00     0.008 C 
ATOM      8  C   UNL     1      15.921 127.052  18.345  1.00  0.00     0.031 C 
ATOM      9  C   UNL     1      16.898 127.770  17.415  1.00  0.00     0.005 C 
ATOM     10  C   UNL     1      18.291 127.152  17.544  1.00  0.00     0.008 C 
ATOM     11  C   UNL     1      18.339 125.691  16.995  1.00  0.00    -0.018 C 
ATOM     12  C   UNL     1      18.698 125.749  15.479  1.00  0.00     0.088 C 
ATOM     13  C   UNL     1      18.379 124.456  14.796  1.00  0.00     0.159 C 
ATOM     14  O   UNL     1      19.293 123.824  14.201  1.00  0.00    -0.295 OA
ATOM     15  C   UNL     1      19.492 124.959  17.727  1.00  0.00     0.012 C 
ATOM     16  C   UNL     1      15.000 122.631  14.123  1.00  0.00     0.039 C 
ENDROOT
TORSDOF 0
ENDMDL
MODEL 9
REMARK VINA RESULT:    -5.580     10.828     13.459
REMARK INTER + INTRA:          -5.580
REMARK INTER:                  -5.580
REMARK INTRA:                   0.000
REMARK UNBOUND:                 0.000
REMARK SMILES C=C1CCC[C@]2(C)CC(=O)C(=C(C)C)C[C@H]12
REMARK SMILES IDX 13 1 12 2 11 3 15 4 16 5 2 6 1 7 3 8 4 9 5 10 6 11 8 12 9 13
REMARK SMILES IDX 10 14 7 15 14 16
REMARK H PARENT
REMARK Flexibility Score: inf
ROOT
ATOM      1  C   UNL     1      21.454 124.749  13.436  1.00  0.00     0.039 C 
ATOM      2  C   UNL     1      20.018 124.823  13.902  1.00  0.00    -0.070 C 
ATOM      3  C   UNL     1      19.239 123.708  14.018  1.00  0.00    -0.006 C 
ATOM      4  C   UNL     1      17.830 123.763  14.586  1.00  0.00     0.047 C 
ATOM      5  C   UNL     1      16.905 122.717  13.914  1.00  0.00     0.025 C 
ATOM      6  C   UNL     1      15.508 122.844  14.511  1.00  0.00    -0.073 C 
ATOM      7  C   UNL     1      14.629 123.715  13.988  1.00  0.00     0.008 C 
ATOM      8  C   UNL     1      15.115 122.070  15.748  1.00  0.00     0.031 C 
ATOM      9  C   UNL     1      16.179 121.049  16.151  1.00  0.00     0.005 C 
ATOM     10  C   UNL     1      16.676 120.299  14.915  1.00  0.00     0.008 C 
ATOM     11  C   UNL     1      17.472 121.228  13.944  1.00  0.00    -0.018 C 
ATOM     12  C   UNL     1      18.977 121.191  14.354  1.00  0.00     0.088 C 
ATOM     13  C   UNL     1      19.732 122.332  13.749  1.00  0.00     0.159 C 
ATOM     14  O   UNL     1      20.723 122.099  13.006  1.00  0.00    -0.295 OA
ATOM     15  C   UNL     1      17.354 120.622  12.522  1.00  0.00     0.012 C 
ATOM     16  C   UNL     1      19.485 126.188  14.275  1.00  0.00     0.039 C 
ENDROOT
TORSDOF 0
ENDMDL
