MODEL 1
REMARK VINA RESULT:    -4.025      0.000      0.000
REMARK INTER + INTRA:          -6.104
REMARK INTER:                  -5.437
REMARK INTRA:                  -0.667
REMARK UNBOUND:                -0.667
REMARK SMILES O=C[C@@H](O)[C@H](O)[C@@H](O)CO
REMARK SMILES IDX 7 1 9 2 10 3 5 5 3 6 2 7 1 8 4 9 6 11 8 13
REMARK H PARENT 10 4 4 10 6 12 8 14
REMARK Flexibility Score: inf
ROOT
ATOM      1  C   UNL     1       9.939  25.015  -8.412  1.00  0.00     0.171 C 
ENDROOT
BRANCH   1   2
ATOM      2  C   UNL     1       8.459  25.125  -8.810  1.00  0.00     0.190 C 
BRANCH   2   3
ATOM      3  O   UNL     1       8.084  23.996  -9.549  1.00  0.00    -0.394 OA
ATOM      4  H   UNL     1       8.040  24.288 -10.497  1.00  0.00     0.210 HD
ENDBRANCH   2   3
ENDBRANCH   1   2
BRANCH   1   5
ATOM      5  C   UNL     1      10.135  24.236  -7.082  1.00  0.00     0.181 C 
BRANCH   5   6
ATOM      6  C   UNL     1      11.533  23.579  -6.947  1.00  0.00     0.209 C 
BRANCH   6   7
ATOM      7  C   UNL     1      11.997  23.602  -5.515  1.00  0.00     0.258 C 
ATOM      8  O   UNL     1      11.252  23.238  -4.619  1.00  0.00    -0.300 OA
ENDBRANCH   6   7
BRANCH   6   9
ATOM      9  O   UNL     1      11.487  22.253  -7.408  1.00  0.00    -0.383 OA
ATOM     10  H   UNL     1      10.954  21.737  -6.747  1.00  0.00     0.211 HD
ENDBRANCH   6   9
ENDBRANCH   5   6
BRANCH   5  11
ATOM     11  O   UNL     1       9.123  23.269  -6.932  1.00  0.00    -0.387 OA
ATOM     12  H   UNL     1       9.507  22.388  -7.184  1.00  0.00     0.211 HD
ENDBRANCH   5  11
ENDBRANCH   1   5
BRANCH   1  13
ATOM     13  O   UNL     1      10.626  24.350  -9.443  1.00  0.00    -0.388 OA
ATOM     14  H   UNL     1      11.581  24.302  -9.174  1.00  0.00     0.211 HD
ENDBRANCH   1  13
TORSDOF 8
ENDMDL
MODEL 2
REMARK VINA RESULT:    -4.001      1.553      3.893
REMARK INTER + INTRA:          -6.072
REMARK INTER:                  -5.519
REMARK INTRA:                  -0.552
REMARK UNBOUND:                -0.667
REMARK SMILES O=C[C@@H](O)[C@H](O)[C@@H](O)CO
REMARK SMILES IDX 7 1 9 2 10 3 5 5 3 6 2 7 1 8 4 9 6 11 8 13
REMARK H PARENT 10 4 4 10 6 12 8 14
REMARK Flexibility Score: inf
ROOT
ATOM      1  C   UNL     1      12.243  23.451  -7.407  1.00  0.00     0.171 C 
ENDROOT
BRANCH   1   2
ATOM      2  C   UNL     1      13.671  23.195  -7.910  1.00  0.00     0.190 C 
BRANCH   2   3
ATOM      3  O   UNL     1      13.626  22.530  -9.142  1.00  0.00    -0.394 OA
ATOM      4  H   UNL     1      14.478  22.745  -9.604  1.00  0.00     0.210 HD
ENDBRANCH   2   3
ENDBRANCH   1   2
BRANCH   1   5
ATOM      5  C   UNL     1      11.471  24.451  -8.312  1.00  0.00     0.181 C 
BRANCH   5   6
ATOM      6  C   UNL     1      10.205  25.045  -7.641  1.00  0.00     0.209 C 
BRANCH   6   7
ATOM      7  C   UNL     1       8.973  24.708  -8.437  1.00  0.00     0.258 C 
ATOM      8  O   UNL     1       8.005  24.200  -7.892  1.00  0.00    -0.300 OA
ENDBRANCH   6   7
BRANCH   6   9
ATOM      9  O   UNL     1      10.075  24.548  -6.334  1.00  0.00    -0.383 OA
ATOM     10  H   UNL     1       9.569  25.228  -5.816  1.00  0.00     0.211 HD
ENDBRANCH   6   9
ENDBRANCH   5   6
BRANCH   5  11
ATOM     11  O   UNL     1      11.136  23.840  -9.535  1.00  0.00    -0.387 OA
ATOM     12  H   UNL     1      11.959  23.417  -9.897  1.00  0.00     0.211 HD
ENDBRANCH   5  11
ENDBRANCH   1   5
BRANCH   1  13
ATOM     13  O   UNL     1      11.556  22.225  -7.382  1.00  0.00    -0.388 OA
ATOM     14  H   UNL     1      12.051  21.600  -7.974  1.00  0.00     0.211 HD
ENDBRANCH   1  13
TORSDOF 8
ENDMDL
MODEL 3
REMARK VINA RESULT:    -3.876      1.317      1.563
REMARK INTER + INTRA:          -5.903
REMARK INTER:                  -4.950
REMARK INTRA:                  -0.953
REMARK UNBOUND:                -0.667
REMARK SMILES O=C[C@@H](O)[C@H](O)[C@@H](O)CO
REMARK SMILES IDX 7 1 9 2 10 3 5 5 3 6 2 7 1 8 4 9 6 11 8 13
REMARK H PARENT 10 4 4 10 6 12 8 14
REMARK Flexibility Score: inf
ROOT
ATOM      1  C   UNL     1      10.201  25.016  -8.119  1.00  0.00     0.171 C 
ENDROOT
BRANCH   1   2
ATOM      2  C   UNL     1       8.759  24.812  -7.629  1.00  0.00     0.190 C 
BRANCH   2   3
ATOM      3  O   UNL     1       8.561  23.467  -7.295  1.00  0.00    -0.394 OA
ATOM      4  H   UNL     1       8.221  23.461  -6.362  1.00  0.00     0.210 HD
ENDBRANCH   2   3
ENDBRANCH   1   2
BRANCH   1   5
ATOM      5  C   UNL     1      11.250  24.643  -7.035  1.00  0.00     0.181 C 
BRANCH   5   6
ATOM      6  C   UNL     1      12.051  23.356  -7.363  1.00  0.00     0.209 C 
BRANCH   6   7
ATOM      7  C   UNL     1      13.333  23.312  -6.576  1.00  0.00     0.258 C 
ATOM      8  O   UNL     1      13.503  24.064  -5.629  1.00  0.00    -0.300 OA
ENDBRANCH   6   7
BRANCH   6   9
ATOM      9  O   UNL     1      11.277  22.221  -7.071  1.00  0.00    -0.383 OA
ATOM     10  H   UNL     1      11.389  21.592  -7.832  1.00  0.00     0.211 HD
ENDBRANCH   6   9
ENDBRANCH   5   6
BRANCH   5  11
ATOM     11  O   UNL     1      10.627  24.525  -5.778  1.00  0.00    -0.387 OA
ATOM     12  H   UNL     1      10.246  25.412  -5.546  1.00  0.00     0.211 HD
ENDBRANCH   5  11
ENDBRANCH   1   5
BRANCH   1  13
ATOM     13  O   UNL     1      10.401  24.210  -9.254  1.00  0.00    -0.388 OA
ATOM     14  H   UNL     1       9.801  23.424  -9.164  1.00  0.00     0.211 HD
ENDBRANCH   1  13
TORSDOF 8
ENDMDL
MODEL 4
REMARK VINA RESULT:    -3.855      1.673      2.197
REMARK INTER + INTRA:          -5.874
REMARK INTER:                  -5.279
REMARK INTRA:                  -0.595
REMARK UNBOUND:                -0.667
REMARK SMILES O=C[C@@H](O)[C@H](O)[C@@H](O)CO
REMARK SMILES IDX 7 1 9 2 10 3 5 5 3 6 2 7 1 8 4 9 6 11 8 13
REMARK H PARENT 10 4 4 10 6 12 8 14
REMARK Flexibility Score: inf
ROOT
ATOM      1  C   UNL     1      12.280  23.940  -8.498  1.00  0.00     0.171 C 
ENDROOT
BRANCH   1   2
ATOM      2  C   UNL     1      11.160  24.901  -8.922  1.00  0.00     0.190 C 
BRANCH   2   3
ATOM      3  O   UNL     1       9.954  24.198  -9.038  1.00  0.00    -0.394 OA
ATOM      4  H   UNL     1       9.704  24.234  -9.998  1.00  0.00     0.210 HD
ENDBRANCH   2   3
ENDBRANCH   1   2
BRANCH   1   5
ATOM      5  C   UNL     1      12.165  23.522  -7.006  1.00  0.00     0.181 C 
BRANCH   5   6
ATOM      6  C   UNL     1      13.534  23.255  -6.328  1.00  0.00     0.209 C 
BRANCH   6   7
ATOM      7  C   UNL     1      13.397  23.261  -4.830  1.00  0.00     0.258 C 
ATOM      8  O   UNL     1      12.294  23.337  -4.311  1.00  0.00    -0.300 OA
ENDBRANCH   6   7
BRANCH   6   9
ATOM      9  O   UNL     1      14.047  22.018  -6.751  1.00  0.00    -0.383 OA
ATOM     10  H   UNL     1      13.416  21.662  -7.431  1.00  0.00     0.211 HD
ENDBRANCH   6   9
ENDBRANCH   5   6
BRANCH   5  11
ATOM     11  O   UNL     1      11.329  22.396  -6.881  1.00  0.00    -0.387 OA
ATOM     12  H   UNL     1      10.632  22.612  -6.206  1.00  0.00     0.211 HD
ENDBRANCH   5  11
ENDBRANCH   1   5
BRANCH   1  13
ATOM     13  O   UNL     1      12.209  22.793  -9.308  1.00  0.00    -0.388 OA
ATOM     14  H   UNL     1      11.536  22.188  -8.898  1.00  0.00     0.211 HD
ENDBRANCH   1  13
TORSDOF 8
ENDMDL
MODEL 5
REMARK VINA RESULT:    -3.680      1.177      4.308
REMARK INTER + INTRA:          -5.638
REMARK INTER:                  -5.002
REMARK INTRA:                  -0.637
REMARK UNBOUND:                -0.667
REMARK SMILES O=C[C@@H](O)[C@H](O)[C@@H](O)CO
REMARK SMILES IDX 7 1 9 2 10 3 5 5 3 6 2 7 1 8 4 9 6 11 8 13
REMARK H PARENT 10 4 4 10 6 12 8 14
REMARK Flexibility Score: inf
ROOT
ATOM      1  C   UNL     1      11.448  23.585  -5.106  1.00  0.00     0.171 C 
ENDROOT
BRANCH   1   2
ATOM      2  C   UNL     1      12.869  23.338  -4.578  1.00  0.00     0.190 C 
BRANCH   2   3
ATOM      3  O   UNL     1      13.675  22.835  -5.608  1.00  0.00    -0.394 OA
ATOM      4  H   UNL     1      13.452  21.871  -5.687  1.00  0.00     0.210 HD
ENDBRANCH   2   3
ENDBRANCH   1   2
BRANCH   1   5
ATOM      5  C   UNL     1      11.381  23.544  -6.658  1.00  0.00     0.181 C 
BRANCH   5   6
ATOM      6  C   UNL     1      10.203  24.361  -7.250  1.00  0.00     0.209 C 
BRANCH   6   7
ATOM      7  C   UNL     1      10.489  24.750  -8.676  1.00  0.00     0.258 C 
ATOM      8  O   UNL     1      11.483  24.326  -9.245  1.00  0.00    -0.300 OA
ENDBRANCH   6   7
BRANCH   6   9
ATOM      9  O   UNL     1       9.020  23.607  -7.194  1.00  0.00    -0.383 OA
ATOM     10  H   UNL     1       8.288  24.237  -6.958  1.00  0.00     0.211 HD
ENDBRANCH   6   9
ENDBRANCH   5   6
BRANCH   5  11
ATOM     11  O   UNL     1      11.327  22.211  -7.107  1.00  0.00    -0.387 OA
ATOM     12  H   UNL     1      10.555  21.774  -6.661  1.00  0.00     0.211 HD
ENDBRANCH   5  11
ENDBRANCH   1   5
BRANCH   1  13
ATOM     13  O   UNL     1      10.602  22.592  -4.580  1.00  0.00    -0.388 OA
ATOM     14  H   UNL     1      10.684  22.633  -3.591  1.00  0.00     0.211 HD
ENDBRANCH   1  13
TORSDOF 8
ENDMDL
MODEL 6
REMARK VINA RESULT:    -3.669      2.067      3.897
REMARK INTER + INTRA:          -5.624
REMARK INTER:                  -4.935
REMARK INTRA:                  -0.689
REMARK UNBOUND:                -0.667
REMARK SMILES O=C[C@@H](O)[C@H](O)[C@@H](O)CO
REMARK SMILES IDX 7 1 9 2 10 3 5 5 3 6 2 7 1 8 4 9 6 11 8 13
REMARK H PARENT 10 4 4 10 6 12 8 14
REMARK Flexibility Score: inf
ROOT
ATOM      1  C   UNL     1      11.260  23.594  -6.969  1.00  0.00     0.171 C 
ENDROOT
BRANCH   1   2
ATOM      2  C   UNL     1      11.210  23.642  -5.435  1.00  0.00     0.190 C 
BRANCH   2   3
ATOM      3  O   UNL     1      10.455  22.565  -4.953  1.00  0.00    -0.394 OA
ATOM      4  H   UNL     1      10.742  22.425  -4.013  1.00  0.00     0.210 HD
ENDBRANCH   2   3
ENDBRANCH   1   2
BRANCH   1   5
ATOM      5  C   UNL     1      12.180  24.695  -7.564  1.00  0.00     0.181 C 
BRANCH   5   6
ATOM      6  C   UNL     1      12.320  24.622  -9.107  1.00  0.00     0.209 C 
BRANCH   6   7
ATOM      7  C   UNL     1      13.688  24.128  -9.494  1.00  0.00     0.258 C 
ATOM      8  O   UNL     1      14.061  23.014  -9.159  1.00  0.00    -0.300 OA
ENDBRANCH   6   7
BRANCH   6   9
ATOM      9  O   UNL     1      11.340  23.767  -9.638  1.00  0.00    -0.383 OA
ATOM     10  H   UNL     1      10.750  23.503  -8.884  1.00  0.00     0.211 HD
ENDBRANCH   6   9
ENDBRANCH   5   6
BRANCH   5  11
ATOM     11  O   UNL     1      13.449  24.649  -6.955  1.00  0.00    -0.387 OA
ATOM     12  H   UNL     1      13.315  24.715  -5.973  1.00  0.00     0.211 HD
ENDBRANCH   5  11
ENDBRANCH   1   5
BRANCH   1  13
ATOM     13  O   UNL     1      11.739  22.330  -7.357  1.00  0.00    -0.388 OA
ATOM     14  H   UNL     1      11.019  21.673  -7.167  1.00  0.00     0.211 HD
ENDBRANCH   1  13
TORSDOF 8
ENDMDL
MODEL 7
REMARK VINA RESULT:    -3.595      2.357      4.507
REMARK INTER + INTRA:          -5.523
REMARK INTER:                  -5.044
REMARK INTRA:                  -0.479
REMARK UNBOUND:                -0.667
REMARK SMILES O=C[C@@H](O)[C@H](O)[C@@H](O)CO
REMARK SMILES IDX 7 1 9 2 10 3 5 5 3 6 2 7 1 8 4 9 6 11 8 13
REMARK H PARENT 10 4 4 10 6 12 8 14
REMARK Flexibility Score: inf
ROOT
ATOM      1  C   UNL     1      11.575  23.393  -6.489  1.00  0.00     0.171 C 
ENDROOT
BRANCH   1   2
ATOM      2  C   UNL     1      11.804  23.422  -4.970  1.00  0.00     0.190 C 
BRANCH   2   3
ATOM      3  O   UNL     1      13.094  22.961  -4.679  1.00  0.00    -0.394 OA
ATOM      4  H   UNL     1      13.701  23.414  -5.320  1.00  0.00     0.210 HD
ENDBRANCH   2   3
ENDBRANCH   1   2
BRANCH   1   5
ATOM      5  C   UNL     1      12.896  23.567  -7.287  1.00  0.00     0.181 C 
BRANCH   5   6
ATOM      6  C   UNL     1      12.698  24.219  -8.680  1.00  0.00     0.209 C 
BRANCH   6   7
ATOM      7  C   UNL     1      14.016  24.367  -9.392  1.00  0.00     0.258 C 
ATOM      8  O   UNL     1      14.123  25.122 -10.345  1.00  0.00    -0.300 OA
ENDBRANCH   6   7
BRANCH   6   9
ATOM      9  O   UNL     1      11.826  23.438  -9.457  1.00  0.00    -0.383 OA
ATOM     10  H   UNL     1      12.281  23.276 -10.325  1.00  0.00     0.211 HD
ENDBRANCH   6   9
ENDBRANCH   5   6
BRANCH   5  11
ATOM     11  O   UNL     1      13.553  22.329  -7.416  1.00  0.00    -0.387 OA
ATOM     12  H   UNL     1      12.904  21.681  -7.797  1.00  0.00     0.211 HD
ENDBRANCH   5  11
ENDBRANCH   1   5
BRANCH   1  13
ATOM     13  O   UNL     1      10.990  22.159  -6.824  1.00  0.00    -0.388 OA
ATOM     14  H   UNL     1      10.724  21.721  -5.974  1.00  0.00     0.211 HD
ENDBRANCH   1  13
TORSDOF 8
ENDMDL
MODEL 8
REMARK VINA RESULT:    -3.550     15.568     16.216
REMARK INTER + INTRA:          -5.463
REMARK INTER:                  -4.907
REMARK INTRA:                  -0.556
REMARK UNBOUND:                -0.667
REMARK SMILES O=C[C@@H](O)[C@H](O)[C@@H](O)CO
REMARK SMILES IDX 7 1 9 2 10 3 5 5 3 6 2 7 1 8 4 9 6 11 8 13
REMARK H PARENT 10 4 4 10 6 12 8 14
REMARK Flexibility Score: inf
ROOT
ATOM      1  C   UNL     1       8.622   9.113 -14.056  1.00  0.00     0.171 C 
ENDROOT
BRANCH   1   2
ATOM      2  C   UNL     1       8.075   7.703 -13.785  1.00  0.00     0.190 C 
BRANCH   2   3
ATOM      3  O   UNL     1       6.849   7.793 -13.115  1.00  0.00    -0.394 OA
ATOM      4  H   UNL     1       6.528   6.861 -12.999  1.00  0.00     0.210 HD
ENDBRANCH   2   3
ENDBRANCH   1   2
BRANCH   1   5
ATOM      5  C   UNL     1       9.964   9.376 -13.319  1.00  0.00     0.181 C 
BRANCH   5   6
ATOM      6  C   UNL     1      11.148   9.678 -14.275  1.00  0.00     0.209 C 
BRANCH   6   7
ATOM      7  C   UNL     1      12.306  10.269 -13.517  1.00  0.00     0.258 C 
ATOM      8  O   UNL     1      12.171  10.617 -12.354  1.00  0.00    -0.300 OA
ENDBRANCH   6   7
BRANCH   6   9
ATOM      9  O   UNL     1      11.558   8.499 -14.920  1.00  0.00    -0.383 OA
ATOM     10  H   UNL     1      10.915   7.789 -14.657  1.00  0.00     0.211 HD
ENDBRANCH   6   9
ENDBRANCH   5   6
BRANCH   5  11
ATOM     11  O   UNL     1      10.278   8.290 -12.479  1.00  0.00    -0.387 OA
ATOM     12  H   UNL     1      10.495   7.513 -13.059  1.00  0.00     0.211 HD
ENDBRANCH   5  11
ENDBRANCH   1   5
BRANCH   1  13
ATOM     13  O   UNL     1       8.819   9.252 -15.441  1.00  0.00    -0.388 OA
ATOM     14  H   UNL     1       8.081   9.822 -15.785  1.00  0.00     0.211 HD
ENDBRANCH   1  13
TORSDOF 8
ENDMDL
MODEL 9
REMARK VINA RESULT:    -3.520      1.600      2.670
REMARK INTER + INTRA:          -5.421
REMARK INTER:                  -4.726
REMARK INTRA:                  -0.695
REMARK UNBOUND:                -0.667
REMARK SMILES O=C[C@@H](O)[C@H](O)[C@@H](O)CO
REMARK SMILES IDX 7 1 9 2 10 3 5 5 3 6 2 7 1 8 4 9 6 11 8 13
REMARK H PARENT 10 4 4 10 6 12 8 14
REMARK Flexibility Score: inf
ROOT
ATOM      1  C   UNL     1      11.328  23.535  -6.790  1.00  0.00     0.171 C 
ENDROOT
BRANCH   1   2
ATOM      2  C   UNL     1      10.056  24.216  -7.315  1.00  0.00     0.190 C 
BRANCH   2   3
ATOM      3  O   UNL     1       8.943  23.409  -7.047  1.00  0.00    -0.394 OA
ATOM      4  H   UNL     1       8.144  23.974  -7.215  1.00  0.00     0.210 HD
ENDBRANCH   2   3
ENDBRANCH   1   2
BRANCH   1   5
ATOM      5  C   UNL     1      11.462  23.647  -5.245  1.00  0.00     0.181 C 
BRANCH   5   6
ATOM      6  C   UNL     1      12.927  23.582  -4.742  1.00  0.00     0.209 C 
BRANCH   6   7
ATOM      7  C   UNL     1      12.983  23.061  -3.331  1.00  0.00     0.258 C 
ATOM      8  O   UNL     1      12.401  23.649  -2.433  1.00  0.00    -0.300 OA
ENDBRANCH   6   7
BRANCH   6   9
ATOM      9  O   UNL     1      13.687  22.751  -5.583  1.00  0.00    -0.383 OA
ATOM     10  H   UNL     1      14.147  23.344  -6.234  1.00  0.00     0.211 HD
ENDBRANCH   6   9
ENDBRANCH   5   6
BRANCH   5  11
ATOM     11  O   UNL     1      10.684  22.656  -4.618  1.00  0.00    -0.387 OA
ATOM     12  H   UNL     1       9.783  23.039  -4.452  1.00  0.00     0.211 HD
ENDBRANCH   5  11
ENDBRANCH   1   5
BRANCH   1  13
ATOM     13  O   UNL     1      11.286  22.178  -7.153  1.00  0.00    -0.388 OA
ATOM     14  H   UNL     1      10.406  21.823  -6.859  1.00  0.00     0.211 HD
ENDBRANCH   1  13
TORSDOF 8
ENDMDL
