MODEL 1
REMARK VINA RESULT:    -3.173      0.000      0.000
REMARK INTER + INTRA:          -4.527
REMARK INTER:                  -4.843
REMARK INTRA:                   0.316
REMARK UNBOUND:                 0.316
REMARK SMILES CC1=CCC[C@@H](C)C(=O)C[C@H](C(C)C)C(=O)C1
REMARK SMILES IDX 8 1 9 2 6 3 7 4 5 5 4 6 3 7 2 8 1 9 10 11 11 12 15 13 16 14
REMARK SMILES IDX 17 15 12 17 13 18 14 19
REMARK H PARENT
REMARK Flexibility Score: 70.00
ROOT
ATOM      1  C   UNL     1      19.157  -0.122  22.223  1.00  0.00     0.136 C 
ATOM      2  O   UNL     1      17.951  -0.177  22.414  1.00  0.00    -0.299 OA
ENDROOT
BRANCH   1   3
ATOM      3  C   UNL     1      20.108  -0.820  23.174  1.00  0.00     0.053 C 
ATOM      4  C   UNL     1      20.117  -2.321  22.865  1.00  0.00     0.016 C 
BRANCH   3   5
ATOM      5  C   UNL     1      19.754  -0.583  24.662  1.00  0.00     0.015 C 
BRANCH   5   6
ATOM      6  C   UNL     1      19.382   0.873  24.987  1.00  0.00     0.028 C 
BRANCH   6   7
ATOM      7  C   UNL     1      20.582   1.785  24.886  1.00  0.00    -0.028 C 
ATOM      8  C   UNL     1      20.683   2.864  24.077  1.00  0.00    -0.070 CG0
ATOM      9  C   UNL     1      21.954   3.674  24.130  1.00  0.00     0.039 C 
ATOM     10  G   UNL     1      19.584   3.282  23.120  1.00  0.00     0.000 G0
ENDBRANCH   6   7
ENDBRANCH   5   6
ENDBRANCH   3   5
ENDBRANCH   1   3
BRANCH   1  11
ATOM     11  C   UNL     1      19.675   0.572  20.987  1.00  0.00     0.087 C 
BRANCH  11  12
ATOM     12  C   UNL     1      19.110   2.006  20.832  1.00  0.00     0.066 C 
BRANCH  12  13
ATOM     13  C   UNL     1      19.938   2.971  21.669  1.00  0.00     0.140 C 
ATOM     14  O   UNL     1      20.875   3.563  21.151  1.00  0.00    -0.299 OA
BRANCH  13  15
ATOM     15  C   UNL     1      19.588   3.270  23.104  1.00  0.00     0.106 CG0
ATOM     16  G   UNL     1      20.689   2.865  24.064  1.00  0.00     0.000 G0
ENDBRANCH  13  15
ENDBRANCH  12  13
BRANCH  12  17
ATOM     17  C   UNL     1      19.078   2.470  19.341  1.00  0.00    -0.006 C 
ATOM     18  C   UNL     1      17.903   3.430  19.077  1.00  0.00     0.008 C 
ATOM     19  C   UNL     1      18.978   1.284  18.364  1.00  0.00     0.008 C 
ENDBRANCH  12  17
ENDBRANCH  11  12
ENDBRANCH   1  11
TORSDOF 1
ENDMDL
MODEL 2
REMARK VINA RESULT:    -2.895      0.928      1.020
REMARK INTER + INTRA:          -4.102
REMARK INTER:                  -3.849
REMARK INTRA:                  -0.253
REMARK UNBOUND:                 0.316
REMARK SMILES CC1=CCC[C@@H](C)C(=O)C[C@H](C(C)C)C(=O)C1
REMARK SMILES IDX 8 1 9 2 6 3 7 4 5 5 4 6 3 7 2 8 1 9 10 11 11 12 15 13 16 14
REMARK SMILES IDX 17 15 12 17 13 18 14 19
REMARK H PARENT
REMARK Flexibility Score: 70.00
ROOT
ATOM      1  C   UNL     1      19.347  -0.564  21.329  1.00  0.00     0.136 C 
ATOM      2  O   UNL     1      18.673  -1.274  20.597  1.00  0.00    -0.299 OA
ENDROOT
BRANCH   1   3
ATOM      3  C   UNL     1      19.532  -0.936  22.787  1.00  0.00     0.053 C 
ATOM      4  C   UNL     1      20.130  -2.344  22.873  1.00  0.00     0.016 C 
BRANCH   3   5
ATOM      5  C   UNL     1      18.216  -0.863  23.598  1.00  0.00     0.015 C 
BRANCH   5   6
ATOM      6  C   UNL     1      18.056   0.436  24.406  1.00  0.00     0.028 C 
BRANCH   6   7
ATOM      7  C   UNL     1      19.397   1.028  24.771  1.00  0.00    -0.028 C 
ATOM      8  C   UNL     1      19.914   2.172  24.268  1.00  0.00    -0.070 CG0
ATOM      9  C   UNL     1      21.261   2.623  24.772  1.00  0.00     0.039 C 
ATOM     10  G   UNL     1      19.205   3.005  23.219  1.00  0.00     0.000 G0
ENDBRANCH   6   7
ENDBRANCH   5   6
ENDBRANCH   3   5
ENDBRANCH   1   3
BRANCH   1  11
ATOM     11  C   UNL     1      20.060   0.632  20.743  1.00  0.00     0.087 C 
BRANCH  11  12
ATOM     12  C   UNL     1      19.203   1.921  20.805  1.00  0.00     0.066 C 
BRANCH  12  13
ATOM     13  C   UNL     1      19.795   2.875  21.832  1.00  0.00     0.140 C 
ATOM     14  O   UNL     1      20.733   3.592  21.514  1.00  0.00    -0.299 OA
BRANCH  13  15
ATOM     15  C   UNL     1      19.205   3.011  23.213  1.00  0.00     0.106 CG0
ATOM     16  G   UNL     1      19.923   2.151  24.234  1.00  0.00     0.000 G0
ENDBRANCH  13  15
ENDBRANCH  12  13
BRANCH  12  17
ATOM     17  C   UNL     1      19.090   2.621  19.413  1.00  0.00    -0.006 C 
ATOM     18  C   UNL     1      17.885   3.580  19.365  1.00  0.00     0.008 C 
ATOM     19  C   UNL     1      18.963   1.609  18.260  1.00  0.00     0.008 C 
ENDBRANCH  12  17
ENDBRANCH  11  12
ENDBRANCH   1  11
TORSDOF 1
ENDMDL
MODEL 3
REMARK VINA RESULT:    -2.856      1.725      3.668
REMARK INTER + INTRA:          -4.042
REMARK INTER:                  -4.150
REMARK INTRA:                   0.108
REMARK UNBOUND:                 0.316
REMARK SMILES CC1=CCC[C@@H](C)C(=O)C[C@H](C(C)C)C(=O)C1
REMARK SMILES IDX 8 1 9 2 6 3 7 4 5 5 4 6 3 7 2 8 1 9 10 11 11 12 15 13 16 14
REMARK SMILES IDX 17 15 12 17 13 18 14 19
REMARK H PARENT
REMARK Flexibility Score: 70.00
ROOT
ATOM      1  C   UNL     1      19.925   3.138  22.754  1.00  0.00     0.136 C 
ATOM      2  O   UNL     1      21.121   3.272  22.538  1.00  0.00    -0.299 OA
ENDROOT
BRANCH   1   3
ATOM      3  C   UNL     1      19.368   3.409  24.137  1.00  0.00     0.053 C 
ATOM      4  C   UNL     1      20.105   4.604  24.749  1.00  0.00     0.016 C 
BRANCH   3   5
ATOM      5  C   UNL     1      19.465   2.182  25.075  1.00  0.00     0.015 C 
BRANCH   5   6
ATOM      6  C   UNL     1      18.482   1.052  24.724  1.00  0.00     0.028 C 
BRANCH   6   7
ATOM      7  C   UNL     1      19.210  -0.179  24.237  1.00  0.00    -0.028 C 
ATOM      8  C   UNL     1      19.214  -0.636  22.964  1.00  0.00    -0.070 CG0
ATOM      9  C   UNL     1      20.021  -1.872  22.657  1.00  0.00     0.039 C 
ATOM     10  G   UNL     1      18.438   0.031  21.846  1.00  0.00     0.000 G0
ENDBRANCH   6   7
ENDBRANCH   5   6
ENDBRANCH   3   5
ENDBRANCH   1   3
BRANCH   1  11
ATOM     11  C   UNL     1      19.007   2.784  21.608  1.00  0.00     0.087 C 
BRANCH  11  12
ATOM     12  C   UNL     1      19.711   1.927  20.527  1.00  0.00     0.066 C 
BRANCH  12  13
ATOM     13  C   UNL     1      19.311   0.469  20.696  1.00  0.00     0.140 C 
ATOM     14  O   UNL     1      19.758  -0.369  19.926  1.00  0.00    -0.299 OA
BRANCH  13  15
ATOM     15  C   UNL     1      18.433   0.019  21.837  1.00  0.00     0.106 CG0
ATOM     16  G   UNL     1      19.227  -0.620  22.959  1.00  0.00     0.000 G0
ENDBRANCH  13  15
ENDBRANCH  12  13
BRANCH  12  17
ATOM     17  C   UNL     1      19.382   2.416  19.080  1.00  0.00    -0.006 C 
ATOM     18  C   UNL     1      20.235   3.639  18.695  1.00  0.00     0.008 C 
ATOM     19  C   UNL     1      17.894   2.778  18.912  1.00  0.00     0.008 C 
ENDBRANCH  12  17
ENDBRANCH  11  12
ENDBRANCH   1  11
TORSDOF 1
ENDMDL
MODEL 4
REMARK VINA RESULT:    -2.833      1.620      4.289
REMARK INTER + INTRA:          -4.008
REMARK INTER:                  -3.836
REMARK INTRA:                  -0.172
REMARK UNBOUND:                 0.316
REMARK SMILES CC1=CCC[C@@H](C)C(=O)C[C@H](C(C)C)C(=O)C1
REMARK SMILES IDX 8 1 9 2 6 3 7 4 5 5 4 6 3 7 2 8 1 9 10 11 11 12 15 13 16 14
REMARK SMILES IDX 17 15 12 17 13 18 14 19
REMARK H PARENT
REMARK Flexibility Score: 70.00
ROOT
ATOM      1  C   UNL     1      19.250   1.229  20.631  1.00  0.00     0.136 C 
ATOM      2  O   UNL     1      19.884   0.856  19.654  1.00  0.00    -0.299 OA
ENDROOT
BRANCH   1   3
ATOM      3  C   UNL     1      19.192   2.703  20.980  1.00  0.00     0.053 C 
ATOM      4  C   UNL     1      18.924   3.510  19.706  1.00  0.00     0.016 C 
BRANCH   3   5
ATOM      5  C   UNL     1      20.479   3.208  21.673  1.00  0.00     0.015 C 
BRANCH   5   6
ATOM      6  C   UNL     1      20.506   2.961  23.191  1.00  0.00     0.028 C 
BRANCH   6   7
ATOM      7  C   UNL     1      19.138   3.144  23.804  1.00  0.00    -0.028 C 
ATOM      8  C   UNL     1      18.491   2.234  24.568  1.00  0.00    -0.070 CG0
ATOM      9  C   UNL     1      17.136   2.604  25.117  1.00  0.00     0.039 C 
ATOM     10  G   UNL     1      19.063   0.866  24.882  1.00  0.00     0.000 G0
ENDBRANCH   6   7
ENDBRANCH   5   6
ENDBRANCH   3   5
ENDBRANCH   1   3
BRANCH   1  11
ATOM     11  C   UNL     1      18.462   0.217  21.427  1.00  0.00     0.087 C 
BRANCH  11  12
ATOM     12  C   UNL     1      19.292  -0.412  22.574  1.00  0.00     0.066 C 
BRANCH  12  13
ATOM     13  C   UNL     1      18.578  -0.188  23.899  1.00  0.00     0.140 C 
ATOM     14  O   UNL     1      17.638  -0.907  24.203  1.00  0.00    -0.299 OA
BRANCH  13  15
ATOM     15  C   UNL     1      19.049   0.855  24.881  1.00  0.00     0.106 CG0
ATOM     16  G   UNL     1      18.498   2.233  24.569  1.00  0.00     0.000 G0
ENDBRANCH  13  15
ENDBRANCH  12  13
BRANCH  12  17
ATOM     17  C   UNL     1      19.552  -1.936  22.348  1.00  0.00    -0.006 C 
ATOM     18  C   UNL     1      20.547  -2.494  23.382  1.00  0.00     0.008 C 
ATOM     19  C   UNL     1      20.088  -2.231  20.935  1.00  0.00     0.008 C 
ENDBRANCH  12  17
ENDBRANCH  11  12
ENDBRANCH   1  11
TORSDOF 1
ENDMDL
MODEL 5
REMARK VINA RESULT:    -2.590      1.964      4.760
REMARK INTER + INTRA:          -3.636
REMARK INTER:                  -3.983
REMARK INTRA:                   0.346
REMARK UNBOUND:                 0.316
REMARK SMILES CC1=CCC[C@@H](C)C(=O)C[C@H](C(C)C)C(=O)C1
REMARK SMILES IDX 8 1 9 2 6 3 7 4 5 5 4 6 3 7 2 8 1 9 10 11 11 12 15 13 16 14
REMARK SMILES IDX 17 15 12 17 13 18 14 19
REMARK H PARENT
REMARK Flexibility Score: 70.00
ROOT
ATOM      1  C   UNL     1      19.198   2.508  20.920  1.00  0.00     0.136 C 
ATOM      2  O   UNL     1      17.997   2.667  21.077  1.00  0.00    -0.299 OA
ENDROOT
BRANCH   1   3
ATOM      3  C   UNL     1      19.751   2.210  19.540  1.00  0.00     0.053 C 
ATOM      4  C   UNL     1      18.987   3.042  18.504  1.00  0.00     0.016 C 
BRANCH   3   5
ATOM      5  C   UNL     1      19.682   0.707  19.177  1.00  0.00     0.015 C 
BRANCH   5   6
ATOM      6  C   UNL     1      18.783  -0.118  20.113  1.00  0.00     0.028 C 
BRANCH   6   7
ATOM      7  C   UNL     1      19.595  -1.075  20.954  1.00  0.00    -0.028 C 
ATOM      8  C   UNL     1      19.597  -1.127  22.305  1.00  0.00    -0.070 CG0
ATOM      9  C   UNL     1      20.455  -2.171  22.974  1.00  0.00     0.039 C 
ATOM     10  G   UNL     1      18.787  -0.178  23.167  1.00  0.00     0.000 G0
ENDBRANCH   6   7
ENDBRANCH   5   6
ENDBRANCH   3   5
ENDBRANCH   1   3
BRANCH   1  11
ATOM     11  C   UNL     1      20.126   2.698  22.096  1.00  0.00     0.087 C 
BRANCH  11  12
ATOM     12  C   UNL     1      19.439   2.384  23.449  1.00  0.00     0.066 C 
BRANCH  12  13
ATOM     13  C   UNL     1      19.644   0.917  23.794  1.00  0.00     0.140 C 
ATOM     14  O   UNL     1      20.482   0.608  24.628  1.00  0.00    -0.299 OA
BRANCH  13  15
ATOM     15  C   UNL     1      18.787  -0.164  23.184  1.00  0.00     0.106 CG0
ATOM     16  G   UNL     1      19.589  -1.121  22.325  1.00  0.00     0.000 G0
ENDBRANCH  13  15
ENDBRANCH  12  13
BRANCH  12  17
ATOM     17  C   UNL     1      19.968   3.293  24.604  1.00  0.00    -0.006 C 
ATOM     18  C   UNL     1      18.965   4.412  24.941  1.00  0.00     0.008 C 
ATOM     19  C   UNL     1      21.328   3.933  24.266  1.00  0.00     0.008 C 
ENDBRANCH  12  17
ENDBRANCH  11  12
ENDBRANCH   1  11
TORSDOF 1
ENDMDL
MODEL 6
REMARK VINA RESULT:    -2.544      1.771      3.951
REMARK INTER + INTRA:          -3.566
REMARK INTER:                  -4.117
REMARK INTRA:                   0.550
REMARK UNBOUND:                 0.316
REMARK SMILES CC1=CCC[C@@H](C)C(=O)C[C@H](C(C)C)C(=O)C1
REMARK SMILES IDX 8 1 9 2 6 3 7 4 5 5 4 6 3 7 2 8 1 9 10 11 11 12 15 13 16 14
REMARK SMILES IDX 17 15 12 17 13 18 14 19
REMARK H PARENT
REMARK Flexibility Score: 70.00
ROOT
ATOM      1  C   UNL     1      19.696  -0.860  23.503  1.00  0.00     0.136 C 
ATOM      2  O   UNL     1      20.539  -1.148  24.339  1.00  0.00    -0.299 OA
ENDROOT
BRANCH   1   3
ATOM      3  C   UNL     1      19.574  -1.682  22.234  1.00  0.00     0.053 C 
ATOM      4  C   UNL     1      20.318  -3.008  22.422  1.00  0.00     0.016 C 
BRANCH   3   5
ATOM      5  C   UNL     1      20.108  -0.941  20.985  1.00  0.00     0.015 C 
BRANCH   5   6
ATOM      6  C   UNL     1      19.005  -0.324  20.109  1.00  0.00     0.028 C 
BRANCH   6   7
ATOM      7  C   UNL     1      19.406   1.040  19.596  1.00  0.00    -0.028 C 
ATOM      8  C   UNL     1      19.276   2.203  20.273  1.00  0.00    -0.070 CG0
ATOM      9  C   UNL     1      19.756   3.468  19.608  1.00  0.00     0.039 C 
ATOM     10  G   UNL     1      18.661   2.287  21.656  1.00  0.00     0.000 G0
ENDBRANCH   6   7
ENDBRANCH   5   6
ENDBRANCH   3   5
ENDBRANCH   1   3
BRANCH   1  11
ATOM     11  C   UNL     1      18.728   0.263  23.789  1.00  0.00     0.087 C 
BRANCH  11  12
ATOM     12  C   UNL     1      19.446   1.604  24.078  1.00  0.00     0.066 C 
BRANCH  12  13
ATOM     13  C   UNL     1      19.652   2.361  22.774  1.00  0.00     0.140 C 
ATOM     14  O   UNL     1      20.684   2.994  22.603  1.00  0.00    -0.299 OA
BRANCH  13  15
ATOM     15  C   UNL     1      18.644   2.291  21.654  1.00  0.00     0.106 CG0
ATOM     16  G   UNL     1      19.301   2.196  20.291  1.00  0.00     0.000 G0
ENDBRANCH  13  15
ENDBRANCH  12  13
BRANCH  12  17
ATOM     17  C   UNL     1      18.659   2.486  25.099  1.00  0.00    -0.006 C 
ATOM     18  C   UNL     1      17.147   2.199  25.040  1.00  0.00     0.008 C 
ATOM     19  C   UNL     1      18.887   3.991  24.866  1.00  0.00     0.008 C 
ENDBRANCH  12  17
ENDBRANCH  11  12
ENDBRANCH   1  11
TORSDOF 1
ENDMDL
MODEL 7
REMARK VINA RESULT:    -1.828      1.837      3.738
REMARK INTER + INTRA:          -2.474
REMARK INTER:                  -4.131
REMARK INTRA:                   1.657
REMARK UNBOUND:                 0.316
REMARK SMILES CC1=CCC[C@@H](C)C(=O)C[C@H](C(C)C)C(=O)C1
REMARK SMILES IDX 8 1 9 2 6 3 7 4 5 5 4 6 3 7 2 8 1 9 10 11 11 12 15 13 16 14
REMARK SMILES IDX 17 15 12 17 13 18 14 19
REMARK H PARENT
REMARK Flexibility Score: 70.00
ROOT
ATOM      1  C   UNL     1      18.007   0.003  24.365  1.00  0.00     0.136 C 
ATOM      2  O   UNL     1      17.352  -1.004  24.588  1.00  0.00    -0.299 OA
ENDROOT
BRANCH   1   3
ATOM      3  C   UNL     1      17.596   1.327  24.979  1.00  0.00     0.053 C 
ATOM      4  C   UNL     1      16.067   1.389  25.059  1.00  0.00     0.016 C 
BRANCH   3   5
ATOM      5  C   UNL     1      18.141   2.547  24.199  1.00  0.00     0.015 C 
BRANCH   5   6
ATOM      6  C   UNL     1      19.677   2.635  24.177  1.00  0.00     0.028 C 
BRANCH   6   7
ATOM      7  C   UNL     1      20.176   3.230  22.881  1.00  0.00    -0.028 C 
ATOM      8  C   UNL     1      19.723   2.917  21.646  1.00  0.00    -0.070 CG0
ATOM      9  C   UNL     1      20.326   3.636  20.466  1.00  0.00     0.039 C 
ATOM     10  G   UNL     1      18.649   1.875  21.402  1.00  0.00     0.000 G0
ENDBRANCH   6   7
ENDBRANCH   5   6
ENDBRANCH   3   5
ENDBRANCH   1   3
BRANCH   1  11
ATOM     11  C   UNL     1      19.271  -0.106  23.546  1.00  0.00     0.087 C 
BRANCH  11  12
ATOM     12  C   UNL     1      19.004  -0.626  22.111  1.00  0.00     0.066 C 
BRANCH  12  13
ATOM     13  C   UNL     1      19.194   0.509  21.116  1.00  0.00     0.140 C 
ATOM     14  O   UNL     1      19.759   0.289  20.055  1.00  0.00    -0.299 OA
BRANCH  13  15
ATOM     15  C   UNL     1      18.637   1.886  21.377  1.00  0.00     0.106 CG0
ATOM     16  G   UNL     1      19.724   2.907  21.649  1.00  0.00     0.000 G0
ENDBRANCH  13  15
ENDBRANCH  12  13
BRANCH  12  17
ATOM     17  C   UNL     1      19.925  -1.833  21.741  1.00  0.00    -0.006 C 
ATOM     18  C   UNL     1      19.349  -2.634  20.558  1.00  0.00     0.008 C 
ATOM     19  C   UNL     1      20.138  -2.789  22.929  1.00  0.00     0.008 C 
ENDBRANCH  12  17
ENDBRANCH  11  12
ENDBRANCH   1  11
TORSDOF 1
ENDMDL
MODEL 8
REMARK VINA RESULT:    -1.684      2.505      4.985
REMARK INTER + INTRA:          -2.254
REMARK INTER:                  -3.634
REMARK INTRA:                   1.380
REMARK UNBOUND:                 0.316
REMARK SMILES CC1=CCC[C@@H](C)C(=O)C[C@H](C(C)C)C(=O)C1
REMARK SMILES IDX 8 1 9 2 6 3 7 4 5 5 4 6 3 7 2 8 1 9 10 11 11 12 15 13 16 14
REMARK SMILES IDX 17 15 12 17 13 18 14 19
REMARK H PARENT
REMARK Flexibility Score: 70.00
ROOT
ATOM      1  C   UNL     1      19.922   1.757  24.414  1.00  0.00     0.136 C 
ATOM      2  O   UNL     1      20.508   0.787  24.872  1.00  0.00    -0.299 OA
ENDROOT
BRANCH   1   3
ATOM      3  C   UNL     1      20.479   2.477  23.201  1.00  0.00     0.053 C 
ATOM      4  C   UNL     1      21.355   3.644  23.669  1.00  0.00     0.016 C 
BRANCH   3   5
ATOM      5  C   UNL     1      19.374   2.987  22.245  1.00  0.00     0.015 C 
BRANCH   5   6
ATOM      6  C   UNL     1      19.162   2.097  21.009  1.00  0.00     0.028 C 
BRANCH   6   7
ATOM      7  C   UNL     1      19.755   0.722  21.210  1.00  0.00    -0.028 C 
ATOM      8  C   UNL     1      19.126  -0.329  21.783  1.00  0.00    -0.070 CG0
ATOM      9  C   UNL     1      19.870  -1.637  21.875  1.00  0.00     0.039 C 
ATOM     10  G   UNL     1      17.719  -0.242  22.340  1.00  0.00     0.000 G0
ENDBRANCH   6   7
ENDBRANCH   5   6
ENDBRANCH   3   5
ENDBRANCH   1   3
BRANCH   1  11
ATOM     11  C   UNL     1      18.601   2.171  25.016  1.00  0.00     0.087 C 
BRANCH  11  12
ATOM     12  C   UNL     1      17.391   1.569  24.258  1.00  0.00     0.066 C 
BRANCH  12  13
ATOM     13  C   UNL     1      17.724   0.154  23.811  1.00  0.00     0.140 C 
ATOM     14  O   UNL     1      17.940  -0.706  24.653  1.00  0.00    -0.299 OA
BRANCH  13  15
ATOM     15  C   UNL     1      17.724  -0.233  22.354  1.00  0.00     0.106 CG0
ATOM     16  G   UNL     1      19.125  -0.340  21.784  1.00  0.00     0.000 G0
ENDBRANCH  13  15
ENDBRANCH  12  13
BRANCH  12  17
ATOM     17  C   UNL     1      16.091   1.574  25.125  1.00  0.00    -0.006 C 
ATOM     18  C   UNL     1      15.171   0.393  24.761  1.00  0.00     0.008 C 
ATOM     19  C   UNL     1      15.296   2.884  24.976  1.00  0.00     0.008 C 
ENDBRANCH  12  17
ENDBRANCH  11  12
ENDBRANCH   1  11
TORSDOF 1
ENDMDL
MODEL 9
REMARK VINA RESULT:    -1.413      2.244      4.980
REMARK INTER + INTRA:          -1.841
REMARK INTER:                  -2.747
REMARK INTRA:                   0.906
REMARK UNBOUND:                 0.316
REMARK SMILES CC1=CCC[C@@H](C)C(=O)C[C@H](C(C)C)C(=O)C1
REMARK SMILES IDX 8 1 9 2 6 3 7 4 5 5 4 6 3 7 2 8 1 9 10 11 11 12 15 13 16 14
REMARK SMILES IDX 17 15 12 17 13 18 14 19
REMARK H PARENT
REMARK Flexibility Score: 70.00
ROOT
ATOM      1  C   UNL     1      19.462   2.489  22.181  1.00  0.00     0.136 C 
ATOM      2  O   UNL     1      20.420   3.006  22.738  1.00  0.00    -0.299 OA
ENDROOT
BRANCH   1   3
ATOM      3  C   UNL     1      19.558   2.091  20.721  1.00  0.00     0.053 C 
ATOM      4  C   UNL     1      19.004   3.227  19.854  1.00  0.00     0.016 C 
BRANCH   3   5
ATOM      5  C   UNL     1      18.818   0.769  20.409  1.00  0.00     0.015 C 
BRANCH   5   6
ATOM      6  C   UNL     1      19.756  -0.427  20.172  1.00  0.00     0.028 C 
BRANCH   6   7
ATOM      7  C   UNL     1      19.437  -1.571  21.106  1.00  0.00    -0.028 C 
ATOM      8  C   UNL     1      19.757  -1.626  22.419  1.00  0.00    -0.070 CG0
ATOM      9  C   UNL     1      19.333  -2.842  23.202  1.00  0.00     0.039 C 
ATOM     10  G   UNL     1      20.528  -0.528  23.126  1.00  0.00     0.000 G0
ENDBRANCH   6   7
ENDBRANCH   5   6
ENDBRANCH   3   5
ENDBRANCH   1   3
BRANCH   1  11
ATOM     11  C   UNL     1      18.223   2.176  22.985  1.00  0.00     0.087 C 
BRANCH  11  12
ATOM     12  C   UNL     1      18.215   0.722  23.519  1.00  0.00     0.066 C 
BRANCH  12  13
ATOM     13  C   UNL     1      19.615   0.342  23.976  1.00  0.00     0.140 C 
ATOM     14  O   UNL     1      20.003   0.696  25.081  1.00  0.00    -0.299 OA
BRANCH  13  15
ATOM     15  C   UNL     1      20.513  -0.524  23.129  1.00  0.00     0.106 CG0
ATOM     16  G   UNL     1      19.752  -1.630  22.426  1.00  0.00     0.000 G0
ENDBRANCH  13  15
ENDBRANCH  12  13
BRANCH  12  17
ATOM     17  C   UNL     1      17.192   0.528  24.683  1.00  0.00    -0.006 C 
ATOM     18  C   UNL     1      16.715  -0.934  24.772  1.00  0.00     0.008 C 
ATOM     19  C   UNL     1      15.961   1.441  24.536  1.00  0.00     0.008 C 
ENDBRANCH  12  17
ENDBRANCH  11  12
ENDBRANCH   1  11
TORSDOF 1
ENDMDL
