MODEL 1
REMARK VINA RESULT:    -3.838      0.000      0.000
REMARK INTER + INTRA:          -4.207
REMARK INTER:                  -4.175
REMARK INTRA:                  -0.032
REMARK UNBOUND:                -0.032
REMARK SMILES O=C([O-])c1ccc(O)cc1
REMARK SMILES IDX 7 1 6 2 9 3 5 4 10 5 4 6 8 7 2 9 1 10 3 11
REMARK H PARENT 8 8
REMARK Flexibility Score: inf
ROOT
ATOM      1  C   UNL     1      55.270  42.191 123.147  1.00  0.00     0.115 A 
ATOM      2  C   UNL     1      54.653  40.967 122.875  1.00  0.00     0.047 A 
ATOM      3  C   UNL     1      56.587  42.214 123.623  1.00  0.00     0.047 A 
ATOM      4  C   UNL     1      55.346  39.769 123.076  1.00  0.00     0.014 A 
ATOM      5  C   UNL     1      57.283  41.019 123.825  1.00  0.00     0.014 A 
ATOM      6  C   UNL     1      56.669  39.783 123.554  1.00  0.00    -0.003 A 
ENDROOT
BRANCH   1   7
ATOM      7  O   UNL     1      54.568  43.376 122.943  1.00  0.00    -0.508 OA
ATOM      8  H   UNL     1      54.341  43.997 123.711  1.00  0.00     0.293 HD
ENDBRANCH   1   7
BRANCH   6   9
ATOM      9  C   UNL     1      57.408  38.518 123.768  1.00  0.00     0.071 C 
ATOM     10  O   UNL     1      57.324  37.578 122.933  1.00  0.00    -0.545 OA
ATOM     11  O   UNL     1      58.205  38.351 124.895  1.00  0.00    -0.545 OA
ENDBRANCH   6   9
TORSDOF 2
ENDMDL
MODEL 2
REMARK VINA RESULT:    -3.784      1.090      4.322
REMARK INTER + INTRA:          -4.148
REMARK INTER:                  -4.115
REMARK INTRA:                  -0.032
REMARK UNBOUND:                -0.032
REMARK SMILES O=C([O-])c1ccc(O)cc1
REMARK SMILES IDX 7 1 6 2 9 3 5 4 10 5 4 6 8 7 2 9 1 10 3 11
REMARK H PARENT 8 8
REMARK Flexibility Score: inf
ROOT
ATOM      1  C   UNL     1      56.717  38.421 123.101  1.00  0.00     0.115 A 
ATOM      2  C   UNL     1      57.655  39.377 123.502  1.00  0.00     0.047 A 
ATOM      3  C   UNL     1      55.388  38.802 122.878  1.00  0.00     0.047 A 
ATOM      4  C   UNL     1      57.269  40.710 123.679  1.00  0.00     0.014 A 
ATOM      5  C   UNL     1      54.999  40.133 123.054  1.00  0.00     0.014 A 
ATOM      6  C   UNL     1      55.936  41.101 123.457  1.00  0.00    -0.003 A 
ENDROOT
BRANCH   1   7
ATOM      7  O   UNL     1      57.115  37.097 122.928  1.00  0.00    -0.508 OA
ATOM      8  H   UNL     1      57.990  36.863 122.472  1.00  0.00     0.293 HD
ENDBRANCH   1   7
BRANCH   6   9
ATOM      9  C   UNL     1      55.522  42.510 123.643  1.00  0.00     0.071 C 
ATOM     10  O   UNL     1      54.666  43.032 122.880  1.00  0.00    -0.545 OA
ATOM     11  O   UNL     1      56.072  43.277 124.663  1.00  0.00    -0.545 OA
ENDBRANCH   6   9
TORSDOF 2
ENDMDL
MODEL 3
REMARK VINA RESULT:    -3.759     14.884     15.376
REMARK INTER + INTRA:          -4.121
REMARK INTER:                  -4.085
REMARK INTRA:                  -0.036
REMARK UNBOUND:                -0.032
REMARK SMILES O=C([O-])c1ccc(O)cc1
REMARK SMILES IDX 7 1 6 2 9 3 5 4 10 5 4 6 8 7 2 9 1 10 3 11
REMARK H PARENT 8 8
REMARK Flexibility Score: inf
ROOT
ATOM      1  C   UNL     1      49.303  37.027 138.165  1.00  0.00     0.115 A 
ATOM      2  C   UNL     1      48.697  38.115 137.531  1.00  0.00     0.047 A 
ATOM      3  C   UNL     1      49.693  35.912 137.412  1.00  0.00     0.047 A 
ATOM      4  C   UNL     1      48.479  38.093 136.150  1.00  0.00     0.014 A 
ATOM      5  C   UNL     1      49.477  35.887 136.031  1.00  0.00     0.014 A 
ATOM      6  C   UNL     1      48.867  36.977 135.385  1.00  0.00    -0.003 A 
ENDROOT
BRANCH   1   7
ATOM      7  O   UNL     1      49.514  37.063 139.542  1.00  0.00    -0.508 OA
ATOM      8  H   UNL     1      50.420  37.294 139.933  1.00  0.00     0.293 HD
ENDBRANCH   1   7
BRANCH   6   9
ATOM      9  C   UNL     1      48.640  36.948 133.923  1.00  0.00     0.071 C 
ATOM     10  O   UNL     1      48.780  35.876 133.275  1.00  0.00    -0.545 OA
ATOM     11  O   UNL     1      48.268  38.103 133.245  1.00  0.00    -0.545 OA
ENDBRANCH   6   9
TORSDOF 2
ENDMDL
MODEL 4
REMARK VINA RESULT:    -3.751     14.869     15.350
REMARK INTER + INTRA:          -4.111
REMARK INTER:                  -4.075
REMARK INTRA:                  -0.036
REMARK UNBOUND:                -0.032
REMARK SMILES O=C([O-])c1ccc(O)cc1
REMARK SMILES IDX 7 1 6 2 9 3 5 4 10 5 4 6 8 7 2 9 1 10 3 11
REMARK H PARENT 8 8
REMARK Flexibility Score: inf
ROOT
ATOM      1  C   UNL     1      49.299  37.036 138.145  1.00  0.00     0.115 A 
ATOM      2  C   UNL     1      49.702  35.919 137.407  1.00  0.00     0.047 A 
ATOM      3  C   UNL     1      48.683  38.113 137.495  1.00  0.00     0.047 A 
ATOM      4  C   UNL     1      49.491  35.875 136.025  1.00  0.00     0.014 A 
ATOM      5  C   UNL     1      48.470  38.072 136.114  1.00  0.00     0.014 A 
ATOM      6  C   UNL     1      48.872  36.952 135.364  1.00  0.00    -0.003 A 
ENDROOT
BRANCH   1   7
ATOM      7  O   UNL     1      49.516  37.067 139.521  1.00  0.00    -0.508 OA
ATOM      8  H   UNL     1      49.763  37.926 139.999  1.00  0.00     0.293 HD
ENDBRANCH   1   7
BRANCH   6   9
ATOM      9  C   UNL     1      48.646  36.911 133.902  1.00  0.00     0.071 C 
ATOM     10  O   UNL     1      48.943  35.883 133.237  1.00  0.00    -0.545 OA
ATOM     11  O   UNL     1      48.103  38.007 133.242  1.00  0.00    -0.545 OA
ENDBRANCH   6   9
TORSDOF 2
ENDMDL
MODEL 5
REMARK VINA RESULT:    -3.366      1.567      2.018
REMARK INTER + INTRA:          -3.693
REMARK INTER:                  -3.657
REMARK INTRA:                  -0.036
REMARK UNBOUND:                -0.032
REMARK SMILES O=C([O-])c1ccc(O)cc1
REMARK SMILES IDX 7 1 6 2 9 3 5 4 10 5 4 6 8 7 2 9 1 10 3 11
REMARK H PARENT 8 8
REMARK Flexibility Score: inf
ROOT
ATOM      1  C   UNL     1      57.469  42.553 123.684  1.00  0.00     0.115 A 
ATOM      2  C   UNL     1      56.123  42.232 123.488  1.00  0.00     0.047 A 
ATOM      3  C   UNL     1      58.434  41.537 123.671  1.00  0.00     0.047 A 
ATOM      4  C   UNL     1      55.739  40.903 123.280  1.00  0.00     0.014 A 
ATOM      5  C   UNL     1      58.054  40.208 123.463  1.00  0.00     0.014 A 
ATOM      6  C   UNL     1      56.701  39.877 123.266  1.00  0.00    -0.003 A 
ENDROOT
BRANCH   1   7
ATOM      7  O   UNL     1      57.838  43.880 123.890  1.00  0.00    -0.508 OA
ATOM      8  H   UNL     1      57.984  44.516 123.114  1.00  0.00     0.293 HD
ENDBRANCH   1   7
BRANCH   6   9
ATOM      9  C   UNL     1      56.301  38.470 123.046  1.00  0.00     0.071 C 
ATOM     10  O   UNL     1      55.083  38.154 122.973  1.00  0.00    -0.545 OA
ATOM     11  O   UNL     1      57.264  37.475 122.917  1.00  0.00    -0.545 OA
ENDBRANCH   6   9
TORSDOF 2
ENDMDL
MODEL 6
REMARK VINA RESULT:    -3.253     15.127     15.802
REMARK INTER + INTRA:          -3.570
REMARK INTER:                  -3.539
REMARK INTRA:                  -0.031
REMARK UNBOUND:                -0.032
REMARK SMILES O=C([O-])c1ccc(O)cc1
REMARK SMILES IDX 7 1 6 2 9 3 5 4 10 5 4 6 8 7 2 9 1 10 3 11
REMARK H PARENT 8 8
REMARK Flexibility Score: inf
ROOT
ATOM      1  C   UNL     1      50.029  36.585 137.247  1.00  0.00     0.115 A 
ATOM      2  C   UNL     1      49.652  36.226 135.949  1.00  0.00     0.047 A 
ATOM      3  C   UNL     1      49.387  37.653 137.887  1.00  0.00     0.047 A 
ATOM      4  C   UNL     1      48.639  36.930 135.291  1.00  0.00     0.014 A 
ATOM      5  C   UNL     1      48.373  38.358 137.232  1.00  0.00     0.014 A 
ATOM      6  C   UNL     1      47.989  38.004 135.926  1.00  0.00    -0.003 A 
ENDROOT
BRANCH   1   7
ATOM      7  O   UNL     1      51.040  35.875 137.891  1.00  0.00    -0.508 OA
ATOM      8  H   UNL     1      51.171  34.882 137.736  1.00  0.00     0.293 HD
ENDBRANCH   1   7
BRANCH   6   9
ATOM      9  C   UNL     1      46.915  38.752 135.234  1.00  0.00     0.071 C 
ATOM     10  O   UNL     1      46.901  40.012 135.250  1.00  0.00    -0.545 OA
ATOM     11  O   UNL     1      45.908  38.075 134.557  1.00  0.00    -0.545 OA
ENDBRANCH   6   9
TORSDOF 2
ENDMDL
MODEL 7
REMARK VINA RESULT:    -3.228      1.805      2.254
REMARK INTER + INTRA:          -3.543
REMARK INTER:                  -3.507
REMARK INTRA:                  -0.036
REMARK UNBOUND:                -0.032
REMARK SMILES O=C([O-])c1ccc(O)cc1
REMARK SMILES IDX 7 1 6 2 9 3 5 4 10 5 4 6 8 7 2 9 1 10 3 11
REMARK H PARENT 8 8
REMARK Flexibility Score: inf
ROOT
ATOM      1  C   UNL     1      53.133  40.175 122.935  1.00  0.00     0.115 A 
ATOM      2  C   UNL     1      53.460  38.817 122.893  1.00  0.00     0.047 A 
ATOM      3  C   UNL     1      54.151  41.133 123.027  1.00  0.00     0.047 A 
ATOM      4  C   UNL     1      54.798  38.414 122.943  1.00  0.00     0.014 A 
ATOM      5  C   UNL     1      55.490  40.733 123.077  1.00  0.00     0.014 A 
ATOM      6  C   UNL     1      55.828  39.369 123.036  1.00  0.00    -0.003 A 
ENDROOT
BRANCH   1   7
ATOM      7  O   UNL     1      51.796  40.563 122.884  1.00  0.00    -0.508 OA
ATOM      8  H   UNL     1      51.425  41.085 122.099  1.00  0.00     0.293 HD
ENDBRANCH   1   7
BRANCH   6   9
ATOM      9  C   UNL     1      57.246  38.948 123.089  1.00  0.00     0.071 C 
ATOM     10  O   UNL     1      57.556  37.730 123.001  1.00  0.00    -0.545 OA
ATOM     11  O   UNL     1      58.255  39.892 123.237  1.00  0.00    -0.545 OA
ENDBRANCH   6   9
TORSDOF 2
ENDMDL
MODEL 8
REMARK VINA RESULT:    -3.182     14.892     15.232
REMARK INTER + INTRA:          -3.493
REMARK INTER:                  -3.466
REMARK INTRA:                  -0.027
REMARK UNBOUND:                -0.032
REMARK SMILES O=C([O-])c1ccc(O)cc1
REMARK SMILES IDX 7 1 6 2 9 3 5 4 10 5 4 6 8 7 2 9 1 10 3 11
REMARK H PARENT 8 8
REMARK Flexibility Score: inf
ROOT
ATOM      1  C   UNL     1      47.261  38.051 134.338  1.00  0.00     0.115 A 
ATOM      2  C   UNL     1      48.083  36.923 134.265  1.00  0.00     0.047 A 
ATOM      3  C   UNL     1      47.224  38.808 135.516  1.00  0.00     0.047 A 
ATOM      4  C   UNL     1      48.867  36.550 135.362  1.00  0.00     0.014 A 
ATOM      5  C   UNL     1      48.006  38.439 136.614  1.00  0.00     0.014 A 
ATOM      6  C   UNL     1      48.835  37.305 136.549  1.00  0.00    -0.003 A 
ENDROOT
BRANCH   1   7
ATOM      7  O   UNL     1      46.486  38.410 133.238  1.00  0.00    -0.508 OA
ATOM      8  H   UNL     1      45.621  38.928 133.346  1.00  0.00     0.293 HD
ENDBRANCH   1   7
BRANCH   6   9
ATOM      9  C   UNL     1      49.662  36.916 137.713  1.00  0.00     0.071 C 
ATOM     10  O   UNL     1      49.170  36.230 138.648  1.00  0.00    -0.545 OA
ATOM     11  O   UNL     1      50.996  37.303 137.791  1.00  0.00    -0.545 OA
ENDBRANCH   6   9
TORSDOF 2
ENDMDL
MODEL 9
REMARK VINA RESULT:    -3.121      1.539      4.183
REMARK INTER + INTRA:          -3.427
REMARK INTER:                  -3.393
REMARK INTRA:                  -0.034
REMARK UNBOUND:                -0.032
REMARK SMILES O=C([O-])c1ccc(O)cc1
REMARK SMILES IDX 7 1 6 2 9 3 5 4 10 5 4 6 8 7 2 9 1 10 3 11
REMARK H PARENT 8 8
REMARK Flexibility Score: inf
ROOT
ATOM      1  C   UNL     1      55.837  37.638 123.727  1.00  0.00     0.115 A 
ATOM      2  C   UNL     1      54.663  38.381 123.881  1.00  0.00     0.047 A 
ATOM      3  C   UNL     1      57.035  38.290 123.410  1.00  0.00     0.047 A 
ATOM      4  C   UNL     1      54.683  39.771 123.720  1.00  0.00     0.014 A 
ATOM      5  C   UNL     1      57.060  39.678 123.249  1.00  0.00     0.014 A 
ATOM      6  C   UNL     1      55.883  40.433 123.402  1.00  0.00    -0.003 A 
ENDROOT
BRANCH   1   7
ATOM      7  O   UNL     1      55.802  36.255 123.890  1.00  0.00    -0.508 OA
ATOM      8  H   UNL     1      56.571  35.753 124.319  1.00  0.00     0.293 HD
ENDBRANCH   1   7
BRANCH   6   9
ATOM      9  C   UNL     1      55.911  41.903 123.230  1.00  0.00     0.071 C 
ATOM     10  O   UNL     1      56.979  42.548 123.404  1.00  0.00    -0.545 OA
ATOM     11  O   UNL     1      54.757  42.593 122.875  1.00  0.00    -0.545 OA
ENDBRANCH   6   9
TORSDOF 2
ENDMDL
