MODEL 1
REMARK VINA RESULT:    -4.795      0.000      0.000
REMARK INTER + INTRA:          -6.116
REMARK INTER:                  -5.917
REMARK INTRA:                  -0.199
REMARK UNBOUND:                -0.199
REMARK SMILES O=c1c(O)c(-c2cc(O)c(O)c(O)c2)oc2cc(O)cc(O)c12
REMARK SMILES IDX 5 1 3 2 2 3 1 4 23 5 21 6 20 7 18 8 17 9 16 10 15 11 6 12
REMARK SMILES IDX 7 13 8 14 14 15 10 16 12 17 9 18 11 20 13 22 4 24 22 26
REMARK SMILES IDX 19 28
REMARK H PARENT 9 19 11 21 13 23 4 25 22 27 19 29
REMARK Flexibility Score: inf
ROOT
ATOM      1  C   UNL     1     174.841 175.068 164.217  1.00  0.00     0.180 A 
ATOM      2  C   UNL     1     176.063 174.413 164.446  1.00  0.00     0.208 A 
ATOM      3  C   UNL     1     176.850 174.803 165.542  1.00  0.00     0.238 A 
ATOM      4  O   UNL     1     177.969 174.250 165.710  1.00  0.00    -0.285 OA
ATOM      5  C   UNL     1     176.397 175.831 166.404  1.00  0.00     0.111 A 
ATOM      6  C   UNL     1     177.094 176.278 167.567  1.00  0.00     0.134 A 
ATOM      7  C   UNL     1     176.617 177.390 168.272  1.00  0.00     0.093 A 
ATOM      8  C   UNL     1     175.434 178.029 167.894  1.00  0.00     0.123 A 
ATOM      9  C   UNL     1     174.716 177.563 166.797  1.00  0.00     0.094 A 
ATOM     10  C   UNL     1     175.184 176.478 166.051  1.00  0.00     0.146 A 
ATOM     11  O   UNL     1     174.475 176.072 165.005  1.00  0.00    -0.452 OA
ENDROOT
BRANCH   1  12
ATOM     12  C   UNL     1     173.946 174.696 163.098  1.00  0.00     0.029 A 
ATOM     13  C   UNL     1     173.370 173.417 163.016  1.00  0.00     0.062 A 
ATOM     14  C   UNL     1     172.506 173.091 161.962  1.00  0.00     0.162 A 
ATOM     15  C   UNL     1     173.617 175.656 162.129  1.00  0.00     0.062 A 
ATOM     16  C   UNL     1     172.201 174.051 160.983  1.00  0.00     0.200 A 
ATOM     17  C   UNL     1     172.757 175.339 161.072  1.00  0.00     0.162 A 
BRANCH  14  18
ATOM     18  O   UNL     1     171.945 171.816 161.887  1.00  0.00    -0.504 OA
ATOM     19  H   UNL     1     171.000 171.671 161.551  1.00  0.00     0.293 HD
ENDBRANCH  14  18
BRANCH  16  20
ATOM     20  O   UNL     1     171.346 173.743 159.923  1.00  0.00    -0.502 OA
ATOM     21  H   UNL     1     171.666 173.714 158.962  1.00  0.00     0.293 HD
ENDBRANCH  16  20
BRANCH  17  22
ATOM     22  O   UNL     1     172.468 176.317 160.120  1.00  0.00    -0.504 OA
ATOM     23  H   UNL     1     173.098 176.529 159.356  1.00  0.00     0.293 HD
ENDBRANCH  17  22
ENDBRANCH   1  12
BRANCH   2  24
ATOM     24  O   UNL     1     176.501 173.416 163.570  1.00  0.00    -0.502 OA
ATOM     25  H   UNL     1     176.440 173.510 162.564  1.00  0.00     0.293 HD
ENDBRANCH   2  24
BRANCH   6  26
ATOM     26  O   UNL     1     178.234 175.654 168.083  1.00  0.00    -0.507 OA
ATOM     27  H   UNL     1     178.224 174.941 168.796  1.00  0.00     0.293 HD
ENDBRANCH   6  26
BRANCH   8  28
ATOM     28  O   UNL     1     174.958 179.125 168.611  1.00  0.00    -0.508 OA
ATOM     29  H   UNL     1     174.110 179.069 169.163  1.00  0.00     0.293 HD
ENDBRANCH   8  28
TORSDOF 7
ENDMDL
MODEL 2
REMARK VINA RESULT:    -4.748     11.495     13.497
REMARK INTER + INTRA:          -6.058
REMARK INTER:                  -5.931
REMARK INTRA:                  -0.127
REMARK UNBOUND:                -0.199
REMARK SMILES O=c1c(O)c(-c2cc(O)c(O)c(O)c2)oc2cc(O)cc(O)c12
REMARK SMILES IDX 5 1 3 2 2 3 1 4 23 5 21 6 20 7 18 8 17 9 16 10 15 11 6 12
REMARK SMILES IDX 7 13 8 14 14 15 10 16 12 17 9 18 11 20 13 22 4 24 22 26
REMARK SMILES IDX 19 28
REMARK H PARENT 9 19 11 21 13 23 4 25 22 27 19 29
REMARK Flexibility Score: inf
ROOT
ATOM      1  C   UNL     1     175.102 162.279 164.337  1.00  0.00     0.180 A 
ATOM      2  C   UNL     1     174.426 161.067 164.558  1.00  0.00     0.208 A 
ATOM      3  C   UNL     1     174.795 160.273 165.657  1.00  0.00     0.238 A 
ATOM      4  O   UNL     1     174.224 159.163 165.818  1.00  0.00    -0.285 OA
ATOM      5  C   UNL     1     175.821 160.710 166.529  1.00  0.00     0.111 A 
ATOM      6  C   UNL     1     176.247 160.006 167.696  1.00  0.00     0.134 A 
ATOM      7  C   UNL     1     177.359 160.466 168.411  1.00  0.00     0.093 A 
ATOM      8  C   UNL     1     178.019 161.640 168.041  1.00  0.00     0.123 A 
ATOM      9  C   UNL     1     177.573 162.365 166.940  1.00  0.00     0.094 A 
ATOM     10  C   UNL     1     176.489 161.913 166.183  1.00  0.00     0.146 A 
ATOM     11  O   UNL     1     176.103 162.630 165.134  1.00  0.00    -0.452 OA
ENDROOT
BRANCH   1  12
ATOM     12  C   UNL     1     174.754 163.181 163.215  1.00  0.00     0.029 A 
ATOM     13  C   UNL     1     173.447 163.668 163.047  1.00  0.00     0.062 A 
ATOM     14  C   UNL     1     173.141 164.540 161.993  1.00  0.00     0.162 A 
ATOM     15  C   UNL     1     175.759 163.605 162.333  1.00  0.00     0.062 A 
ATOM     16  C   UNL     1     174.150 164.941 161.100  1.00  0.00     0.200 A 
ATOM     17  C   UNL     1     175.463 164.473 161.276  1.00  0.00     0.162 A 
BRANCH  14  18
ATOM     18  O   UNL     1     171.840 165.013 161.831  1.00  0.00    -0.504 OA
ATOM     19  H   UNL     1     171.261 164.720 161.052  1.00  0.00     0.293 HD
ENDBRANCH  14  18
BRANCH  16  20
ATOM     20  O   UNL     1     173.863 165.804 160.042  1.00  0.00    -0.502 OA
ATOM     21  H   UNL     1     173.651 166.785 160.187  1.00  0.00     0.293 HD
ENDBRANCH  16  20
BRANCH  17  22
ATOM     22  O   UNL     1     176.489 164.859 160.412  1.00  0.00    -0.504 OA
ATOM     23  H   UNL     1     177.332 165.311 160.745  1.00  0.00     0.293 HD
ENDBRANCH  17  22
ENDBRANCH   1  12
BRANCH   2  24
ATOM     24  O   UNL     1     173.432 160.644 163.673  1.00  0.00    -0.502 OA
ATOM     25  H   UNL     1     172.550 160.257 163.988  1.00  0.00     0.293 HD
ENDBRANCH   2  24
BRANCH   6  26
ATOM     26  O   UNL     1     175.601 158.875 168.205  1.00  0.00    -0.507 OA
ATOM     27  H   UNL     1     174.600 158.772 168.282  1.00  0.00     0.293 HD
ENDBRANCH   6  26
BRANCH   8  28
ATOM     28  O   UNL     1     179.115 162.099 168.769  1.00  0.00    -0.508 OA
ATOM     29  H   UNL     1     179.080 162.971 169.285  1.00  0.00     0.293 HD
ENDBRANCH   8  28
TORSDOF 7
ENDMDL
MODEL 3
REMARK VINA RESULT:    -4.721     14.203     16.275
REMARK INTER + INTRA:          -6.025
REMARK INTER:                  -5.868
REMARK INTRA:                  -0.157
REMARK UNBOUND:                -0.199
REMARK SMILES O=c1c(O)c(-c2cc(O)c(O)c(O)c2)oc2cc(O)cc(O)c12
REMARK SMILES IDX 5 1 3 2 2 3 1 4 23 5 21 6 20 7 18 8 17 9 16 10 15 11 6 12
REMARK SMILES IDX 7 13 8 14 14 15 10 16 12 17 9 18 11 20 13 22 4 24 22 26
REMARK SMILES IDX 19 28
REMARK H PARENT 9 19 11 21 13 23 4 25 22 27 19 29
REMARK Flexibility Score: inf
ROOT
ATOM      1  C   UNL     1     162.319 175.100 172.912  1.00  0.00     0.180 A 
ATOM      2  C   UNL     1     161.101 174.440 172.679  1.00  0.00     0.208 A 
ATOM      3  C   UNL     1     160.321 174.820 171.575  1.00  0.00     0.238 A 
ATOM      4  O   UNL     1     159.205 174.263 171.402  1.00  0.00    -0.285 OA
ATOM      5  C   UNL     1     160.777 175.843 170.709  1.00  0.00     0.111 A 
ATOM      6  C   UNL     1     160.089 176.280 169.537  1.00  0.00     0.134 A 
ATOM      7  C   UNL     1     160.568 177.388 168.828  1.00  0.00     0.093 A 
ATOM      8  C   UNL     1     161.746 178.033 169.210  1.00  0.00     0.123 A 
ATOM      9  C   UNL     1     162.457 177.576 170.316  1.00  0.00     0.094 A 
ATOM     10  C   UNL     1     161.986 176.496 171.066  1.00  0.00     0.146 A 
ATOM     11  O   UNL     1     162.689 176.099 172.120  1.00  0.00    -0.452 OA
ENDROOT
BRANCH   1  12
ATOM     12  C   UNL     1     163.207 174.739 174.041  1.00  0.00     0.029 A 
ATOM     13  C   UNL     1     163.720 173.438 174.180  1.00  0.00     0.062 A 
ATOM     14  C   UNL     1     164.578 173.120 175.242  1.00  0.00     0.162 A 
ATOM     15  C   UNL     1     163.593 175.726 174.959  1.00  0.00     0.062 A 
ATOM     16  C   UNL     1     164.941 174.111 176.171  1.00  0.00     0.200 A 
ATOM     17  C   UNL     1     164.447 175.418 176.024  1.00  0.00     0.162 A 
BRANCH  14  18
ATOM     18  O   UNL     1     165.077 171.825 175.374  1.00  0.00    -0.504 OA
ATOM     19  H   UNL     1     165.356 171.453 176.275  1.00  0.00     0.293 HD
ENDBRANCH  14  18
BRANCH  16  20
ATOM     20  O   UNL     1     165.790 173.811 177.237  1.00  0.00    -0.502 OA
ATOM     21  H   UNL     1     166.290 172.932 177.299  1.00  0.00     0.293 HD
ENDBRANCH  16  20
BRANCH  17  22
ATOM     22  O   UNL     1     164.794 176.425 176.924  1.00  0.00    -0.504 OA
ATOM     23  H   UNL     1     164.167 176.731 177.659  1.00  0.00     0.293 HD
ENDBRANCH  17  22
ENDBRANCH   1  12
BRANCH   2  24
ATOM     24  O   UNL     1     160.658 173.448 173.559  1.00  0.00    -0.502 OA
ATOM     25  H   UNL     1     159.697 173.386 173.871  1.00  0.00     0.293 HD
ENDBRANCH   2  24
BRANCH   6  26
ATOM     26  O   UNL     1     158.954 175.649 169.017  1.00  0.00    -0.507 OA
ATOM     27  H   UNL     1     158.009 175.828 169.320  1.00  0.00     0.293 HD
ENDBRANCH   6  26
BRANCH   8  28
ATOM     28  O   UNL     1     162.225 179.125 168.488  1.00  0.00    -0.508 OA
ATOM     29  H   UNL     1     161.908 180.068 168.682  1.00  0.00     0.293 HD
ENDBRANCH   8  28
TORSDOF 7
ENDMDL
MODEL 4
REMARK VINA RESULT:    -4.706     14.962     16.677
REMARK INTER + INTRA:          -6.006
REMARK INTER:                  -5.742
REMARK INTRA:                  -0.264
REMARK UNBOUND:                -0.199
REMARK SMILES O=c1c(O)c(-c2cc(O)c(O)c(O)c2)oc2cc(O)cc(O)c12
REMARK SMILES IDX 5 1 3 2 2 3 1 4 23 5 21 6 20 7 18 8 17 9 16 10 15 11 6 12
REMARK SMILES IDX 7 13 8 14 14 15 10 16 12 17 9 18 11 20 13 22 4 24 22 26
REMARK SMILES IDX 19 28
REMARK H PARENT 9 19 11 21 13 23 4 25 22 27 19 29
REMARK Flexibility Score: inf
ROOT
ATOM      1  C   UNL     1     175.172 162.214 172.533  1.00  0.00     0.180 A 
ATOM      2  C   UNL     1     176.452 162.795 172.500  1.00  0.00     0.208 A 
ATOM      3  C   UNL     1     177.299 162.512 171.417  1.00  0.00     0.238 A 
ATOM      4  O   UNL     1     178.464 162.991 171.421  1.00  0.00    -0.285 OA
ATOM      5  C   UNL     1     176.852 161.668 170.373  1.00  0.00     0.111 A 
ATOM      6  C   UNL     1     177.611 161.347 169.208  1.00  0.00     0.134 A 
ATOM      7  C   UNL     1     177.121 160.397 168.304  1.00  0.00     0.093 A 
ATOM      8  C   UNL     1     175.868 159.807 168.488  1.00  0.00     0.123 A 
ATOM      9  C   UNL     1     175.094 160.158 169.590  1.00  0.00     0.094 A 
ATOM     10  C   UNL     1     175.571 161.075 170.530  1.00  0.00     0.146 A 
ATOM     11  O   UNL     1     174.805 161.375 171.572  1.00  0.00    -0.452 OA
ENDROOT
BRANCH   1  12
ATOM     12  C   UNL     1     174.213 162.483 173.628  1.00  0.00     0.029 A 
ATOM     13  C   UNL     1     173.620 163.747 173.787  1.00  0.00     0.062 A 
ATOM     14  C   UNL     1     172.696 163.977 174.816  1.00  0.00     0.162 A 
ATOM     15  C   UNL     1     173.842 161.442 174.493  1.00  0.00     0.062 A 
ATOM     16  C   UNL     1     172.348 162.935 175.691  1.00  0.00     0.200 A 
ATOM     17  C   UNL     1     172.923 161.663 175.524  1.00  0.00     0.162 A 
BRANCH  14  18
ATOM     18  O   UNL     1     172.118 165.237 174.968  1.00  0.00    -0.504 OA
ATOM     19  H   UNL     1     172.668 166.085 174.895  1.00  0.00     0.293 HD
ENDBRANCH  14  18
BRANCH  16  20
ATOM     20  O   UNL     1     171.434 163.146 176.724  1.00  0.00    -0.502 OA
ATOM     21  H   UNL     1     171.480 162.636 177.599  1.00  0.00     0.293 HD
ENDBRANCH  16  20
BRANCH  17  22
ATOM     22  O   UNL     1     172.592 160.605 176.372  1.00  0.00    -0.504 OA
ATOM     23  H   UNL     1     171.872 160.687 177.079  1.00  0.00     0.293 HD
ENDBRANCH  17  22
ENDBRANCH   1  12
BRANCH   2  24
ATOM     24  O   UNL     1     176.882 163.608 173.552  1.00  0.00    -0.502 OA
ATOM     25  H   UNL     1     176.276 164.285 174.000  1.00  0.00     0.293 HD
ENDBRANCH   2  24
BRANCH   6  26
ATOM     26  O   UNL     1     178.832 161.947 168.882  1.00  0.00    -0.507 OA
ATOM     27  H   UNL     1     178.946 162.678 168.196  1.00  0.00     0.293 HD
ENDBRANCH   6  26
BRANCH   8  28
ATOM     28  O   UNL     1     175.380 158.875 167.575  1.00  0.00    -0.508 OA
ATOM     29  H   UNL     1     175.039 159.156 166.662  1.00  0.00     0.293 HD
ENDBRANCH   8  28
TORSDOF 7
ENDMDL
MODEL 5
REMARK VINA RESULT:    -4.696      6.386     10.317
REMARK INTER + INTRA:          -5.994
REMARK INTER:                  -5.813
REMARK INTRA:                  -0.181
REMARK UNBOUND:                -0.199
REMARK SMILES O=c1c(O)c(-c2cc(O)c(O)c(O)c2)oc2cc(O)cc(O)c12
REMARK SMILES IDX 5 1 3 2 2 3 1 4 23 5 21 6 20 7 18 8 17 9 16 10 15 11 6 12
REMARK SMILES IDX 7 13 8 14 14 15 10 16 12 17 9 18 11 20 13 22 4 24 22 26
REMARK SMILES IDX 19 28
REMARK H PARENT 9 19 11 21 13 23 4 25 22 27 19 29
REMARK Flexibility Score: inf
ROOT
ATOM      1  C   UNL     1     175.105 174.867 172.917  1.00  0.00     0.180 A 
ATOM      2  C   UNL     1     174.447 176.091 172.706  1.00  0.00     0.208 A 
ATOM      3  C   UNL     1     174.828 176.890 171.615  1.00  0.00     0.238 A 
ATOM      4  O   UNL     1     174.272 178.009 171.463  1.00  0.00    -0.285 OA
ATOM      5  C   UNL     1     175.848 176.447 170.740  1.00  0.00     0.111 A 
ATOM      6  C   UNL     1     176.285 177.156 169.580  1.00  0.00     0.134 A 
ATOM      7  C   UNL     1     177.392 176.688 168.861  1.00  0.00     0.093 A 
ATOM      8  C   UNL     1     178.035 175.501 169.221  1.00  0.00     0.123 A 
ATOM      9  C   UNL     1     177.578 174.771 170.315  1.00  0.00     0.094 A 
ATOM     10  C   UNL     1     176.500 175.231 171.075  1.00  0.00     0.146 A 
ATOM     11  O   UNL     1     176.103 174.510 172.116  1.00  0.00    -0.452 OA
ENDROOT
BRANCH   1  12
ATOM     12  C   UNL     1     174.744 173.960 174.029  1.00  0.00     0.029 A 
ATOM     13  C   UNL     1     173.454 173.413 174.137  1.00  0.00     0.062 A 
ATOM     14  C   UNL     1     173.137 172.537 175.184  1.00  0.00     0.162 A 
ATOM     15  C   UNL     1     175.722 173.592 174.965  1.00  0.00     0.062 A 
ATOM     16  C   UNL     1     174.117 172.192 176.131  1.00  0.00     0.200 A 
ATOM     17  C   UNL     1     175.414 172.720 176.015  1.00  0.00     0.162 A 
BRANCH  14  18
ATOM     18  O   UNL     1     171.852 172.004 175.286  1.00  0.00    -0.504 OA
ATOM     19  H   UNL     1     171.596 171.376 176.039  1.00  0.00     0.293 HD
ENDBRANCH  14  18
BRANCH  16  20
ATOM     20  O   UNL     1     173.818 171.325 177.183  1.00  0.00    -0.502 OA
ATOM     21  H   UNL     1     174.167 170.374 177.215  1.00  0.00     0.293 HD
ENDBRANCH  16  20
BRANCH  17  22
ATOM     22  O   UNL     1     176.411 172.390 176.934  1.00  0.00    -0.504 OA
ATOM     23  H   UNL     1     176.437 171.493 177.402  1.00  0.00     0.293 HD
ENDBRANCH  17  22
ENDBRANCH   1  12
BRANCH   2  24
ATOM     24  O   UNL     1     173.457 176.519 173.595  1.00  0.00    -0.502 OA
ATOM     25  H   UNL     1     172.531 176.792 173.288  1.00  0.00     0.293 HD
ENDBRANCH   2  24
BRANCH   6  26
ATOM     26  O   UNL     1     175.656 178.301 169.082  1.00  0.00    -0.507 OA
ATOM     27  H   UNL     1     175.790 178.671 168.153  1.00  0.00     0.293 HD
ENDBRANCH   6  26
BRANCH   8  28
ATOM     28  O   UNL     1     179.125 175.034 168.490  1.00  0.00    -0.508 OA
ATOM     29  H   UNL     1     179.314 175.364 167.550  1.00  0.00     0.293 HD
ENDBRANCH   8  28
TORSDOF 7
ENDMDL
MODEL 6
REMARK VINA RESULT:    -4.626     11.425     13.216
REMARK INTER + INTRA:          -5.907
REMARK INTER:                  -5.649
REMARK INTRA:                  -0.258
REMARK UNBOUND:                -0.199
REMARK SMILES O=c1c(O)c(-c2cc(O)c(O)c(O)c2)oc2cc(O)cc(O)c12
REMARK SMILES IDX 5 1 3 2 2 3 1 4 23 5 21 6 20 7 18 8 17 9 16 10 15 11 6 12
REMARK SMILES IDX 7 13 8 14 14 15 10 16 12 17 9 18 11 20 13 22 4 24 22 26
REMARK SMILES IDX 19 28
REMARK H PARENT 9 19 11 21 13 23 4 25 22 27 19 29
REMARK Flexibility Score: inf
ROOT
ATOM      1  C   UNL     1     162.255 175.146 164.712  1.00  0.00     0.180 A 
ATOM      2  C   UNL     1     162.826 176.428 164.783  1.00  0.00     0.208 A 
ATOM      3  C   UNL     1     162.530 177.245 165.886  1.00  0.00     0.238 A 
ATOM      4  O   UNL     1     163.000 178.413 165.917  1.00  0.00    -0.285 OA
ATOM      5  C   UNL     1     161.680 176.764 166.911  1.00  0.00     0.111 A 
ATOM      6  C   UNL     1     161.345 177.491 168.094  1.00  0.00     0.134 A 
ATOM      7  C   UNL     1     160.392 176.969 168.977  1.00  0.00     0.093 A 
ATOM      8  C   UNL     1     159.812 175.718 168.755  1.00  0.00     0.123 A 
ATOM      9  C   UNL     1     160.178 174.976 167.635  1.00  0.00     0.094 A 
ATOM     10  C   UNL     1     161.098 175.484 166.716  1.00  0.00     0.146 A 
ATOM     11  O   UNL     1     161.411 174.748 165.656  1.00  0.00    -0.452 OA
ENDROOT
BRANCH   1  12
ATOM     12  C   UNL     1     162.540 174.219 163.594  1.00  0.00     0.029 A 
ATOM     13  C   UNL     1     163.812 173.649 163.422  1.00  0.00     0.062 A 
ATOM     14  C   UNL     1     164.057 172.754 162.371  1.00  0.00     0.162 A 
ATOM     15  C   UNL     1     161.505 173.853 162.720  1.00  0.00     0.062 A 
ATOM     16  C   UNL     1     163.020 172.412 161.486  1.00  0.00     0.200 A 
ATOM     17  C   UNL     1     161.740 172.963 161.666  1.00  0.00     0.162 A 
BRANCH  14  18
ATOM     18  O   UNL     1     165.326 172.200 162.206  1.00  0.00    -0.504 OA
ATOM     19  H   UNL     1     165.579 171.696 161.363  1.00  0.00     0.293 HD
ENDBRANCH  14  18
BRANCH  16  20
ATOM     20  O   UNL     1     163.247 171.527 160.431  1.00  0.00    -0.502 OA
ATOM     21  H   UNL     1     163.931 170.782 160.489  1.00  0.00     0.293 HD
ENDBRANCH  16  20
BRANCH  17  22
ATOM     22  O   UNL     1     160.688 172.637 160.810  1.00  0.00    -0.504 OA
ATOM     23  H   UNL     1     160.144 173.345 160.331  1.00  0.00     0.293 HD
ENDBRANCH  17  22
ENDBRANCH   1  12
BRANCH   2  24
ATOM     24  O   UNL     1     163.645 176.892 163.750  1.00  0.00    -0.502 OA
ATOM     25  H   UNL     1     163.781 176.376 162.889  1.00  0.00     0.293 HD
ENDBRANCH   2  24
BRANCH   6  26
ATOM     26  O   UNL     1     161.934 178.706 168.457  1.00  0.00    -0.507 OA
ATOM     27  H   UNL     1     162.391 179.336 167.815  1.00  0.00     0.293 HD
ENDBRANCH   6  26
BRANCH   8  28
ATOM     28  O   UNL     1     158.877 175.200 169.648  1.00  0.00    -0.508 OA
ATOM     29  H   UNL     1     159.160 174.764 170.518  1.00  0.00     0.293 HD
ENDBRANCH   8  28
TORSDOF 7
ENDMDL
MODEL 7
REMARK VINA RESULT:    -4.364     18.204     20.789
REMARK INTER + INTRA:          -5.584
REMARK INTER:                  -5.254
REMARK INTRA:                  -0.330
REMARK UNBOUND:                -0.199
REMARK SMILES O=c1c(O)c(-c2cc(O)c(O)c(O)c2)oc2cc(O)cc(O)c12
REMARK SMILES IDX 5 1 3 2 2 3 1 4 23 5 21 6 20 7 18 8 17 9 16 10 15 11 6 12
REMARK SMILES IDX 7 13 8 14 14 15 10 16 12 17 9 18 11 20 13 22 4 24 22 26
REMARK SMILES IDX 19 28
REMARK H PARENT 9 19 11 21 13 23 4 25 22 27 19 29
REMARK Flexibility Score: inf
ROOT
ATOM      1  C   UNL     1     162.446 162.576 172.934  1.00  0.00     0.180 A 
ATOM      2  C   UNL     1     162.959 161.276 172.787  1.00  0.00     0.208 A 
ATOM      3  C   UNL     1     162.585 160.519 171.665  1.00  0.00     0.238 A 
ATOM      4  O   UNL     1     163.004 159.336 171.567  1.00  0.00    -0.285 OA
ATOM      5  C   UNL     1     161.716 161.078 170.696  1.00  0.00     0.111 A 
ATOM      6  C   UNL     1     161.304 160.416 169.500  1.00  0.00     0.134 A 
ATOM      7  C   UNL     1     160.340 161.013 168.679  1.00  0.00     0.093 A 
ATOM      8  C   UNL     1     159.823 162.276 168.976  1.00  0.00     0.123 A 
ATOM      9  C   UNL     1     160.263 162.955 170.109  1.00  0.00     0.094 A 
ATOM     10  C   UNL     1     161.197 162.371 170.968  1.00  0.00     0.146 A 
ATOM     11  O   UNL     1     161.583 163.048 172.042  1.00  0.00    -0.452 OA
ENDROOT
BRANCH   1  12
ATOM     12  C   UNL     1     162.814 163.443 174.076  1.00  0.00     0.029 A 
ATOM     13  C   UNL     1     164.050 164.109 174.121  1.00  0.00     0.062 A 
ATOM     14  C   UNL     1     164.372 164.945 175.199  1.00  0.00     0.162 A 
ATOM     15  C   UNL     1     161.889 163.653 175.110  1.00  0.00     0.062 A 
ATOM     16  C   UNL     1     163.448 165.130 176.242  1.00  0.00     0.200 A 
ATOM     17  C   UNL     1     162.201 164.483 176.192  1.00  0.00     0.162 A 
BRANCH  14  18
ATOM     18  O   UNL     1     165.604 165.596 175.236  1.00  0.00    -0.504 OA
ATOM     19  H   UNL     1     166.060 165.918 174.390  1.00  0.00     0.293 HD
ENDBRANCH  14  18
BRANCH  16  20
ATOM     20  O   UNL     1     163.752 165.955 177.326  1.00  0.00    -0.502 OA
ATOM     21  H   UNL     1     163.297 166.849 177.468  1.00  0.00     0.293 HD
ENDBRANCH  16  20
BRANCH  17  22
ATOM     22  O   UNL     1     161.260 164.653 177.207  1.00  0.00    -0.504 OA
ATOM     23  H   UNL     1     161.115 165.545 177.664  1.00  0.00     0.293 HD
ENDBRANCH  17  22
ENDBRANCH   1  12
BRANCH   2  24
ATOM     24  O   UNL     1     163.798 160.736 173.766  1.00  0.00    -0.502 OA
ATOM     25  H   UNL     1     164.634 161.208 174.088  1.00  0.00     0.293 HD
ENDBRANCH   2  24
BRANCH   6  26
ATOM     26  O   UNL     1     161.826 159.195 169.064  1.00  0.00    -0.507 OA
ATOM     27  H   UNL     1     162.708 158.808 169.364  1.00  0.00     0.293 HD
ENDBRANCH   6  26
BRANCH   8  28
ATOM     28  O   UNL     1     158.875 162.870 168.144  1.00  0.00    -0.508 OA
ATOM     29  H   UNL     1     159.098 163.684 167.584  1.00  0.00     0.293 HD
ENDBRANCH   8  28
TORSDOF 7
ENDMDL
MODEL 8
REMARK VINA RESULT:    -4.349     14.965     18.452
REMARK INTER + INTRA:          -5.565
REMARK INTER:                  -5.226
REMARK INTRA:                  -0.339
REMARK UNBOUND:                -0.199
REMARK SMILES O=c1c(O)c(-c2cc(O)c(O)c(O)c2)oc2cc(O)cc(O)c12
REMARK SMILES IDX 5 1 3 2 2 3 1 4 23 5 21 6 20 7 18 8 17 9 16 10 15 11 6 12
REMARK SMILES IDX 7 13 8 14 14 15 10 16 12 17 9 18 11 20 13 22 4 24 22 26
REMARK SMILES IDX 19 28
REMARK H PARENT 9 19 11 21 13 23 4 25 22 27 19 29
REMARK Flexibility Score: inf
ROOT
ATOM      1  C   UNL     1     162.543 162.443 164.524  1.00  0.00     0.180 A 
ATOM      2  C   UNL     1     161.208 162.883 164.524  1.00  0.00     0.208 A 
ATOM      3  C   UNL     1     160.396 162.593 165.632  1.00  0.00     0.238 A 
ATOM      4  O   UNL     1     159.187 162.942 165.602  1.00  0.00    -0.285 OA
ATOM      5  C   UNL     1     160.933 161.883 166.733  1.00  0.00     0.111 A 
ATOM      6  C   UNL     1     160.212 161.571 167.925  1.00  0.00     0.134 A 
ATOM      7  C   UNL     1     160.803 160.751 168.894  1.00  0.00     0.093 A 
ATOM      8  C   UNL     1     162.111 160.287 168.744  1.00  0.00     0.123 A 
ATOM      9  C   UNL     1     162.843 160.636 167.612  1.00  0.00     0.094 A 
ATOM     10  C   UNL     1     162.269 161.422 166.610  1.00  0.00     0.146 A 
ATOM     11  O   UNL     1     162.999 161.723 165.542  1.00  0.00    -0.452 OA
ENDROOT
BRANCH   1  12
ATOM     12  C   UNL     1     163.467 162.731 163.404  1.00  0.00     0.029 A 
ATOM     13  C   UNL     1     163.686 161.797 162.378  1.00  0.00     0.062 A 
ATOM     14  C   UNL     1     164.546 162.096 161.312  1.00  0.00     0.162 A 
ATOM     15  C   UNL     1     164.095 163.984 163.332  1.00  0.00     0.062 A 
ATOM     16  C   UNL     1     165.189 163.345 161.260  1.00  0.00     0.200 A 
ATOM     17  C   UNL     1     164.958 164.290 162.274  1.00  0.00     0.162 A 
BRANCH  14  18
ATOM     18  O   UNL     1     164.761 161.159 160.302  1.00  0.00    -0.504 OA
ATOM     19  H   UNL     1     165.682 161.006 159.908  1.00  0.00     0.293 HD
ENDBRANCH  14  18
BRANCH  16  20
ATOM     20  O   UNL     1     166.053 163.658 160.210  1.00  0.00    -0.502 OA
ATOM     21  H   UNL     1     166.357 162.965 159.536  1.00  0.00     0.293 HD
ENDBRANCH  16  20
BRANCH  17  22
ATOM     22  O   UNL     1     165.575 165.542 162.247  1.00  0.00    -0.504 OA
ATOM     23  H   UNL     1     166.116 165.858 161.452  1.00  0.00     0.293 HD
ENDBRANCH  17  22
ENDBRANCH   1  12
BRANCH   2  24
ATOM     24  O   UNL     1     160.692 163.564 163.418  1.00  0.00    -0.502 OA
ATOM     25  H   UNL     1     160.145 164.411 163.506  1.00  0.00     0.293 HD
ENDBRANCH   2  24
BRANCH   6  26
ATOM     26  O   UNL     1     158.934 162.059 168.215  1.00  0.00    -0.507 OA
ATOM     27  H   UNL     1     158.084 161.738 167.777  1.00  0.00     0.293 HD
ENDBRANCH   6  26
BRANCH   8  28
ATOM     28  O   UNL     1     162.698 159.485 169.721  1.00  0.00    -0.508 OA
ATOM     29  H   UNL     1     162.474 158.499 169.801  1.00  0.00     0.293 HD
ENDBRANCH   8  28
TORSDOF 7
ENDMDL
MODEL 9
REMARK VINA RESULT:    -4.331     11.883     14.984
REMARK INTER + INTRA:          -5.543
REMARK INTER:                  -5.224
REMARK INTRA:                  -0.320
REMARK UNBOUND:                -0.199
REMARK SMILES O=c1c(O)c(-c2cc(O)c(O)c(O)c2)oc2cc(O)cc(O)c12
REMARK SMILES IDX 5 1 3 2 2 3 1 4 23 5 21 6 20 7 18 8 17 9 16 10 15 11 6 12
REMARK SMILES IDX 7 13 8 14 14 15 10 16 12 17 9 18 11 20 13 22 4 24 22 26
REMARK SMILES IDX 19 28
REMARK H PARENT 9 19 11 21 13 23 4 25 22 27 19 29
REMARK Flexibility Score: inf
ROOT
ATOM      1  C   UNL     1     161.713 175.084 165.391  1.00  0.00     0.180 A 
ATOM      2  C   UNL     1     162.031 175.354 164.049  1.00  0.00     0.208 A 
ATOM      3  C   UNL     1     161.603 174.460 163.055  1.00  0.00     0.238 A 
ATOM      4  O   UNL     1     161.937 174.678 161.861  1.00  0.00    -0.285 OA
ATOM      5  C   UNL     1     160.848 173.316 163.413  1.00  0.00     0.111 A 
ATOM      6  C   UNL     1     160.328 172.365 162.485  1.00  0.00     0.134 A 
ATOM      7  C   UNL     1     159.709 171.203 162.962  1.00  0.00     0.093 A 
ATOM      8  C   UNL     1     159.532 170.991 164.331  1.00  0.00     0.123 A 
ATOM      9  C   UNL     1     159.983 171.942 165.242  1.00  0.00     0.094 A 
ATOM     10  C   UNL     1     160.637 173.094 164.799  1.00  0.00     0.146 A 
ATOM     11  O   UNL     1     161.061 173.971 165.702  1.00  0.00    -0.452 OA
ENDROOT
BRANCH   1  12
ATOM     12  C   UNL     1     162.109 175.993 166.492  1.00  0.00     0.029 A 
ATOM     13  C   UNL     1     163.420 176.004 166.995  1.00  0.00     0.062 A 
ATOM     14  C   UNL     1     163.783 176.888 168.021  1.00  0.00     0.162 A 
ATOM     15  C   UNL     1     161.172 176.902 167.006  1.00  0.00     0.062 A 
ATOM     16  C   UNL     1     162.832 177.779 168.546  1.00  0.00     0.200 A 
ATOM     17  C   UNL     1     161.524 177.786 168.032  1.00  0.00     0.162 A 
BRANCH  14  18
ATOM     18  O   UNL     1     165.085 176.886 168.518  1.00  0.00    -0.504 OA
ATOM     19  H   UNL     1     165.614 177.745 168.623  1.00  0.00     0.293 HD
ENDBRANCH  14  18
BRANCH  16  20
ATOM     20  O   UNL     1     163.173 178.663 169.571  1.00  0.00    -0.502 OA
ATOM     21  H   UNL     1     164.107 179.043 169.667  1.00  0.00     0.293 HD
ENDBRANCH  16  20
BRANCH  17  22
ATOM     22  O   UNL     1     160.559 178.664 168.526  1.00  0.00    -0.504 OA
ATOM     23  H   UNL     1     160.615 179.665 168.379  1.00  0.00     0.293 HD
ENDBRANCH  17  22
ENDBRANCH   1  12
BRANCH   2  24
ATOM     24  O   UNL     1     162.795 176.477 163.719  1.00  0.00    -0.502 OA
ATOM     25  H   UNL     1     162.870 176.825 162.771  1.00  0.00     0.293 HD
ENDBRANCH   2  24
BRANCH   6  26
ATOM     26  O   UNL     1     160.370 172.525 161.097  1.00  0.00    -0.507 OA
ATOM     27  H   UNL     1     161.198 172.762 160.571  1.00  0.00     0.293 HD
ENDBRANCH   6  26
BRANCH   8  28
ATOM     28  O   UNL     1     158.900 169.840 164.796  1.00  0.00    -0.508 OA
ATOM     29  H   UNL     1     158.686 169.066 164.177  1.00  0.00     0.293 HD
ENDBRANCH   8  28
TORSDOF 7
ENDMDL
