MODEL 1
REMARK VINA RESULT:    18.373      0.000      0.000
REMARK INTER + INTRA:          24.114
REMARK INTER:                  24.280
REMARK INTRA:                  -0.166
REMARK UNBOUND:                -0.166
REMARK SMILES CC[C@@H](C=C[C@H](C)[C@@H]1CC[C@@H]2[C@@H]3CC=C4C[C@@H](O)CC[C@@]4(C)[C@H]3CC[C@@]21C)C(C)C
REMARK SMILES IDX 6 1 7 2 5 3 4 4 3 5 2 6 1 7 28 8 29 9 30 10 8 11 9 12 26 13
REMARK SMILES IDX 10 14 11 15 25 16 27 17 12 18 24 19 23 20 13 21 21 22 14 23
REMARK SMILES IDX 15 24 20 25 22 26 16 27 19 28 17 29 18 30
REMARK H PARENT 18 31
REMARK Flexibility Score: inf
ROOT
ATOM      1  C   UNL     1       6.687 -33.846  14.315  1.00  0.00     0.012 C 
ATOM      2  C   UNL     1       5.876 -35.113  14.004  1.00  0.00     0.012 C 
ENDROOT
BRANCH   1   3
ATOM      3  C   UNL     1       7.027 -33.855  15.791  1.00  0.00    -0.028 C 
ATOM      4  C   UNL     1       7.330 -34.994  16.434  1.00  0.00    -0.027 C 
BRANCH   4   5
ATOM      5  C   UNL     1       7.702 -34.999  17.903  1.00  0.00     0.014 C 
BRANCH   5   6
ATOM      6  C   UNL     1       8.977 -34.141  18.116  1.00  0.00     0.004 C 
ATOM      7  C   UNL     1       8.692 -32.686  18.501  1.00  0.00     0.004 C 
ENDBRANCH   5   6
BRANCH   5   8
ATOM      8  C   UNL     1       7.812 -36.457  18.449  1.00  0.00    -0.011 C 
ATOM      9  C   UNL     1       8.457 -36.508  19.846  1.00  0.00     0.008 C 
ATOM     10  C   UNL     1       6.426 -37.125  18.519  1.00  0.00     0.008 C 
ENDBRANCH   5   8
ENDBRANCH   4   5
ENDBRANCH   1   3
BRANCH   1  11
ATOM     11  C   UNL     1       7.996 -33.735  13.462  1.00  0.00     0.002 C 
ATOM     12  C   UNL     1       8.906 -34.962  13.664  1.00  0.00     0.005 C 
ATOM     13  C   UNL     1       8.927 -32.501  13.694  1.00  0.00    -0.026 C 
ATOM     14  C   UNL     1      10.349 -34.484  13.552  1.00  0.00     0.005 C 
ATOM     15  C   UNL     1      10.282 -33.008  13.147  1.00  0.00    -0.001 C 
ATOM     16  C   UNL     1       9.056 -32.157  15.208  1.00  0.00     0.007 C 
ATOM     17  C   UNL     1       8.458 -31.269  12.876  1.00  0.00     0.012 C 
ATOM     18  C   UNL     1      11.523 -32.145  13.548  1.00  0.00     0.000 C 
ATOM     19  C   UNL     1      10.213 -31.202  15.503  1.00  0.00     0.005 C 
ATOM     20  C   UNL     1      11.572 -31.790  15.051  1.00  0.00     0.003 C 
ATOM     21  C   UNL     1      12.831 -32.848  13.154  1.00  0.00     0.031 C 
ATOM     22  C   UNL     1      12.817 -30.870  15.416  1.00  0.00    -0.008 C 
ATOM     23  C   UNL     1      14.017 -32.000  13.480  1.00  0.00    -0.027 C 
ATOM     24  C   UNL     1      14.048 -31.157  14.533  1.00  0.00    -0.065 C 
ATOM     25  C   UNL     1      12.484 -29.351  15.244  1.00  0.00     0.014 C 
ATOM     26  C   UNL     1      13.190 -31.157  16.894  1.00  0.00     0.016 C 
ATOM     27  C   UNL     1      15.264 -30.268  14.704  1.00  0.00     0.063 C 
ATOM     28  C   UNL     1      13.698 -28.412  15.401  1.00  0.00     0.033 C 
ATOM     29  C   UNL     1      14.867 -28.805  14.481  1.00  0.00     0.118 C 
BRANCH  29  30
ATOM     30  O   UNL     1      14.516 -28.614  13.134  1.00  0.00    -0.393 OA
ATOM     31  H   UNL     1      15.363 -28.488  12.631  1.00  0.00     0.210 HD
ENDBRANCH  29  30
ENDBRANCH   1  11
TORSDOF 6
ENDMDL
MODEL 2
REMARK VINA RESULT:    18.829      0.554      1.736
REMARK INTER + INTRA:          24.717
REMARK INTER:                  19.554
REMARK INTRA:                   5.163
REMARK UNBOUND:                -0.166
REMARK SMILES CC[C@@H](C=C[C@H](C)[C@@H]1CC[C@@H]2[C@@H]3CC=C4C[C@@H](O)CC[C@@]4(C)[C@H]3CC[C@@]21C)C(C)C
REMARK SMILES IDX 6 1 7 2 5 3 4 4 3 5 2 6 1 7 28 8 29 9 30 10 8 11 9 12 26 13
REMARK SMILES IDX 10 14 11 15 25 16 27 17 12 18 24 19 23 20 13 21 21 22 14 23
REMARK SMILES IDX 15 24 20 25 22 26 16 27 19 28 17 29 18 30
REMARK H PARENT 18 31
REMARK Flexibility Score: inf
ROOT
ATOM      1  C   UNL     1       6.677 -34.123  14.417  1.00  0.00     0.012 C 
ATOM      2  C   UNL     1       6.009 -35.504  14.330  1.00  0.00     0.012 C 
ENDROOT
BRANCH   1   3
ATOM      3  C   UNL     1       7.043 -33.867  15.865  1.00  0.00    -0.028 C 
ATOM      4  C   UNL     1       8.108 -34.455  16.432  1.00  0.00    -0.027 C 
BRANCH   4   5
ATOM      5  C   UNL     1       8.495 -34.173  17.871  1.00  0.00     0.014 C 
BRANCH   5   6
ATOM      6  C   UNL     1       7.926 -35.287  18.787  1.00  0.00     0.004 C 
ATOM      7  C   UNL     1       7.189 -36.399  18.033  1.00  0.00     0.004 C 
ENDBRANCH   5   6
BRANCH   5   8
ATOM      8  C   UNL     1       8.082 -32.726  18.289  1.00  0.00    -0.011 C 
ATOM      9  C   UNL     1       8.479 -32.405  19.742  1.00  0.00     0.008 C 
ATOM     10  C   UNL     1       8.722 -31.679  17.358  1.00  0.00     0.008 C 
ENDBRANCH   5   8
ENDBRANCH   4   5
ENDBRANCH   1   3
BRANCH   1  11
ATOM     11  C   UNL     1       7.949 -34.002  13.511  1.00  0.00     0.002 C 
ATOM     12  C   UNL     1       8.882 -35.217  13.685  1.00  0.00     0.005 C 
ATOM     13  C   UNL     1       8.873 -32.755  13.694  1.00  0.00    -0.026 C 
ATOM     14  C   UNL     1      10.313 -34.721  13.511  1.00  0.00     0.005 C 
ATOM     15  C   UNL     1      10.211 -33.250  13.096  1.00  0.00    -0.001 C 
ATOM     16  C   UNL     1       9.058 -32.397  15.199  1.00  0.00     0.007 C 
ATOM     17  C   UNL     1       8.355 -31.536  12.886  1.00  0.00     0.012 C 
ATOM     18  C   UNL     1      11.456 -32.368  13.440  1.00  0.00     0.000 C 
ATOM     19  C   UNL     1      10.214 -31.424  15.438  1.00  0.00     0.005 C 
ATOM     20  C   UNL     1      11.561 -31.999  14.936  1.00  0.00     0.003 C 
ATOM     21  C   UNL     1      12.755 -33.057  12.999  1.00  0.00     0.031 C 
ATOM     22  C   UNL     1      12.808 -31.061  15.243  1.00  0.00    -0.008 C 
ATOM     23  C   UNL     1      13.943 -32.192  13.270  1.00  0.00    -0.027 C 
ATOM     24  C   UNL     1      14.006 -31.339  14.313  1.00  0.00    -0.065 C 
ATOM     25  C   UNL     1      12.448 -29.547  15.072  1.00  0.00     0.014 C 
ATOM     26  C   UNL     1      13.244 -31.329  16.708  1.00  0.00     0.016 C 
ATOM     27  C   UNL     1      15.216 -30.433  14.427  1.00  0.00     0.063 C 
ATOM     28  C   UNL     1      13.655 -28.592  15.172  1.00  0.00     0.033 C 
ATOM     29  C   UNL     1      14.791 -28.978  14.208  1.00  0.00     0.118 C 
BRANCH  29  30
ATOM     30  O   UNL     1      14.383 -28.803  12.875  1.00  0.00    -0.393 OA
ATOM     31  H   UNL     1      13.402 -28.952  12.853  1.00  0.00     0.210 HD
ENDBRANCH  29  30
ENDBRANCH   1  11
TORSDOF 6
ENDMDL
