MODEL 1
REMARK VINA RESULT:    -8.127      0.000      0.000
REMARK INTER + INTRA:          -9.400
REMARK INTER:                  -9.315
REMARK INTRA:                  -0.084
REMARK UNBOUND:                -0.084
REMARK SMILES CC1(C)CC[C@]23CO[C@@]4(C=C[C@@H]5[C@@]6(C)CC[C@H](O)[C@](C)(CO)[C@@H]6CC[C@]5(C)[C@@]4(C)C[C@@H]2O)[C@@H]3C1
REMARK SMILES IDX 1 1 2 2 4 3 5 4 6 5 7 6 8 7 9 8 33 9 34 10 10 11 11 12 12 13
REMARK SMILES IDX 13 14 15 15 16 16 17 17 19 18 23 19 24 20 25 21 26 22 28 23
REMARK SMILES IDX 30 24 31 25 29 26 27 27 20 28 14 29 3 30 32 31 21 33 22 34
REMARK SMILES IDX 18 36
REMARK H PARENT 32 32 22 35 18 37
REMARK Flexibility Score: inf
ROOT
ATOM      1  C   UNL     1      35.277 -10.864  25.057  1.00  0.00     0.011 C 
ATOM      2  C   UNL     1      35.805  -9.421  25.210  1.00  0.00    -0.035 C 
ATOM      3  C   UNL     1      36.501  -9.000  23.875  1.00  0.00     0.007 C 
ATOM      4  C   UNL     1      37.376  -7.724  23.979  1.00  0.00     0.013 C 
ATOM      5  C   UNL     1      38.355  -7.776  25.180  1.00  0.00     0.026 C 
ATOM      6  C   UNL     1      38.920  -6.395  25.587  1.00  0.00     0.171 C 
ATOM      7  O   UNL     1      39.057  -6.373  27.002  1.00  0.00    -0.369 OA
ATOM      8  C   UNL     1      38.662  -7.654  27.472  1.00  0.00     0.096 C 
ATOM      9  C   UNL     1      37.593  -8.058  26.433  1.00  0.00     0.037 C 
ATOM     10  C   UNL     1      36.805  -9.386  26.411  1.00  0.00     0.014 C 
ATOM     11  C   UNL     1      37.970  -7.492  28.780  1.00  0.00     0.005 C 
ATOM     12  C   UNL     1      37.814  -8.521  29.609  1.00  0.00    -0.024 C 
ATOM     13  C   UNL     1      38.551  -9.868  29.420  1.00  0.00     0.024 C 
ATOM     14  C   UNL     1      38.428 -10.801  30.736  1.00  0.00    -0.022 C 
ATOM     15  C   UNL     1      38.472 -12.321  30.393  1.00  0.00     0.010 C 
ATOM     16  C   UNL     1      38.487 -13.233  31.651  1.00  0.00     0.033 C 
ATOM     17  C   UNL     1      39.566 -12.870  32.701  1.00  0.00     0.123 C 
ATOM     18  C   UNL     1      39.670 -11.336  33.059  1.00  0.00     0.020 C 
ATOM     19  C   UNL     1      39.647 -10.540  31.695  1.00  0.00     0.006 C 
ATOM     20  C   UNL     1      40.120  -9.074  31.632  1.00  0.00     0.005 C 
ATOM     21  C   UNL     1      40.652  -8.698  30.204  1.00  0.00     0.008 C 
ATOM     22  C   UNL     1      40.020  -9.484  28.968  1.00  0.00    -0.017 C 
ATOM     23  C   UNL     1      39.974  -8.580  27.590  1.00  0.00     0.009 C 
ATOM     24  C   UNL     1      40.058  -9.459  26.279  1.00  0.00     0.043 C 
ATOM     25  C   UNL     1      39.507  -8.825  24.965  1.00  0.00     0.124 C 
ATOM     26  C   UNL     1      41.266  -7.688  27.545  1.00  0.00     0.015 C 
ATOM     27  C   UNL     1      40.920 -10.742  28.666  1.00  0.00     0.013 C 
ATOM     28  C   UNL     1      41.045 -11.128  33.764  1.00  0.00     0.017 C 
ATOM     29  C   UNL     1      37.030 -10.549  31.401  1.00  0.00     0.012 C 
ATOM     30  C   UNL     1      34.585  -8.504  25.478  1.00  0.00     0.011 C 
ENDROOT
BRANCH  25  31
ATOM     31  O   UNL     1      40.553  -8.257  24.214  1.00  0.00    -0.392 OA
ATOM     32  H   UNL     1      40.989  -7.570  24.784  1.00  0.00     0.210 HD
ENDBRANCH  25  31
BRANCH  18  33
ATOM     33  C   UNL     1      38.582 -10.918  34.089  1.00  0.00     0.165 C 
BRANCH  33  34
ATOM     34  O   UNL     1      38.956  -9.750  34.767  1.00  0.00    -0.396 OA
ATOM     35  H   UNL     1      39.426 -10.044  35.590  1.00  0.00     0.210 HD
ENDBRANCH  33  34
ENDBRANCH  18  33
BRANCH  17  36
ATOM     36  O   UNL     1      39.337 -13.640  33.857  1.00  0.00    -0.392 OA
ATOM     37  H   UNL     1      39.195 -13.012  34.613  1.00  0.00     0.210 HD
ENDBRANCH  17  36
TORSDOF 4
ENDMDL
MODEL 2
REMARK VINA RESULT:    -7.826     13.642     16.102
REMARK INTER + INTRA:          -9.054
REMARK INTER:                  -8.826
REMARK INTRA:                  -0.228
REMARK UNBOUND:                -0.084
REMARK SMILES CC1(C)CC[C@]23CO[C@@]4(C=C[C@@H]5[C@@]6(C)CC[C@H](O)[C@](C)(CO)[C@@H]6CC[C@]5(C)[C@@]4(C)C[C@@H]2O)[C@@H]3C1
REMARK SMILES IDX 1 1 2 2 4 3 5 4 6 5 7 6 8 7 9 8 33 9 34 10 10 11 11 12 12 13
REMARK SMILES IDX 13 14 15 15 16 16 17 17 19 18 23 19 24 20 25 21 26 22 28 23
REMARK SMILES IDX 30 24 31 25 29 26 27 27 20 28 14 29 3 30 32 31 21 33 22 34
REMARK SMILES IDX 18 36
REMARK H PARENT 32 32 22 35 18 37
REMARK Flexibility Score: inf
ROOT
ATOM      1  C   UNL     1      24.337 -13.384  38.946  1.00  0.00     0.011 C 
ATOM      2  C   UNL     1      25.228 -12.569  37.984  1.00  0.00    -0.035 C 
ATOM      3  C   UNL     1      24.482 -11.247  37.611  1.00  0.00     0.007 C 
ATOM      4  C   UNL     1      25.082 -10.488  36.399  1.00  0.00     0.013 C 
ATOM      5  C   UNL     1      25.315 -11.415  35.178  1.00  0.00     0.026 C 
ATOM      6  C   UNL     1      26.290 -10.834  34.128  1.00  0.00     0.171 C 
ATOM      7  O   UNL     1      27.049 -11.907  33.588  1.00  0.00    -0.369 OA
ATOM      8  C   UNL     1      26.569 -13.097  34.199  1.00  0.00     0.096 C 
ATOM      9  C   UNL     1      26.141 -12.588  35.593  1.00  0.00     0.037 C 
ATOM     10  C   UNL     1      25.514 -13.440  36.718  1.00  0.00     0.014 C 
ATOM     11  C   UNL     1      27.713 -14.028  34.400  1.00  0.00     0.005 C 
ATOM     12  C   UNL     1      27.516 -15.326  34.613  1.00  0.00    -0.024 C 
ATOM     13  C   UNL     1      26.143 -16.009  34.408  1.00  0.00     0.024 C 
ATOM     14  C   UNL     1      26.276 -17.623  34.422  1.00  0.00    -0.022 C 
ATOM     15  C   UNL     1      24.984 -18.320  34.943  1.00  0.00     0.010 C 
ATOM     16  C   UNL     1      25.041 -19.870  34.842  1.00  0.00     0.033 C 
ATOM     17  C   UNL     1      25.441 -20.413  33.448  1.00  0.00     0.123 C 
ATOM     18  C   UNL     1      26.690 -19.714  32.784  1.00  0.00     0.020 C 
ATOM     19  C   UNL     1      26.495 -18.155  32.959  1.00  0.00     0.006 C 
ATOM     20  C   UNL     1      27.303 -17.160  32.102  1.00  0.00     0.005 C 
ATOM     21  C   UNL     1      26.540 -15.801  31.919  1.00  0.00     0.008 C 
ATOM     22  C   UNL     1      25.546 -15.367  33.089  1.00  0.00    -0.017 C 
ATOM     23  C   UNL     1      25.429 -13.731  33.256  1.00  0.00     0.009 C 
ATOM     24  C   UNL     1      24.027 -13.273  33.825  1.00  0.00     0.043 C 
ATOM     25  C   UNL     1      23.965 -11.875  34.513  1.00  0.00     0.124 C 
ATOM     26  C   UNL     1      25.497 -13.086  31.825  1.00  0.00     0.015 C 
ATOM     27  C   UNL     1      24.106 -15.901  32.741  1.00  0.00     0.013 C 
ATOM     28  C   UNL     1      26.663 -20.078  31.269  1.00  0.00     0.017 C 
ATOM     29  C   UNL     1      27.416 -18.023  35.422  1.00  0.00     0.012 C 
ATOM     30  C   UNL     1      26.542 -12.236  38.735  1.00  0.00     0.011 C 
ENDROOT
BRANCH  25  31
ATOM     31  O   UNL     1      23.507 -10.899  33.609  1.00  0.00    -0.392 OA
ATOM     32  H   UNL     1      24.001 -10.060  33.802  1.00  0.00     0.210 HD
ENDBRANCH  25  31
BRANCH  18  33
ATOM     33  C   UNL     1      28.025 -20.280  33.347  1.00  0.00     0.165 C 
BRANCH  33  34
ATOM     34  O   UNL     1      28.248 -21.586  32.890  1.00  0.00    -0.396 OA
ATOM     35  H   UNL     1      27.523 -21.783  32.243  1.00  0.00     0.210 HD
ENDBRANCH  33  34
ENDBRANCH  18  33
BRANCH  17  36
ATOM     36  O   UNL     1      25.644 -21.802  33.555  1.00  0.00    -0.392 OA
ATOM     37  H   UNL     1      24.860 -22.185  34.028  1.00  0.00     0.210 HD
ENDBRANCH  17  36
TORSDOF 4
ENDMDL
MODEL 3
REMARK VINA RESULT:    -7.662     12.734     15.056
REMARK INTER + INTRA:          -8.866
REMARK INTER:                  -8.606
REMARK INTRA:                  -0.261
REMARK UNBOUND:                -0.084
REMARK SMILES CC1(C)CC[C@]23CO[C@@]4(C=C[C@@H]5[C@@]6(C)CC[C@H](O)[C@](C)(CO)[C@@H]6CC[C@]5(C)[C@@]4(C)C[C@@H]2O)[C@@H]3C1
REMARK SMILES IDX 1 1 2 2 4 3 5 4 6 5 7 6 8 7 9 8 33 9 34 10 10 11 11 12 12 13
REMARK SMILES IDX 13 14 15 15 16 16 17 17 19 18 23 19 24 20 25 21 26 22 28 23
REMARK SMILES IDX 30 24 31 25 29 26 27 27 20 28 14 29 3 30 32 31 21 33 22 34
REMARK SMILES IDX 18 36
REMARK H PARENT 32 32 22 35 18 37
REMARK Flexibility Score: inf
ROOT
ATOM      1  C   UNL     1      26.573 -13.332  27.772  1.00  0.00     0.011 C 
ATOM      2  C   UNL     1      25.950 -12.455  28.880  1.00  0.00    -0.035 C 
ATOM      3  C   UNL     1      26.853 -11.196  29.087  1.00  0.00     0.007 C 
ATOM      4  C   UNL     1      26.560 -10.398  30.385  1.00  0.00     0.013 C 
ATOM      5  C   UNL     1      26.500 -11.310  31.637  1.00  0.00     0.026 C 
ATOM      6  C   UNL     1      25.795 -10.661  32.850  1.00  0.00     0.171 C 
ATOM      7  O   UNL     1      25.076 -11.675  33.539  1.00  0.00    -0.369 OA
ATOM      8  C   UNL     1      25.336 -12.895  32.859  1.00  0.00     0.096 C 
ATOM      9  C   UNL     1      25.521 -12.414  31.403  1.00  0.00     0.037 C 
ATOM     10  C   UNL     1      25.851 -13.307  30.187  1.00  0.00     0.014 C 
ATOM     11  C   UNL     1      24.107 -13.735  32.894  1.00  0.00     0.005 C 
ATOM     12  C   UNL     1      24.160 -15.043  32.661  1.00  0.00    -0.024 C 
ATOM     13  C   UNL     1      25.490 -15.831  32.603  1.00  0.00     0.024 C 
ATOM     14  C   UNL     1      25.236 -17.429  32.632  1.00  0.00    -0.022 C 
ATOM     15  C   UNL     1      26.345 -18.221  31.877  1.00  0.00     0.010 C 
ATOM     16  C   UNL     1      26.191 -19.762  32.004  1.00  0.00     0.033 C 
ATOM     17  C   UNL     1      26.030 -20.280  33.455  1.00  0.00     0.123 C 
ATOM     18  C   UNL     1      24.990 -19.489  34.341  1.00  0.00     0.020 C 
ATOM     19  C   UNL     1      25.266 -17.950  34.115  1.00  0.00     0.006 C 
ATOM     20  C   UNL     1      24.718 -16.900  35.102  1.00  0.00     0.005 C 
ATOM     21  C   UNL     1      25.603 -15.603  35.119  1.00  0.00     0.008 C 
ATOM     22  C   UNL     1      26.380 -15.242  33.774  1.00  0.00    -0.017 C 
ATOM     23  C   UNL     1      26.586 -13.618  33.570  1.00  0.00     0.009 C 
ATOM     24  C   UNL     1      27.881 -13.267  32.734  1.00  0.00     0.043 C 
ATOM     25  C   UNL     1      27.914 -11.875  32.032  1.00  0.00     0.124 C 
ATOM     26  C   UNL     1      26.847 -12.977  34.980  1.00  0.00     0.015 C 
ATOM     27  C   UNL     1      27.816 -15.886  33.840  1.00  0.00     0.013 C 
ATOM     28  C   UNL     1      25.285 -19.861  35.826  1.00  0.00     0.017 C 
ATOM     29  C   UNL     1      23.895 -17.737  31.877  1.00  0.00     0.012 C 
ATOM     30  C   UNL     1      24.545 -12.019  28.396  1.00  0.00     0.011 C 
ENDROOT
BRANCH  25  31
ATOM     31  O   UNL     1      28.613 -10.941  32.819  1.00  0.00    -0.392 OA
ATOM     32  H   UNL     1      29.161 -10.387  32.204  1.00  0.00     0.210 HD
ENDBRANCH  25  31
BRANCH  18  33
ATOM     33  C   UNL     1      23.533 -19.950  34.055  1.00  0.00     0.165 C 
BRANCH  33  34
ATOM     34  O   UNL     1      23.152 -20.981  34.924  1.00  0.00    -0.396 OA
ATOM     35  H   UNL     1      22.254 -20.739  35.270  1.00  0.00     0.210 HD
ENDBRANCH  33  34
ENDBRANCH  18  33
BRANCH  17  36
ATOM     36  O   UNL     1      25.705 -21.648  33.404  1.00  0.00    -0.392 OA
ATOM     37  H   UNL     1      26.496 -22.157  33.722  1.00  0.00     0.210 HD
ENDBRANCH  17  36
TORSDOF 4
ENDMDL
MODEL 4
REMARK VINA RESULT:    -7.605     15.773     18.948
REMARK INTER + INTRA:          -8.801
REMARK INTER:                  -8.542
REMARK INTRA:                  -0.259
REMARK UNBOUND:                -0.084
REMARK SMILES CC1(C)CC[C@]23CO[C@@]4(C=C[C@@H]5[C@@]6(C)CC[C@H](O)[C@](C)(CO)[C@@H]6CC[C@]5(C)[C@@]4(C)C[C@@H]2O)[C@@H]3C1
REMARK SMILES IDX 1 1 2 2 4 3 5 4 6 5 7 6 8 7 9 8 33 9 34 10 10 11 11 12 12 13
REMARK SMILES IDX 13 14 15 15 16 16 17 17 19 18 23 19 24 20 25 21 26 22 28 23
REMARK SMILES IDX 30 24 31 25 29 26 27 27 20 28 14 29 3 30 32 31 21 33 22 34
REMARK SMILES IDX 18 36
REMARK H PARENT 32 32 22 35 18 37
REMARK Flexibility Score: inf
ROOT
ATOM      1  C   UNL     1      28.219 -12.216  44.125  1.00  0.00     0.011 C 
ATOM      2  C   UNL     1      28.417 -11.881  42.631  1.00  0.00    -0.035 C 
ATOM      3  C   UNL     1      27.950 -10.410  42.382  1.00  0.00     0.007 C 
ATOM      4  C   UNL     1      27.761 -10.037  40.888  1.00  0.00     0.013 C 
ATOM      5  C   UNL     1      26.906 -11.079  40.123  1.00  0.00     0.026 C 
ATOM      6  C   UNL     1      27.050 -11.000  38.586  1.00  0.00     0.171 C 
ATOM      7  O   UNL     1      26.984 -12.321  38.066  1.00  0.00    -0.369 OA
ATOM      8  C   UNL     1      26.762 -13.186  39.172  1.00  0.00     0.096 C 
ATOM      9  C   UNL     1      27.493 -12.440  40.310  1.00  0.00     0.037 C 
ATOM     10  C   UNL     1      27.583 -12.896  41.783  1.00  0.00     0.014 C 
ATOM     11  C   UNL     1      27.492 -14.461  38.938  1.00  0.00     0.005 C 
ATOM     12  C   UNL     1      27.184 -15.565  39.613  1.00  0.00    -0.024 C 
ATOM     13  C   UNL     1      25.906 -15.691  40.475  1.00  0.00     0.024 C 
ATOM     14  C   UNL     1      25.629 -17.227  40.904  1.00  0.00    -0.022 C 
ATOM     15  C   UNL     1      24.882 -17.336  42.268  1.00  0.00     0.010 C 
ATOM     16  C   UNL     1      24.490 -18.795  42.636  1.00  0.00     0.033 C 
ATOM     17  C   UNL     1      23.731 -19.561  41.525  1.00  0.00     0.123 C 
ATOM     18  C   UNL     1      24.354 -19.444  40.079  1.00  0.00     0.020 C 
ATOM     19  C   UNL     1      24.697 -17.920  39.845  1.00  0.00     0.006 C 
ATOM     20  C   UNL     1      24.947 -17.380  38.423  1.00  0.00     0.005 C 
ATOM     21  C   UNL     1      24.602 -15.852  38.314  1.00  0.00     0.008 C 
ATOM     22  C   UNL     1      24.763 -14.980  39.640  1.00  0.00    -0.017 C 
ATOM     23  C   UNL     1      25.176 -13.414  39.330  1.00  0.00     0.009 C 
ATOM     24  C   UNL     1      24.656 -12.414  40.438  1.00  0.00     0.043 C 
ATOM     25  C   UNL     1      25.395 -11.045  40.559  1.00  0.00     0.124 C 
ATOM     26  C   UNL     1      24.436 -12.963  38.020  1.00  0.00     0.015 C 
ATOM     27  C   UNL     1      23.378 -14.953  40.390  1.00  0.00     0.013 C 
ATOM     28  C   UNL     1      23.251 -19.893  39.073  1.00  0.00     0.017 C 
ATOM     29  C   UNL     1      27.007 -17.947  41.108  1.00  0.00     0.012 C 
ATOM     30  C   UNL     1      29.929 -12.012  42.319  1.00  0.00     0.011 C 
ENDROOT
BRANCH  25  31
ATOM     31  O   UNL     1      24.703 -10.046  39.850  1.00  0.00    -0.392 OA
ATOM     32  H   UNL     1      24.352  -9.398  40.517  1.00  0.00     0.210 HD
ENDBRANCH  25  31
BRANCH  18  33
ATOM     33  C   UNL     1      25.544 -20.427  39.891  1.00  0.00     0.165 C 
BRANCH  33  34
ATOM     34  O   UNL     1      25.110 -21.645  39.351  1.00  0.00    -0.396 OA
ATOM     35  H   UNL     1      25.921 -22.205  39.236  1.00  0.00     0.210 HD
ENDBRANCH  33  34
ENDBRANCH  18  33
BRANCH  17  36
ATOM     36  O   UNL     1      23.618 -20.909  41.914  1.00  0.00    -0.392 OA
ATOM     37  H   UNL     1      24.434 -21.381  41.603  1.00  0.00     0.210 HD
ENDBRANCH  17  36
TORSDOF 4
ENDMDL
MODEL 5
REMARK VINA RESULT:    -7.603     13.739     17.845
REMARK INTER + INTRA:          -8.799
REMARK INTER:                  -8.740
REMARK INTRA:                  -0.059
REMARK UNBOUND:                -0.084
REMARK SMILES CC1(C)CC[C@]23CO[C@@]4(C=C[C@@H]5[C@@]6(C)CC[C@H](O)[C@](C)(CO)[C@@H]6CC[C@]5(C)[C@@]4(C)C[C@@H]2O)[C@@H]3C1
REMARK SMILES IDX 1 1 2 2 4 3 5 4 6 5 7 6 8 7 9 8 33 9 34 10 10 11 11 12 12 13
REMARK SMILES IDX 13 14 15 15 16 16 17 17 19 18 23 19 24 20 25 21 26 22 28 23
REMARK SMILES IDX 30 24 31 25 29 26 27 27 20 28 14 29 3 30 32 31 21 33 22 34
REMARK SMILES IDX 18 36
REMARK H PARENT 32 32 22 35 18 37
REMARK Flexibility Score: inf
ROOT
ATOM      1  C   UNL     1      29.885 -15.282  41.698  1.00  0.00     0.011 C 
ATOM      2  C   UNL     1      29.528 -13.845  42.135  1.00  0.00    -0.035 C 
ATOM      3  C   UNL     1      28.934 -13.895  43.580  1.00  0.00     0.007 C 
ATOM      4  C   UNL     1      28.213 -12.597  44.027  1.00  0.00     0.013 C 
ATOM      5  C   UNL     1      27.193 -12.095  42.973  1.00  0.00     0.026 C 
ATOM      6  C   UNL     1      26.782 -10.615  43.155  1.00  0.00     0.171 C 
ATOM      7  O   UNL     1      26.599 -10.045  41.866  1.00  0.00    -0.369 OA
ATOM      8  C   UNL     1      26.823 -11.084  40.923  1.00  0.00     0.096 C 
ATOM      9  C   UNL     1      27.872 -11.954  41.650  1.00  0.00     0.037 C 
ATOM     10  C   UNL     1      28.497 -13.260  41.115  1.00  0.00     0.014 C 
ATOM     11  C   UNL     1      27.483 -10.508  39.720  1.00  0.00     0.005 C 
ATOM     12  C   UNL     1      27.486 -11.155  38.558  1.00  0.00    -0.024 C 
ATOM     13  C   UNL     1      26.601 -12.395  38.288  1.00  0.00     0.024 C 
ATOM     14  C   UNL     1      26.565 -12.767  36.713  1.00  0.00    -0.022 C 
ATOM     15  C   UNL     1      26.354 -14.291  36.468  1.00  0.00     0.010 C 
ATOM     16  C   UNL     1      26.186 -14.652  34.966  1.00  0.00     0.033 C 
ATOM     17  C   UNL     1      25.121 -13.816  34.214  1.00  0.00     0.123 C 
ATOM     18  C   UNL     1      25.187 -12.259  34.462  1.00  0.00     0.020 C 
ATOM     19  C   UNL     1      25.354 -12.045  36.019  1.00  0.00     0.006 C 
ATOM     20  C   UNL     1      25.060 -10.674  36.660  1.00  0.00     0.005 C 
ATOM     21  C   UNL     1      24.628 -10.818  38.162  1.00  0.00     0.008 C 
ATOM     22  C   UNL     1      25.204 -12.071  38.962  1.00  0.00    -0.017 C 
ATOM     23  C   UNL     1      25.407 -11.765  40.571  1.00  0.00     0.009 C 
ATOM     24  C   UNL     1      25.264 -13.063  41.462  1.00  0.00     0.043 C 
ATOM     25  C   UNL     1      25.933 -13.030  42.871  1.00  0.00     0.124 C 
ATOM     26  C   UNL     1      24.232 -10.836  41.044  1.00  0.00     0.015 C 
ATOM     27  C   UNL     1      24.173 -13.256  38.843  1.00  0.00     0.013 C 
ATOM     28  C   UNL     1      23.824 -11.667  33.995  1.00  0.00     0.017 C 
ATOM     29  C   UNL     1      27.960 -12.418  36.084  1.00  0.00     0.012 C 
ATOM     30  C   UNL     1      30.837 -13.017  42.134  1.00  0.00     0.011 C 
ENDROOT
BRANCH  25  31
ATOM     31  O   UNL     1      24.989 -12.691  43.858  1.00  0.00    -0.392 OA
ATOM     32  H   UNL     1      25.200 -11.771  44.166  1.00  0.00     0.210 HD
ENDBRANCH  25  31
BRANCH  18  33
ATOM     33  C   UNL     1      26.280 -11.589  33.581  1.00  0.00     0.165 C 
BRANCH  33  34
ATOM     34  O   UNL     1      26.097 -10.201  33.523  1.00  0.00    -0.396 OA
ATOM     35  H   UNL     1      25.942  -9.900  34.455  1.00  0.00     0.210 HD
ENDBRANCH  33  34
ENDBRANCH  18  33
BRANCH  17  36
ATOM     36  O   UNL     1      25.216 -14.109  32.840  1.00  0.00    -0.392 OA
ATOM     37  H   UNL     1      25.012 -15.073  32.723  1.00  0.00     0.210 HD
ENDBRANCH  17  36
TORSDOF 4
ENDMDL
MODEL 6
REMARK VINA RESULT:    -7.556     13.811     16.513
REMARK INTER + INTRA:          -8.745
REMARK INTER:                  -8.512
REMARK INTRA:                  -0.234
REMARK UNBOUND:                -0.084
REMARK SMILES CC1(C)CC[C@]23CO[C@@]4(C=C[C@@H]5[C@@]6(C)CC[C@H](O)[C@](C)(CO)[C@@H]6CC[C@]5(C)[C@@]4(C)C[C@@H]2O)[C@@H]3C1
REMARK SMILES IDX 1 1 2 2 4 3 5 4 6 5 7 6 8 7 9 8 33 9 34 10 10 11 11 12 12 13
REMARK SMILES IDX 13 14 15 15 16 16 17 17 19 18 23 19 24 20 25 21 26 22 28 23
REMARK SMILES IDX 30 24 31 25 29 26 27 27 20 28 14 29 3 30 32 31 21 33 22 34
REMARK SMILES IDX 18 36
REMARK H PARENT 32 32 22 35 18 37
REMARK Flexibility Score: inf
ROOT
ATOM      1  C   UNL     1      24.124 -19.473  28.826  1.00  0.00     0.011 C 
ATOM      2  C   UNL     1      25.400 -19.912  29.576  1.00  0.00    -0.035 C 
ATOM      3  C   UNL     1      25.205 -21.380  30.077  1.00  0.00     0.007 C 
ATOM      4  C   UNL     1      26.242 -21.844  31.133  1.00  0.00     0.013 C 
ATOM      5  C   UNL     1      26.400 -20.826  32.292  1.00  0.00     0.026 C 
ATOM      6  C   UNL     1      27.696 -21.012  33.115  1.00  0.00     0.171 C 
ATOM      7  O   UNL     1      28.161 -19.726  33.503  1.00  0.00    -0.369 OA
ATOM      8  C   UNL     1      27.216 -18.784  33.016  1.00  0.00     0.096 C 
ATOM      9  C   UNL     1      26.709 -19.476  31.732  1.00  0.00     0.037 C 
ATOM     10  C   UNL     1      25.634 -18.928  30.769  1.00  0.00     0.014 C 
ATOM     11  C   UNL     1      27.938 -17.551  32.599  1.00  0.00     0.005 C 
ATOM     12  C   UNL     1      27.297 -16.396  32.446  1.00  0.00    -0.024 C 
ATOM     13  C   UNL     1      25.846 -16.171  32.934  1.00  0.00     0.024 C 
ATOM     14  C   UNL     1      25.449 -14.602  32.914  1.00  0.00    -0.022 C 
ATOM     15  C   UNL     1      23.926 -14.379  32.674  1.00  0.00     0.010 C 
ATOM     16  C   UNL     1      23.502 -12.887  32.780  1.00  0.00     0.033 C 
ATOM     17  C   UNL     1      23.972 -12.171  34.070  1.00  0.00     0.123 C 
ATOM     18  C   UNL     1      25.484 -12.403  34.458  1.00  0.00     0.020 C 
ATOM     19  C   UNL     1      25.768 -13.950  34.308  1.00  0.00     0.006 C 
ATOM     20  C   UNL     1      27.004 -14.591  34.970  1.00  0.00     0.005 C 
ATOM     21  C   UNL     1      26.769 -16.110  35.288  1.00  0.00     0.008 C 
ATOM     22  C   UNL     1      25.758 -16.897  34.339  1.00  0.00    -0.017 C 
ATOM     23  C   UNL     1      26.141 -18.494  34.180  1.00  0.00     0.009 C 
ATOM     24  C   UNL     1      24.877 -19.401  33.901  1.00  0.00     0.043 C 
ATOM     25  C   UNL     1      25.133 -20.782  33.223  1.00  0.00     0.124 C 
ATOM     26  C   UNL     1      26.691 -19.005  35.559  1.00  0.00     0.015 C 
ATOM     27  C   UNL     1      24.319 -16.829  34.978  1.00  0.00     0.013 C 
ATOM     28  C   UNL     1      25.638 -11.985  35.951  1.00  0.00     0.017 C 
ATOM     29  C   UNL     1      26.181 -13.916  31.707  1.00  0.00     0.012 C 
ATOM     30  C   UNL     1      26.577 -19.852  28.571  1.00  0.00     0.011 C 
ENDROOT
BRANCH  25  31
ATOM     31  O   UNL     1      25.198 -21.802  34.190  1.00  0.00    -0.392 OA
ATOM     32  H   UNL     1      26.044 -22.301  34.038  1.00  0.00     0.210 HD
ENDBRANCH  25  31
BRANCH  18  33
ATOM     33  C   UNL     1      26.429 -11.474  33.644  1.00  0.00     0.165 C 
BRANCH  33  34
ATOM     34  O   UNL     1      26.309 -10.143  34.064  1.00  0.00    -0.396 OA
ATOM     35  H   UNL     1      25.986 -10.174  35.001  1.00  0.00     0.210 HD
ENDBRANCH  33  34
ENDBRANCH  18  33
BRANCH  17  36
ATOM     36  O   UNL     1      23.693 -10.797  33.941  1.00  0.00    -0.392 OA
ATOM     37  H   UNL     1      23.747 -10.568  32.977  1.00  0.00     0.210 HD
ENDBRANCH  17  36
TORSDOF 4
ENDMDL
MODEL 7
REMARK VINA RESULT:    -7.552      6.458     10.457
REMARK INTER + INTRA:          -8.740
REMARK INTER:                  -8.469
REMARK INTRA:                  -0.270
REMARK UNBOUND:                -0.084
REMARK SMILES CC1(C)CC[C@]23CO[C@@]4(C=C[C@@H]5[C@@]6(C)CC[C@H](O)[C@](C)(CO)[C@@H]6CC[C@]5(C)[C@@]4(C)C[C@@H]2O)[C@@H]3C1
REMARK SMILES IDX 1 1 2 2 4 3 5 4 6 5 7 6 8 7 9 8 33 9 34 10 10 11 11 12 12 13
REMARK SMILES IDX 13 14 15 15 16 16 17 17 19 18 23 19 24 20 25 21 26 22 28 23
REMARK SMILES IDX 30 24 31 25 29 26 27 27 20 28 14 29 3 30 32 31 21 33 22 34
REMARK SMILES IDX 18 36
REMARK H PARENT 32 32 22 35 18 37
REMARK Flexibility Score: inf
ROOT
ATOM      1  C   UNL     1      34.876 -18.742  33.398  1.00  0.00     0.011 C 
ATOM      2  C   UNL     1      36.254 -19.241  32.910  1.00  0.00    -0.035 C 
ATOM      3  C   UNL     1      36.521 -20.652  33.528  1.00  0.00     0.007 C 
ATOM      4  C   UNL     1      37.991 -21.136  33.417  1.00  0.00     0.013 C 
ATOM      5  C   UNL     1      39.003 -20.065  33.898  1.00  0.00     0.026 C 
ATOM      6  C   UNL     1      40.450 -20.309  33.412  1.00  0.00     0.171 C 
ATOM      7  O   UNL     1      41.048 -19.047  33.150  1.00  0.00    -0.369 OA
ATOM      8  C   UNL     1      40.084 -18.059  33.488  1.00  0.00     0.096 C 
ATOM      9  C   UNL     1      38.759 -18.785  33.168  1.00  0.00     0.037 C 
ATOM     10  C   UNL     1      37.339 -18.208  33.356  1.00  0.00     0.014 C 
ATOM     11  C   UNL     1      40.207 -16.923  32.535  1.00  0.00     0.005 C 
ATOM     12  C   UNL     1      39.695 -15.728  32.818  1.00  0.00    -0.024 C 
ATOM     13  C   UNL     1      39.182 -15.349  34.227  1.00  0.00     0.024 C 
ATOM     14  C   UNL     1      38.926 -13.755  34.356  1.00  0.00    -0.022 C 
ATOM     15  C   UNL     1      37.796 -13.417  35.375  1.00  0.00     0.010 C 
ATOM     16  C   UNL     1      37.623 -11.890  35.612  1.00  0.00     0.033 C 
ATOM     17  C   UNL     1      38.930 -11.137  35.962  1.00  0.00     0.123 C 
ATOM     18  C   UNL     1      40.169 -11.474  35.044  1.00  0.00     0.020 C 
ATOM     19  C   UNL     1      40.221 -13.046  34.896  1.00  0.00     0.006 C 
ATOM     20  C   UNL     1      41.504 -13.748  34.407  1.00  0.00     0.005 C 
ATOM     21  C   UNL     1      41.602 -15.218  34.948  1.00  0.00     0.008 C 
ATOM     22  C   UNL     1      40.228 -15.974  35.239  1.00  0.00    -0.017 C 
ATOM     23  C   UNL     1      40.334 -17.604  35.012  1.00  0.00     0.009 C 
ATOM     24  C   UNL     1      39.330 -18.414  35.925  1.00  0.00     0.043 C 
ATOM     25  C   UNL     1      38.950 -19.853  35.456  1.00  0.00     0.124 C 
ATOM     26  C   UNL     1      41.756 -18.073  35.486  1.00  0.00     0.015 C 
ATOM     27  C   UNL     1      39.841 -15.741  36.748  1.00  0.00     0.013 C 
ATOM     28  C   UNL     1      41.440 -10.977  35.798  1.00  0.00     0.017 C 
ATOM     29  C   UNL     1      38.434 -13.213  32.969  1.00  0.00     0.012 C 
ATOM     30  C   UNL     1      36.192 -19.348  31.366  1.00  0.00     0.011 C 
ENDROOT
BRANCH  25  31
ATOM     31  O   UNL     1      39.746 -20.812  36.109  1.00  0.00    -0.392 OA
ATOM     32  H   UNL     1      40.485 -20.325  36.561  1.00  0.00     0.210 HD
ENDBRANCH  25  31
BRANCH  18  33
ATOM     33  C   UNL     1      40.117 -10.684  33.706  1.00  0.00     0.165 C 
BRANCH  33  34
ATOM     34  O   UNL     1      40.698  -9.416  33.848  1.00  0.00    -0.396 OA
ATOM     35  H   UNL     1      40.045  -8.865  34.352  1.00  0.00     0.210 HD
ENDBRANCH  33  34
ENDBRANCH  18  33
BRANCH  17  36
ATOM     36  O   UNL     1      38.662  -9.755  35.953  1.00  0.00    -0.392 OA
ATOM     37  H   UNL     1      39.504  -9.287  35.719  1.00  0.00     0.210 HD
ENDBRANCH  17  36
TORSDOF 4
ENDMDL
MODEL 8
REMARK VINA RESULT:    -7.489      3.928      8.905
REMARK INTER + INTRA:          -8.668
REMARK INTER:                  -8.398
REMARK INTRA:                  -0.270
REMARK UNBOUND:                -0.084
REMARK SMILES CC1(C)CC[C@]23CO[C@@]4(C=C[C@@H]5[C@@]6(C)CC[C@H](O)[C@](C)(CO)[C@@H]6CC[C@]5(C)[C@@]4(C)C[C@@H]2O)[C@@H]3C1
REMARK SMILES IDX 1 1 2 2 4 3 5 4 6 5 7 6 8 7 9 8 33 9 34 10 10 11 11 12 12 13
REMARK SMILES IDX 13 14 15 15 16 16 17 17 19 18 23 19 24 20 25 21 26 22 28 23
REMARK SMILES IDX 30 24 31 25 29 26 27 27 20 28 14 29 3 30 32 31 21 33 22 34
REMARK SMILES IDX 18 36
REMARK H PARENT 32 32 22 35 18 37
REMARK Flexibility Score: inf
ROOT
ATOM      1  C   UNL     1      41.752 -17.407  35.596  1.00  0.00     0.011 C 
ATOM      2  C   UNL     1      40.756 -17.987  34.569  1.00  0.00    -0.035 C 
ATOM      3  C   UNL     1      41.443 -19.176  33.822  1.00  0.00     0.007 C 
ATOM      4  C   UNL     1      40.711 -19.639  32.536  1.00  0.00     0.013 C 
ATOM      5  C   UNL     1      40.364 -18.456  31.596  1.00  0.00     0.026 C 
ATOM      6  C   UNL     1      39.278 -18.789  30.546  1.00  0.00     0.171 C 
ATOM      7  O   UNL     1      38.481 -17.628  30.353  1.00  0.00    -0.369 OA
ATOM      8  C   UNL     1      39.035 -16.608  31.171  1.00  0.00     0.096 C 
ATOM      9  C   UNL     1      39.600 -17.423  32.356  1.00  0.00     0.037 C 
ATOM     10  C   UNL     1      40.351 -16.848  33.577  1.00  0.00     0.014 C 
ATOM     11  C   UNL     1      37.931 -15.764  31.701  1.00  0.00     0.005 C 
ATOM     12  C   UNL     1      38.165 -14.548  32.189  1.00  0.00    -0.024 C 
ATOM     13  C   UNL     1      39.517 -13.819  32.007  1.00  0.00     0.024 C 
ATOM     14  C   UNL     1      39.407 -12.255  32.410  1.00  0.00    -0.022 C 
ATOM     15  C   UNL     1      40.755 -11.683  32.942  1.00  0.00     0.010 C 
ATOM     16  C   UNL     1      40.707 -10.153  33.211  1.00  0.00     0.033 C 
ATOM     17  C   UNL     1      40.171  -9.305  32.032  1.00  0.00     0.123 C 
ATOM     18  C   UNL     1      38.851  -9.846  31.357  1.00  0.00     0.020 C 
ATOM     19  C   UNL     1      39.044 -11.399  31.142  1.00  0.00     0.006 C 
ATOM     20  C   UNL     1      38.139 -12.177  30.166  1.00  0.00     0.005 C 
ATOM     21  C   UNL     1      38.862 -13.447  29.593  1.00  0.00     0.008 C 
ATOM     22  C   UNL     1      39.966 -14.129  30.520  1.00  0.00    -0.017 C 
ATOM     23  C   UNL     1      40.080 -15.758  30.288  1.00  0.00     0.009 C 
ATOM     24  C   UNL     1      41.527 -16.319  30.587  1.00  0.00     0.043 C 
ATOM     25  C   UNL     1      41.643 -17.838  30.920  1.00  0.00     0.124 C 
ATOM     26  C   UNL     1      39.855 -16.052  28.761  1.00  0.00     0.015 C 
ATOM     27  C   UNL     1      41.370 -13.512  30.159  1.00  0.00     0.013 C 
ATOM     28  C   UNL     1      38.726  -9.138  29.974  1.00  0.00     0.017 C 
ATOM     29  C   UNL     1      38.381 -12.113  33.589  1.00  0.00     0.012 C 
ATOM     30  C   UNL     1      39.523 -18.502  35.353  1.00  0.00     0.011 C 
ENDROOT
BRANCH  25  31
ATOM     31  O   UNL     1      41.993 -18.570  29.770  1.00  0.00    -0.392 OA
ATOM     32  H   UNL     1      41.181 -19.059  29.472  1.00  0.00     0.210 HD
ENDBRANCH  25  31
BRANCH  18  33
ATOM     33  C   UNL     1      37.589  -9.442  32.171  1.00  0.00     0.165 C 
BRANCH  33  34
ATOM     34  O   UNL     1      37.179  -8.141  31.850  1.00  0.00    -0.396 OA
ATOM     35  H   UNL     1      37.794  -7.528  32.332  1.00  0.00     0.210 HD
ENDBRANCH  33  34
ENDBRANCH  18  33
BRANCH  17  36
ATOM     36  O   UNL     1      39.998  -7.982  32.480  1.00  0.00    -0.392 OA
ATOM     37  H   UNL     1      40.582  -7.399  31.929  1.00  0.00     0.210 HD
ENDBRANCH  17  36
TORSDOF 4
ENDMDL
