MODEL 1
REMARK VINA RESULT:    -7.635      0.000      0.000
REMARK INTER + INTRA:          -9.082
REMARK INTER:                  -9.197
REMARK INTRA:                   0.115
REMARK UNBOUND:                 0.115
REMARK SMILES Oc1cc(O)c2c(c1)O[C@@H](c1ccc(O)c(O)c1)[C@H](O)C2
REMARK SMILES IDX 21 1 19 2 10 3 9 4 7 5 8 6 2 7 3 8 4 9 6 10 20 11 11 13
REMARK SMILES IDX 18 14 12 15 16 16 13 17 14 18 17 19 15 21 5 23 1 25
REMARK H PARENT 20 12 17 20 15 22 5 24 1 26
REMARK Flexibility Score: inf
ROOT
ATOM      1  C   UNL     1     160.899 152.512 155.595  1.00  0.00     0.079 C 
ATOM      2  C   UNL     1     159.478 153.105 155.620  1.00  0.00     0.164 C 
ATOM      3  C   UNL     1     159.456 154.373 156.490  1.00  0.00     0.232 C 
ATOM      4  O   UNL     1     160.414 155.312 156.002  1.00  0.00    -0.482 OA
ATOM      5  C   UNL     1     161.666 154.919 155.519  1.00  0.00     0.131 A 
ATOM      6  C   UNL     1     162.622 155.898 155.236  1.00  0.00     0.093 A 
ATOM      7  C   UNL     1     163.885 155.535 154.768  1.00  0.00     0.122 A 
ATOM      8  C   UNL     1     164.201 154.184 154.593  1.00  0.00     0.092 A 
ATOM      9  C   UNL     1     163.256 153.188 154.872  1.00  0.00     0.126 A 
ATOM     10  C   UNL     1     161.959 153.554 155.304  1.00  0.00     0.039 A 
ENDROOT
BRANCH   2  11
ATOM     11  O   UNL     1     158.577 152.159 156.136  1.00  0.00    -0.389 OA
ATOM     12  H   UNL     1     158.594 152.259 157.124  1.00  0.00     0.211 HD
ENDBRANCH   2  11
BRANCH   3  13
ATOM     13  C   UNL     1     158.084 155.006 156.499  1.00  0.00    -0.001 A 
ATOM     14  C   UNL     1     157.799 156.080 157.360  1.00  0.00     0.057 A 
ATOM     15  C   UNL     1     157.094 154.561 155.613  1.00  0.00     0.012 A 
ATOM     16  C   UNL     1     156.539 156.691 157.355  1.00  0.00     0.157 A 
ATOM     17  C   UNL     1     155.835 155.163 155.601  1.00  0.00     0.050 A 
ATOM     18  C   UNL     1     155.542 156.224 156.465  1.00  0.00     0.157 A 
BRANCH  16  19
ATOM     19  O   UNL     1     156.324 157.750 158.240  1.00  0.00    -0.504 OA
ATOM     20  H   UNL     1     155.976 158.655 157.962  1.00  0.00     0.293 HD
ENDBRANCH  16  19
BRANCH  18  21
ATOM     21  O   UNL     1     154.263 156.782 156.405  1.00  0.00    -0.504 OA
ATOM     22  H   UNL     1     154.082 157.767 156.283  1.00  0.00     0.293 HD
ENDBRANCH  18  21
ENDBRANCH   3  13
BRANCH   9  23
ATOM     23  O   UNL     1     163.643 151.855 154.720  1.00  0.00    -0.507 OA
ATOM     24  H   UNL     1     163.305 151.259 153.975  1.00  0.00     0.293 HD
ENDBRANCH   9  23
BRANCH   7  25
ATOM     25  O   UNL     1     164.825 156.526 154.489  1.00  0.00    -0.508 OA
ATOM     26  H   UNL     1     165.169 156.679 153.548  1.00  0.00     0.293 HD
ENDBRANCH   7  25
TORSDOF 6
ENDMDL
MODEL 2
REMARK VINA RESULT:    -7.279      1.347      7.025
REMARK INTER + INTRA:          -8.654
REMARK INTER:                  -8.731
REMARK INTRA:                   0.077
REMARK UNBOUND:                 0.115
REMARK SMILES Oc1cc(O)c2c(c1)O[C@@H](c1ccc(O)c(O)c1)[C@H](O)C2
REMARK SMILES IDX 21 1 19 2 10 3 9 4 7 5 8 6 2 7 3 8 4 9 6 10 20 11 11 13
REMARK SMILES IDX 18 14 12 15 16 16 13 17 14 18 17 19 15 21 5 23 1 25
REMARK H PARENT 20 12 17 20 15 22 5 24 1 26
REMARK Flexibility Score: inf
ROOT
ATOM      1  C   UNL     1     158.671 156.261 157.525  1.00  0.00     0.079 C 
ATOM      2  C   UNL     1     159.920 155.614 156.896  1.00  0.00     0.164 C 
ATOM      3  C   UNL     1     159.558 154.235 156.318  1.00  0.00     0.232 C 
ATOM      4  O   UNL     1     158.498 154.369 155.372  1.00  0.00    -0.482 OA
ATOM      5  C   UNL     1     157.432 155.253 155.565  1.00  0.00     0.131 A 
ATOM      6  C   UNL     1     156.338 155.197 154.699  1.00  0.00     0.093 A 
ATOM      7  C   UNL     1     155.252 156.055 154.876  1.00  0.00     0.122 A 
ATOM      8  C   UNL     1     155.254 156.969 155.935  1.00  0.00     0.092 A 
ATOM      9  C   UNL     1     156.341 157.040 156.815  1.00  0.00     0.126 A 
ATOM     10  C   UNL     1     157.464 156.201 156.611  1.00  0.00     0.039 A 
ENDROOT
BRANCH   2  11
ATOM     11  O   UNL     1     160.922 155.473 157.869  1.00  0.00    -0.389 OA
ATOM     12  H   UNL     1     160.908 156.301 158.416  1.00  0.00     0.211 HD
ENDBRANCH   2  11
BRANCH   3  13
ATOM     13  C   UNL     1     160.753 153.591 155.653  1.00  0.00    -0.001 A 
ATOM     14  C   UNL     1     161.909 154.342 155.379  1.00  0.00     0.057 A 
ATOM     15  C   UNL     1     160.740 152.224 155.346  1.00  0.00     0.012 A 
ATOM     16  C   UNL     1     163.030 153.747 154.789  1.00  0.00     0.157 A 
ATOM     17  C   UNL     1     161.853 151.622 154.756  1.00  0.00     0.050 A 
ATOM     18  C   UNL     1     163.001 152.368 154.470  1.00  0.00     0.157 A 
BRANCH  16  19
ATOM     19  O   UNL     1     164.143 154.555 154.540  1.00  0.00    -0.504 OA
ATOM     20  H   UNL     1     164.092 155.468 154.114  1.00  0.00     0.293 HD
ENDBRANCH  16  19
BRANCH  18  21
ATOM     21  O   UNL     1     164.079 151.707 153.878  1.00  0.00    -0.504 OA
ATOM     22  H   UNL     1     164.313 151.772 152.899  1.00  0.00     0.293 HD
ENDBRANCH  18  21
ENDBRANCH   3  13
BRANCH   9  23
ATOM     23  O   UNL     1     156.267 157.940 157.879  1.00  0.00    -0.507 OA
ATOM     24  H   UNL     1     157.011 158.066 158.554  1.00  0.00     0.293 HD
ENDBRANCH   9  23
BRANCH   7  25
ATOM     25  O   UNL     1     154.171 155.985 154.000  1.00  0.00    -0.508 OA
ATOM     26  H   UNL     1     153.581 156.791 153.822  1.00  0.00     0.293 HD
ENDBRANCH   7  25
TORSDOF 6
ENDMDL
MODEL 3
REMARK VINA RESULT:    -6.033      1.426      2.850
REMARK INTER + INTRA:          -7.153
REMARK INTER:                  -7.511
REMARK INTRA:                   0.357
REMARK UNBOUND:                 0.115
REMARK SMILES Oc1cc(O)c2c(c1)O[C@@H](c1ccc(O)c(O)c1)[C@H](O)C2
REMARK SMILES IDX 21 1 19 2 10 3 9 4 7 5 8 6 2 7 3 8 4 9 6 10 20 11 11 13
REMARK SMILES IDX 18 14 12 15 16 16 13 17 14 18 17 19 15 21 5 23 1 25
REMARK H PARENT 20 12 17 20 15 22 5 24 1 26
REMARK Flexibility Score: inf
ROOT
ATOM      1  C   UNL     1     161.770 155.366 155.543  1.00  0.00     0.079 C 
ATOM      2  C   UNL     1     160.478 155.656 156.329  1.00  0.00     0.164 C 
ATOM      3  C   UNL     1     159.265 155.093 155.569  1.00  0.00     0.232 C 
ATOM      4  O   UNL     1     159.443 153.696 155.340  1.00  0.00    -0.482 OA
ATOM      5  C   UNL     1     160.686 153.145 155.010  1.00  0.00     0.131 A 
ATOM      6  C   UNL     1     160.752 151.807 154.615  1.00  0.00     0.093 A 
ATOM      7  C   UNL     1     161.975 151.234 154.265  1.00  0.00     0.122 A 
ATOM      8  C   UNL     1     163.140 152.008 154.298  1.00  0.00     0.092 A 
ATOM      9  C   UNL     1     163.094 153.351 154.690  1.00  0.00     0.126 A 
ATOM     10  C   UNL     1     161.862 153.923 155.089  1.00  0.00     0.039 A 
ENDROOT
BRANCH   2  11
ATOM     11  O   UNL     1     160.328 157.042 156.502  1.00  0.00    -0.389 OA
ATOM     12  H   UNL     1     159.352 157.219 156.552  1.00  0.00     0.211 HD
ENDBRANCH   2  11
BRANCH   3  13
ATOM     13  C   UNL     1     157.984 155.322 156.337  1.00  0.00    -0.001 A 
ATOM     14  C   UNL     1     157.961 156.180 157.449  1.00  0.00     0.057 A 
ATOM     15  C   UNL     1     156.791 154.718 155.917  1.00  0.00     0.012 A 
ATOM     16  C   UNL     1     156.772 156.419 158.149  1.00  0.00     0.157 A 
ATOM     17  C   UNL     1     155.601 154.949 156.609  1.00  0.00     0.050 A 
ATOM     18  C   UNL     1     155.576 155.793 157.725  1.00  0.00     0.157 A 
BRANCH  16  19
ATOM     19  O   UNL     1     156.825 157.280 159.249  1.00  0.00    -0.504 OA
ATOM     20  H   UNL     1     156.191 158.053 159.390  1.00  0.00     0.293 HD
ENDBRANCH  16  19
BRANCH  18  21
ATOM     21  O   UNL     1     154.354 155.982 158.374  1.00  0.00    -0.504 OA
ATOM     22  H   UNL     1     154.250 156.468 159.252  1.00  0.00     0.293 HD
ENDBRANCH  18  21
ENDBRANCH   3  13
BRANCH   9  23
ATOM     23  O   UNL     1     164.281 154.086 154.661  1.00  0.00    -0.507 OA
ATOM     24  H   UNL     1     165.137 153.778 155.105  1.00  0.00     0.293 HD
ENDBRANCH   9  23
BRANCH   7  25
ATOM     25  O   UNL     1     162.022 149.897 153.876  1.00  0.00    -0.508 OA
ATOM     26  H   UNL     1     161.437 149.543 153.128  1.00  0.00     0.293 HD
ENDBRANCH   7  25
TORSDOF 6
ENDMDL
MODEL 4
REMARK VINA RESULT:    -5.261      1.243      6.802
REMARK INTER + INTRA:          -6.223
REMARK INTER:                  -6.370
REMARK INTRA:                   0.147
REMARK UNBOUND:                 0.115
REMARK SMILES Oc1cc(O)c2c(c1)O[C@@H](c1ccc(O)c(O)c1)[C@H](O)C2
REMARK SMILES IDX 21 1 19 2 10 3 9 4 7 5 8 6 2 7 3 8 4 9 6 10 20 11 11 13
REMARK SMILES IDX 18 14 12 15 16 16 13 17 14 18 17 19 15 21 5 23 1 25
REMARK H PARENT 20 12 17 20 15 22 5 24 1 26
REMARK Flexibility Score: inf
ROOT
ATOM      1  C   UNL     1     156.957 154.294 155.312  1.00  0.00     0.079 C 
ATOM      2  C   UNL     1     158.385 153.748 155.128  1.00  0.00     0.164 C 
ATOM      3  C   UNL     1     159.401 154.899 155.220  1.00  0.00     0.232 C 
ATOM      4  O   UNL     1     159.251 155.579 156.465  1.00  0.00    -0.482 OA
ATOM      5  C   UNL     1     157.999 155.817 157.041  1.00  0.00     0.131 A 
ATOM      6  C   UNL     1     157.912 156.650 158.159  1.00  0.00     0.093 A 
ATOM      7  C   UNL     1     156.675 156.918 158.745  1.00  0.00     0.122 A 
ATOM      8  C   UNL     1     155.513 156.360 158.202  1.00  0.00     0.092 A 
ATOM      9  C   UNL     1     155.579 155.524 157.081  1.00  0.00     0.126 A 
ATOM     10  C   UNL     1     156.837 155.213 156.511  1.00  0.00     0.039 A 
ENDROOT
BRANCH   2  11
ATOM     11  O   UNL     1     158.495 153.117 153.878  1.00  0.00    -0.389 OA
ATOM     12  H   UNL     1     159.461 152.949 153.727  1.00  0.00     0.211 HD
ENDBRANCH   2  11
BRANCH   3  13
ATOM     13  C   UNL     1     160.818 154.389 155.088  1.00  0.00    -0.001 A 
ATOM     14  C   UNL     1     161.898 155.287 155.035  1.00  0.00     0.057 A 
ATOM     15  C   UNL     1     161.075 153.012 155.067  1.00  0.00     0.012 A 
ATOM     16  C   UNL     1     163.215 154.822 154.941  1.00  0.00     0.157 A 
ATOM     17  C   UNL     1     162.385 152.539 154.973  1.00  0.00     0.050 A 
ATOM     18  C   UNL     1     163.462 153.429 154.906  1.00  0.00     0.157 A 
BRANCH  16  19
ATOM     19  O   UNL     1     164.239 155.772 154.887  1.00  0.00    -0.504 OA
ATOM     20  H   UNL     1     164.783 156.060 155.686  1.00  0.00     0.293 HD
ENDBRANCH  16  19
BRANCH  18  21
ATOM     21  O   UNL     1     164.748 152.892 154.811  1.00  0.00    -0.504 OA
ATOM     22  H   UNL     1     165.537 153.384 154.419  1.00  0.00     0.293 HD
ENDBRANCH  18  21
ENDBRANCH   3  13
BRANCH   9  23
ATOM     23  O   UNL     1     154.382 155.032 156.556  1.00  0.00    -0.507 OA
ATOM     24  H   UNL     1     153.927 154.195 156.898  1.00  0.00     0.293 HD
ENDBRANCH   9  23
BRANCH   7  25
ATOM     25  O   UNL     1     156.609 157.750 159.861  1.00  0.00    -0.508 OA
ATOM     26  H   UNL     1     156.232 157.422 160.743  1.00  0.00     0.293 HD
ENDBRANCH   7  25
TORSDOF 6
ENDMDL
MODEL 5
REMARK VINA RESULT:    -4.779      1.741      7.273
REMARK INTER + INTRA:          -5.643
REMARK INTER:                  -5.294
REMARK INTRA:                  -0.348
REMARK UNBOUND:                 0.115
REMARK SMILES Oc1cc(O)c2c(c1)O[C@@H](c1ccc(O)c(O)c1)[C@H](O)C2
REMARK SMILES IDX 21 1 19 2 10 3 9 4 7 5 8 6 2 7 3 8 4 9 6 10 20 11 11 13
REMARK SMILES IDX 18 14 12 15 16 16 13 17 14 18 17 19 15 21 5 23 1 25
REMARK H PARENT 20 12 17 20 15 22 5 24 1 26
REMARK Flexibility Score: inf
ROOT
ATOM      1  C   UNL     1     156.324 156.127 155.412  1.00  0.00     0.079 C 
ATOM      2  C   UNL     1     157.566 155.251 155.162  1.00  0.00     0.164 C 
ATOM      3  C   UNL     1     158.644 155.558 156.215  1.00  0.00     0.232 C 
ATOM      4  O   UNL     1     158.111 155.360 157.524  1.00  0.00    -0.482 OA
ATOM      5  C   UNL     1     156.802 155.719 157.861  1.00  0.00     0.131 A 
ATOM      6  C   UNL     1     156.409 155.674 159.201  1.00  0.00     0.093 A 
ATOM      7  C   UNL     1     155.114 156.042 159.568  1.00  0.00     0.122 A 
ATOM      8  C   UNL     1     154.209 156.470 158.592  1.00  0.00     0.092 A 
ATOM      9  C   UNL     1     154.585 156.523 157.244  1.00  0.00     0.126 A 
ATOM     10  C   UNL     1     155.883 156.108 156.861  1.00  0.00     0.039 A 
ENDROOT
BRANCH   2  11
ATOM     11  O   UNL     1     158.074 155.502 153.877  1.00  0.00    -0.389 OA
ATOM     12  H   UNL     1     159.038 155.268 153.900  1.00  0.00     0.211 HD
ENDBRANCH   2  11
BRANCH   3  13
ATOM     13  C   UNL     1     159.860 154.682 156.025  1.00  0.00    -0.001 A 
ATOM     14  C   UNL     1     161.063 155.225 155.542  1.00  0.00     0.057 A 
ATOM     15  C   UNL     1     159.816 153.325 156.376  1.00  0.00     0.012 A 
ATOM     16  C   UNL     1     162.202 154.426 155.389  1.00  0.00     0.157 A 
ATOM     17  C   UNL     1     160.947 152.521 156.226  1.00  0.00     0.050 A 
ATOM     18  C   UNL     1     162.143 153.054 155.733  1.00  0.00     0.157 A 
BRANCH  16  19
ATOM     19  O   UNL     1     163.362 155.031 154.899  1.00  0.00    -0.504 OA
ATOM     20  H   UNL     1     163.970 155.617 155.453  1.00  0.00     0.293 HD
ENDBRANCH  16  19
BRANCH  18  21
ATOM     21  O   UNL     1     163.237 152.196 155.606  1.00  0.00    -0.504 OA
ATOM     22  H   UNL     1     163.211 151.212 155.828  1.00  0.00     0.293 HD
ENDBRANCH  18  21
ENDBRANCH   3  13
BRANCH   9  23
ATOM     23  O   UNL     1     153.653 157.001 156.320  1.00  0.00    -0.507 OA
ATOM     24  H   UNL     1     153.794 156.965 155.319  1.00  0.00     0.293 HD
ENDBRANCH   9  23
BRANCH   7  25
ATOM     25  O   UNL     1     154.739 155.988 160.910  1.00  0.00    -0.508 OA
ATOM     26  H   UNL     1     155.056 155.242 161.518  1.00  0.00     0.293 HD
ENDBRANCH   7  25
TORSDOF 6
ENDMDL
