MODEL 1
REMARK VINA RESULT:    -3.010      0.000      0.000
REMARK INTER + INTRA:         -14.077
REMARK INTER:                  -7.937
REMARK INTRA:                  -6.140
REMARK UNBOUND:                -6.140
REMARK SMILES CCCCCCCCCCCCCCCCCCCCCCCCCCCCCC(=O)[O-]
REMARK SMILES IDX 16 1 17 2 18 3 19 4 20 5 21 6 22 7 23 8 24 9 25 10 26 11
REMARK SMILES IDX 27 12 28 13 29 14 30 15 31 16 32 17 15 18 14 19 13 20 12 21
REMARK SMILES IDX 11 22 10 23 9 24 8 25 7 26 6 27 5 28 4 29 3 30 2 31 1 32
REMARK H PARENT
REMARK Flexibility Score: inf
ROOT
ATOM      1  C   UNL     1      12.192   1.123  28.785  1.00  0.00     0.000 C 
ENDROOT
BRANCH   1   2
ATOM      2  C   UNL     1      13.200   2.045  28.069  1.00  0.00     0.000 C 
BRANCH   2   3
ATOM      3  C   UNL     1      12.587   3.283  27.388  1.00  0.00     0.000 C 
BRANCH   3   4
ATOM      4  C   UNL     1      13.596   4.432  27.209  1.00  0.00     0.000 C 
BRANCH   4   5
ATOM      5  C   UNL     1      13.704   5.324  28.457  1.00  0.00     0.000 C 
BRANCH   5   6
ATOM      6  C   UNL     1      14.926   4.992  29.325  1.00  0.00     0.000 C 
BRANCH   6   7
ATOM      7  C   UNL     1      14.491   4.550  30.732  1.00  0.00     0.000 C 
BRANCH   7   8
ATOM      8  C   UNL     1      13.019   4.870  31.031  1.00  0.00     0.000 C 
BRANCH   8   9
ATOM      9  C   UNL     1      12.549   4.310  32.385  1.00  0.00     0.000 C 
BRANCH   9  10
ATOM     10  C   UNL     1      13.317   4.925  33.568  1.00  0.00     0.000 C 
BRANCH  10  11
ATOM     11  C   UNL     1      13.631   3.896  34.664  1.00  0.00     0.000 C 
BRANCH  11  12
ATOM     12  C   UNL     1      15.100   3.996  35.105  1.00  0.00     0.000 C 
BRANCH  12  13
ATOM     13  C   UNL     1      16.008   3.017  34.343  1.00  0.00     0.006 C 
BRANCH  13  14
ATOM     14  C   UNL     1      16.898   3.725  33.312  1.00  0.00     0.053 C 
BRANCH  14  15
ATOM     15  C   UNL     1      18.264   3.963  33.879  1.00  0.00     0.041 C 
ATOM     16  O   UNL     1      18.653   5.136  34.122  1.00  0.00    -0.550 OA
ATOM     17  O   UNL     1      19.094   2.888  34.166  1.00  0.00    -0.550 OA
ENDBRANCH  14  15
ENDBRANCH  13  14
ENDBRANCH  12  13
ENDBRANCH  11  12
ENDBRANCH  10  11
ENDBRANCH   9  10
ENDBRANCH   8   9
ENDBRANCH   7   8
ENDBRANCH   6   7
ENDBRANCH   5   6
ENDBRANCH   4   5
ENDBRANCH   3   4
ENDBRANCH   2   3
ENDBRANCH   1   2
BRANCH   1  18
ATOM     18  C   UNL     1      12.230   1.174  30.325  1.00  0.00     0.000 C 
BRANCH  18  19
ATOM     19  C   UNL     1      10.876   1.472  30.996  1.00  0.00     0.000 C 
BRANCH  19  20
ATOM     20  C   UNL     1       9.881   2.160  30.044  1.00  0.00     0.000 C 
BRANCH  20  21
ATOM     21  C   UNL     1       9.626   3.633  30.432  1.00  0.00     0.000 C 
BRANCH  21  22
ATOM     22  C   UNL     1       9.837   4.624  29.275  1.00  0.00     0.000 C 
BRANCH  22  23
ATOM     23  C   UNL     1       9.272   6.022  29.575  1.00  0.00     0.000 C 
BRANCH  23  24
ATOM     24  C   UNL     1      10.364   7.100  29.652  1.00  0.00    -0.000 C 
BRANCH  24  25
ATOM     25  C   UNL     1      10.352   7.872  30.981  1.00  0.00    -0.000 C 
BRANCH  25  26
ATOM     26  C   UNL     1       9.943   6.956  32.145  1.00  0.00    -0.000 C 
BRANCH  26  27
ATOM     27  C   UNL     1      10.635   7.327  33.466  1.00  0.00    -0.000 C 
BRANCH  27  28
ATOM     28  C   UNL     1      10.184   6.446  34.644  1.00  0.00    -0.000 C 
BRANCH  28  29
ATOM     29  C   UNL     1       9.365   5.226  34.190  1.00  0.00    -0.000 C 
BRANCH  29  30
ATOM     30  C   UNL     1       9.632   3.980  35.049  1.00  0.00    -0.000 C 
BRANCH  30  31
ATOM     31  C   UNL     1       9.695   2.719  34.178  1.00  0.00    -0.003 C 
ATOM     32  C   UNL     1      10.655   1.690  34.766  1.00  0.00     0.004 C 
ENDBRANCH  30  31
ENDBRANCH  29  30
ENDBRANCH  28  29
ENDBRANCH  27  28
ENDBRANCH  26  27
ENDBRANCH  25  26
ENDBRANCH  24  25
ENDBRANCH  23  24
ENDBRANCH  22  23
ENDBRANCH  21  22
ENDBRANCH  20  21
ENDBRANCH  19  20
ENDBRANCH  18  19
ENDBRANCH   1  18
TORSDOF 28
ENDMDL
MODEL 2
REMARK VINA RESULT:    -2.983      1.907      3.602
REMARK INTER + INTRA:         -14.007
REMARK INTER:                  -7.660
REMARK INTRA:                  -6.346
REMARK UNBOUND:                -6.140
REMARK SMILES CCCCCCCCCCCCCCCCCCCCCCCCCCCCCC(=O)[O-]
REMARK SMILES IDX 16 1 17 2 18 3 19 4 20 5 21 6 22 7 23 8 24 9 25 10 26 11
REMARK SMILES IDX 27 12 28 13 29 14 30 15 31 16 32 17 15 18 14 19 13 20 12 21
REMARK SMILES IDX 11 22 10 23 9 24 8 25 7 26 6 27 5 28 4 29 3 30 2 31 1 32
REMARK H PARENT
REMARK Flexibility Score: inf
ROOT
ATOM      1  C   UNL     1      12.125   1.159  31.102  1.00  0.00     0.000 C 
ENDROOT
BRANCH   1   2
ATOM      2  C   UNL     1      13.166   2.100  31.743  1.00  0.00     0.000 C 
BRANCH   2   3
ATOM      3  C   UNL     1      13.074   3.573  31.304  1.00  0.00     0.000 C 
BRANCH   3   4
ATOM      4  C   UNL     1      14.450   4.256  31.201  1.00  0.00     0.000 C 
BRANCH   4   5
ATOM      5  C   UNL     1      14.653   4.976  29.857  1.00  0.00     0.000 C 
BRANCH   5   6
ATOM      6  C   UNL     1      13.336   5.239  29.113  1.00  0.00     0.000 C 
BRANCH   6   7
ATOM      7  C   UNL     1      13.373   4.625  27.705  1.00  0.00     0.000 C 
BRANCH   7   8
ATOM      8  C   UNL     1      12.916   3.158  27.679  1.00  0.00     0.000 C 
BRANCH   8   9
ATOM      9  C   UNL     1      14.031   2.193  27.239  1.00  0.00     0.000 C 
BRANCH   9  10
ATOM     10  C   UNL     1      14.640   1.427  28.426  1.00  0.00     0.000 C 
BRANCH  10  11
ATOM     11  C   UNL     1      16.097   1.830  28.700  1.00  0.00     0.000 C 
BRANCH  11  12
ATOM     12  C   UNL     1      16.654   2.686  27.552  1.00  0.00     0.000 C 
BRANCH  12  13
ATOM     13  C   UNL     1      17.578   3.808  28.054  1.00  0.00     0.006 C 
BRANCH  13  14
ATOM     14  C   UNL     1      18.851   3.264  28.718  1.00  0.00     0.053 C 
BRANCH  14  15
ATOM     15  C   UNL     1      18.998   3.824  30.099  1.00  0.00     0.041 C 
ATOM     16  O   UNL     1      18.141   4.630  30.551  1.00  0.00    -0.550 OA
ATOM     17  O   UNL     1      20.064   3.433  30.899  1.00  0.00    -0.550 OA
ENDBRANCH  14  15
ENDBRANCH  13  14
ENDBRANCH  12  13
ENDBRANCH  11  12
ENDBRANCH  10  11
ENDBRANCH   9  10
ENDBRANCH   8   9
ENDBRANCH   7   8
ENDBRANCH   6   7
ENDBRANCH   5   6
ENDBRANCH   4   5
ENDBRANCH   3   4
ENDBRANCH   2   3
ENDBRANCH   1   2
BRANCH   1  18
ATOM     18  C   UNL     1      10.950   0.755  32.015  1.00  0.00     0.000 C 
BRANCH  18  19
ATOM     19  C   UNL     1       9.651   1.547  31.784  1.00  0.00     0.000 C 
BRANCH  19  20
ATOM     20  C   UNL     1       9.627   2.265  30.423  1.00  0.00     0.000 C 
BRANCH  20  21
ATOM     21  C   UNL     1       9.578   3.802  30.574  1.00  0.00     0.000 C 
BRANCH  21  22
ATOM     22  C   UNL     1       9.834   4.561  29.261  1.00  0.00     0.000 C 
BRANCH  22  23
ATOM     23  C   UNL     1       9.380   6.029  29.322  1.00  0.00     0.000 C 
BRANCH  23  24
ATOM     24  C   UNL     1       9.238   6.548  30.761  1.00  0.00    -0.000 C 
BRANCH  24  25
ATOM     25  C   UNL     1      10.417   7.433  31.198  1.00  0.00    -0.000 C 
BRANCH  25  26
ATOM     26  C   UNL     1      11.240   6.746  32.299  1.00  0.00    -0.000 C 
BRANCH  26  27
ATOM     27  C   UNL     1      10.824   7.181  33.712  1.00  0.00    -0.000 C 
BRANCH  27  28
ATOM     28  C   UNL     1      10.416   5.997  34.606  1.00  0.00    -0.000 C 
BRANCH  28  29
ATOM     29  C   UNL     1      10.524   4.645  33.882  1.00  0.00    -0.000 C 
BRANCH  29  30
ATOM     30  C   UNL     1      11.397   3.633  34.640  1.00  0.00    -0.000 C 
BRANCH  30  31
ATOM     31  C   UNL     1      12.497   4.348  35.434  1.00  0.00    -0.003 C 
ATOM     32  C   UNL     1      13.884   3.938  34.948  1.00  0.00     0.004 C 
ENDBRANCH  30  31
ENDBRANCH  29  30
ENDBRANCH  28  29
ENDBRANCH  27  28
ENDBRANCH  26  27
ENDBRANCH  25  26
ENDBRANCH  24  25
ENDBRANCH  23  24
ENDBRANCH  22  23
ENDBRANCH  21  22
ENDBRANCH  20  21
ENDBRANCH  19  20
ENDBRANCH  18  19
ENDBRANCH   1  18
TORSDOF 28
ENDMDL
MODEL 3
REMARK VINA RESULT:    -2.967      1.255      3.880
REMARK INTER + INTRA:         -13.963
REMARK INTER:                  -7.068
REMARK INTRA:                  -6.895
REMARK UNBOUND:                -6.140
REMARK SMILES CCCCCCCCCCCCCCCCCCCCCCCCCCCCCC(=O)[O-]
REMARK SMILES IDX 16 1 17 2 18 3 19 4 20 5 21 6 22 7 23 8 24 9 25 10 26 11
REMARK SMILES IDX 27 12 28 13 29 14 30 15 31 16 32 17 15 18 14 19 13 20 12 21
REMARK SMILES IDX 11 22 10 23 9 24 8 25 7 26 6 27 5 28 4 29 3 30 2 31 1 32
REMARK H PARENT
REMARK Flexibility Score: inf
ROOT
ATOM      1  C   UNL     1      10.230   2.088  29.988  1.00  0.00     0.000 C 
ENDROOT
BRANCH   1   2
ATOM      2  C   UNL     1      11.463   2.173  29.065  1.00  0.00     0.000 C 
BRANCH   2   3
ATOM      3  C   UNL     1      12.623   1.230  29.434  1.00  0.00     0.000 C 
BRANCH   3   4
ATOM      4  C   UNL     1      13.752   1.229  28.388  1.00  0.00     0.000 C 
BRANCH   4   5
ATOM      5  C   UNL     1      13.432   2.113  27.171  1.00  0.00     0.000 C 
BRANCH   5   6
ATOM      6  C   UNL     1      14.319   3.364  27.090  1.00  0.00     0.000 C 
BRANCH   6   7
ATOM      7  C   UNL     1      13.546   4.611  27.546  1.00  0.00     0.000 C 
BRANCH   7   8
ATOM      8  C   UNL     1      14.045   5.168  28.888  1.00  0.00     0.000 C 
BRANCH   8   9
ATOM      9  C   UNL     1      15.576   5.105  29.028  1.00  0.00     0.000 C 
BRANCH   9  10
ATOM     10  C   UNL     1      16.014   4.615  30.419  1.00  0.00     0.000 C 
BRANCH  10  11
ATOM     11  C   UNL     1      16.082   3.083  30.509  1.00  0.00     0.000 C 
BRANCH  11  12
ATOM     12  C   UNL     1      16.689   2.639  31.849  1.00  0.00     0.000 C 
BRANCH  12  13
ATOM     13  C   UNL     1      17.084   3.832  32.736  1.00  0.00     0.006 C 
BRANCH  13  14
ATOM     14  C   UNL     1      18.453   3.637  33.402  1.00  0.00     0.053 C 
BRANCH  14  15
ATOM     15  C   UNL     1      19.453   4.592  32.826  1.00  0.00     0.041 C 
ATOM     16  O   UNL     1      20.333   5.110  33.565  1.00  0.00    -0.550 OA
ATOM     17  O   UNL     1      19.433   4.886  31.470  1.00  0.00    -0.550 OA
ENDBRANCH  14  15
ENDBRANCH  13  14
ENDBRANCH  12  13
ENDBRANCH  11  12
ENDBRANCH  10  11
ENDBRANCH   9  10
ENDBRANCH   8   9
ENDBRANCH   7   8
ENDBRANCH   6   7
ENDBRANCH   5   6
ENDBRANCH   4   5
ENDBRANCH   3   4
ENDBRANCH   2   3
ENDBRANCH   1   2
BRANCH   1  18
ATOM     18  C   UNL     1       9.598   3.441  30.371  1.00  0.00     0.000 C 
BRANCH  18  19
ATOM     19  C   UNL     1      10.020   4.626  29.483  1.00  0.00     0.000 C 
BRANCH  19  20
ATOM     20  C   UNL     1      10.465   5.852  30.301  1.00  0.00     0.000 C 
BRANCH  20  21
ATOM     21  C   UNL     1       9.684   5.985  31.626  1.00  0.00     0.000 C 
BRANCH  21  22
ATOM     22  C   UNL     1      10.484   6.663  32.751  1.00  0.00     0.000 C 
BRANCH  22  23
ATOM     23  C   UNL     1      10.061   6.191  34.153  1.00  0.00     0.000 C 
BRANCH  23  24
ATOM     24  C   UNL     1       9.789   4.681  34.215  1.00  0.00    -0.000 C 
BRANCH  24  25
ATOM     25  C   UNL     1      10.346   4.023  35.487  1.00  0.00    -0.000 C 
BRANCH  25  26
ATOM     26  C   UNL     1      10.871   2.610  35.189  1.00  0.00    -0.000 C 
BRANCH  26  27
ATOM     27  C   UNL     1      10.692   2.206  33.718  1.00  0.00    -0.000 C 
BRANCH  27  28
ATOM     28  C   UNL     1      11.917   1.470  33.146  1.00  0.00    -0.000 C 
BRANCH  28  29
ATOM     29  C   UNL     1      13.141   2.390  32.998  1.00  0.00    -0.000 C 
BRANCH  29  30
ATOM     30  C   UNL     1      12.822   3.685  32.235  1.00  0.00    -0.000 C 
BRANCH  30  31
ATOM     31  C   UNL     1      13.461   4.897  32.924  1.00  0.00    -0.003 C 
ATOM     32  C   UNL     1      13.894   4.557  34.347  1.00  0.00     0.004 C 
ENDBRANCH  30  31
ENDBRANCH  29  30
ENDBRANCH  28  29
ENDBRANCH  27  28
ENDBRANCH  26  27
ENDBRANCH  25  26
ENDBRANCH  24  25
ENDBRANCH  23  24
ENDBRANCH  22  23
ENDBRANCH  21  22
ENDBRANCH  20  21
ENDBRANCH  19  20
ENDBRANCH  18  19
ENDBRANCH   1  18
TORSDOF 28
ENDMDL
MODEL 4
REMARK VINA RESULT:    -2.957      2.402      6.374
REMARK INTER + INTRA:         -13.937
REMARK INTER:                  -7.645
REMARK INTRA:                  -6.292
REMARK UNBOUND:                -6.140
REMARK SMILES CCCCCCCCCCCCCCCCCCCCCCCCCCCCCC(=O)[O-]
REMARK SMILES IDX 16 1 17 2 18 3 19 4 20 5 21 6 22 7 23 8 24 9 25 10 26 11
REMARK SMILES IDX 27 12 28 13 29 14 30 15 31 16 32 17 15 18 14 19 13 20 12 21
REMARK SMILES IDX 11 22 10 23 9 24 8 25 7 26 6 27 5 28 4 29 3 30 2 31 1 32
REMARK H PARENT
REMARK Flexibility Score: inf
ROOT
ATOM      1  C   UNL     1      13.004   5.252  33.236  1.00  0.00     0.000 C 
ENDROOT
BRANCH   1   2
ATOM      2  C   UNL     1      11.571   5.699  32.877  1.00  0.00     0.000 C 
BRANCH   2   3
ATOM      3  C   UNL     1      11.412   7.199  32.565  1.00  0.00     0.000 C 
BRANCH   3   4
ATOM      4  C   UNL     1       9.955   7.601  32.277  1.00  0.00     0.000 C 
BRANCH   4   5
ATOM      5  C   UNL     1       9.224   6.581  31.387  1.00  0.00     0.000 C 
BRANCH   5   6
ATOM      6  C   UNL     1       8.957   7.106  29.969  1.00  0.00     0.000 C 
BRANCH   6   7
ATOM      7  C   UNL     1       9.190   6.001  28.926  1.00  0.00     0.000 C 
BRANCH   7   8
ATOM      8  C   UNL     1       9.808   4.730  29.528  1.00  0.00     0.000 C 
BRANCH   8   9
ATOM      9  C   UNL     1      11.188   4.397  28.933  1.00  0.00     0.000 C 
BRANCH   9  10
ATOM     10  C   UNL     1      12.255   5.435  29.320  1.00  0.00     0.000 C 
BRANCH  10  11
ATOM     11  C   UNL     1      13.365   5.559  28.265  1.00  0.00     0.000 C 
BRANCH  11  12
ATOM     12  C   UNL     1      13.371   4.338  27.331  1.00  0.00     0.000 C 
BRANCH  12  13
ATOM     13  C   UNL     1      14.567   3.408  27.592  1.00  0.00     0.006 C 
BRANCH  13  14
ATOM     14  C   UNL     1      14.512   2.130  26.744  1.00  0.00     0.053 C 
BRANCH  14  15
ATOM     15  C   UNL     1      15.130   0.985  27.484  1.00  0.00     0.041 C 
ATOM     16  O   UNL     1      16.161   1.167  28.187  1.00  0.00    -0.550 OA
ATOM     17  O   UNL     1      14.553  -0.276  27.424  1.00  0.00    -0.550 OA
ENDBRANCH  14  15
ENDBRANCH  13  14
ENDBRANCH  12  13
ENDBRANCH  11  12
ENDBRANCH  10  11
ENDBRANCH   9  10
ENDBRANCH   8   9
ENDBRANCH   7   8
ENDBRANCH   6   7
ENDBRANCH   5   6
ENDBRANCH   4   5
ENDBRANCH   3   4
ENDBRANCH   2   3
ENDBRANCH   1   2
BRANCH   1  18
ATOM     18  C   UNL     1      13.125   4.379  34.500  1.00  0.00     0.000 C 
BRANCH  18  19
ATOM     19  C   UNL     1      11.926   4.464  35.462  1.00  0.00     0.000 C 
BRANCH  19  20
ATOM     20  C   UNL     1      11.131   3.148  35.538  1.00  0.00     0.000 C 
BRANCH  20  21
ATOM     21  C   UNL     1       9.608   3.380  35.439  1.00  0.00     0.000 C 
BRANCH  21  22
ATOM     22  C   UNL     1       8.921   2.531  34.356  1.00  0.00     0.000 C 
BRANCH  22  23
ATOM     23  C   UNL     1       9.048   3.140  32.949  1.00  0.00     0.000 C 
BRANCH  23  24
ATOM     24  C   UNL     1       9.603   2.145  31.919  1.00  0.00    -0.000 C 
BRANCH  24  25
ATOM     25  C   UNL     1      11.139   2.132  31.865  1.00  0.00    -0.000 C 
BRANCH  25  26
ATOM     26  C   UNL     1      11.645   1.064  30.882  1.00  0.00    -0.000 C 
BRANCH  26  27
ATOM     27  C   UNL     1      13.065   1.352  30.369  1.00  0.00    -0.000 C 
BRANCH  27  28
ATOM     28  C   UNL     1      13.716   2.563  31.060  1.00  0.00    -0.000 C 
BRANCH  28  29
ATOM     29  C   UNL     1      14.945   2.174  31.899  1.00  0.00    -0.000 C 
BRANCH  29  30
ATOM     30  C   UNL     1      16.113   3.158  31.731  1.00  0.00    -0.000 C 
BRANCH  30  31
ATOM     31  C   UNL     1      15.678   4.391  30.930  1.00  0.00    -0.003 C 
ATOM     32  C   UNL     1      16.764   4.821  29.948  1.00  0.00     0.004 C 
ENDBRANCH  30  31
ENDBRANCH  29  30
ENDBRANCH  28  29
ENDBRANCH  27  28
ENDBRANCH  26  27
ENDBRANCH  25  26
ENDBRANCH  24  25
ENDBRANCH  23  24
ENDBRANCH  22  23
ENDBRANCH  21  22
ENDBRANCH  20  21
ENDBRANCH  19  20
ENDBRANCH  18  19
ENDBRANCH   1  18
TORSDOF 28
ENDMDL
MODEL 5
REMARK VINA RESULT:    -2.892      1.785      4.578
REMARK INTER + INTRA:         -13.766
REMARK INTER:                  -6.872
REMARK INTRA:                  -6.894
REMARK UNBOUND:                -6.140
REMARK SMILES CCCCCCCCCCCCCCCCCCCCCCCCCCCCCC(=O)[O-]
REMARK SMILES IDX 16 1 17 2 18 3 19 4 20 5 21 6 22 7 23 8 24 9 25 10 26 11
REMARK SMILES IDX 27 12 28 13 29 14 30 15 31 16 32 17 15 18 14 19 13 20 12 21
REMARK SMILES IDX 11 22 10 23 9 24 8 25 7 26 6 27 5 28 4 29 3 30 2 31 1 32
REMARK H PARENT
REMARK Flexibility Score: inf
ROOT
ATOM      1  C   UNL     1      10.108   2.236  30.005  1.00  0.00     0.000 C 
ENDROOT
BRANCH   1   2
ATOM      2  C   UNL     1      11.371   2.120  29.127  1.00  0.00     0.000 C 
BRANCH   2   3
ATOM      3  C   UNL     1      12.579   1.445  29.804  1.00  0.00     0.000 C 
BRANCH   3   4
ATOM      4  C   UNL     1      13.498   0.718  28.806  1.00  0.00     0.000 C 
BRANCH   4   5
ATOM      5  C   UNL     1      12.762   0.292  27.525  1.00  0.00     0.000 C 
BRANCH   5   6
ATOM      6  C   UNL     1      13.454   0.783  26.245  1.00  0.00     0.000 C 
BRANCH   6   7
ATOM      7  C   UNL     1      12.738   2.019  25.678  1.00  0.00     0.000 C 
BRANCH   7   8
ATOM      8  C   UNL     1      13.428   3.338  26.057  1.00  0.00     0.000 C 
BRANCH   8   9
ATOM      9  C   UNL     1      14.949   3.187  26.232  1.00  0.00     0.000 C 
BRANCH   9  10
ATOM     10  C   UNL     1      15.427   3.666  27.613  1.00  0.00     0.000 C 
BRANCH  10  11
ATOM     11  C   UNL     1      14.323   4.391  28.398  1.00  0.00     0.000 C 
BRANCH  11  12
ATOM     12  C   UNL     1      14.854   4.899  29.748  1.00  0.00     0.000 C 
BRANCH  12  13
ATOM     13  C   UNL     1      16.264   4.369  30.059  1.00  0.00     0.006 C 
BRANCH  13  14
ATOM     14  C   UNL     1      16.323   3.612  31.393  1.00  0.00     0.053 C 
BRANCH  14  15
ATOM     15  C   UNL     1      16.237   2.135  31.158  1.00  0.00     0.041 C 
ATOM     16  O   UNL     1      16.805   1.618  30.159  1.00  0.00    -0.550 OA
ATOM     17  O   UNL     1      15.554   1.326  32.056  1.00  0.00    -0.550 OA
ENDBRANCH  14  15
ENDBRANCH  13  14
ENDBRANCH  12  13
ENDBRANCH  11  12
ENDBRANCH  10  11
ENDBRANCH   9  10
ENDBRANCH   8   9
ENDBRANCH   7   8
ENDBRANCH   6   7
ENDBRANCH   5   6
ENDBRANCH   4   5
ENDBRANCH   3   4
ENDBRANCH   2   3
ENDBRANCH   1   2
BRANCH   1  18
ATOM     18  C   UNL     1       9.650   3.675  30.315  1.00  0.00     0.000 C 
BRANCH  18  19
ATOM     19  C   UNL     1      10.264   4.758  29.409  1.00  0.00     0.000 C 
BRANCH  19  20
ATOM     20  C   UNL     1      11.081   5.797  30.197  1.00  0.00     0.000 C 
BRANCH  20  21
ATOM     21  C   UNL     1      10.345   6.279  31.466  1.00  0.00     0.000 C 
BRANCH  21  22
ATOM     22  C   UNL     1      11.212   7.152  32.390  1.00  0.00     0.000 C 
BRANCH  22  23
ATOM     23  C   UNL     1      10.607   7.317  33.795  1.00  0.00     0.000 C 
BRANCH  23  24
ATOM     24  C   UNL     1       9.897   6.048  34.289  1.00  0.00    -0.000 C 
BRANCH  24  25
ATOM     25  C   UNL     1      10.631   5.364  35.453  1.00  0.00    -0.000 C 
BRANCH  25  26
ATOM     26  C   UNL     1      10.468   3.838  35.384  1.00  0.00    -0.000 C 
BRANCH  26  27
ATOM     27  C   UNL     1      10.144   3.337  33.968  1.00  0.00    -0.000 C 
BRANCH  27  28
ATOM     28  C   UNL     1      11.032   2.158  33.533  1.00  0.00    -0.000 C 
BRANCH  28  29
ATOM     29  C   UNL     1      12.527   2.520  33.516  1.00  0.00    -0.000 C 
BRANCH  29  30
ATOM     30  C   UNL     1      12.831   3.743  32.637  1.00  0.00    -0.000 C 
BRANCH  30  31
ATOM     31  C   UNL     1      13.625   4.795  33.421  1.00  0.00    -0.003 C 
ATOM     32  C   UNL     1      14.201   4.207  34.705  1.00  0.00     0.004 C 
ENDBRANCH  30  31
ENDBRANCH  29  30
ENDBRANCH  28  29
ENDBRANCH  27  28
ENDBRANCH  26  27
ENDBRANCH  25  26
ENDBRANCH  24  25
ENDBRANCH  23  24
ENDBRANCH  22  23
ENDBRANCH  21  22
ENDBRANCH  20  21
ENDBRANCH  19  20
ENDBRANCH  18  19
ENDBRANCH   1  18
TORSDOF 28
ENDMDL
MODEL 6
REMARK VINA RESULT:    -2.889      2.081      5.939
REMARK INTER + INTRA:         -13.760
REMARK INTER:                  -7.157
REMARK INTRA:                  -6.603
REMARK UNBOUND:                -6.140
REMARK SMILES CCCCCCCCCCCCCCCCCCCCCCCCCCCCCC(=O)[O-]
REMARK SMILES IDX 16 1 17 2 18 3 19 4 20 5 21 6 22 7 23 8 24 9 25 10 26 11
REMARK SMILES IDX 27 12 28 13 29 14 30 15 31 16 32 17 15 18 14 19 13 20 12 21
REMARK SMILES IDX 11 22 10 23 9 24 8 25 7 26 6 27 5 28 4 29 3 30 2 31 1 32
REMARK H PARENT
REMARK Flexibility Score: inf
ROOT
ATOM      1  C   UNL     1      10.601   7.796  32.589  1.00  0.00     0.000 C 
ENDROOT
BRANCH   1   2
ATOM      2  C   UNL     1      10.509   6.988  33.899  1.00  0.00     0.000 C 
BRANCH   2   3
ATOM      3  C   UNL     1       9.920   5.572  33.756  1.00  0.00     0.000 C 
BRANCH   3   4
ATOM      4  C   UNL     1      10.971   4.521  33.355  1.00  0.00     0.000 C 
BRANCH   4   5
ATOM      5  C   UNL     1      12.305   4.706  34.097  1.00  0.00     0.000 C 
BRANCH   5   6
ATOM      6  C   UNL     1      13.469   5.053  33.158  1.00  0.00     0.000 C 
BRANCH   6   7
ATOM      7  C   UNL     1      13.015   5.016  31.690  1.00  0.00     0.000 C 
BRANCH   7   8
ATOM      8  C   UNL     1      14.112   4.518  30.737  1.00  0.00     0.000 C 
BRANCH   8   9
ATOM      9  C   UNL     1      14.012   5.141  29.334  1.00  0.00     0.000 C 
BRANCH   9  10
ATOM     10  C   UNL     1      14.253   4.108  28.219  1.00  0.00     0.000 C 
BRANCH  10  11
ATOM     11  C   UNL     1      14.692   2.743  28.769  1.00  0.00     0.000 C 
BRANCH  11  12
ATOM     12  C   UNL     1      16.075   2.353  28.224  1.00  0.00     0.000 C 
BRANCH  12  13
ATOM     13  C   UNL     1      16.747   3.503  27.455  1.00  0.00     0.006 C 
BRANCH  13  14
ATOM     14  C   UNL     1      18.179   3.771  27.938  1.00  0.00     0.053 C 
BRANCH  14  15
ATOM     15  C   UNL     1      18.184   4.099  29.399  1.00  0.00     0.041 C 
ATOM     16  O   UNL     1      17.507   5.070  29.833  1.00  0.00    -0.550 OA
ATOM     17  O   UNL     1      18.911   3.317  30.285  1.00  0.00    -0.550 OA
ENDBRANCH  14  15
ENDBRANCH  13  14
ENDBRANCH  12  13
ENDBRANCH  11  12
ENDBRANCH  10  11
ENDBRANCH   9  10
ENDBRANCH   8   9
ENDBRANCH   7   8
ENDBRANCH   6   7
ENDBRANCH   5   6
ENDBRANCH   4   5
ENDBRANCH   3   4
ENDBRANCH   2   3
ENDBRANCH   1   2
BRANCH   1  18
ATOM     18  C   UNL     1       9.588   7.398  31.496  1.00  0.00     0.000 C 
BRANCH  18  19
ATOM     19  C   UNL     1      10.208   6.749  30.245  1.00  0.00     0.000 C 
BRANCH  19  20
ATOM     20  C   UNL     1       9.652   5.340  29.970  1.00  0.00     0.000 C 
BRANCH  20  21
ATOM     21  C   UNL     1      10.508   4.566  28.944  1.00  0.00     0.000 C 
BRANCH  21  22
ATOM     22  C   UNL     1      10.807   3.115  29.358  1.00  0.00     0.000 C 
BRANCH  22  23
ATOM     23  C   UNL     1       9.817   2.575  30.404  1.00  0.00     0.000 C 
BRANCH  23  24
ATOM     24  C   UNL     1      10.440   1.511  31.320  1.00  0.00    -0.000 C 
BRANCH  24  25
ATOM     25  C   UNL     1      11.973   1.453  31.215  1.00  0.00    -0.000 C 
BRANCH  25  26
ATOM     26  C   UNL     1      12.589   0.875  32.498  1.00  0.00    -0.000 C 
BRANCH  26  27
ATOM     27  C   UNL     1      13.971   1.468  32.814  1.00  0.00    -0.000 C 
BRANCH  27  28
ATOM     28  C   UNL     1      15.110   0.768  32.053  1.00  0.00    -0.000 C 
BRANCH  28  29
ATOM     29  C   UNL     1      16.352   1.662  31.893  1.00  0.00    -0.000 C 
BRANCH  29  30
ATOM     30  C   UNL     1      16.416   2.781  32.944  1.00  0.00    -0.000 C 
BRANCH  30  31
ATOM     31  C   UNL     1      17.656   2.625  33.833  1.00  0.00    -0.003 C 
ATOM     32  C   UNL     1      18.553   1.495  33.336  1.00  0.00     0.004 C 
ENDBRANCH  30  31
ENDBRANCH  29  30
ENDBRANCH  28  29
ENDBRANCH  27  28
ENDBRANCH  26  27
ENDBRANCH  25  26
ENDBRANCH  24  25
ENDBRANCH  23  24
ENDBRANCH  22  23
ENDBRANCH  21  22
ENDBRANCH  20  21
ENDBRANCH  19  20
ENDBRANCH  18  19
ENDBRANCH   1  18
TORSDOF 28
ENDMDL
MODEL 7
REMARK VINA RESULT:    -2.835      2.668      5.732
REMARK INTER + INTRA:         -13.616
REMARK INTER:                  -7.053
REMARK INTRA:                  -6.563
REMARK UNBOUND:                -6.140
REMARK SMILES CCCCCCCCCCCCCCCCCCCCCCCCCCCCCC(=O)[O-]
REMARK SMILES IDX 16 1 17 2 18 3 19 4 20 5 21 6 22 7 23 8 24 9 25 10 26 11
REMARK SMILES IDX 27 12 28 13 29 14 30 15 31 16 32 17 15 18 14 19 13 20 12 21
REMARK SMILES IDX 11 22 10 23 9 24 8 25 7 26 6 27 5 28 4 29 3 30 2 31 1 32
REMARK H PARENT
REMARK Flexibility Score: inf
ROOT
ATOM      1  C   UNL     1       9.850   3.234  33.187  1.00  0.00     0.000 C 
ENDROOT
BRANCH   1   2
ATOM      2  C   UNL     1       9.320   4.680  33.266  1.00  0.00     0.000 C 
BRANCH   2   3
ATOM      3  C   UNL     1       9.885   5.522  34.426  1.00  0.00     0.000 C 
BRANCH   3   4
ATOM      4  C   UNL     1      10.431   6.886  33.968  1.00  0.00     0.000 C 
BRANCH   4   5
ATOM      5  C   UNL     1      10.904   6.873  32.505  1.00  0.00     0.000 C 
BRANCH   5   6
ATOM      6  C   UNL     1      10.124   7.851  31.615  1.00  0.00     0.000 C 
BRANCH   6   7
ATOM      7  C   UNL     1       9.048   7.111  30.804  1.00  0.00     0.000 C 
BRANCH   7   8
ATOM      8  C   UNL     1       9.582   6.540  29.482  1.00  0.00     0.000 C 
BRANCH   8   9
ATOM      9  C   UNL     1       9.693   5.006  29.495  1.00  0.00     0.000 C 
BRANCH   9  10
ATOM     10  C   UNL     1      11.136   4.525  29.268  1.00  0.00     0.000 C 
BRANCH  10  11
ATOM     11  C   UNL     1      12.148   5.681  29.267  1.00  0.00     0.000 C 
BRANCH  11  12
ATOM     12  C   UNL     1      13.436   5.282  28.529  1.00  0.00     0.000 C 
BRANCH  12  13
ATOM     13  C   UNL     1      13.362   3.858  27.953  1.00  0.00     0.006 C 
BRANCH  13  14
ATOM     14  C   UNL     1      14.727   3.353  27.465  1.00  0.00     0.053 C 
BRANCH  14  15
ATOM     15  C   UNL     1      14.601   1.971  26.903  1.00  0.00     0.041 C 
ATOM     16  O   UNL     1      14.602   0.971  27.672  1.00  0.00    -0.550 OA
ATOM     17  O   UNL     1      14.452   1.786  25.535  1.00  0.00    -0.550 OA
ENDBRANCH  14  15
ENDBRANCH  13  14
ENDBRANCH  12  13
ENDBRANCH  11  12
ENDBRANCH  10  11
ENDBRANCH   9  10
ENDBRANCH   8   9
ENDBRANCH   7   8
ENDBRANCH   6   7
ENDBRANCH   5   6
ENDBRANCH   4   5
ENDBRANCH   3   4
ENDBRANCH   2   3
ENDBRANCH   1   2
BRANCH   1  18
ATOM     18  C   UNL     1       9.223   2.361  32.082  1.00  0.00     0.000 C 
BRANCH  18  19
ATOM     19  C   UNL     1      10.224   1.489  31.301  1.00  0.00     0.000 C 
BRANCH  19  20
ATOM     20  C   UNL     1      11.124   0.648  32.224  1.00  0.00     0.000 C 
BRANCH  20  21
ATOM     21  C   UNL     1      12.539   0.452  31.638  1.00  0.00     0.000 C 
BRANCH  21  22
ATOM     22  C   UNL     1      13.044   1.655  30.824  1.00  0.00     0.000 C 
BRANCH  22  23
ATOM     23  C   UNL     1      14.439   2.131  31.265  1.00  0.00     0.000 C 
BRANCH  23  24
ATOM     24  C   UNL     1      14.486   3.637  31.564  1.00  0.00    -0.000 C 
BRANCH  24  25
ATOM     25  C   UNL     1      13.294   4.119  32.405  1.00  0.00    -0.000 C 
BRANCH  25  26
ATOM     26  C   UNL     1      13.769   4.712  33.741  1.00  0.00    -0.000 C 
BRANCH  26  27
ATOM     27  C   UNL     1      13.105   4.046  34.957  1.00  0.00    -0.000 C 
BRANCH  27  28
ATOM     28  C   UNL     1      13.192   2.510  34.920  1.00  0.00    -0.000 C 
BRANCH  28  29
ATOM     29  C   UNL     1      12.021   1.834  35.652  1.00  0.00    -0.000 C 
BRANCH  29  30
ATOM     30  C   UNL     1      11.841   2.351  37.087  1.00  0.00    -0.000 C 
BRANCH  30  31
ATOM     31  C   UNL     1      10.447   2.001  37.624  1.00  0.00    -0.003 C 
ATOM     32  C   UNL     1       9.354   2.676  36.802  1.00  0.00     0.004 C 
ENDBRANCH  30  31
ENDBRANCH  29  30
ENDBRANCH  28  29
ENDBRANCH  27  28
ENDBRANCH  26  27
ENDBRANCH  25  26
ENDBRANCH  24  25
ENDBRANCH  23  24
ENDBRANCH  22  23
ENDBRANCH  21  22
ENDBRANCH  20  21
ENDBRANCH  19  20
ENDBRANCH  18  19
ENDBRANCH   1  18
TORSDOF 28
ENDMDL
MODEL 8
REMARK VINA RESULT:    -2.834      1.919      5.362
REMARK INTER + INTRA:         -13.614
REMARK INTER:                  -6.892
REMARK INTRA:                  -6.722
REMARK UNBOUND:                -6.140
REMARK SMILES CCCCCCCCCCCCCCCCCCCCCCCCCCCCCC(=O)[O-]
REMARK SMILES IDX 16 1 17 2 18 3 19 4 20 5 21 6 22 7 23 8 24 9 25 10 26 11
REMARK SMILES IDX 27 12 28 13 29 14 30 15 31 16 32 17 15 18 14 19 13 20 12 21
REMARK SMILES IDX 11 22 10 23 9 24 8 25 7 26 6 27 5 28 4 29 3 30 2 31 1 32
REMARK H PARENT
REMARK Flexibility Score: inf
ROOT
ATOM      1  C   UNL     1      11.217   1.693  32.955  1.00  0.00     0.000 C 
ENDROOT
BRANCH   1   2
ATOM      2  C   UNL     1      10.277   1.010  31.942  1.00  0.00     0.000 C 
BRANCH   2   3
ATOM      3  C   UNL     1       9.109   1.882  31.442  1.00  0.00     0.000 C 
BRANCH   3   4
ATOM      4  C   UNL     1       9.262   2.305  29.970  1.00  0.00     0.000 C 
BRANCH   4   5
ATOM      5  C   UNL     1       9.271   3.832  29.790  1.00  0.00     0.000 C 
BRANCH   5   6
ATOM      6  C   UNL     1      10.679   4.400  29.559  1.00  0.00     0.000 C 
BRANCH   6   7
ATOM      7  C   UNL     1      11.083   5.339  30.707  1.00  0.00     0.000 C 
BRANCH   7   8
ATOM      8  C   UNL     1      10.115   5.280  31.898  1.00  0.00     0.000 C 
BRANCH   8   9
ATOM      9  C   UNL     1      10.831   5.396  33.255  1.00  0.00     0.000 C 
BRANCH   9  10
ATOM     10  C   UNL     1      12.165   6.155  33.147  1.00  0.00     0.000 C 
BRANCH  10  11
ATOM     11  C   UNL     1      13.381   5.219  33.227  1.00  0.00     0.000 C 
BRANCH  11  12
ATOM     12  C   UNL     1      13.429   4.498  34.583  1.00  0.00     0.000 C 
BRANCH  12  13
ATOM     13  C   UNL     1      14.807   3.878  34.867  1.00  0.00     0.006 C 
BRANCH  13  14
ATOM     14  C   UNL     1      15.693   3.823  33.615  1.00  0.00     0.053 C 
BRANCH  14  15
ATOM     15  C   UNL     1      16.452   2.532  33.569  1.00  0.00     0.041 C 
ATOM     16  O   UNL     1      15.935   1.477  34.027  1.00  0.00    -0.550 OA
ATOM     17  O   UNL     1      17.715   2.488  32.996  1.00  0.00    -0.550 OA
ENDBRANCH  14  15
ENDBRANCH  13  14
ENDBRANCH  12  13
ENDBRANCH  11  12
ENDBRANCH  10  11
ENDBRANCH   9  10
ENDBRANCH   8   9
ENDBRANCH   7   8
ENDBRANCH   6   7
ENDBRANCH   5   6
ENDBRANCH   4   5
ENDBRANCH   3   4
ENDBRANCH   2   3
ENDBRANCH   1   2
BRANCH   1  18
ATOM     18  C   UNL     1      12.720   1.607  32.623  1.00  0.00     0.000 C 
BRANCH  18  19
ATOM     19  C   UNL     1      13.124   2.252  31.285  1.00  0.00     0.000 C 
BRANCH  19  20
ATOM     20  C   UNL     1      14.347   1.573  30.643  1.00  0.00     0.000 C 
BRANCH  20  21
ATOM     21  C   UNL     1      14.030   0.998  29.245  1.00  0.00     0.000 C 
BRANCH  21  22
ATOM     22  C   UNL     1      12.545   1.103  28.855  1.00  0.00     0.000 C 
BRANCH  22  23
ATOM     23  C   UNL     1      12.326   1.867  27.538  1.00  0.00     0.000 C 
BRANCH  23  24
ATOM     24  C   UNL     1      13.583   2.614  27.068  1.00  0.00    -0.000 C 
BRANCH  24  25
ATOM     25  C   UNL     1      13.369   4.131  26.949  1.00  0.00    -0.000 C 
BRANCH  25  26
ATOM     26  C   UNL     1      13.893   4.860  28.196  1.00  0.00    -0.000 C 
BRANCH  26  27
ATOM     27  C   UNL     1      15.343   4.483  28.540  1.00  0.00    -0.000 C 
BRANCH  27  28
ATOM     28  C   UNL     1      15.750   4.909  29.962  1.00  0.00    -0.000 C 
BRANCH  28  29
ATOM     29  C   UNL     1      17.235   4.639  30.257  1.00  0.00    -0.000 C 
BRANCH  29  30
ATOM     30  C   UNL     1      18.010   4.167  29.018  1.00  0.00    -0.000 C 
BRANCH  30  31
ATOM     31  C   UNL     1      18.743   2.849  29.300  1.00  0.00    -0.003 C 
ATOM     32  C   UNL     1      17.776   1.669  29.295  1.00  0.00     0.004 C 
ENDBRANCH  30  31
ENDBRANCH  29  30
ENDBRANCH  28  29
ENDBRANCH  27  28
ENDBRANCH  26  27
ENDBRANCH  25  26
ENDBRANCH  24  25
ENDBRANCH  23  24
ENDBRANCH  22  23
ENDBRANCH  21  22
ENDBRANCH  20  21
ENDBRANCH  19  20
ENDBRANCH  18  19
ENDBRANCH   1  18
TORSDOF 28
ENDMDL
MODEL 9
REMARK VINA RESULT:    -2.809      2.177      5.263
REMARK INTER + INTRA:         -13.546
REMARK INTER:                  -7.909
REMARK INTRA:                  -5.638
REMARK UNBOUND:                -6.140
REMARK SMILES CCCCCCCCCCCCCCCCCCCCCCCCCCCCCC(=O)[O-]
REMARK SMILES IDX 16 1 17 2 18 3 19 4 20 5 21 6 22 7 23 8 24 9 25 10 26 11
REMARK SMILES IDX 27 12 28 13 29 14 30 15 31 16 32 17 15 18 14 19 13 20 12 21
REMARK SMILES IDX 11 22 10 23 9 24 8 25 7 26 6 27 5 28 4 29 3 30 2 31 1 32
REMARK H PARENT
REMARK Flexibility Score: inf
ROOT
ATOM      1  C   UNL     1      14.376   3.638  34.511  1.00  0.00     0.000 C 
ENDROOT
BRANCH   1   2
ATOM      2  C   UNL     1      13.862   4.876  33.748  1.00  0.00     0.000 C 
BRANCH   2   3
ATOM      3  C   UNL     1      13.256   4.585  32.362  1.00  0.00     0.000 C 
BRANCH   3   4
ATOM      4  C   UNL     1      13.888   3.362  31.674  1.00  0.00     0.000 C 
BRANCH   4   5
ATOM      5  C   UNL     1      13.946   3.508  30.144  1.00  0.00     0.000 C 
BRANCH   5   6
ATOM      6  C   UNL     1      14.113   4.965  29.688  1.00  0.00     0.000 C 
BRANCH   6   7
ATOM      7  C   UNL     1      13.580   5.152  28.258  1.00  0.00     0.000 C 
BRANCH   7   8
ATOM      8  C   UNL     1      12.877   3.900  27.712  1.00  0.00     0.000 C 
BRANCH   8   9
ATOM      9  C   UNL     1      13.047   3.736  26.192  1.00  0.00     0.000 C 
BRANCH   9  10
ATOM     10  C   UNL     1      14.397   3.097  25.822  1.00  0.00     0.000 C 
BRANCH  10  11
ATOM     11  C   UNL     1      14.806   1.983  26.798  1.00  0.00     0.000 C 
BRANCH  11  12
ATOM     12  C   UNL     1      16.332   1.951  26.983  1.00  0.00     0.000 C 
BRANCH  12  13
ATOM     13  C   UNL     1      16.938   3.360  27.089  1.00  0.00     0.006 C 
BRANCH  13  14
ATOM     14  C   UNL     1      17.371   3.704  28.521  1.00  0.00     0.053 C 
BRANCH  14  15
ATOM     15  C   UNL     1      18.858   3.867  28.591  1.00  0.00     0.041 C 
ATOM     16  O   UNL     1      19.461   3.720  29.688  1.00  0.00    -0.550 OA
ATOM     17  O   UNL     1      19.581   4.153  27.441  1.00  0.00    -0.550 OA
ENDBRANCH  14  15
ENDBRANCH  13  14
ENDBRANCH  12  13
ENDBRANCH  11  12
ENDBRANCH  10  11
ENDBRANCH   9  10
ENDBRANCH   8   9
ENDBRANCH   7   8
ENDBRANCH   6   7
ENDBRANCH   5   6
ENDBRANCH   4   5
ENDBRANCH   3   4
ENDBRANCH   2   3
ENDBRANCH   1   2
BRANCH   1  18
ATOM     18  C   UNL     1      13.922   3.534  35.981  1.00  0.00     0.000 C 
BRANCH  18  19
ATOM     19  C   UNL     1      12.530   4.124  36.272  1.00  0.00     0.000 C 
BRANCH  19  20
ATOM     20  C   UNL     1      11.395   3.114  36.026  1.00  0.00     0.000 C 
BRANCH  20  21
ATOM     21  C   UNL     1      10.097   3.801  35.547  1.00  0.00     0.000 C 
BRANCH  21  22
ATOM     22  C   UNL     1      10.118   4.198  34.061  1.00  0.00     0.000 C 
BRANCH  22  23
ATOM     23  C   UNL     1       9.618   5.633  33.819  1.00  0.00     0.000 C 
BRANCH  23  24
ATOM     24  C   UNL     1      10.677   6.695  34.153  1.00  0.00    -0.000 C 
BRANCH  24  25
ATOM     25  C   UNL     1      11.077   7.545  32.937  1.00  0.00    -0.000 C 
BRANCH  25  26
ATOM     26  C   UNL     1       9.952   7.570  31.890  1.00  0.00    -0.000 C 
BRANCH  26  27
ATOM     27  C   UNL     1      10.398   7.026  30.524  1.00  0.00    -0.000 C 
BRANCH  27  28
ATOM     28  C   UNL     1       9.620   5.769  30.098  1.00  0.00    -0.000 C 
BRANCH  28  29
ATOM     29  C   UNL     1      10.435   4.478  30.284  1.00  0.00    -0.000 C 
BRANCH  29  30
ATOM     30  C   UNL     1       9.648   3.218  29.893  1.00  0.00    -0.000 C 
BRANCH  30  31
ATOM     31  C   UNL     1      10.419   1.950  30.280  1.00  0.00    -0.003 C 
ATOM     32  C   UNL     1      10.011   1.458  31.666  1.00  0.00     0.004 C 
ENDBRANCH  30  31
ENDBRANCH  29  30
ENDBRANCH  28  29
ENDBRANCH  27  28
ENDBRANCH  26  27
ENDBRANCH  25  26
ENDBRANCH  24  25
ENDBRANCH  23  24
ENDBRANCH  22  23
ENDBRANCH  21  22
ENDBRANCH  20  21
ENDBRANCH  19  20
ENDBRANCH  18  19
ENDBRANCH   1  18
TORSDOF 28
ENDMDL
