MODEL 1
REMARK VINA RESULT:     1.756      0.000      0.000
REMARK INTER + INTRA:           2.229
REMARK INTER:                   2.372
REMARK INTRA:                  -0.143
REMARK UNBOUND:                -0.143
REMARK SMILES CCCCCCCC(=O)[O-]
REMARK SMILES IDX 5 1 6 2 7 3 8 4 9 5 10 6 4 7 3 8 2 9 1 10
REMARK H PARENT
REMARK Flexibility Score: inf
ROOT
ATOM      1  C   UNL     1       1.500 -50.314   8.540  1.00  0.00     0.000 C 
ENDROOT
BRANCH   1   2
ATOM      2  C   UNL     1       2.900 -50.924   8.713  1.00  0.00     0.006 C 
BRANCH   2   3
ATOM      3  C   UNL     1       3.125 -51.484  10.124  1.00  0.00     0.053 C 
BRANCH   3   4
ATOM      4  C   UNL     1       3.852 -52.791  10.055  1.00  0.00     0.041 C 
ATOM      5  O   UNL     1       3.215 -53.876  10.125  1.00  0.00    -0.550 OA
ATOM      6  O   UNL     1       5.228 -52.812   9.866  1.00  0.00    -0.550 OA
ENDBRANCH   3   4
ENDBRANCH   2   3
ENDBRANCH   1   2
BRANCH   1   7
ATOM      7  C   UNL     1       0.927 -49.765   9.858  1.00  0.00     0.000 C 
BRANCH   7   8
ATOM      8  C   UNL     1      -0.546 -50.173  10.068  1.00  0.00    -0.000 C 
BRANCH   8   9
ATOM      9  C   UNL     1      -0.766 -51.695  10.090  1.00  0.00    -0.003 C 
ATOM     10  C   UNL     1      -1.069 -52.277   8.711  1.00  0.00     0.004 C 
ENDBRANCH   8   9
ENDBRANCH   7   8
ENDBRANCH   1   7
TORSDOF 6
ENDMDL
MODEL 2
REMARK VINA RESULT:     3.132     20.336     21.999
REMARK INTER + INTRA:           4.088
REMARK INTER:                   4.271
REMARK INTRA:                  -0.183
REMARK UNBOUND:                -0.143
REMARK SMILES CCCCCCCC(=O)[O-]
REMARK SMILES IDX 5 1 6 2 7 3 8 4 9 5 10 6 4 7 3 8 2 9 1 10
REMARK H PARENT
REMARK Flexibility Score: inf
ROOT
ATOM      1  C   UNL     1      18.418 -57.757  -1.823  1.00  0.00     0.000 C 
ENDROOT
BRANCH   1   2
ATOM      2  C   UNL     1      17.477 -56.544  -1.899  1.00  0.00     0.006 C 
BRANCH   2   3
ATOM      3  C   UNL     1      16.871 -56.358  -3.297  1.00  0.00     0.053 C 
BRANCH   3   4
ATOM      4  C   UNL     1      17.412 -55.119  -3.938  1.00  0.00     0.041 C 
ATOM      5  O   UNL     1      17.662 -54.101  -3.240  1.00  0.00    -0.550 OA
ATOM      6  O   UNL     1      17.685 -55.104  -5.300  1.00  0.00    -0.550 OA
ENDBRANCH   3   4
ENDBRANCH   2   3
ENDBRANCH   1   2
BRANCH   1   7
ATOM      7  C   UNL     1      18.076 -58.837  -2.865  1.00  0.00     0.000 C 
BRANCH   7   8
ATOM      8  C   UNL     1      19.081 -60.007  -2.843  1.00  0.00    -0.000 C 
BRANCH   8   9
ATOM      9  C   UNL     1      18.506 -61.322  -3.397  1.00  0.00    -0.003 C 
ATOM     10  C   UNL     1      19.125 -62.563  -2.757  1.00  0.00     0.004 C 
ENDBRANCH   8   9
ENDBRANCH   7   8
ENDBRANCH   1   7
TORSDOF 6
ENDMDL
MODEL 3
REMARK VINA RESULT:     3.306     20.322     21.582
REMARK INTER + INTRA:           4.323
REMARK INTER:                   4.731
REMARK INTRA:                  -0.408
REMARK UNBOUND:                -0.143
REMARK SMILES CCCCCCCC(=O)[O-]
REMARK SMILES IDX 5 1 6 2 7 3 8 4 9 5 10 6 4 7 3 8 2 9 1 10
REMARK H PARENT
REMARK Flexibility Score: inf
ROOT
ATOM      1  C   UNL     1      18.925 -57.346  -1.726  1.00  0.00     0.000 C 
ENDROOT
BRANCH   1   2
ATOM      2  C   UNL     1      17.641 -56.502  -1.684  1.00  0.00     0.006 C 
BRANCH   2   3
ATOM      3  C   UNL     1      16.986 -56.360  -3.064  1.00  0.00     0.053 C 
BRANCH   3   4
ATOM      4  C   UNL     1      17.491 -55.134  -3.756  1.00  0.00     0.041 C 
ATOM      5  O   UNL     1      17.627 -55.122  -5.009  1.00  0.00    -0.550 OA
ATOM      6  O   UNL     1      17.765 -53.985  -3.024  1.00  0.00    -0.550 OA
ENDBRANCH   3   4
ENDBRANCH   2   3
ENDBRANCH   1   2
BRANCH   1   7
ATOM      7  C   UNL     1      19.018 -58.217  -2.991  1.00  0.00     0.000 C 
BRANCH   7   8
ATOM      8  C   UNL     1      19.125 -59.720  -2.657  1.00  0.00    -0.000 C 
BRANCH   8   9
ATOM      9  C   UNL     1      17.925 -60.547  -3.149  1.00  0.00    -0.003 C 
ATOM     10  C   UNL     1      16.582 -59.992  -2.679  1.00  0.00     0.004 C 
ENDBRANCH   8   9
ENDBRANCH   7   8
ENDBRANCH   1   7
TORSDOF 6
ENDMDL
MODEL 4
REMARK VINA RESULT:     4.220     19.892     20.870
REMARK INTER + INTRA:           5.557
REMARK INTER:                   6.022
REMARK INTRA:                  -0.464
REMARK UNBOUND:                -0.143
REMARK SMILES CCCCCCCC(=O)[O-]
REMARK SMILES IDX 5 1 6 2 7 3 8 4 9 5 10 6 4 7 3 8 2 9 1 10
REMARK H PARENT
REMARK Flexibility Score: inf
ROOT
ATOM      1  C   UNL     1      18.832 -58.408  -2.583  1.00  0.00     0.000 C 
ENDROOT
BRANCH   1   2
ATOM      2  C   UNL     1      18.094 -57.480  -1.605  1.00  0.00     0.006 C 
BRANCH   2   3
ATOM      3  C   UNL     1      18.241 -55.998  -1.976  1.00  0.00     0.053 C 
BRANCH   3   4
ATOM      4  C   UNL     1      17.159 -55.589  -2.925  1.00  0.00     0.041 C 
ATOM      5  O   UNL     1      15.958 -55.561  -2.543  1.00  0.00    -0.550 OA
ATOM      6  O   UNL     1      17.479 -55.192  -4.216  1.00  0.00    -0.550 OA
ENDBRANCH   3   4
ENDBRANCH   2   3
ENDBRANCH   1   2
BRANCH   1   7
ATOM      7  C   UNL     1      17.989 -59.628  -2.991  1.00  0.00     0.000 C 
BRANCH   7   8
ATOM      8  C   UNL     1      16.508 -59.475  -2.584  1.00  0.00    -0.000 C 
BRANCH   8   9
ATOM      9  C   UNL     1      15.529 -59.615  -3.761  1.00  0.00    -0.003 C 
ATOM     10  C   UNL     1      14.679 -58.366  -3.985  1.00  0.00     0.004 C 
ENDBRANCH   8   9
ENDBRANCH   7   8
ENDBRANCH   1   7
TORSDOF 6
ENDMDL
