MODEL 1
REMARK VINA RESULT:    -8.506      0.000      0.000
REMARK INTER + INTRA:         -11.079
REMARK INTER:                 -11.489
REMARK INTRA:                   0.411
REMARK UNBOUND:                 0.411
REMARK SMILES O=c1c(-c2ccc(O)cc2)coc2c([C@H]3O[C@H](CO)[C@H](O)[C@H](O)[C@H]3O)c(O)ccc12
REMARK SMILES IDX 3 1 11 2 12 3 13 4 30 5 2 6 1 7 29 8 28 9 26 10 14 11 4 12
REMARK SMILES IDX 5 13 6 14 7 15 10 16 9 17 8 18 15 20 24 21 16 22 22 23 17 24
REMARK SMILES IDX 20 25 25 26 23 28 18 30 19 31 21 33 27 35
REMARK H PARENT 8 19 25 27 23 29 19 32 21 34 27 36
REMARK Flexibility Score: inf
ROOT
ATOM      1  C   UNL     1      55.812  48.983  24.913  1.00  0.00     0.065 A 
ATOM      2  C   UNL     1      55.930  48.419  23.636  1.00  0.00     0.208 A 
ATOM      3  O   UNL     1      57.078  48.472  22.970  1.00  0.00    -0.463 OA
ATOM      4  C   UNL     1      58.176  49.051  23.451  1.00  0.00     0.147 A 
ATOM      5  C   UNL     1      58.141  49.653  24.731  1.00  0.00     0.066 A 
ATOM      6  C   UNL     1      56.940  49.618  25.462  1.00  0.00     0.200 A 
ATOM      7  O   UNL     1      56.867  50.171  26.595  1.00  0.00    -0.288 OA
ATOM      8  C   UNL     1      59.289  50.274  25.233  1.00  0.00     0.020 A 
ATOM      9  C   UNL     1      60.456  50.302  24.478  1.00  0.00     0.047 A 
ATOM     10  C   UNL     1      60.508  49.713  23.208  1.00  0.00     0.125 A 
ATOM     11  C   UNL     1      59.364  49.061  22.672  1.00  0.00     0.069 A 
ENDROOT
BRANCH   1  12
ATOM     12  C   UNL     1      54.520  48.905  25.640  1.00  0.00    -0.011 A 
ATOM     13  C   UNL     1      53.351  48.509  24.968  1.00  0.00     0.013 A 
ATOM     14  C   UNL     1      52.134  48.428  25.652  1.00  0.00     0.047 A 
ATOM     15  C   UNL     1      52.073  48.733  27.018  1.00  0.00     0.115 A 
ATOM     16  C   UNL     1      54.451  49.203  27.013  1.00  0.00     0.013 A 
ATOM     17  C   UNL     1      53.234  49.120  27.694  1.00  0.00     0.047 A 
BRANCH  15  18
ATOM     18  O   UNL     1      50.866  48.654  27.711  1.00  0.00    -0.508 OA
ATOM     19  H   UNL     1      49.981  48.566  27.224  1.00  0.00     0.293 HD
ENDBRANCH  15  18
ENDBRANCH   1  12
BRANCH  11  20
ATOM     20  C   UNL     1      59.280  48.404  21.280  1.00  0.00     0.188 C 
ATOM     21  C   UNL     1      60.550  47.916  20.514  1.00  0.00     0.179 C 
ATOM     22  O   UNL     1      58.405  49.137  20.436  1.00  0.00    -0.362 OA
ATOM     23  C   UNL     1      61.201  49.010  19.632  1.00  0.00     0.177 C 
ATOM     24  C   UNL     1      59.051  50.268  19.881  1.00  0.00     0.176 C 
ATOM     25  C   UNL     1      60.127  49.810  18.875  1.00  0.00     0.177 C 
BRANCH  21  26
ATOM     26  O   UNL     1      61.477  47.337  21.396  1.00  0.00    -0.387 OA
ATOM     27  H   UNL     1      61.140  47.495  22.316  1.00  0.00     0.211 HD
ENDBRANCH  21  26
BRANCH  23  28
ATOM     28  O   UNL     1      62.084  48.408  18.719  1.00  0.00    -0.387 OA
ATOM     29  H   UNL     1      61.587  47.667  18.282  1.00  0.00     0.211 HD
ENDBRANCH  23  28
BRANCH  24  30
ATOM     30  C   UNL     1      57.989  51.159  19.220  1.00  0.00     0.191 C 
BRANCH  30  31
ATOM     31  O   UNL     1      57.151  50.407  18.383  1.00  0.00    -0.394 OA
ATOM     32  H   UNL     1      57.088  49.501  18.784  1.00  0.00     0.210 HD
ENDBRANCH  30  31
ENDBRANCH  24  30
BRANCH  25  33
ATOM     33  O   UNL     1      59.553  49.001  17.878  1.00  0.00    -0.388 OA
ATOM     34  H   UNL     1      60.296  48.654  17.319  1.00  0.00     0.211 HD
ENDBRANCH  25  33
ENDBRANCH  11  20
BRANCH  10  35
ATOM     35  O   UNL     1      61.705  49.789  22.506  1.00  0.00    -0.507 OA
ATOM     36  H   UNL     1      61.918  49.166  21.736  1.00  0.00     0.293 HD
ENDBRANCH  10  35
TORSDOF 9
ENDMDL
MODEL 2
REMARK VINA RESULT:    -8.147      2.704      5.189
REMARK INTER + INTRA:         -10.594
REMARK INTER:                 -10.557
REMARK INTRA:                  -0.037
REMARK UNBOUND:                 0.411
REMARK SMILES O=c1c(-c2ccc(O)cc2)coc2c([C@H]3O[C@H](CO)[C@H](O)[C@H](O)[C@H]3O)c(O)ccc12
REMARK SMILES IDX 3 1 11 2 12 3 13 4 30 5 2 6 1 7 29 8 28 9 26 10 14 11 4 12
REMARK SMILES IDX 5 13 6 14 7 15 10 16 9 17 8 18 15 20 24 21 16 22 22 23 17 24
REMARK SMILES IDX 20 25 25 26 23 28 18 30 19 31 21 33 27 35
REMARK H PARENT 8 19 25 27 23 29 19 32 21 34 27 36
REMARK Flexibility Score: inf
ROOT
ATOM      1  C   UNL     1      59.797  49.497  25.812  1.00  0.00     0.065 A 
ATOM      2  C   UNL     1      60.685  49.845  24.786  1.00  0.00     0.208 A 
ATOM      3  O   UNL     1      60.295  49.843  23.517  1.00  0.00    -0.463 OA
ATOM      4  C   UNL     1      59.063  49.517  23.131  1.00  0.00     0.147 A 
ATOM      5  C   UNL     1      58.105  49.146  24.103  1.00  0.00     0.066 A 
ATOM      6  C   UNL     1      58.486  49.134  25.457  1.00  0.00     0.200 A 
ATOM      7  O   UNL     1      57.663  48.779  26.347  1.00  0.00    -0.288 OA
ATOM      8  C   UNL     1      56.813  48.791  23.700  1.00  0.00     0.020 A 
ATOM      9  C   UNL     1      56.475  48.800  22.352  1.00  0.00     0.047 A 
ATOM     10  C   UNL     1      57.411  49.163  21.375  1.00  0.00     0.125 A 
ATOM     11  C   UNL     1      58.729  49.543  21.750  1.00  0.00     0.069 A 
ENDROOT
BRANCH   1  12
ATOM     12  C   UNL     1      60.255  49.514  27.225  1.00  0.00    -0.011 A 
ATOM     13  C   UNL     1      59.627  50.350  28.164  1.00  0.00     0.013 A 
ATOM     14  C   UNL     1      60.052  50.362  29.496  1.00  0.00     0.047 A 
ATOM     15  C   UNL     1      61.104  49.533  29.907  1.00  0.00     0.115 A 
ATOM     16  C   UNL     1      61.306  48.680  27.647  1.00  0.00     0.013 A 
ATOM     17  C   UNL     1      61.728  48.693  28.979  1.00  0.00     0.047 A 
BRANCH  15  18
ATOM     18  O   UNL     1      61.535  49.536  31.232  1.00  0.00    -0.508 OA
ATOM     19  H   UNL     1      61.542  50.385  31.785  1.00  0.00     0.293 HD
ENDBRANCH  15  18
ENDBRANCH   1  12
BRANCH  11  20
ATOM     20  C   UNL     1      59.858  49.933  20.775  1.00  0.00     0.188 C 
ATOM     21  C   UNL     1      59.567  50.499  19.350  1.00  0.00     0.179 C 
ATOM     22  O   UNL     1      60.860  48.927  20.748  1.00  0.00    -0.362 OA
ATOM     23  C   UNL     1      59.412  49.403  18.266  1.00  0.00     0.177 C 
ATOM     24  C   UNL     1      60.486  47.849  19.910  1.00  0.00     0.176 C 
ATOM     25  C   UNL     1      60.483  48.313  18.439  1.00  0.00     0.177 C 
BRANCH  21  26
ATOM     26  O   UNL     1      58.466  51.370  19.372  1.00  0.00    -0.387 OA
ATOM     27  H   UNL     1      58.263  51.559  20.325  1.00  0.00     0.211 HD
ENDBRANCH  21  26
BRANCH  23  28
ATOM     28  O   UNL     1      59.522  49.988  16.994  1.00  0.00    -0.387 OA
ATOM     29  H   UNL     1      60.007  49.341  16.418  1.00  0.00     0.211 HD
ENDBRANCH  23  28
BRANCH  24  30
ATOM     30  C   UNL     1      61.464  46.689  20.145  1.00  0.00     0.191 C 
BRANCH  30  31
ATOM     31  O   UNL     1      62.123  46.826  21.375  1.00  0.00    -0.394 OA
ATOM     32  H   UNL     1      61.773  46.111  21.967  1.00  0.00     0.210 HD
ENDBRANCH  30  31
ENDBRANCH  24  30
BRANCH  25  33
ATOM     33  O   UNL     1      61.742  48.830  18.085  1.00  0.00    -0.388 OA
ATOM     34  H   UNL     1      62.240  48.102  17.629  1.00  0.00     0.211 HD
ENDBRANCH  25  33
ENDBRANCH  11  20
BRANCH  10  35
ATOM     35  O   UNL     1      57.005  49.140  20.047  1.00  0.00    -0.507 OA
ATOM     36  H   UNL     1      56.366  49.828  19.666  1.00  0.00     0.293 HD
ENDBRANCH  10  35
TORSDOF 9
ENDMDL
MODEL 3
REMARK VINA RESULT:    -8.138      3.611     10.082
REMARK INTER + INTRA:         -10.582
REMARK INTER:                 -10.123
REMARK INTRA:                  -0.459
REMARK UNBOUND:                 0.411
REMARK SMILES O=c1c(-c2ccc(O)cc2)coc2c([C@H]3O[C@H](CO)[C@H](O)[C@H](O)[C@H]3O)c(O)ccc12
REMARK SMILES IDX 3 1 11 2 12 3 13 4 30 5 2 6 1 7 29 8 28 9 26 10 14 11 4 12
REMARK SMILES IDX 5 13 6 14 7 15 10 16 9 17 8 18 15 20 24 21 16 22 22 23 17 24
REMARK SMILES IDX 20 25 25 26 23 28 18 30 19 31 21 33 27 35
REMARK H PARENT 8 19 25 27 23 29 19 32 21 34 27 36
REMARK Flexibility Score: inf
ROOT
ATOM      1  C   UNL     1      57.597  49.497  26.122  1.00  0.00     0.065 A 
ATOM      2  C   UNL     1      56.715  48.502  26.564  1.00  0.00     0.208 A 
ATOM      3  O   UNL     1      55.975  48.682  27.652  1.00  0.00    -0.463 OA
ATOM      4  C   UNL     1      56.013  49.790  28.388  1.00  0.00     0.147 A 
ATOM      5  C   UNL     1      56.883  50.842  28.016  1.00  0.00     0.066 A 
ATOM      6  C   UNL     1      57.684  50.684  26.871  1.00  0.00     0.200 A 
ATOM      7  O   UNL     1      58.492  51.592  26.529  1.00  0.00    -0.288 OA
ATOM      8  C   UNL     1      56.935  52.003  28.794  1.00  0.00     0.020 A 
ATOM      9  C   UNL     1      56.139  52.120  29.928  1.00  0.00     0.047 A 
ATOM     10  C   UNL     1      55.273  51.089  30.312  1.00  0.00     0.125 A 
ATOM     11  C   UNL     1      55.185  49.901  29.537  1.00  0.00     0.069 A 
ENDROOT
BRANCH   1  12
ATOM     12  C   UNL     1      58.409  49.275  24.899  1.00  0.00    -0.011 A 
ATOM     13  C   UNL     1      59.778  48.972  25.002  1.00  0.00     0.013 A 
ATOM     14  C   UNL     1      60.543  48.755  23.851  1.00  0.00     0.047 A 
ATOM     15  C   UNL     1      59.948  48.833  22.586  1.00  0.00     0.115 A 
ATOM     16  C   UNL     1      57.819  49.344  23.624  1.00  0.00     0.013 A 
ATOM     17  C   UNL     1      58.586  49.127  22.477  1.00  0.00     0.047 A 
BRANCH  15  18
ATOM     18  O   UNL     1      60.701  48.617  21.433  1.00  0.00    -0.508 OA
ATOM     19  H   UNL     1      61.646  48.254  21.477  1.00  0.00     0.293 HD
ENDBRANCH  15  18
ENDBRANCH   1  12
BRANCH  11  20
ATOM     20  C   UNL     1      54.298  48.682  29.866  1.00  0.00     0.188 C 
ATOM     21  C   UNL     1      52.818  48.835  30.336  1.00  0.00     0.179 C 
ATOM     22  O   UNL     1      55.012  47.751  30.666  1.00  0.00    -0.362 OA
ATOM     23  C   UNL     1      52.666  48.987  31.870  1.00  0.00     0.177 C 
ATOM     24  C   UNL     1      55.015  48.138  32.028  1.00  0.00     0.176 C 
ATOM     25  C   UNL     1      53.592  48.007  32.608  1.00  0.00     0.177 C 
BRANCH  21  26
ATOM     26  O   UNL     1      52.176  49.874  29.643  1.00  0.00    -0.387 OA
ATOM     27  H   UNL     1      52.877  50.364  29.139  1.00  0.00     0.211 HD
ENDBRANCH  21  26
BRANCH  23  28
ATOM     28  O   UNL     1      51.329  48.750  32.231  1.00  0.00    -0.387 OA
ATOM     29  H   UNL     1      50.765  49.315  31.639  1.00  0.00     0.211 HD
ENDBRANCH  23  28
BRANCH  24  30
ATOM     30  C   UNL     1      56.025  47.259  32.780  1.00  0.00     0.191 C 
BRANCH  30  31
ATOM     31  O   UNL     1      55.517  46.862  34.027  1.00  0.00    -0.394 OA
ATOM     32  H   UNL     1      54.679  47.374  34.168  1.00  0.00     0.210 HD
ENDBRANCH  30  31
ENDBRANCH  24  30
BRANCH  25  33
ATOM     33  O   UNL     1      53.115  46.694  32.445  1.00  0.00    -0.388 OA
ATOM     34  H   UNL     1      52.125  46.746  32.396  1.00  0.00     0.211 HD
ENDBRANCH  25  33
ENDBRANCH  11  20
BRANCH  10  35
ATOM     35  O   UNL     1      54.515  51.272  31.462  1.00  0.00    -0.507 OA
ATOM     36  H   UNL     1      53.646  51.792  31.457  1.00  0.00     0.293 HD
ENDBRANCH  10  35
TORSDOF 9
ENDMDL
MODEL 4
REMARK VINA RESULT:    -8.007     15.549     17.591
REMARK INTER + INTRA:         -10.405
REMARK INTER:                 -10.421
REMARK INTRA:                   0.016
REMARK UNBOUND:                 0.411
REMARK SMILES O=c1c(-c2ccc(O)cc2)coc2c([C@H]3O[C@H](CO)[C@H](O)[C@H](O)[C@H]3O)c(O)ccc12
REMARK SMILES IDX 3 1 11 2 12 3 13 4 30 5 2 6 1 7 29 8 28 9 26 10 14 11 4 12
REMARK SMILES IDX 5 13 6 14 7 15 10 16 9 17 8 18 15 20 24 21 16 22 22 23 17 24
REMARK SMILES IDX 20 25 25 26 23 28 18 30 19 31 21 33 27 35
REMARK H PARENT 8 19 25 27 23 29 19 32 21 34 27 36
REMARK Flexibility Score: inf
ROOT
ATOM      1  C   UNL     1      49.792  34.554  25.300  1.00  0.00     0.065 A 
ATOM      2  C   UNL     1      49.906  35.828  24.728  1.00  0.00     0.208 A 
ATOM      3  O   UNL     1      48.836  36.466  24.267  1.00  0.00    -0.463 OA
ATOM      4  C   UNL     1      47.606  35.958  24.310  1.00  0.00     0.147 A 
ATOM      5  C   UNL     1      47.404  34.673  24.864  1.00  0.00     0.066 A 
ATOM      6  C   UNL     1      48.516  33.967  25.359  1.00  0.00     0.200 A 
ATOM      7  O   UNL     1      48.374  32.805  25.833  1.00  0.00    -0.288 OA
ATOM      8  C   UNL     1      46.115  34.130  24.899  1.00  0.00     0.020 A 
ATOM      9  C   UNL     1      45.041  34.850  24.389  1.00  0.00     0.047 A 
ATOM     10  C   UNL     1      45.222  36.123  23.835  1.00  0.00     0.125 A 
ATOM     11  C   UNL     1      46.516  36.711  23.796  1.00  0.00     0.069 A 
ENDROOT
BRANCH   1  12
ATOM     12  C   UNL     1      51.002  33.863  25.814  1.00  0.00    -0.011 A 
ATOM     13  C   UNL     1      51.256  32.525  25.466  1.00  0.00     0.013 A 
ATOM     14  C   UNL     1      52.399  31.875  25.944  1.00  0.00     0.047 A 
ATOM     15  C   UNL     1      53.304  32.557  26.767  1.00  0.00     0.115 A 
ATOM     16  C   UNL     1      51.920  34.542  26.636  1.00  0.00     0.013 A 
ATOM     17  C   UNL     1      53.061  33.890  27.111  1.00  0.00     0.047 A 
BRANCH  15  18
ATOM     18  O   UNL     1      54.446  31.919  27.248  1.00  0.00    -0.508 OA
ATOM     19  H   UNL     1      55.141  31.532  26.619  1.00  0.00     0.293 HD
ENDBRANCH  15  18
ENDBRANCH   1  12
BRANCH  11  20
ATOM     20  C   UNL     1      46.856  38.087  23.188  1.00  0.00     0.188 C 
ATOM     21  C   UNL     1      45.954  39.340  23.414  1.00  0.00     0.179 C 
ATOM     22  O   UNL     1      47.232  37.948  21.826  1.00  0.00    -0.362 OA
ATOM     23  C   UNL     1      44.820  39.487  22.369  1.00  0.00     0.177 C 
ATOM     24  C   UNL     1      46.098  37.838  20.986  1.00  0.00     0.176 C 
ATOM     25  C   UNL     1      45.342  39.182  20.955  1.00  0.00     0.177 C 
BRANCH  21  26
ATOM     26  O   UNL     1      45.459  39.371  24.728  1.00  0.00    -0.387 OA
ATOM     27  H   UNL     1      46.158  38.976  25.312  1.00  0.00     0.211 HD
ENDBRANCH  21  26
BRANCH  23  28
ATOM     28  O   UNL     1      44.307  40.794  22.420  1.00  0.00    -0.387 OA
ATOM     29  H   UNL     1      43.433  40.781  21.949  1.00  0.00     0.211 HD
ENDBRANCH  23  28
BRANCH  24  30
ATOM     30  C   UNL     1      46.568  37.411  19.587  1.00  0.00     0.191 C 
BRANCH  30  31
ATOM     31  O   UNL     1      47.921  37.037  19.603  1.00  0.00    -0.394 OA
ATOM     32  H   UNL     1      48.406  37.749  20.096  1.00  0.00     0.210 HD
ENDBRANCH  30  31
ENDBRANCH  24  30
BRANCH  25  33
ATOM     33  O   UNL     1      46.198  40.216  20.535  1.00  0.00    -0.388 OA
ATOM     34  H   UNL     1      45.672  40.806  19.934  1.00  0.00     0.211 HD
ENDBRANCH  25  33
ENDBRANCH  11  20
BRANCH  10  35
ATOM     35  O   UNL     1      44.104  36.780  23.336  1.00  0.00    -0.507 OA
ATOM     36  H   UNL     1      43.169  36.585  23.674  1.00  0.00     0.293 HD
ENDBRANCH  10  35
TORSDOF 9
ENDMDL
MODEL 5
REMARK VINA RESULT:    -7.928      1.731      8.125
REMARK INTER + INTRA:         -10.298
REMARK INTER:                 -11.117
REMARK INTRA:                   0.819
REMARK UNBOUND:                 0.411
REMARK SMILES O=c1c(-c2ccc(O)cc2)coc2c([C@H]3O[C@H](CO)[C@H](O)[C@H](O)[C@H]3O)c(O)ccc12
REMARK SMILES IDX 3 1 11 2 12 3 13 4 30 5 2 6 1 7 29 8 28 9 26 10 14 11 4 12
REMARK SMILES IDX 5 13 6 14 7 15 10 16 9 17 8 18 15 20 24 21 16 22 22 23 17 24
REMARK SMILES IDX 20 25 25 26 23 28 18 30 19 31 21 33 27 35
REMARK H PARENT 8 19 25 27 23 29 19 32 21 34 27 36
REMARK Flexibility Score: inf
ROOT
ATOM      1  C   UNL     1      58.703  49.146  22.194  1.00  0.00     0.065 A 
ATOM      2  C   UNL     1      57.340  49.474  22.209  1.00  0.00     0.208 A 
ATOM      3  O   UNL     1      56.706  49.694  23.355  1.00  0.00    -0.463 OA
ATOM      4  C   UNL     1      57.297  49.619  24.545  1.00  0.00     0.147 A 
ATOM      5  C   UNL     1      58.670  49.285  24.620  1.00  0.00     0.066 A 
ATOM      6  C   UNL     1      59.372  49.043  23.426  1.00  0.00     0.200 A 
ATOM      7  O   UNL     1      60.591  48.713  23.459  1.00  0.00    -0.288 OA
ATOM      8  C   UNL     1      59.291  49.193  25.870  1.00  0.00     0.020 A 
ATOM      9  C   UNL     1      58.563  49.426  27.030  1.00  0.00     0.047 A 
ATOM     10  C   UNL     1      57.203  49.756  26.976  1.00  0.00     0.125 A 
ATOM     11  C   UNL     1      56.543  49.872  25.722  1.00  0.00     0.069 A 
ENDROOT
BRANCH   1  12
ATOM     12  C   UNL     1      59.392  48.911  20.900  1.00  0.00    -0.011 A 
ATOM     13  C   UNL     1      60.229  47.794  20.734  1.00  0.00     0.013 A 
ATOM     14  C   UNL     1      60.874  47.567  19.514  1.00  0.00     0.047 A 
ATOM     15  C   UNL     1      60.684  48.450  18.443  1.00  0.00     0.115 A 
ATOM     16  C   UNL     1      59.202  49.788  19.817  1.00  0.00     0.013 A 
ATOM     17  C   UNL     1      59.847  49.559  18.598  1.00  0.00     0.047 A 
BRANCH  15  18
ATOM     18  O   UNL     1      61.321  48.233  17.222  1.00  0.00    -0.508 OA
ATOM     19  H   UNL     1      62.314  48.040  17.170  1.00  0.00     0.293 HD
ENDBRANCH  15  18
ENDBRANCH   1  12
BRANCH  11  20
ATOM     20  C   UNL     1      55.048  50.197  25.526  1.00  0.00     0.188 C 
ATOM     21  C   UNL     1      54.132  50.641  26.709  1.00  0.00     0.179 C 
ATOM     22  O   UNL     1      54.426  49.207  24.720  1.00  0.00    -0.362 OA
ATOM     23  C   UNL     1      53.472  49.458  27.461  1.00  0.00     0.177 C 
ATOM     24  C   UNL     1      54.094  48.059  25.480  1.00  0.00     0.176 C 
ATOM     25  C   UNL     1      52.960  48.402  26.468  1.00  0.00     0.177 C 
BRANCH  21  26
ATOM     26  O   UNL     1      54.822  51.496  27.584  1.00  0.00    -0.387 OA
ATOM     27  H   UNL     1      54.803  51.070  28.481  1.00  0.00     0.211 HD
ENDBRANCH  21  26
BRANCH  23  28
ATOM     28  O   UNL     1      52.408  49.940  28.242  1.00  0.00    -0.387 OA
ATOM     29  H   UNL     1      52.528  49.566  29.155  1.00  0.00     0.211 HD
ENDBRANCH  23  28
BRANCH  24  30
ATOM     30  C   UNL     1      53.693  46.936  24.512  1.00  0.00     0.191 C 
BRANCH  30  31
ATOM     31  O   UNL     1      52.726  46.097  25.087  1.00  0.00    -0.394 OA
ATOM     32  H   UNL     1      51.893  46.632  25.159  1.00  0.00     0.210 HD
ENDBRANCH  30  31
ENDBRANCH  24  30
BRANCH  25  33
ATOM     33  O   UNL     1      51.843  48.906  25.777  1.00  0.00    -0.388 OA
ATOM     34  H   UNL     1      52.143  49.714  25.286  1.00  0.00     0.211 HD
ENDBRANCH  25  33
ENDBRANCH  11  20
BRANCH  10  35
ATOM     35  O   UNL     1      56.537  49.966  28.177  1.00  0.00    -0.507 OA
ATOM     36  H   UNL     1      56.845  49.543  29.045  1.00  0.00     0.293 HD
ENDBRANCH  10  35
TORSDOF 9
ENDMDL
MODEL 6
REMARK VINA RESULT:    -7.837      3.555      9.876
REMARK INTER + INTRA:         -10.175
REMARK INTER:                  -9.882
REMARK INTRA:                  -0.293
REMARK UNBOUND:                 0.411
REMARK SMILES O=c1c(-c2ccc(O)cc2)coc2c([C@H]3O[C@H](CO)[C@H](O)[C@H](O)[C@H]3O)c(O)ccc12
REMARK SMILES IDX 3 1 11 2 12 3 13 4 30 5 2 6 1 7 29 8 28 9 26 10 14 11 4 12
REMARK SMILES IDX 5 13 6 14 7 15 10 16 9 17 8 18 15 20 24 21 16 22 22 23 17 24
REMARK SMILES IDX 20 25 25 26 23 28 18 30 19 31 21 33 27 35
REMARK H PARENT 8 19 25 27 23 29 19 32 21 34 27 36
REMARK Flexibility Score: inf
ROOT
ATOM      1  C   UNL     1      55.728  49.794  25.252  1.00  0.00     0.065 A 
ATOM      2  C   UNL     1      55.066  48.730  25.880  1.00  0.00     0.208 A 
ATOM      3  O   UNL     1      54.701  48.811  27.154  1.00  0.00    -0.463 OA
ATOM      4  C   UNL     1      54.933  49.878  27.915  1.00  0.00     0.147 A 
ATOM      5  C   UNL     1      55.604  50.994  27.362  1.00  0.00     0.066 A 
ATOM      6  C   UNL     1      56.007  50.941  26.015  1.00  0.00     0.200 A 
ATOM      7  O   UNL     1      56.635  51.908  25.500  1.00  0.00    -0.288 OA
ATOM      8  C   UNL     1      55.860  52.112  28.162  1.00  0.00     0.020 A 
ATOM      9  C   UNL     1      55.460  52.125  29.493  1.00  0.00     0.047 A 
ATOM     10  C   UNL     1      54.795  51.029  30.058  1.00  0.00     0.125 A 
ATOM     11  C   UNL     1      54.507  49.881  29.270  1.00  0.00     0.069 A 
ENDROOT
BRANCH   1  12
ATOM     12  C   UNL     1      56.120  49.683  23.824  1.00  0.00    -0.011 A 
ATOM     13  C   UNL     1      55.210  50.030  22.811  1.00  0.00     0.013 A 
ATOM     14  C   UNL     1      55.578  49.933  21.465  1.00  0.00     0.047 A 
ATOM     15  C   UNL     1      56.863  49.496  21.117  1.00  0.00     0.115 A 
ATOM     16  C   UNL     1      57.409  49.251  23.466  1.00  0.00     0.013 A 
ATOM     17  C   UNL     1      57.775  49.156  22.121  1.00  0.00     0.047 A 
BRANCH  15  18
ATOM     18  O   UNL     1      57.242  49.397  19.780  1.00  0.00    -0.508 OA
ATOM     19  H   UNL     1      56.986  50.107  19.103  1.00  0.00     0.293 HD
ENDBRANCH  15  18
ENDBRANCH   1  12
BRANCH  11  20
ATOM     20  C   UNL     1      53.812  48.601  29.777  1.00  0.00     0.188 C 
ATOM     21  C   UNL     1      52.409  48.632  30.459  1.00  0.00     0.179 C 
ATOM     22  O   UNL     1      54.730  47.789  30.494  1.00  0.00    -0.362 OA
ATOM     23  C   UNL     1      52.469  48.851  31.992  1.00  0.00     0.177 C 
ATOM     24  C   UNL     1      54.892  48.247  31.824  1.00  0.00     0.176 C 
ATOM     25  C   UNL     1      53.591  48.007  32.618  1.00  0.00     0.177 C 
BRANCH  21  26
ATOM     26  O   UNL     1      51.566  49.563  29.832  1.00  0.00    -0.387 OA
ATOM     27  H   UNL     1      51.487  50.342  30.443  1.00  0.00     0.211 HD
ENDBRANCH  21  26
BRANCH  23  28
ATOM     28  O   UNL     1      51.231  48.503  32.560  1.00  0.00    -0.387 OA
ATOM     29  H   UNL     1      50.535  48.700  31.880  1.00  0.00     0.211 HD
ENDBRANCH  23  28
BRANCH  24  30
ATOM     30  C   UNL     1      56.089  47.513  32.447  1.00  0.00     0.191 C 
BRANCH  30  31
ATOM     31  O   UNL     1      55.830  47.170  33.783  1.00  0.00    -0.394 OA
ATOM     32  H   UNL     1      55.008  47.660  34.048  1.00  0.00     0.210 HD
ENDBRANCH  30  31
ENDBRANCH  24  30
BRANCH  25  33
ATOM     33  O   UNL     1      53.237  46.647  32.579  1.00  0.00    -0.388 OA
ATOM     34  H   UNL     1      52.288  46.599  32.293  1.00  0.00     0.211 HD
ENDBRANCH  25  33
ENDBRANCH  11  20
BRANCH  10  35
ATOM     35  O   UNL     1      54.434  51.108  31.397  1.00  0.00    -0.507 OA
ATOM     36  H   UNL     1      54.970  50.656  32.128  1.00  0.00     0.293 HD
ENDBRANCH  10  35
TORSDOF 9
ENDMDL
MODEL 7
REMARK VINA RESULT:    -7.669     14.088     16.545
REMARK INTER + INTRA:          -9.949
REMARK INTER:                 -10.554
REMARK INTRA:                   0.605
REMARK UNBOUND:                 0.411
REMARK SMILES O=c1c(-c2ccc(O)cc2)coc2c([C@H]3O[C@H](CO)[C@H](O)[C@H](O)[C@H]3O)c(O)ccc12
REMARK SMILES IDX 3 1 11 2 12 3 13 4 30 5 2 6 1 7 29 8 28 9 26 10 14 11 4 12
REMARK SMILES IDX 5 13 6 14 7 15 10 16 9 17 8 18 15 20 24 21 16 22 22 23 17 24
REMARK SMILES IDX 20 25 25 26 23 28 18 30 19 31 21 33 27 35
REMARK H PARENT 8 19 25 27 23 29 19 32 21 34 27 36
REMARK Flexibility Score: inf
ROOT
ATOM      1  C   UNL     1      50.322  36.878  25.904  1.00  0.00     0.065 A 
ATOM      2  C   UNL     1      49.953  36.132  24.776  1.00  0.00     0.208 A 
ATOM      3  O   UNL     1      48.863  36.438  24.083  1.00  0.00    -0.463 OA
ATOM      4  C   UNL     1      48.056  37.449  24.398  1.00  0.00     0.147 A 
ATOM      5  C   UNL     1      48.351  38.249  25.527  1.00  0.00     0.066 A 
ATOM      6  C   UNL     1      49.497  37.950  26.286  1.00  0.00     0.200 A 
ATOM      7  O   UNL     1      49.772  38.626  27.316  1.00  0.00    -0.288 OA
ATOM      8  C   UNL     1      47.498  39.304  25.868  1.00  0.00     0.020 A 
ATOM      9  C   UNL     1      46.366  39.562  25.103  1.00  0.00     0.047 A 
ATOM     10  C   UNL     1      46.058  38.780  23.983  1.00  0.00     0.125 A 
ATOM     11  C   UNL     1      46.910  37.708  23.600  1.00  0.00     0.069 A 
ENDROOT
BRANCH   1  12
ATOM     12  C   UNL     1      51.550  36.520  26.658  1.00  0.00    -0.011 A 
ATOM     13  C   UNL     1      51.853  35.173  26.922  1.00  0.00     0.013 A 
ATOM     14  C   UNL     1      53.013  34.834  27.627  1.00  0.00     0.047 A 
ATOM     15  C   UNL     1      53.886  35.836  28.069  1.00  0.00     0.115 A 
ATOM     16  C   UNL     1      52.436  37.519  27.100  1.00  0.00     0.013 A 
ATOM     17  C   UNL     1      53.594  37.177  27.803  1.00  0.00     0.047 A 
BRANCH  15  18
ATOM     18  O   UNL     1      55.045  35.509  28.770  1.00  0.00    -0.508 OA
ATOM     19  H   UNL     1      55.079  35.544  29.783  1.00  0.00     0.293 HD
ENDBRANCH  15  18
ENDBRANCH   1  12
BRANCH  11  20
ATOM     20  C   UNL     1      46.668  36.755  22.411  1.00  0.00     0.188 C 
ATOM     21  C   UNL     1      47.030  37.148  20.945  1.00  0.00     0.179 C 
ATOM     22  O   UNL     1      45.376  36.173  22.497  1.00  0.00    -0.362 OA
ATOM     23  C   UNL     1      45.891  37.888  20.201  1.00  0.00     0.177 C 
ATOM     24  C   UNL     1      44.380  37.055  22.014  1.00  0.00     0.176 C 
ATOM     25  C   UNL     1      44.534  37.226  20.488  1.00  0.00     0.177 C 
BRANCH  21  26
ATOM     26  O   UNL     1      48.236  37.867  20.901  1.00  0.00    -0.387 OA
ATOM     27  H   UNL     1      48.096  38.701  21.421  1.00  0.00     0.211 HD
ENDBRANCH  21  26
BRANCH  23  28
ATOM     28  O   UNL     1      46.151  37.873  18.820  1.00  0.00    -0.387 OA
ATOM     29  H   UNL     1      45.355  37.475  18.380  1.00  0.00     0.211 HD
ENDBRANCH  23  28
BRANCH  24  30
ATOM     30  C   UNL     1      43.003  36.488  22.392  1.00  0.00     0.191 C 
BRANCH  30  31
ATOM     31  O   UNL     1      42.918  35.123  22.081  1.00  0.00    -0.394 OA
ATOM     32  H   UNL     1      43.757  34.704  22.407  1.00  0.00     0.210 HD
ENDBRANCH  30  31
ENDBRANCH  24  30
BRANCH  25  33
ATOM     33  O   UNL     1      44.473  35.976  19.846  1.00  0.00    -0.388 OA
ATOM     34  H   UNL     1      44.796  36.108  18.918  1.00  0.00     0.211 HD
ENDBRANCH  25  33
ENDBRANCH  11  20
BRANCH  10  35
ATOM     35  O   UNL     1      44.905  39.090  23.272  1.00  0.00    -0.507 OA
ATOM     36  H   UNL     1      44.173  38.409  23.109  1.00  0.00     0.293 HD
ENDBRANCH  10  35
TORSDOF 9
ENDMDL
MODEL 8
REMARK VINA RESULT:    -7.660     14.140     16.802
REMARK INTER + INTRA:          -9.936
REMARK INTER:                  -9.567
REMARK INTRA:                  -0.370
REMARK UNBOUND:                 0.411
REMARK SMILES O=c1c(-c2ccc(O)cc2)coc2c([C@H]3O[C@H](CO)[C@H](O)[C@H](O)[C@H]3O)c(O)ccc12
REMARK SMILES IDX 3 1 11 2 12 3 13 4 30 5 2 6 1 7 29 8 28 9 26 10 14 11 4 12
REMARK SMILES IDX 5 13 6 14 7 15 10 16 9 17 8 18 15 20 24 21 16 22 22 23 17 24
REMARK SMILES IDX 20 25 25 26 23 28 18 30 19 31 21 33 27 35
REMARK H PARENT 8 19 25 27 23 29 19 32 21 34 27 36
REMARK Flexibility Score: inf
ROOT
ATOM      1  C   UNL     1      47.498  35.625  24.206  1.00  0.00     0.065 A 
ATOM      2  C   UNL     1      48.483  36.612  24.342  1.00  0.00     0.208 A 
ATOM      3  O   UNL     1      49.608  36.367  25.003  1.00  0.00    -0.463 OA
ATOM      4  C   UNL     1      49.879  35.196  25.575  1.00  0.00     0.147 A 
ATOM      5  C   UNL     1      48.935  34.146  25.493  1.00  0.00     0.066 A 
ATOM      6  C   UNL     1      47.731  34.372  24.802  1.00  0.00     0.200 A 
ATOM      7  O   UNL     1      46.855  33.466  24.735  1.00  0.00    -0.288 OA
ATOM      8  C   UNL     1      49.212  32.918  26.104  1.00  0.00     0.020 A 
ATOM      9  C   UNL     1      50.406  32.734  26.790  1.00  0.00     0.047 A 
ATOM     10  C   UNL     1      51.352  33.762  26.884  1.00  0.00     0.125 A 
ATOM     11  C   UNL     1      51.110  35.018  26.263  1.00  0.00     0.069 A 
ENDROOT
BRANCH   1  12
ATOM     12  C   UNL     1      46.251  35.921  23.456  1.00  0.00    -0.011 A 
ATOM     13  C   UNL     1      46.130  35.545  22.107  1.00  0.00     0.013 A 
ATOM     14  C   UNL     1      44.953  35.816  21.400  1.00  0.00     0.047 A 
ATOM     15  C   UNL     1      43.883  36.459  22.035  1.00  0.00     0.115 A 
ATOM     16  C   UNL     1      45.169  36.559  24.088  1.00  0.00     0.013 A 
ATOM     17  C   UNL     1      43.995  36.828  23.379  1.00  0.00     0.047 A 
BRANCH  15  18
ATOM     18  O   UNL     1      42.706  36.733  21.342  1.00  0.00    -0.508 OA
ATOM     19  H   UNL     1      41.808  36.760  21.812  1.00  0.00     0.293 HD
ENDBRANCH  15  18
ENDBRANCH   1  12
BRANCH  11  20
ATOM     20  C   UNL     1      52.051  36.238  26.317  1.00  0.00     0.188 C 
ATOM     21  C   UNL     1      53.584  36.094  26.576  1.00  0.00     0.179 C 
ATOM     22  O   UNL     1      51.479  37.273  27.104  1.00  0.00    -0.362 OA
ATOM     23  C   UNL     1      53.964  36.107  28.077  1.00  0.00     0.177 C 
ATOM     24  C   UNL     1      51.677  37.038  28.486  1.00  0.00     0.176 C 
ATOM     25  C   UNL     1      53.173  37.190  28.829  1.00  0.00     0.177 C 
BRANCH  21  26
ATOM     26  O   UNL     1      54.100  34.967  25.916  1.00  0.00    -0.387 OA
ATOM     27  H   UNL     1      53.352  34.324  25.810  1.00  0.00     0.211 HD
ENDBRANCH  21  26
BRANCH  23  28
ATOM     28  O   UNL     1      55.343  36.342  28.206  1.00  0.00    -0.387 OA
ATOM     29  H   UNL     1      55.774  35.462  28.366  1.00  0.00     0.211 HD
ENDBRANCH  23  28
BRANCH  24  30
ATOM     30  C   UNL     1      50.803  38.024  29.276  1.00  0.00     0.191 C 
BRANCH  30  31
ATOM     31  O   UNL     1      51.373  38.312  30.525  1.00  0.00    -0.394 OA
ATOM     32  H   UNL     1      52.161  38.891  30.352  1.00  0.00     0.210 HD
ENDBRANCH  30  31
ENDBRANCH  24  30
BRANCH  25  33
ATOM     33  O   UNL     1      53.637  38.462  28.449  1.00  0.00    -0.388 OA
ATOM     34  H   UNL     1      54.628  38.428  28.463  1.00  0.00     0.211 HD
ENDBRANCH  25  33
ENDBRANCH  11  20
BRANCH  10  35
ATOM     35  O   UNL     1      52.519  33.509  27.594  1.00  0.00    -0.507 OA
ATOM     36  H   UNL     1      53.297  33.001  27.190  1.00  0.00     0.293 HD
ENDBRANCH  10  35
TORSDOF 9
ENDMDL
MODEL 9
REMARK VINA RESULT:    -7.478      2.905      9.488
REMARK INTER + INTRA:          -9.690
REMARK INTER:                 -10.542
REMARK INTRA:                   0.852
REMARK UNBOUND:                 0.411
REMARK SMILES O=c1c(-c2ccc(O)cc2)coc2c([C@H]3O[C@H](CO)[C@H](O)[C@H](O)[C@H]3O)c(O)ccc12
REMARK SMILES IDX 3 1 11 2 12 3 13 4 30 5 2 6 1 7 29 8 28 9 26 10 14 11 4 12
REMARK SMILES IDX 5 13 6 14 7 15 10 16 9 17 8 18 15 20 24 21 16 22 22 23 17 24
REMARK SMILES IDX 20 25 25 26 23 28 18 30 19 31 21 33 27 35
REMARK H PARENT 8 19 25 27 23 29 19 32 21 34 27 36
REMARK Flexibility Score: inf
ROOT
ATOM      1  C   UNL     1      56.118  49.597  24.406  1.00  0.00     0.065 A 
ATOM      2  C   UNL     1      56.586  50.362  25.482  1.00  0.00     0.208 A 
ATOM      3  O   UNL     1      55.873  50.481  26.596  1.00  0.00    -0.463 OA
ATOM      4  C   UNL     1      54.689  49.899  26.772  1.00  0.00     0.147 A 
ATOM      5  C   UNL     1      54.138  49.115  25.731  1.00  0.00     0.066 A 
ATOM      6  C   UNL     1      54.866  48.970  24.536  1.00  0.00     0.200 A 
ATOM      7  O   UNL     1      54.389  48.301  23.577  1.00  0.00    -0.288 OA
ATOM      8  C   UNL     1      52.888  48.513  25.908  1.00  0.00     0.020 A 
ATOM      9  C   UNL     1      52.190  48.688  27.097  1.00  0.00     0.047 A 
ATOM     10  C   UNL     1      52.718  49.462  28.137  1.00  0.00     0.125 A 
ATOM     11  C   UNL     1      53.993  50.077  27.997  1.00  0.00     0.069 A 
ENDROOT
BRANCH   1  12
ATOM     12  C   UNL     1      56.937  49.473  23.174  1.00  0.00    -0.011 A 
ATOM     13  C   UNL     1      56.417  49.881  21.933  1.00  0.00     0.013 A 
ATOM     14  C   UNL     1      57.189  49.772  20.772  1.00  0.00     0.047 A 
ATOM     15  C   UNL     1      58.492  49.262  20.838  1.00  0.00     0.115 A 
ATOM     16  C   UNL     1      58.248  48.969  23.232  1.00  0.00     0.013 A 
ATOM     17  C   UNL     1      59.018  48.862  22.070  1.00  0.00     0.047 A 
BRANCH  15  18
ATOM     18  O   UNL     1      59.271  49.151  19.688  1.00  0.00    -0.508 OA
ATOM     19  H   UNL     1      58.958  49.523  18.798  1.00  0.00     0.293 HD
ENDBRANCH  15  18
ENDBRANCH   1  12
BRANCH  11  20
ATOM     20  C   UNL     1      54.672  50.977  29.050  1.00  0.00     0.188 C 
ATOM     21  C   UNL     1      55.693  50.415  30.088  1.00  0.00     0.179 C 
ATOM     22  O   UNL     1      53.718  51.833  29.660  1.00  0.00    -0.362 OA
ATOM     23  C   UNL     1      55.034  49.895  31.389  1.00  0.00     0.177 C 
ATOM     24  C   UNL     1      52.996  51.161  30.676  1.00  0.00     0.176 C 
ATOM     25  C   UNL     1      53.933  50.857  31.863  1.00  0.00     0.177 C 
BRANCH  21  26
ATOM     26  O   UNL     1      56.525  49.448  29.500  1.00  0.00    -0.387 OA
ATOM     27  H   UNL     1      56.588  48.692  30.140  1.00  0.00     0.211 HD
ENDBRANCH  21  26
BRANCH  23  28
ATOM     28  O   UNL     1      56.016  49.759  32.386  1.00  0.00    -0.387 OA
ATOM     29  H   UNL     1      55.577  49.335  33.169  1.00  0.00     0.211 HD
ENDBRANCH  23  28
BRANCH  24  30
ATOM     30  C   UNL     1      51.808  52.041  31.092  1.00  0.00     0.191 C 
BRANCH  30  31
ATOM     31  O   UNL     1      50.594  51.355  30.937  1.00  0.00    -0.394 OA
ATOM     32  H   UNL     1      50.736  50.441  31.299  1.00  0.00     0.210 HD
ENDBRANCH  30  31
ENDBRANCH  24  30
BRANCH  25  33
ATOM     33  O   UNL     1      54.517  52.043  32.343  1.00  0.00    -0.388 OA
ATOM     34  H   UNL     1      53.959  52.358  33.101  1.00  0.00     0.211 HD
ENDBRANCH  25  33
ENDBRANCH  11  20
BRANCH  10  35
ATOM     35  O   UNL     1      51.961  49.601  29.293  1.00  0.00    -0.507 OA
ATOM     36  H   UNL     1      51.947  48.893  30.017  1.00  0.00     0.293 HD
ENDBRANCH  10  35
TORSDOF 9
ENDMDL
