MODEL 1
REMARK VINA RESULT:    -2.707      0.000      0.000
REMARK INTER + INTRA:          -2.945
REMARK INTER:                  -2.945
REMARK INTRA:                   0.000
REMARK UNBOUND:                 0.000
REMARK SMILES [NH3+]CC(=O)[O-]
REMARK SMILES IDX 2 1 1 2 3 6 4 7 5 8
REMARK H PARENT 1 3 1 4 1 5
REMARK Flexibility Score: inf
ROOT
ATOM      1  C   UNL     1      24.973  -0.659  17.446  1.00  0.00     0.312 C 
ENDROOT
BRANCH   1   2
ATOM      2  N   UNL     1      25.122  -0.689  15.992  1.00  0.00    -0.353 N 
ATOM      3  H   UNL     1      25.117  -1.679  15.653  1.00  0.00     0.344 HD
ATOM      4  H   UNL     1      26.017  -0.225  15.713  1.00  0.00     0.344 HD
ATOM      5  H   UNL     1      24.323  -0.177  15.555  1.00  0.00     0.344 HD
ENDBRANCH   1   2
BRANCH   1   6
ATOM      6  C   UNL     1      25.088   0.743  17.959  1.00  0.00     0.096 C 
ATOM      7  O   UNL     1      25.826   1.575  17.370  1.00  0.00    -0.544 OA
ATOM      8  O   UNL     1      24.419   1.115  19.119  1.00  0.00    -0.544 OA
ENDBRANCH   1   6
TORSDOF 2
ENDMDL
MODEL 2
REMARK VINA RESULT:    -2.508      2.536      2.809
REMARK INTER + INTRA:          -2.728
REMARK INTER:                  -2.728
REMARK INTRA:                   0.000
REMARK UNBOUND:                 0.000
REMARK SMILES [NH3+]CC(=O)[O-]
REMARK SMILES IDX 2 1 1 2 3 6 4 7 5 8
REMARK H PARENT 1 3 1 4 1 5
REMARK Flexibility Score: inf
ROOT
ATOM      1  C   UNL     1      24.678  -0.119  16.699  1.00  0.00     0.312 C 
ENDROOT
BRANCH   1   2
ATOM      2  N   UNL     1      25.772   0.771  17.086  1.00  0.00    -0.353 N 
ATOM      3  H   UNL     1      25.720   0.978  18.110  1.00  0.00     0.344 HD
ATOM      4  H   UNL     1      25.720   1.662  16.541  1.00  0.00     0.344 HD
ATOM      5  H   UNL     1      26.683   0.301  16.882  1.00  0.00     0.344 HD
ENDBRANCH   1   2
BRANCH   1   6
ATOM      6  C   UNL     1      24.777  -1.424  17.425  1.00  0.00     0.096 C 
ATOM      7  O   UNL     1      25.389  -1.495  18.523  1.00  0.00    -0.544 OA
ATOM      8  O   UNL     1      24.236  -2.574  16.863  1.00  0.00    -0.544 OA
ENDBRANCH   1   6
TORSDOF 2
ENDMDL
MODEL 3
REMARK VINA RESULT:    -2.505      1.722      2.144
REMARK INTER + INTRA:          -2.724
REMARK INTER:                  -2.724
REMARK INTRA:                   0.000
REMARK UNBOUND:                 0.000
REMARK SMILES [NH3+]CC(=O)[O-]
REMARK SMILES IDX 2 1 1 2 3 6 4 7 5 8
REMARK H PARENT 1 3 1 4 1 5
REMARK Flexibility Score: inf
ROOT
ATOM      1  C   UNL     1      25.302   0.340  18.276  1.00  0.00     0.312 C 
ENDROOT
BRANCH   1   2
ATOM      2  N   UNL     1      25.931   1.082  17.185  1.00  0.00    -0.353 N 
ATOM      3  H   UNL     1      25.352   1.002  16.317  1.00  0.00     0.344 HD
ATOM      4  H   UNL     1      26.891   0.709  17.004  1.00  0.00     0.344 HD
ATOM      5  H   UNL     1      26.003   2.090  17.453  1.00  0.00     0.344 HD
ENDBRANCH   1   2
BRANCH   1   6
ATOM      6  C   UNL     1      24.191   1.139  18.886  1.00  0.00     0.096 C 
ATOM      7  O   UNL     1      23.197   0.558  19.394  1.00  0.00    -0.544 OA
ATOM      8  O   UNL     1      24.232   2.528  18.847  1.00  0.00    -0.544 OA
ENDBRANCH   1   6
TORSDOF 2
ENDMDL
MODEL 4
REMARK VINA RESULT:    -2.386      9.210      9.440
REMARK INTER + INTRA:          -2.595
REMARK INTER:                  -2.595
REMARK INTRA:                   0.000
REMARK UNBOUND:                 0.000
REMARK SMILES [NH3+]CC(=O)[O-]
REMARK SMILES IDX 2 1 1 2 3 6 4 7 5 8
REMARK H PARENT 1 3 1 4 1 5
REMARK Flexibility Score: inf
ROOT
ATOM      1  C   UNL     1      29.024   2.988  10.512  1.00  0.00     0.312 C 
ENDROOT
BRANCH   1   2
ATOM      2  N   UNL     1      29.124   1.561  10.817  1.00  0.00    -0.353 N 
ATOM      3  H   UNL     1      29.071   1.002   9.934  1.00  0.00     0.344 HD
ATOM      4  H   UNL     1      28.353   1.276  11.463  1.00  0.00     0.344 HD
ATOM      5  H   UNL     1      30.042   1.375  11.281  1.00  0.00     0.344 HD
ENDBRANCH   1   2
BRANCH   1   6
ATOM      6  C   UNL     1      28.537   3.196   9.112  1.00  0.00     0.096 C 
ATOM      7  O   UNL     1      28.534   2.239   8.293  1.00  0.00    -0.544 OA
ATOM      8  O   UNL     1      28.134   4.459   8.697  1.00  0.00    -0.544 OA
ENDBRANCH   1   6
TORSDOF 2
ENDMDL
MODEL 5
REMARK VINA RESULT:    -2.370     11.518     11.997
REMARK INTER + INTRA:          -2.577
REMARK INTER:                  -2.577
REMARK INTRA:                   0.000
REMARK UNBOUND:                 0.000
REMARK SMILES [NH3+]CC(=O)[O-]
REMARK SMILES IDX 2 1 1 2 3 6 4 7 5 8
REMARK H PARENT 1 3 1 4 1 5
REMARK Flexibility Score: inf
ROOT
ATOM      1  C   UNL     1      25.435   8.001   8.942  1.00  0.00     0.312 C 
ENDROOT
BRANCH   1   2
ATOM      2  N   UNL     1      25.741   9.377   9.328  1.00  0.00    -0.353 N 
ATOM      3  H   UNL     1      26.110   9.907   8.504  1.00  0.00     0.344 HD
ATOM      4  H   UNL     1      26.448   9.385  10.099  1.00  0.00     0.344 HD
ATOM      5  H   UNL     1      24.867   9.840   9.665  1.00  0.00     0.344 HD
ENDBRANCH   1   2
BRANCH   1   6
ATOM      6  C   UNL     1      26.650   7.326   8.385  1.00  0.00     0.096 C 
ATOM      7  O   UNL     1      26.964   6.169   8.767  1.00  0.00    -0.544 OA
ATOM      8  O   UNL     1      27.464   7.997   7.479  1.00  0.00    -0.544 OA
ENDBRANCH   1   6
TORSDOF 2
ENDMDL
MODEL 6
REMARK VINA RESULT:    -2.354      8.100      8.368
REMARK INTER + INTRA:          -2.560
REMARK INTER:                  -2.560
REMARK INTRA:                   0.000
REMARK UNBOUND:                 0.000
REMARK SMILES [NH3+]CC(=O)[O-]
REMARK SMILES IDX 2 1 1 2 3 6 4 7 5 8
REMARK H PARENT 1 3 1 4 1 5
REMARK Flexibility Score: inf
ROOT
ATOM      1  C   UNL     1      24.996  -8.460  15.318  1.00  0.00     0.312 C 
ENDROOT
BRANCH   1   2
ATOM      2  N   UNL     1      25.871  -9.554  15.736  1.00  0.00    -0.353 N 
ATOM      3  H   UNL     1      25.705 -10.394  15.136  1.00  0.00     0.344 HD
ATOM      4  H   UNL     1      25.692  -9.794  16.738  1.00  0.00     0.344 HD
ATOM      5  H   UNL     1      26.867  -9.254  15.632  1.00  0.00     0.344 HD
ENDBRANCH   1   2
BRANCH   1   6
ATOM      6  C   UNL     1      25.582  -7.137  15.706  1.00  0.00     0.096 C 
ATOM      7  O   UNL     1      26.830  -6.975  15.712  1.00  0.00    -0.544 OA
ATOM      8  O   UNL     1      24.750  -6.100  16.107  1.00  0.00    -0.544 OA
ENDBRANCH   1   6
TORSDOF 2
ENDMDL
MODEL 7
REMARK VINA RESULT:    -2.344      3.357      3.739
REMARK INTER + INTRA:          -2.550
REMARK INTER:                  -2.550
REMARK INTRA:                   0.000
REMARK UNBOUND:                 0.000
REMARK SMILES [NH3+]CC(=O)[O-]
REMARK SMILES IDX 2 1 1 2 3 6 4 7 5 8
REMARK H PARENT 1 3 1 4 1 5
REMARK Flexibility Score: inf
ROOT
ATOM      1  C   UNL     1      24.707  -1.360  17.204  1.00  0.00     0.312 C 
ENDROOT
BRANCH   1   2
ATOM      2  N   UNL     1      25.153  -0.617  16.026  1.00  0.00    -0.353 N 
ATOM      3  H   UNL     1      24.543  -0.846  15.207  1.00  0.00     0.344 HD
ATOM      4  H   UNL     1      26.147  -0.857  15.805  1.00  0.00     0.344 HD
ATOM      5  H   UNL     1      25.087   0.407  16.222  1.00  0.00     0.344 HD
ENDBRANCH   1   2
BRANCH   1   6
ATOM      6  C   UNL     1      23.775  -2.463  16.810  1.00  0.00     0.096 C 
ATOM      7  O   UNL     1      22.536  -2.251  16.739  1.00  0.00    -0.544 OA
ATOM      8  O   UNL     1      24.270  -3.739  16.570  1.00  0.00    -0.544 OA
ENDBRANCH   1   6
TORSDOF 2
ENDMDL
MODEL 8
REMARK VINA RESULT:    -2.329      8.655      8.951
REMARK INTER + INTRA:          -2.533
REMARK INTER:                  -2.533
REMARK INTRA:                   0.000
REMARK UNBOUND:                 0.000
REMARK SMILES [NH3+]CC(=O)[O-]
REMARK SMILES IDX 2 1 1 2 3 6 4 7 5 8
REMARK H PARENT 1 3 1 4 1 5
REMARK Flexibility Score: inf
ROOT
ATOM      1  C   UNL     1      25.749  -6.889  15.720  1.00  0.00     0.312 C 
ENDROOT
BRANCH   1   2
ATOM      2  N   UNL     1      27.184  -7.158  15.797  1.00  0.00    -0.353 N 
ATOM      3  H   UNL     1      27.494  -7.163  16.797  1.00  0.00     0.344 HD
ATOM      4  H   UNL     1      27.715  -6.431  15.266  1.00  0.00     0.344 HD
ATOM      5  H   UNL     1      27.379  -8.095  15.378  1.00  0.00     0.344 HD
ENDBRANCH   1   2
BRANCH   1   6
ATOM      6  C   UNL     1      24.998  -8.131  15.352  1.00  0.00     0.096 C 
ATOM      7  O   UNL     1      23.852  -8.050  14.837  1.00  0.00    -0.544 OA
ATOM      8  O   UNL     1      25.544  -9.379  15.625  1.00  0.00    -0.544 OA
ENDBRANCH   1   6
TORSDOF 2
ENDMDL
MODEL 9
REMARK VINA RESULT:    -2.287      2.020      2.211
REMARK INTER + INTRA:          -2.487
REMARK INTER:                  -2.487
REMARK INTRA:                   0.000
REMARK UNBOUND:                 0.000
REMARK SMILES [NH3+]CC(=O)[O-]
REMARK SMILES IDX 2 1 1 2 3 6 4 7 5 8
REMARK H PARENT 1 3 1 4 1 5
REMARK Flexibility Score: inf
ROOT
ATOM      1  C   UNL     1      24.627   1.431  17.930  1.00  0.00     0.312 C 
ENDROOT
BRANCH   1   2
ATOM      2  N   UNL     1      25.614   0.983  16.949  1.00  0.00    -0.353 N 
ATOM      3  H   UNL     1      26.510   0.734  17.430  1.00  0.00     0.344 HD
ATOM      4  H   UNL     1      25.789   1.736  16.245  1.00  0.00     0.344 HD
ATOM      5  H   UNL     1      25.248   0.137  16.457  1.00  0.00     0.344 HD
ENDBRANCH   1   2
BRANCH   1   6
ATOM      6  C   UNL     1      24.606   2.926  18.013  1.00  0.00     0.096 C 
ATOM      7  O   UNL     1      25.189   3.618  17.138  1.00  0.00    -0.544 OA
ATOM      8  O   UNL     1      23.984   3.553  19.086  1.00  0.00    -0.544 OA
ENDBRANCH   1   6
TORSDOF 2
ENDMDL
