MODEL 1
REMARK VINA RESULT:    -3.063      0.000      0.000
REMARK INTER + INTRA:          -4.052
REMARK INTER:                  -3.690
REMARK INTRA:                  -0.362
REMARK UNBOUND:                -0.362
REMARK SMILES O=c1c(O)c(-c2ccc(O)cc2O)oc2cc(O)cc(O)c12
REMARK SMILES IDX 5 1 3 2 2 3 1 4 22 5 20 6 19 7 17 8 16 9 15 10 14 11 6 12
REMARK SMILES IDX 8 13 7 14 9 15 11 16 12 17 10 18 13 20 4 22 21 24 18 26
REMARK H PARENT 10 19 13 21 4 23 21 25 18 27
REMARK Flexibility Score: inf
ROOT
ATOM      1  C   UNL     1      40.310 113.344 -15.571  1.00  0.00     0.184 A 
ATOM      2  C   UNL     1      39.433 113.619 -14.509  1.00  0.00     0.208 A 
ATOM      3  C   UNL     1      38.073 113.826 -14.785  1.00  0.00     0.238 A 
ATOM      4  O   UNL     1      37.302 114.125 -13.837  1.00  0.00    -0.285 OA
ATOM      5  C   UNL     1      37.605 113.738 -16.119  1.00  0.00     0.111 A 
ATOM      6  C   UNL     1      36.241 113.889 -16.511  1.00  0.00     0.134 A 
ATOM      7  C   UNL     1      35.911 113.912 -17.872  1.00  0.00     0.093 A 
ATOM      8  C   UNL     1      36.885 113.723 -18.852  1.00  0.00     0.123 A 
ATOM      9  C   UNL     1      38.213 113.515 -18.478  1.00  0.00     0.094 A 
ATOM     10  C   UNL     1      38.579 113.523 -17.130  1.00  0.00     0.146 A 
ATOM     11  O   UNL     1      39.855 113.334 -16.817  1.00  0.00    -0.451 OA
ENDROOT
BRANCH   1  12
ATOM     12  C   UNL     1      41.750 113.101 -15.346  1.00  0.00     0.063 A 
ATOM     13  C   UNL     1      44.036 113.924 -15.442  1.00  0.00     0.047 A 
ATOM     14  C   UNL     1      42.666 114.123 -15.637  1.00  0.00     0.020 A 
ATOM     15  C   UNL     1      44.507 112.698 -14.967  1.00  0.00     0.119 A 
ATOM     16  C   UNL     1      43.603 111.664 -14.695  1.00  0.00     0.093 A 
ATOM     17  C   UNL     1      42.227 111.852 -14.894  1.00  0.00     0.130 A 
BRANCH  15  18
ATOM     18  O   UNL     1      45.875 112.516 -14.772  1.00  0.00    -0.508 OA
ATOM     19  H   UNL     1      46.347 112.886 -13.956  1.00  0.00     0.293 HD
ENDBRANCH  15  18
BRANCH  17  20
ATOM     20  O   UNL     1      41.342 110.799 -14.667  1.00  0.00    -0.507 OA
ATOM     21  H   UNL     1      41.393 109.937 -15.198  1.00  0.00     0.293 HD
ENDBRANCH  17  20
ENDBRANCH   1  12
BRANCH   2  22
ATOM     22  O   UNL     1      39.926 113.718 -13.204  1.00  0.00    -0.502 OA
ATOM     23  H   UNL     1      40.247 112.911 -12.683  1.00  0.00     0.293 HD
ENDBRANCH   2  22
BRANCH   6  24
ATOM     24  O   UNL     1      35.177 113.992 -15.609  1.00  0.00    -0.507 OA
ATOM     25  H   UNL     1      34.599 114.811 -15.493  1.00  0.00     0.293 HD
ENDBRANCH   6  24
BRANCH   8  26
ATOM     26  O   UNL     1      36.519 113.736 -20.196  1.00  0.00    -0.508 OA
ATOM     27  H   UNL     1      36.689 114.543 -20.784  1.00  0.00     0.293 HD
ENDBRANCH   8  26
TORSDOF 6
ENDMDL
MODEL 2
REMARK VINA RESULT:    -1.727      7.168     11.048
REMARK INTER + INTRA:          -2.443
REMARK INTER:                  -2.140
REMARK INTRA:                  -0.303
REMARK UNBOUND:                -0.362
REMARK SMILES O=c1c(O)c(-c2ccc(O)cc2O)oc2cc(O)cc(O)c12
REMARK SMILES IDX 5 1 3 2 2 3 1 4 22 5 20 6 19 7 17 8 16 9 15 10 14 11 6 12
REMARK SMILES IDX 8 13 7 14 9 15 11 16 12 17 10 18 13 20 4 22 21 24 18 26
REMARK H PARENT 10 19 13 21 4 23 21 25 18 27
REMARK Flexibility Score: inf
ROOT
ATOM      1  C   UNL     1      47.399 108.497 -16.521  1.00  0.00     0.184 A 
ATOM      2  C   UNL     1      47.586 107.761 -17.702  1.00  0.00     0.208 A 
ATOM      3  C   UNL     1      47.805 106.378 -17.613  1.00  0.00     0.238 A 
ATOM      4  O   UNL     1      48.025 105.731 -18.670  1.00  0.00    -0.285 OA
ATOM      5  C   UNL     1      47.817 105.747 -16.345  1.00  0.00     0.111 A 
ATOM      6  C   UNL     1      47.989 104.345 -16.139  1.00  0.00     0.134 A 
ATOM      7  C   UNL     1      48.115 103.849 -14.836  1.00  0.00     0.093 A 
ATOM      8  C   UNL     1      48.008 104.692 -13.730  1.00  0.00     0.123 A 
ATOM      9  C   UNL     1      47.781 106.056 -13.919  1.00  0.00     0.094 A 
ATOM     10  C   UNL     1      47.687 106.587 -15.208  1.00  0.00     0.146 A 
ATOM     11  O   UNL     1      47.482 107.891 -15.343  1.00  0.00    -0.451 OA
ENDROOT
BRANCH   1  12
ATOM     12  C   UNL     1      47.148 109.954 -16.545  1.00  0.00     0.063 A 
ATOM     13  C   UNL     1      47.894 112.200 -15.990  1.00  0.00     0.047 A 
ATOM     14  C   UNL     1      48.104 110.818 -15.990  1.00  0.00     0.020 A 
ATOM     15  C   UNL     1      46.724 112.733 -16.534  1.00  0.00     0.119 A 
ATOM     16  C   UNL     1      45.753 111.878 -17.070  1.00  0.00     0.093 A 
ATOM     17  C   UNL     1      45.952 110.489 -17.068  1.00  0.00     0.130 A 
BRANCH  15  18
ATOM     18  O   UNL     1      46.531 114.114 -16.532  1.00  0.00    -0.508 OA
ATOM     19  H   UNL     1      47.034 114.718 -17.171  1.00  0.00     0.293 HD
ENDBRANCH  15  18
BRANCH  17  20
ATOM     20  O   UNL     1      44.956 109.645 -17.560  1.00  0.00    -0.507 OA
ATOM     21  H   UNL     1      44.263 109.970 -18.224  1.00  0.00     0.293 HD
ENDBRANCH  17  20
ENDBRANCH   1  12
BRANCH   2  22
ATOM     22  O   UNL     1      47.587 108.412 -18.938  1.00  0.00    -0.502 OA
ATOM     23  H   UNL     1      47.241 107.973 -19.783  1.00  0.00     0.293 HD
ENDBRANCH   2  22
BRANCH   6  24
ATOM     24  O   UNL     1      48.016 103.402 -17.171  1.00  0.00    -0.507 OA
ATOM     25  H   UNL     1      47.794 102.424 -17.062  1.00  0.00     0.293 HD
ENDBRANCH   6  24
BRANCH   8  26
ATOM     26  O   UNL     1      48.122 104.161 -12.447  1.00  0.00    -0.508 OA
ATOM     27  H   UNL     1      47.364 103.643 -12.019  1.00  0.00     0.293 HD
ENDBRANCH   8  26
TORSDOF 6
ENDMDL
MODEL 3
REMARK VINA RESULT:    -0.256      5.958      8.100
REMARK INTER + INTRA:          -0.671
REMARK INTER:                  -0.259
REMARK INTRA:                  -0.412
REMARK UNBOUND:                -0.362
REMARK SMILES O=c1c(O)c(-c2ccc(O)cc2O)oc2cc(O)cc(O)c12
REMARK SMILES IDX 5 1 3 2 2 3 1 4 22 5 20 6 19 7 17 8 16 9 15 10 14 11 6 12
REMARK SMILES IDX 8 13 7 14 9 15 11 16 12 17 10 18 13 20 4 22 21 24 18 26
REMARK H PARENT 10 19 13 21 4 23 21 25 18 27
REMARK Flexibility Score: inf
ROOT
ATOM      1  C   UNL     1      46.345 111.813 -14.509  1.00  0.00     0.184 A 
ATOM      2  C   UNL     1      45.158 112.248 -15.120  1.00  0.00     0.208 A 
ATOM      3  C   UNL     1      44.741 111.634 -16.311  1.00  0.00     0.238 A 
ATOM      4  O   UNL     1      43.706 112.064 -16.883  1.00  0.00    -0.285 OA
ATOM      5  C   UNL     1      45.508 110.580 -16.865  1.00  0.00     0.111 A 
ATOM      6  C   UNL     1      45.159 109.858 -18.046  1.00  0.00     0.134 A 
ATOM      7  C   UNL     1      46.058 108.924 -18.575  1.00  0.00     0.093 A 
ATOM      8  C   UNL     1      47.262 108.638 -17.932  1.00  0.00     0.123 A 
ATOM      9  C   UNL     1      47.586 109.295 -16.745  1.00  0.00     0.094 A 
ATOM     10  C   UNL     1      46.727 110.259 -16.211  1.00  0.00     0.146 A 
ATOM     11  O   UNL     1      47.078 110.869 -15.086  1.00  0.00    -0.451 OA
ENDROOT
BRANCH   1  12
ATOM     12  C   UNL     1      46.831 112.406 -13.246  1.00  0.00     0.063 A 
ATOM     13  C   UNL     1      46.825 112.410 -10.814  1.00  0.00     0.047 A 
ATOM     14  C   UNL     1      46.390 111.868 -12.027  1.00  0.00     0.020 A 
ATOM     15  C   UNL     1      47.695 113.502 -10.805  1.00  0.00     0.119 A 
ATOM     16  C   UNL     1      48.124 114.061 -12.015  1.00  0.00     0.093 A 
ATOM     17  C   UNL     1      47.687 113.528 -13.237  1.00  0.00     0.130 A 
BRANCH  15  18
ATOM     18  O   UNL     1      48.125 114.028  -9.587  1.00  0.00    -0.508 OA
ATOM     19  H   UNL     1      47.742 113.705  -8.707  1.00  0.00     0.293 HD
ENDBRANCH  15  18
BRANCH  17  20
ATOM     20  O   UNL     1      48.082 114.123 -14.435  1.00  0.00    -0.507 OA
ATOM     21  H   UNL     1      48.778 113.698 -15.037  1.00  0.00     0.293 HD
ENDBRANCH  17  20
ENDBRANCH   1  12
BRANCH   2  22
ATOM     22  O   UNL     1      44.430 113.302 -14.561  1.00  0.00    -0.502 OA
ATOM     23  H   UNL     1      43.569 113.643 -14.970  1.00  0.00     0.293 HD
ENDBRANCH   2  22
BRANCH   6  24
ATOM     24  O   UNL     1      43.941 110.001 -18.716  1.00  0.00    -0.507 OA
ATOM     25  H   UNL     1      43.211 109.304 -18.737  1.00  0.00     0.293 HD
ENDBRANCH   6  24
BRANCH   8  26
ATOM     26  O   UNL     1      48.125 107.691 -18.478  1.00  0.00    -0.508 OA
ATOM     27  H   UNL     1      48.920 107.962 -19.045  1.00  0.00     0.293 HD
ENDBRANCH   8  26
TORSDOF 6
ENDMDL
