MODEL 1
REMARK VINA RESULT:    -4.688      0.000      0.000
REMARK INTER + INTRA:         -10.123
REMARK INTER:                  -8.525
REMARK INTRA:                  -1.598
REMARK UNBOUND:                -1.598
REMARK SMILES CCCCCCCCCCCCCCCC(=O)[O-]
REMARK SMILES IDX 9 1 10 2 11 3 12 4 13 5 14 6 15 7 16 8 17 9 18 10 8 11 7 12
REMARK SMILES IDX 6 13 5 14 4 15 3 16 2 17 1 18
REMARK H PARENT
REMARK Flexibility Score: inf
ROOT
ATOM      1  C   UNL     1      61.778 -28.883  -0.655  1.00  0.00     0.000 C 
ENDROOT
BRANCH   1   2
ATOM      2  C   UNL     1      63.088 -28.876  -1.451  1.00  0.00     0.000 C 
BRANCH   2   3
ATOM      3  C   UNL     1      63.649 -27.452  -1.576  1.00  0.00     0.000 C 
BRANCH   3   4
ATOM      4  C   UNL     1      63.414 -26.839  -2.965  1.00  0.00     0.000 C 
BRANCH   4   5
ATOM      5  C   UNL     1      62.543 -25.572  -2.913  1.00  0.00     0.000 C 
BRANCH   5   6
ATOM      6  C   UNL     1      61.196 -25.751  -3.633  1.00  0.00     0.006 C 
BRANCH   6   7
ATOM      7  C   UNL     1      60.007 -25.266  -2.796  1.00  0.00     0.053 C 
BRANCH   7   8
ATOM      8  C   UNL     1      58.744 -25.329  -3.597  1.00  0.00     0.041 C 
ATOM      9  O   UNL     1      58.394 -24.348  -4.304  1.00  0.00    -0.550 OA
ATOM     10  O   UNL     1      57.981 -26.489  -3.602  1.00  0.00    -0.550 OA
ENDBRANCH   7   8
ENDBRANCH   6   7
ENDBRANCH   5   6
ENDBRANCH   4   5
ENDBRANCH   3   4
ENDBRANCH   2   3
ENDBRANCH   1   2
BRANCH   1  11
ATOM     11  C   UNL     1      60.562 -28.803  -1.590  1.00  0.00     0.000 C 
BRANCH  11  12
ATOM     12  C   UNL     1      59.299 -28.289  -0.866  1.00  0.00    -0.000 C 
BRANCH  12  13
ATOM     13  C   UNL     1      58.263 -29.391  -0.569  1.00  0.00    -0.000 C 
BRANCH  13  14
ATOM     14  C   UNL     1      58.295 -29.938   0.868  1.00  0.00    -0.000 C 
BRANCH  14  15
ATOM     15  C   UNL     1      58.967 -29.014   1.900  1.00  0.00    -0.000 C 
BRANCH  15  16
ATOM     16  C   UNL     1      60.197 -29.643   2.589  1.00  0.00    -0.000 C 
BRANCH  16  17
ATOM     17  C   UNL     1      60.556 -28.935   3.903  1.00  0.00    -0.003 C 
ATOM     18  C   UNL     1      59.618 -27.761   4.172  1.00  0.00     0.004 C 
ENDBRANCH  16  17
ENDBRANCH  15  16
ENDBRANCH  14  15
ENDBRANCH  13  14
ENDBRANCH  12  13
ENDBRANCH  11  12
ENDBRANCH   1  11
TORSDOF 14
ENDMDL
MODEL 2
REMARK VINA RESULT:    -4.679      2.218      5.981
REMARK INTER + INTRA:         -10.106
REMARK INTER:                  -8.329
REMARK INTRA:                  -1.777
REMARK UNBOUND:                -1.598
REMARK SMILES CCCCCCCCCCCCCCCC(=O)[O-]
REMARK SMILES IDX 9 1 10 2 11 3 12 4 13 5 14 6 15 7 16 8 17 9 18 10 8 11 7 12
REMARK SMILES IDX 6 13 5 14 4 15 3 16 2 17 1 18
REMARK H PARENT
REMARK Flexibility Score: inf
ROOT
ATOM      1  C   UNL     1      62.937 -26.211  -2.751  1.00  0.00     0.000 C 
ENDROOT
BRANCH   1   2
ATOM      2  C   UNL     1      62.743 -27.715  -2.525  1.00  0.00     0.000 C 
BRANCH   2   3
ATOM      3  C   UNL     1      63.544 -28.197  -1.307  1.00  0.00     0.000 C 
BRANCH   3   4
ATOM      4  C   UNL     1      62.680 -28.961  -0.291  1.00  0.00     0.000 C 
BRANCH   4   5
ATOM      5  C   UNL     1      61.232 -29.154  -0.775  1.00  0.00     0.000 C 
BRANCH   5   6
ATOM      6  C   UNL     1      60.228 -29.235   0.387  1.00  0.00     0.006 C 
BRANCH   6   7
ATOM      7  C   UNL     1      58.891 -29.861  -0.027  1.00  0.00     0.053 C 
BRANCH   7   8
ATOM      8  C   UNL     1      57.938 -28.802  -0.482  1.00  0.00     0.041 C 
ATOM      9  O   UNL     1      57.742 -27.779   0.227  1.00  0.00    -0.550 OA
ATOM     10  O   UNL     1      57.302 -28.919  -1.711  1.00  0.00    -0.550 OA
ENDBRANCH   7   8
ENDBRANCH   6   7
ENDBRANCH   5   6
ENDBRANCH   4   5
ENDBRANCH   3   4
ENDBRANCH   2   3
ENDBRANCH   1   2
BRANCH   1  11
ATOM     11  C   UNL     1      61.586 -25.486  -2.835  1.00  0.00     0.000 C 
BRANCH  11  12
ATOM     12  C   UNL     1      60.395 -26.468  -2.886  1.00  0.00    -0.000 C 
BRANCH  12  13
ATOM     13  C   UNL     1      59.030 -25.799  -2.631  1.00  0.00    -0.000 C 
BRANCH  13  14
ATOM     14  C   UNL     1      57.956 -26.094  -3.692  1.00  0.00    -0.000 C 
BRANCH  14  15
ATOM     15  C   UNL     1      58.478 -26.167  -5.140  1.00  0.00    -0.000 C 
BRANCH  15  16
ATOM     16  C   UNL     1      58.515 -24.800  -5.855  1.00  0.00    -0.000 C 
BRANCH  16  17
ATOM     17  C   UNL     1      59.919 -24.179  -5.853  1.00  0.00    -0.003 C 
ATOM     18  C   UNL     1      60.936 -25.110  -6.507  1.00  0.00     0.004 C 
ENDBRANCH  16  17
ENDBRANCH  15  16
ENDBRANCH  14  15
ENDBRANCH  13  14
ENDBRANCH  12  13
ENDBRANCH  11  12
ENDBRANCH   1  11
TORSDOF 14
ENDMDL
MODEL 3
REMARK VINA RESULT:    -4.656      1.537      2.646
REMARK INTER + INTRA:         -10.065
REMARK INTER:                  -8.623
REMARK INTRA:                  -1.442
REMARK UNBOUND:                -1.598
REMARK SMILES CCCCCCCCCCCCCCCC(=O)[O-]
REMARK SMILES IDX 9 1 10 2 11 3 12 4 13 5 14 6 15 7 16 8 17 9 18 10 8 11 7 12
REMARK SMILES IDX 6 13 5 14 4 15 3 16 2 17 1 18
REMARK H PARENT
REMARK Flexibility Score: inf
ROOT
ATOM      1  C   UNL     1      62.390 -29.162  -0.554  1.00  0.00     0.000 C 
ENDROOT
BRANCH   1   2
ATOM      2  C   UNL     1      63.473 -28.758  -1.561  1.00  0.00     0.000 C 
BRANCH   2   3
ATOM      3  C   UNL     1      63.591 -27.230  -1.660  1.00  0.00     0.000 C 
BRANCH   3   4
ATOM      4  C   UNL     1      63.528 -26.721  -3.109  1.00  0.00     0.000 C 
BRANCH   4   5
ATOM      5  C   UNL     1      62.505 -25.587  -3.292  1.00  0.00     0.000 C 
BRANCH   5   6
ATOM      6  C   UNL     1      61.126 -25.936  -2.709  1.00  0.00     0.006 C 
BRANCH   6   7
ATOM      7  C   UNL     1      60.066 -26.171  -3.792  1.00  0.00     0.053 C 
BRANCH   7   8
ATOM      8  C   UNL     1      60.161 -25.119  -4.852  1.00  0.00     0.041 C 
ATOM      9  O   UNL     1      60.609 -25.409  -5.994  1.00  0.00    -0.550 OA
ATOM     10  O   UNL     1      59.710 -23.831  -4.598  1.00  0.00    -0.550 OA
ENDBRANCH   7   8
ENDBRANCH   6   7
ENDBRANCH   5   6
ENDBRANCH   4   5
ENDBRANCH   3   4
ENDBRANCH   2   3
ENDBRANCH   1   2
BRANCH   1  11
ATOM     11  C   UNL     1      60.987 -29.024  -1.166  1.00  0.00     0.000 C 
BRANCH  11  12
ATOM     12  C   UNL     1      59.875 -29.451  -0.184  1.00  0.00    -0.000 C 
BRANCH  12  13
ATOM     13  C   UNL     1      60.259 -29.282   1.299  1.00  0.00    -0.000 C 
BRANCH  13  14
ATOM     14  C   UNL     1      59.097 -28.894   2.229  1.00  0.00    -0.000 C 
BRANCH  14  15
ATOM     15  C   UNL     1      57.705 -28.914   1.571  1.00  0.00    -0.000 C 
BRANCH  15  16
ATOM     16  C   UNL     1      57.189 -27.517   1.168  1.00  0.00    -0.000 C 
BRANCH  16  17
ATOM     17  C   UNL     1      56.774 -27.451  -0.308  1.00  0.00    -0.003 C 
ATOM     18  C   UNL     1      57.501 -26.324  -1.037  1.00  0.00     0.004 C 
ENDBRANCH  16  17
ENDBRANCH  15  16
ENDBRANCH  14  15
ENDBRANCH  13  14
ENDBRANCH  12  13
ENDBRANCH  11  12
ENDBRANCH   1  11
TORSDOF 14
ENDMDL
MODEL 4
REMARK VINA RESULT:    -4.631      3.391      7.080
REMARK INTER + INTRA:         -10.020
REMARK INTER:                  -8.853
REMARK INTRA:                  -1.167
REMARK UNBOUND:                -1.598
REMARK SMILES CCCCCCCCCCCCCCCC(=O)[O-]
REMARK SMILES IDX 9 1 10 2 11 3 12 4 13 5 14 6 15 7 16 8 17 9 18 10 8 11 7 12
REMARK SMILES IDX 6 13 5 14 4 15 3 16 2 17 1 18
REMARK H PARENT
REMARK Flexibility Score: inf
ROOT
ATOM      1  C   UNL     1      62.962 -27.846  -2.331  1.00  0.00     0.000 C 
ENDROOT
BRANCH   1   2
ATOM      2  C   UNL     1      63.438 -28.375  -0.973  1.00  0.00     0.000 C 
BRANCH   2   3
ATOM      3  C   UNL     1      62.324 -29.165  -0.269  1.00  0.00     0.000 C 
BRANCH   3   4
ATOM      4  C   UNL     1      60.942 -28.937  -0.902  1.00  0.00     0.000 C 
BRANCH   4   5
ATOM      5  C   UNL     1      59.790 -29.220   0.078  1.00  0.00     0.000 C 
BRANCH   5   6
ATOM      6  C   UNL     1      60.255 -29.245   1.543  1.00  0.00     0.006 C 
BRANCH   6   7
ATOM      7  C   UNL     1      59.159 -28.804   2.520  1.00  0.00     0.053 C 
BRANCH   7   8
ATOM      8  C   UNL     1      59.417 -29.365   3.883  1.00  0.00     0.041 C 
ATOM      9  O   UNL     1      60.514 -29.929   4.138  1.00  0.00    -0.550 OA
ATOM     10  O   UNL     1      58.468 -29.222   4.886  1.00  0.00    -0.550 OA
ENDBRANCH   7   8
ENDBRANCH   6   7
ENDBRANCH   5   6
ENDBRANCH   4   5
ENDBRANCH   3   4
ENDBRANCH   2   3
ENDBRANCH   1   2
BRANCH   1  11
ATOM     11  C   UNL     1      63.497 -26.429  -2.590  1.00  0.00     0.000 C 
BRANCH  11  12
ATOM     12  C   UNL     1      62.421 -25.494  -3.181  1.00  0.00    -0.000 C 
BRANCH  12  13
ATOM     13  C   UNL     1      60.977 -25.938  -2.872  1.00  0.00    -0.000 C 
BRANCH  13  14
ATOM     14  C   UNL     1      60.040 -25.991  -4.091  1.00  0.00    -0.000 C 
BRANCH  14  15
ATOM     15  C   UNL     1      60.648 -25.453  -5.400  1.00  0.00    -0.000 C 
BRANCH  15  16
ATOM     16  C   UNL     1      59.845 -24.293  -6.025  1.00  0.00    -0.000 C 
BRANCH  16  17
ATOM     17  C   UNL     1      59.032 -23.516  -4.980  1.00  0.00    -0.003 C 
ATOM     18  C   UNL     1      57.593 -23.308  -5.444  1.00  0.00     0.004 C 
ENDBRANCH  16  17
ENDBRANCH  15  16
ENDBRANCH  14  15
ENDBRANCH  13  14
ENDBRANCH  12  13
ENDBRANCH  11  12
ENDBRANCH   1  11
TORSDOF 14
ENDMDL
MODEL 5
REMARK VINA RESULT:    -4.616      3.159      5.639
REMARK INTER + INTRA:          -9.993
REMARK INTER:                  -8.288
REMARK INTRA:                  -1.705
REMARK UNBOUND:                -1.598
REMARK SMILES CCCCCCCCCCCCCCCC(=O)[O-]
REMARK SMILES IDX 9 1 10 2 11 3 12 4 13 5 14 6 15 7 16 8 17 9 18 10 8 11 7 12
REMARK SMILES IDX 6 13 5 14 4 15 3 16 2 17 1 18
REMARK H PARENT
REMARK Flexibility Score: inf
ROOT
ATOM      1  C   UNL     1      63.173 -27.351  -2.717  1.00  0.00     0.000 C 
ENDROOT
BRANCH   1   2
ATOM      2  C   UNL     1      63.597 -27.848  -1.330  1.00  0.00     0.000 C 
BRANCH   2   3
ATOM      3  C   UNL     1      62.653 -28.951  -0.828  1.00  0.00     0.000 C 
BRANCH   3   4
ATOM      4  C   UNL     1      61.230 -28.818  -1.392  1.00  0.00     0.000 C 
BRANCH   4   5
ATOM      5  C   UNL     1      60.155 -29.308  -0.406  1.00  0.00     0.000 C 
BRANCH   5   6
ATOM      6  C   UNL     1      60.621 -29.234   1.058  1.00  0.00     0.006 C 
BRANCH   6   7
ATOM      7  C   UNL     1      59.454 -29.128   2.047  1.00  0.00     0.053 C 
BRANCH   7   8
ATOM      8  C   UNL     1      59.961 -29.133   3.455  1.00  0.00     0.041 C 
ATOM      9  O   UNL     1      60.265 -30.221   4.014  1.00  0.00    -0.550 OA
ATOM     10  O   UNL     1      60.145 -27.936   4.133  1.00  0.00    -0.550 OA
ENDBRANCH   7   8
ENDBRANCH   6   7
ENDBRANCH   5   6
ENDBRANCH   4   5
ENDBRANCH   3   4
ENDBRANCH   2   3
ENDBRANCH   1   2
BRANCH   1  11
ATOM     11  C   UNL     1      62.757 -25.874  -2.672  1.00  0.00     0.000 C 
BRANCH  11  12
ATOM     12  C   UNL     1      61.624 -25.552  -3.670  1.00  0.00    -0.000 C 
BRANCH  12  13
ATOM     13  C   UNL     1      60.212 -25.658  -3.061  1.00  0.00    -0.000 C 
BRANCH  13  14
ATOM     14  C   UNL     1      59.249 -26.591  -3.815  1.00  0.00    -0.000 C 
BRANCH  14  15
ATOM     15  C   UNL     1      58.185 -27.274  -2.935  1.00  0.00    -0.000 C 
BRANCH  15  16
ATOM     16  C   UNL     1      58.060 -26.661  -1.524  1.00  0.00    -0.000 C 
BRANCH  16  17
ATOM     17  C   UNL     1      56.898 -27.267  -0.725  1.00  0.00    -0.003 C 
ATOM     18  C   UNL     1      56.866 -26.724   0.701  1.00  0.00     0.004 C 
ENDBRANCH  16  17
ENDBRANCH  15  16
ENDBRANCH  14  15
ENDBRANCH  13  14
ENDBRANCH  12  13
ENDBRANCH  11  12
ENDBRANCH   1  11
TORSDOF 14
ENDMDL
MODEL 6
REMARK VINA RESULT:    -4.580      2.713      5.585
REMARK INTER + INTRA:          -9.926
REMARK INTER:                  -8.103
REMARK INTRA:                  -1.823
REMARK UNBOUND:                -1.598
REMARK SMILES CCCCCCCCCCCCCCCC(=O)[O-]
REMARK SMILES IDX 9 1 10 2 11 3 12 4 13 5 14 6 15 7 16 8 17 9 18 10 8 11 7 12
REMARK SMILES IDX 6 13 5 14 4 15 3 16 2 17 1 18
REMARK H PARENT
REMARK Flexibility Score: inf
ROOT
ATOM      1  C   UNL     1      61.463 -25.242  -3.587  1.00  0.00     0.000 C 
ENDROOT
BRANCH   1   2
ATOM      2  C   UNL     1      62.676 -26.072  -3.150  1.00  0.00     0.000 C 
BRANCH   2   3
ATOM      3  C   UNL     1      62.240 -27.292  -2.325  1.00  0.00     0.000 C 
BRANCH   3   4
ATOM      4  C   UNL     1      63.400 -27.927  -1.543  1.00  0.00     0.000 C 
BRANCH   4   5
ATOM      5  C   UNL     1      62.927 -29.014  -0.562  1.00  0.00     0.000 C 
BRANCH   5   6
ATOM      6  C   UNL     1      61.403 -29.216  -0.596  1.00  0.00     0.006 C 
BRANCH   6   7
ATOM      7  C   UNL     1      60.766 -29.154   0.798  1.00  0.00     0.053 C 
BRANCH   7   8
ATOM      8  C   UNL     1      59.344 -29.617   0.742  1.00  0.00     0.041 C 
ATOM      9  O   UNL     1      58.998 -30.502  -0.085  1.00  0.00    -0.550 OA
ATOM     10  O   UNL     1      58.411 -29.108   1.636  1.00  0.00    -0.550 OA
ENDBRANCH   7   8
ENDBRANCH   6   7
ENDBRANCH   5   6
ENDBRANCH   4   5
ENDBRANCH   3   4
ENDBRANCH   2   3
ENDBRANCH   1   2
BRANCH   1  11
ATOM     11  C   UNL     1      61.334 -25.215  -5.117  1.00  0.00     0.000 C 
BRANCH  11  12
ATOM     12  C   UNL     1      59.888 -24.940  -5.579  1.00  0.00    -0.000 C 
BRANCH  12  13
ATOM     13  C   UNL     1      59.009 -24.272  -4.503  1.00  0.00    -0.000 C 
BRANCH  13  14
ATOM     14  C   UNL     1      57.609 -24.886  -4.336  1.00  0.00    -0.000 C 
BRANCH  14  15
ATOM     15  C   UNL     1      57.194 -25.170  -2.881  1.00  0.00    -0.000 C 
BRANCH  15  16
ATOM     16  C   UNL     1      58.374 -25.546  -1.961  1.00  0.00    -0.000 C 
BRANCH  16  17
ATOM     17  C   UNL     1      58.436 -27.054  -1.678  1.00  0.00    -0.003 C 
ATOM     18  C   UNL     1      58.704 -27.845  -2.955  1.00  0.00     0.004 C 
ENDBRANCH  16  17
ENDBRANCH  15  16
ENDBRANCH  14  15
ENDBRANCH  13  14
ENDBRANCH  12  13
ENDBRANCH  11  12
ENDBRANCH   1  11
TORSDOF 14
ENDMDL
MODEL 7
REMARK VINA RESULT:    -4.576      1.243      1.849
REMARK INTER + INTRA:          -9.919
REMARK INTER:                  -8.500
REMARK INTRA:                  -1.419
REMARK UNBOUND:                -1.598
REMARK SMILES CCCCCCCCCCCCCCCC(=O)[O-]
REMARK SMILES IDX 9 1 10 2 11 3 12 4 13 5 14 6 15 7 16 8 17 9 18 10 8 11 7 12
REMARK SMILES IDX 6 13 5 14 4 15 3 16 2 17 1 18
REMARK H PARENT
REMARK Flexibility Score: inf
ROOT
ATOM      1  C   UNL     1      62.931 -28.873  -0.567  1.00  0.00     0.000 C 
ENDROOT
BRANCH   1   2
ATOM      2  C   UNL     1      62.811 -28.336  -1.998  1.00  0.00     0.000 C 
BRANCH   2   3
ATOM      3  C   UNL     1      63.681 -27.085  -2.191  1.00  0.00     0.000 C 
BRANCH   3   4
ATOM      4  C   UNL     1      62.903 -25.908  -2.800  1.00  0.00     0.000 C 
BRANCH   4   5
ATOM      5  C   UNL     1      61.385 -26.154  -2.828  1.00  0.00     0.000 C 
BRANCH   5   6
ATOM      6  C   UNL     1      60.620 -25.042  -3.565  1.00  0.00     0.006 C 
BRANCH   6   7
ATOM      7  C   UNL     1      59.828 -25.565  -4.770  1.00  0.00     0.053 C 
BRANCH   7   8
ATOM      8  C   UNL     1      59.379 -24.428  -5.633  1.00  0.00     0.041 C 
ATOM      9  O   UNL     1      59.477 -24.508  -6.886  1.00  0.00    -0.550 OA
ATOM     10  O   UNL     1      58.807 -23.301  -5.058  1.00  0.00    -0.550 OA
ENDBRANCH   7   8
ENDBRANCH   6   7
ENDBRANCH   5   6
ENDBRANCH   4   5
ENDBRANCH   3   4
ENDBRANCH   2   3
ENDBRANCH   1   2
BRANCH   1  11
ATOM     11  C   UNL     1      61.546 -29.097   0.058  1.00  0.00     0.000 C 
BRANCH  11  12
ATOM     12  C   UNL     1      60.446 -29.293  -1.008  1.00  0.00    -0.000 C 
BRANCH  12  13
ATOM     13  C   UNL     1      59.204 -28.407  -0.787  1.00  0.00    -0.000 C 
BRANCH  13  14
ATOM     14  C   UNL     1      57.981 -29.140  -0.210  1.00  0.00    -0.000 C 
BRANCH  14  15
ATOM     15  C   UNL     1      58.080 -29.490   1.287  1.00  0.00    -0.000 C 
BRANCH  15  16
ATOM     16  C   UNL     1      58.097 -28.255   2.212  1.00  0.00    -0.000 C 
BRANCH  16  17
ATOM     17  C   UNL     1      59.124 -28.389   3.345  1.00  0.00    -0.003 C 
ATOM     18  C   UNL     1      59.987 -29.635   3.163  1.00  0.00     0.004 C 
ENDBRANCH  16  17
ENDBRANCH  15  16
ENDBRANCH  14  15
ENDBRANCH  13  14
ENDBRANCH  12  13
ENDBRANCH  11  12
ENDBRANCH   1  11
TORSDOF 14
ENDMDL
MODEL 8
REMARK VINA RESULT:    -4.543      2.113      3.669
REMARK INTER + INTRA:          -9.859
REMARK INTER:                  -8.166
REMARK INTRA:                  -1.692
REMARK UNBOUND:                -1.598
REMARK SMILES CCCCCCCCCCCCCCCC(=O)[O-]
REMARK SMILES IDX 9 1 10 2 11 3 12 4 13 5 14 6 15 7 16 8 17 9 18 10 8 11 7 12
REMARK SMILES IDX 6 13 5 14 4 15 3 16 2 17 1 18
REMARK H PARENT
REMARK Flexibility Score: inf
ROOT
ATOM      1  C   UNL     1      63.629 -27.035  -2.085  1.00  0.00     0.000 C 
ENDROOT
BRANCH   1   2
ATOM      2  C   UNL     1      62.874 -25.899  -2.785  1.00  0.00     0.000 C 
BRANCH   2   3
ATOM      3  C   UNL     1      61.383 -26.238  -2.932  1.00  0.00     0.000 C 
BRANCH   3   4
ATOM      4  C   UNL     1      60.596 -25.146  -3.673  1.00  0.00     0.000 C 
BRANCH   4   5
ATOM      5  C   UNL     1      60.771 -25.225  -5.199  1.00  0.00     0.000 C 
BRANCH   5   6
ATOM      6  C   UNL     1      59.455 -25.548  -5.928  1.00  0.00     0.006 C 
BRANCH   6   7
ATOM      7  C   UNL     1      58.233 -25.471  -5.005  1.00  0.00     0.053 C 
BRANCH   7   8
ATOM      8  C   UNL     1      57.365 -24.312  -5.383  1.00  0.00     0.041 C 
ATOM      9  O   UNL     1      57.388 -23.862  -6.560  1.00  0.00    -0.550 OA
ATOM     10  O   UNL     1      56.496 -23.760  -4.452  1.00  0.00    -0.550 OA
ENDBRANCH   7   8
ENDBRANCH   6   7
ENDBRANCH   5   6
ENDBRANCH   4   5
ENDBRANCH   3   4
ENDBRANCH   2   3
ENDBRANCH   1   2
BRANCH   1  11
ATOM     11  C   UNL     1      62.740 -28.278  -1.933  1.00  0.00     0.000 C 
BRANCH  11  12
ATOM     12  C   UNL     1      62.789 -28.864  -0.505  1.00  0.00    -0.000 C 
BRANCH  12  13
ATOM     13  C   UNL     1      61.398 -29.109   0.112  1.00  0.00    -0.000 C 
BRANCH  13  14
ATOM     14  C   UNL     1      60.248 -29.213  -0.904  1.00  0.00    -0.000 C 
BRANCH  14  15
ATOM     15  C   UNL     1      59.021 -28.338  -0.585  1.00  0.00    -0.000 C 
BRANCH  15  16
ATOM     16  C   UNL     1      58.394 -27.672  -1.829  1.00  0.00    -0.000 C 
BRANCH  16  17
ATOM     17  C   UNL     1      57.163 -26.824  -1.479  1.00  0.00    -0.003 C 
ATOM     18  C   UNL     1      57.517 -25.341  -1.407  1.00  0.00     0.004 C 
ENDBRANCH  16  17
ENDBRANCH  15  16
ENDBRANCH  14  15
ENDBRANCH  13  14
ENDBRANCH  12  13
ENDBRANCH  11  12
ENDBRANCH   1  11
TORSDOF 14
ENDMDL
MODEL 9
REMARK VINA RESULT:    -4.525      1.786      3.082
REMARK INTER + INTRA:          -9.827
REMARK INTER:                  -7.975
REMARK INTRA:                  -1.852
REMARK UNBOUND:                -1.598
REMARK SMILES CCCCCCCCCCCCCCCC(=O)[O-]
REMARK SMILES IDX 9 1 10 2 11 3 12 4 13 5 14 6 15 7 16 8 17 9 18 10 8 11 7 12
REMARK SMILES IDX 6 13 5 14 4 15 3 16 2 17 1 18
REMARK H PARENT
REMARK Flexibility Score: inf
ROOT
ATOM      1  C   UNL     1      63.183 -27.407  -2.685  1.00  0.00     0.000 C 
ENDROOT
BRANCH   1   2
ATOM      2  C   UNL     1      62.890 -25.904  -2.759  1.00  0.00     0.000 C 
BRANCH   2   3
ATOM      3  C   UNL     1      61.629 -25.630  -3.593  1.00  0.00     0.000 C 
BRANCH   3   4
ATOM      4  C   UNL     1      60.332 -25.832  -2.793  1.00  0.00     0.000 C 
BRANCH   4   5
ATOM      5  C   UNL     1      59.284 -26.651  -3.566  1.00  0.00     0.000 C 
BRANCH   5   6
ATOM      6  C   UNL     1      58.017 -26.918  -2.736  1.00  0.00     0.006 C 
BRANCH   6   7
ATOM      7  C   UNL     1      57.881 -25.970  -1.538  1.00  0.00     0.053 C 
BRANCH   7   8
ATOM      8  C   UNL     1      56.589 -25.219  -1.611  1.00  0.00     0.041 C 
ATOM      9  O   UNL     1      56.250 -24.645  -2.681  1.00  0.00    -0.550 OA
ATOM     10  O   UNL     1      55.736 -25.192  -0.516  1.00  0.00    -0.550 OA
ENDBRANCH   7   8
ENDBRANCH   6   7
ENDBRANCH   5   6
ENDBRANCH   4   5
ENDBRANCH   3   4
ENDBRANCH   2   3
ENDBRANCH   1   2
BRANCH   1  11
ATOM     11  C   UNL     1      63.631 -27.813  -1.273  1.00  0.00     0.000 C 
BRANCH  11  12
ATOM     12  C   UNL     1      62.659 -28.816  -0.615  1.00  0.00    -0.000 C 
BRANCH  12  13
ATOM     13  C   UNL     1      61.299 -28.922  -1.332  1.00  0.00    -0.000 C 
BRANCH  13  14
ATOM     14  C   UNL     1      60.079 -28.997  -0.399  1.00  0.00    -0.000 C 
BRANCH  14  15
ATOM     15  C   UNL     1      60.412 -29.195   1.092  1.00  0.00    -0.000 C 
BRANCH  15  16
ATOM     16  C   UNL     1      59.203 -28.998   2.030  1.00  0.00    -0.000 C 
BRANCH  16  17
ATOM     17  C   UNL     1      57.940 -28.564   1.271  1.00  0.00    -0.003 C 
ATOM     18  C   UNL     1      57.276 -27.366   1.944  1.00  0.00     0.004 C 
ENDBRANCH  16  17
ENDBRANCH  15  16
ENDBRANCH  14  15
ENDBRANCH  13  14
ENDBRANCH  12  13
ENDBRANCH  11  12
ENDBRANCH   1  11
TORSDOF 14
ENDMDL
