MODEL 1
REMARK VINA RESULT:    -3.910      0.000      0.000
REMARK INTER + INTRA:         -10.242
REMARK INTER:                  -7.338
REMARK INTRA:                  -2.904
REMARK UNBOUND:                -2.904
REMARK SMILES CCCCCCCCC=CCCCCCCCC(=O)[O-]
REMARK SMILES IDX 10 1 9 2 11 3 12 4 13 5 14 6 15 7 16 8 17 9 18 10 19 11
REMARK SMILES IDX 20 12 8 13 7 14 6 15 5 16 4 17 3 18 2 19 1 20
REMARK H PARENT
REMARK Flexibility Score: inf
ROOT
ATOM      1  C   UNL     1      12.332  98.063  20.822  1.00  0.00    -0.031 C 
ATOM      2  C   UNL     1      11.980  97.896  22.104  1.00  0.00    -0.031 C 
ENDROOT
BRANCH   1   3
ATOM      3  C   UNL     1      12.432  96.901  19.874  1.00  0.00     0.027 C 
BRANCH   3   4
ATOM      4  C   UNL     1      13.600  95.977  20.253  1.00  0.00     0.004 C 
BRANCH   4   5
ATOM      5  C   UNL     1      14.951  96.709  20.261  1.00  0.00     0.000 C 
BRANCH   5   6
ATOM      6  C   UNL     1      15.696  96.559  21.598  1.00  0.00     0.000 C 
BRANCH   6   7
ATOM      7  C   UNL     1      14.926  95.695  22.609  1.00  0.00     0.000 C 
BRANCH   7   8
ATOM      8  C   UNL     1      14.869  96.331  24.008  1.00  0.00     0.006 C 
BRANCH   8   9
ATOM      9  C   UNL     1      13.902  95.592  24.941  1.00  0.00     0.053 C 
BRANCH   9  10
ATOM     10  C   UNL     1      14.442  94.257  25.354  1.00  0.00     0.041 C 
ATOM     11  O   UNL     1      15.659  94.127  25.643  1.00  0.00    -0.550 OA
ATOM     12  O   UNL     1      13.591  93.163  25.452  1.00  0.00    -0.550 OA
ENDBRANCH   9  10
ENDBRANCH   8   9
ENDBRANCH   7   8
ENDBRANCH   6   7
ENDBRANCH   5   6
ENDBRANCH   4   5
ENDBRANCH   3   4
ENDBRANCH   1   3
BRANCH   2  13
ATOM     13  C   UNL     1      11.904  99.072  23.040  1.00  0.00     0.027 C 
BRANCH  13  14
ATOM     14  C   UNL     1      13.206  99.886  23.017  1.00  0.00     0.004 C 
BRANCH  14  15
ATOM     15  C   UNL     1      13.867  99.967  24.409  1.00  0.00     0.000 C 
BRANCH  15  16
ATOM     16  C   UNL     1      15.397  99.817  24.373  1.00  0.00     0.000 C 
BRANCH  16  17
ATOM     17  C   UNL     1      15.981  99.967  22.962  1.00  0.00    -0.000 C 
BRANCH  17  18
ATOM     18  C   UNL     1      17.496  99.735  22.965  1.00  0.00    -0.000 C 
BRANCH  18  19
ATOM     19  C   UNL     1      17.931  98.958  24.212  1.00  0.00    -0.003 C 
ATOM     20  C   UNL     1      18.470  97.579  23.841  1.00  0.00     0.004 C 
ENDBRANCH  18  19
ENDBRANCH  17  18
ENDBRANCH  16  17
ENDBRANCH  15  16
ENDBRANCH  14  15
ENDBRANCH  13  14
ENDBRANCH   2  13
TORSDOF 15
ENDMDL
MODEL 2
REMARK VINA RESULT:    -3.906      2.572      5.225
REMARK INTER + INTRA:         -10.235
REMARK INTER:                  -8.003
REMARK INTRA:                  -2.232
REMARK UNBOUND:                -2.904
REMARK SMILES CCCCCCCCC=CCCCCCCCC(=O)[O-]
REMARK SMILES IDX 10 1 9 2 11 3 12 4 13 5 14 6 15 7 16 8 17 9 18 10 19 11
REMARK SMILES IDX 20 12 8 13 7 14 6 15 5 16 4 17 3 18 2 19 1 20
REMARK H PARENT
REMARK Flexibility Score: inf
ROOT
ATOM      1  C   UNL     1      15.095  99.371  23.055  1.00  0.00    -0.031 C 
ATOM      2  C   UNL     1      13.978  99.711  22.398  1.00  0.00    -0.031 C 
ENDROOT
BRANCH   1   3
ATOM      3  C   UNL     1      16.412 100.038  22.768  1.00  0.00     0.027 C 
BRANCH   3   4
ATOM      4  C   UNL     1      17.568  99.302  23.463  1.00  0.00     0.004 C 
BRANCH   4   5
ATOM      5  C   UNL     1      17.186  98.791  24.861  1.00  0.00     0.000 C 
BRANCH   5   6
ATOM      6  C   UNL     1      18.115  97.667  25.353  1.00  0.00     0.000 C 
BRANCH   6   7
ATOM      7  C   UNL     1      18.818  96.935  24.200  1.00  0.00     0.000 C 
BRANCH   7   8
ATOM      8  C   UNL     1      19.528  95.651  24.660  1.00  0.00     0.006 C 
BRANCH   8   9
ATOM      9  C   UNL     1      21.023  95.877  24.918  1.00  0.00     0.053 C 
BRANCH   9  10
ATOM     10  C   UNL     1      21.694  94.633  25.416  1.00  0.00     0.041 C 
ATOM     11  O   UNL     1      21.498  94.236  26.594  1.00  0.00    -0.550 OA
ATOM     12  O   UNL     1      22.508  93.895  24.567  1.00  0.00    -0.550 OA
ENDBRANCH   9  10
ENDBRANCH   8   9
ENDBRANCH   7   8
ENDBRANCH   6   7
ENDBRANCH   5   6
ENDBRANCH   4   5
ENDBRANCH   3   4
ENDBRANCH   1   3
BRANCH   2  13
ATOM     13  C   UNL     1      12.674  99.018  22.688  1.00  0.00     0.027 C 
BRANCH  13  14
ATOM     14  C   UNL     1      11.837  98.854  21.411  1.00  0.00     0.004 C 
BRANCH  14  15
ATOM     15  C   UNL     1      11.739  97.380  20.963  1.00  0.00     0.000 C 
BRANCH  15  16
ATOM     16  C   UNL     1      12.853  96.956  19.992  1.00  0.00     0.000 C 
BRANCH  16  17
ATOM     17  C   UNL     1      13.856  95.980  20.622  1.00  0.00    -0.000 C 
BRANCH  17  18
ATOM     18  C   UNL     1      15.252  96.605  20.711  1.00  0.00    -0.000 C 
BRANCH  18  19
ATOM     19  C   UNL     1      16.114  95.882  21.751  1.00  0.00    -0.003 C 
ATOM     20  C   UNL     1      15.440  95.883  23.121  1.00  0.00     0.004 C 
ENDBRANCH  18  19
ENDBRANCH  17  18
ENDBRANCH  16  17
ENDBRANCH  15  16
ENDBRANCH  14  15
ENDBRANCH  13  14
ENDBRANCH   2  13
TORSDOF 15
ENDMDL
MODEL 3
REMARK VINA RESULT:    -3.894      2.376      4.866
REMARK INTER + INTRA:         -10.212
REMARK INTER:                  -8.169
REMARK INTRA:                  -2.043
REMARK UNBOUND:                -2.904
REMARK SMILES CCCCCCCCC=CCCCCCCCC(=O)[O-]
REMARK SMILES IDX 10 1 9 2 11 3 12 4 13 5 14 6 15 7 16 8 17 9 18 10 19 11
REMARK SMILES IDX 20 12 8 13 7 14 6 15 5 16 4 17 3 18 2 19 1 20
REMARK H PARENT
REMARK Flexibility Score: inf
ROOT
ATOM      1  C   UNL     1      12.894  99.664  22.496  1.00  0.00    -0.031 C 
ATOM      2  C   UNL     1      11.778  98.971  22.230  1.00  0.00    -0.031 C 
ENDROOT
BRANCH   1   3
ATOM      3  C   UNL     1      13.170 100.218  23.866  1.00  0.00     0.027 C 
BRANCH   3   4
ATOM      4  C   UNL     1      14.596  99.875  24.324  1.00  0.00     0.004 C 
BRANCH   4   5
ATOM      5  C   UNL     1      15.423  99.197  23.221  1.00  0.00     0.000 C 
BRANCH   5   6
ATOM      6  C   UNL     1      16.616 100.055  22.766  1.00  0.00     0.000 C 
BRANCH   6   7
ATOM      7  C   UNL     1      17.945  99.592  23.381  1.00  0.00     0.000 C 
BRANCH   7   8
ATOM      8  C   UNL     1      17.771  98.402  24.339  1.00  0.00     0.006 C 
BRANCH   8   9
ATOM      9  C   UNL     1      17.943  98.809  25.808  1.00  0.00     0.053 C 
BRANCH   9  10
ATOM     10  C   UNL     1      19.382  98.797  26.221  1.00  0.00     0.041 C 
ATOM     11  O   UNL     1      19.958  99.868  26.546  1.00  0.00    -0.550 OA
ATOM     12  O   UNL     1      20.078  97.597  26.281  1.00  0.00    -0.550 OA
ENDBRANCH   9  10
ENDBRANCH   8   9
ENDBRANCH   7   8
ENDBRANCH   6   7
ENDBRANCH   5   6
ENDBRANCH   4   5
ENDBRANCH   3   4
ENDBRANCH   1   3
BRANCH   2  13
ATOM     13  C   UNL     1      11.513  98.440  20.848  1.00  0.00     0.027 C 
BRANCH  13  14
ATOM     14  C   UNL     1      11.798  96.934  20.767  1.00  0.00     0.004 C 
BRANCH  14  15
ATOM     15  C   UNL     1      12.997  96.615  19.850  1.00  0.00     0.000 C 
BRANCH  15  16
ATOM     16  C   UNL     1      14.363  96.857  20.515  1.00  0.00     0.000 C 
BRANCH  16  17
ATOM     17  C   UNL     1      14.937  95.599  21.179  1.00  0.00    -0.000 C 
BRANCH  17  18
ATOM     18  C   UNL     1      16.277  95.899  21.860  1.00  0.00    -0.000 C 
BRANCH  18  19
ATOM     19  C   UNL     1      16.360  95.223  23.233  1.00  0.00    -0.003 C 
ATOM     20  C   UNL     1      15.197  95.646  24.127  1.00  0.00     0.004 C 
ENDBRANCH  18  19
ENDBRANCH  17  18
ENDBRANCH  16  17
ENDBRANCH  15  16
ENDBRANCH  14  15
ENDBRANCH  13  14
ENDBRANCH   2  13
TORSDOF 15
ENDMDL
MODEL 4
REMARK VINA RESULT:    -3.891     10.944     14.414
REMARK INTER + INTRA:         -10.207
REMARK INTER:                  -7.725
REMARK INTRA:                  -2.481
REMARK UNBOUND:                -2.904
REMARK SMILES CCCCCCCCC=CCCCCCCCC(=O)[O-]
REMARK SMILES IDX 10 1 9 2 11 3 12 4 13 5 14 6 15 7 16 8 17 9 18 10 19 11
REMARK SMILES IDX 20 12 8 13 7 14 6 15 5 16 4 17 3 18 2 19 1 20
REMARK H PARENT
REMARK Flexibility Score: inf
ROOT
ATOM      1  C   UNL     1      19.794  86.004  28.030  1.00  0.00    -0.031 C 
ATOM      2  C   UNL     1      19.998  85.177  29.065  1.00  0.00    -0.031 C 
ENDROOT
BRANCH   1   3
ATOM      3  C   UNL     1      20.746  87.126  27.718  1.00  0.00     0.027 C 
BRANCH   3   4
ATOM      4  C   UNL     1      19.988  88.385  27.269  1.00  0.00     0.004 C 
BRANCH   4   5
ATOM      5  C   UNL     1      18.465  88.181  27.252  1.00  0.00     0.000 C 
BRANCH   5   6
ATOM      6  C   UNL     1      17.736  89.104  28.244  1.00  0.00     0.000 C 
BRANCH   6   7
ATOM      7  C   UNL     1      18.666  89.642  29.342  1.00  0.00     0.000 C 
BRANCH   7   8
ATOM      8  C   UNL     1      18.125  89.376  30.758  1.00  0.00     0.006 C 
BRANCH   8   9
ATOM      9  C   UNL     1      18.495  87.977  31.265  1.00  0.00     0.053 C 
BRANCH   9  10
ATOM     10  C   UNL     1      17.293  87.232  31.761  1.00  0.00     0.041 C 
ATOM     11  O   UNL     1      16.707  87.602  32.811  1.00  0.00    -0.550 OA
ATOM     12  O   UNL     1      16.801  86.150  31.044  1.00  0.00    -0.550 OA
ENDBRANCH   9  10
ENDBRANCH   8   9
ENDBRANCH   7   8
ENDBRANCH   6   7
ENDBRANCH   5   6
ENDBRANCH   4   5
ENDBRANCH   3   4
ENDBRANCH   1   3
BRANCH   2  13
ATOM     13  C   UNL     1      19.024  84.072  29.370  1.00  0.00     0.027 C 
BRANCH  13  14
ATOM     14  C   UNL     1      19.746  82.730  29.554  1.00  0.00     0.004 C 
BRANCH  14  15
ATOM     15  C   UNL     1      19.855  81.940  28.232  1.00  0.00     0.000 C 
BRANCH  15  16
ATOM     16  C   UNL     1      18.769  82.303  27.206  1.00  0.00     0.000 C 
BRANCH  16  17
ATOM     17  C   UNL     1      19.342  82.672  25.832  1.00  0.00    -0.000 C 
BRANCH  17  18
ATOM     18  C   UNL     1      20.820  83.067  25.939  1.00  0.00    -0.000 C 
BRANCH  18  19
ATOM     19  C   UNL     1      21.236  83.963  24.767  1.00  0.00    -0.003 C 
ATOM     20  C   UNL     1      20.138  84.965  24.422  1.00  0.00     0.004 C 
ENDBRANCH  18  19
ENDBRANCH  17  18
ENDBRANCH  16  17
ENDBRANCH  15  16
ENDBRANCH  14  15
ENDBRANCH  13  14
ENDBRANCH   2  13
TORSDOF 15
ENDMDL
MODEL 5
REMARK VINA RESULT:    -3.873      1.752      4.492
REMARK INTER + INTRA:         -10.174
REMARK INTER:                  -7.748
REMARK INTRA:                  -2.426
REMARK UNBOUND:                -2.904
REMARK SMILES CCCCCCCCC=CCCCCCCCC(=O)[O-]
REMARK SMILES IDX 10 1 9 2 11 3 12 4 13 5 14 6 15 7 16 8 17 9 18 10 19 11
REMARK SMILES IDX 20 12 8 13 7 14 6 15 5 16 4 17 3 18 2 19 1 20
REMARK H PARENT
REMARK Flexibility Score: inf
ROOT
ATOM      1  C   UNL     1      14.156  99.576  23.033  1.00  0.00    -0.031 C 
ATOM      2  C   UNL     1      13.054  99.129  23.652  1.00  0.00    -0.031 C 
ENDROOT
BRANCH   1   3
ATOM      3  C   UNL     1      15.360 100.038  23.805  1.00  0.00     0.027 C 
BRANCH   3   4
ATOM      4  C   UNL     1      16.616 100.046  22.919  1.00  0.00     0.004 C 
BRANCH   4   5
ATOM      5  C   UNL     1      17.745  99.176  23.491  1.00  0.00     0.000 C 
BRANCH   5   6
ATOM      6  C   UNL     1      17.502  98.783  24.959  1.00  0.00     0.000 C 
BRANCH   6   7
ATOM      7  C   UNL     1      18.782  98.305  25.662  1.00  0.00     0.000 C 
BRANCH   7   8
ATOM      8  C   UNL     1      19.254  96.930  25.160  1.00  0.00     0.006 C 
BRANCH   8   9
ATOM      9  C   UNL     1      18.081  95.977  24.894  1.00  0.00     0.053 C 
BRANCH   9  10
ATOM     10  C   UNL     1      18.554  94.627  24.449  1.00  0.00     0.041 C 
ATOM     11  O   UNL     1      19.472  94.038  25.077  1.00  0.00    -0.550 OA
ATOM     12  O   UNL     1      17.957  94.005  23.361  1.00  0.00    -0.550 OA
ENDBRANCH   9  10
ENDBRANCH   8   9
ENDBRANCH   7   8
ENDBRANCH   6   7
ENDBRANCH   5   6
ENDBRANCH   4   5
ENDBRANCH   3   4
ENDBRANCH   1   3
BRANCH   2  13
ATOM     13  C   UNL     1      11.853  98.688  22.860  1.00  0.00     0.027 C 
BRANCH  13  14
ATOM     14  C   UNL     1      12.083  98.873  21.353  1.00  0.00     0.004 C 
BRANCH  14  15
ATOM     15  C   UNL     1      11.471  97.723  20.524  1.00  0.00     0.000 C 
BRANCH  15  16
ATOM     16  C   UNL     1      12.513  96.901  19.748  1.00  0.00     0.000 C 
BRANCH  16  17
ATOM     17  C   UNL     1      13.488  96.151  20.665  1.00  0.00    -0.000 C 
BRANCH  17  18
ATOM     18  C   UNL     1      14.931  96.615  20.434  1.00  0.00    -0.000 C 
BRANCH  18  19
ATOM     19  C   UNL     1      15.749  96.534  21.727  1.00  0.00    -0.003 C 
ATOM     20  C   UNL     1      14.932  95.915  22.858  1.00  0.00     0.004 C 
ENDBRANCH  18  19
ENDBRANCH  17  18
ENDBRANCH  16  17
ENDBRANCH  15  16
ENDBRANCH  14  15
ENDBRANCH  13  14
ENDBRANCH   2  13
TORSDOF 15
ENDMDL
MODEL 6
REMARK VINA RESULT:    -3.783      1.860      3.533
REMARK INTER + INTRA:         -10.005
REMARK INTER:                  -7.115
REMARK INTRA:                  -2.889
REMARK UNBOUND:                -2.904
REMARK SMILES CCCCCCCCC=CCCCCCCCC(=O)[O-]
REMARK SMILES IDX 10 1 9 2 11 3 12 4 13 5 14 6 15 7 16 8 17 9 18 10 19 11
REMARK SMILES IDX 20 12 8 13 7 14 6 15 5 16 4 17 3 18 2 19 1 20
REMARK H PARENT
REMARK Flexibility Score: inf
ROOT
ATOM      1  C   UNL     1      15.107  97.440  20.970  1.00  0.00    -0.031 C 
ATOM      2  C   UNL     1      15.159  98.041  22.166  1.00  0.00    -0.031 C 
ENDROOT
BRANCH   1   3
ATOM      3  C   UNL     1      14.648  96.016  20.823  1.00  0.00     0.027 C 
BRANCH   3   4
ATOM      4  C   UNL     1      13.114  95.926  20.822  1.00  0.00     0.004 C 
BRANCH   4   5
ATOM      5  C   UNL     1      12.467  96.904  19.829  1.00  0.00     0.000 C 
BRANCH   5   6
ATOM      6  C   UNL     1      11.283  97.671  20.443  1.00  0.00     0.000 C 
BRANCH   6   7
ATOM      7  C   UNL     1      11.734  98.817  21.362  1.00  0.00     0.000 C 
BRANCH   7   8
ATOM      8  C   UNL     1      11.019  98.801  22.723  1.00  0.00     0.006 C 
BRANCH   8   9
ATOM      9  C   UNL     1      12.003  98.690  23.894  1.00  0.00     0.053 C 
BRANCH   9  10
ATOM     10  C   UNL     1      12.242  97.263  24.284  1.00  0.00     0.041 C 
ATOM     11  O   UNL     1      11.419  96.370  23.954  1.00  0.00    -0.550 OA
ATOM     12  O   UNL     1      13.391  96.916  24.983  1.00  0.00    -0.550 OA
ENDBRANCH   9  10
ENDBRANCH   8   9
ENDBRANCH   7   8
ENDBRANCH   6   7
ENDBRANCH   5   6
ENDBRANCH   4   5
ENDBRANCH   3   4
ENDBRANCH   1   3
BRANCH   2  13
ATOM     13  C   UNL     1      15.639  99.462  22.293  1.00  0.00     0.027 C 
BRANCH  13  14
ATOM     14  C   UNL     1      15.550  99.950  23.746  1.00  0.00     0.004 C 
BRANCH  14  15
ATOM     15  C   UNL     1      16.347  99.051  24.714  1.00  0.00     0.000 C 
BRANCH  15  16
ATOM     16  C   UNL     1      17.838  98.932  24.357  1.00  0.00     0.000 C 
BRANCH  16  17
ATOM     17  C   UNL     1      18.370  97.497  24.474  1.00  0.00    -0.000 C 
BRANCH  17  18
ATOM     18  C   UNL     1      17.317  96.569  25.091  1.00  0.00    -0.000 C 
BRANCH  18  19
ATOM     19  C   UNL     1      16.943  95.441  24.122  1.00  0.00    -0.003 C 
ATOM     20  C   UNL     1      17.778  95.511  22.846  1.00  0.00     0.004 C 
ENDBRANCH  18  19
ENDBRANCH  17  18
ENDBRANCH  16  17
ENDBRANCH  15  16
ENDBRANCH  14  15
ENDBRANCH  13  14
ENDBRANCH   2  13
TORSDOF 15
ENDMDL
MODEL 7
REMARK VINA RESULT:    -3.764      1.743      5.339
REMARK INTER + INTRA:          -9.969
REMARK INTER:                  -7.002
REMARK INTRA:                  -2.966
REMARK UNBOUND:                -2.904
REMARK SMILES CCCCCCCCC=CCCCCCCCC(=O)[O-]
REMARK SMILES IDX 10 1 9 2 11 3 12 4 13 5 14 6 15 7 16 8 17 9 18 10 19 11
REMARK SMILES IDX 20 12 8 13 7 14 6 15 5 16 4 17 3 18 2 19 1 20
REMARK H PARENT
REMARK Flexibility Score: inf
ROOT
ATOM      1  C   UNL     1      13.361  96.658  24.584  1.00  0.00    -0.031 C 
ATOM      2  C   UNL     1      14.571  96.336  24.107  1.00  0.00    -0.031 C 
ENDROOT
BRANCH   1   3
ATOM      3  C   UNL     1      13.014  98.071  24.963  1.00  0.00     0.027 C 
BRANCH   3   4
ATOM      4  C   UNL     1      12.743  98.927  23.716  1.00  0.00     0.004 C 
BRANCH   4   5
ATOM      5  C   UNL     1      13.792 100.032  23.521  1.00  0.00     0.000 C 
BRANCH   5   6
ATOM      6  C   UNL     1      14.758  99.731  22.362  1.00  0.00     0.000 C 
BRANCH   6   7
ATOM      7  C   UNL     1      16.225 100.002  22.730  1.00  0.00     0.000 C 
BRANCH   7   8
ATOM      8  C   UNL     1      16.676  99.223  23.977  1.00  0.00     0.006 C 
BRANCH   8   9
ATOM      9  C   UNL     1      18.063  98.595  23.798  1.00  0.00     0.053 C 
BRANCH   9  10
ATOM     10  C   UNL     1      18.385  97.637  24.903  1.00  0.00     0.041 C 
ATOM     11  O   UNL     1      17.996  96.442  24.839  1.00  0.00    -0.550 OA
ATOM     12  O   UNL     1      19.144  98.056  25.988  1.00  0.00    -0.550 OA
ENDBRANCH   9  10
ENDBRANCH   8   9
ENDBRANCH   7   8
ENDBRANCH   6   7
ENDBRANCH   5   6
ENDBRANCH   4   5
ENDBRANCH   3   4
ENDBRANCH   1   3
BRANCH   2  13
ATOM     13  C   UNL     1      14.903  94.912  23.751  1.00  0.00     0.027 C 
BRANCH  13  14
ATOM     14  C   UNL     1      15.560  94.825  22.366  1.00  0.00     0.004 C 
BRANCH  14  15
ATOM     15  C   UNL     1      15.806  96.218  21.749  1.00  0.00     0.000 C 
BRANCH  15  16
ATOM     16  C   UNL     1      14.880  96.540  20.565  1.00  0.00     0.000 C 
BRANCH  16  17
ATOM     17  C   UNL     1      13.831  95.448  20.311  1.00  0.00    -0.000 C 
BRANCH  17  18
ATOM     18  C   UNL     1      12.415  95.972  20.575  1.00  0.00    -0.000 C 
BRANCH  18  19
ATOM     19  C   UNL     1      12.373  97.502  20.509  1.00  0.00    -0.003 C 
ATOM     20  C   UNL     1      10.964  98.002  20.205  1.00  0.00     0.004 C 
ENDBRANCH  18  19
ENDBRANCH  17  18
ENDBRANCH  16  17
ENDBRANCH  15  16
ENDBRANCH  14  15
ENDBRANCH  13  14
ENDBRANCH   2  13
TORSDOF 15
ENDMDL
MODEL 8
REMARK VINA RESULT:    -3.762      3.746      5.406
REMARK INTER + INTRA:          -9.964
REMARK INTER:                  -7.203
REMARK INTRA:                  -2.761
REMARK UNBOUND:                -2.904
REMARK SMILES CCCCCCCCC=CCCCCCCCC(=O)[O-]
REMARK SMILES IDX 10 1 9 2 11 3 12 4 13 5 14 6 15 7 16 8 17 9 18 10 19 11
REMARK SMILES IDX 20 12 8 13 7 14 6 15 5 16 4 17 3 18 2 19 1 20
REMARK H PARENT
REMARK Flexibility Score: inf
ROOT
ATOM      1  C   UNL     1      11.494  94.243  22.088  1.00  0.00    -0.031 C 
ATOM      2  C   UNL     1      10.312  94.469  21.497  1.00  0.00    -0.031 C 
ENDROOT
BRANCH   1   3
ATOM      3  C   UNL     1      12.553  93.400  21.435  1.00  0.00     0.027 C 
BRANCH   3   4
ATOM      4  C   UNL     1      12.325  93.301  19.919  1.00  0.00     0.004 C 
BRANCH   4   5
ATOM      5  C   UNL     1      12.428  91.858  19.401  1.00  0.00     0.000 C 
BRANCH   5   6
ATOM      6  C   UNL     1      11.315  90.952  19.954  1.00  0.00     0.000 C 
BRANCH   6   7
ATOM      7  C   UNL     1      11.838  89.576  20.393  1.00  0.00     0.000 C 
BRANCH   7   8
ATOM      8  C   UNL     1      12.138  89.510  21.900  1.00  0.00     0.006 C 
BRANCH   8   9
ATOM      9  C   UNL     1      11.093  90.265  22.732  1.00  0.00     0.053 C 
BRANCH   9  10
ATOM     10  C   UNL     1      11.700  90.884  23.954  1.00  0.00     0.041 C 
ATOM     11  O   UNL     1      12.941  90.819  24.148  1.00  0.00    -0.550 OA
ATOM     12  O   UNL     1      10.897  91.563  24.861  1.00  0.00    -0.550 OA
ENDBRANCH   9  10
ENDBRANCH   8   9
ENDBRANCH   7   8
ENDBRANCH   6   7
ENDBRANCH   5   6
ENDBRANCH   4   5
ENDBRANCH   3   4
ENDBRANCH   1   3
BRANCH   2  13
ATOM     13  C   UNL     1       9.259  95.302  22.177  1.00  0.00     0.027 C 
BRANCH  13  14
ATOM     14  C   UNL     1       9.151  96.692  21.535  1.00  0.00     0.004 C 
BRANCH  14  15
ATOM     15  C   UNL     1       9.956  97.757  22.310  1.00  0.00     0.000 C 
BRANCH  15  16
ATOM     16  C   UNL     1      11.232  98.213  21.585  1.00  0.00     0.000 C 
BRANCH  16  17
ATOM     17  C   UNL     1      11.243  97.836  20.097  1.00  0.00    -0.000 C 
BRANCH  17  18
ATOM     18  C   UNL     1      12.473  96.989  19.752  1.00  0.00    -0.000 C 
BRANCH  18  19
ATOM     19  C   UNL     1      13.508  97.036  20.882  1.00  0.00    -0.003 C 
ATOM     20  C   UNL     1      14.790  96.309  20.486  1.00  0.00     0.004 C 
ENDBRANCH  18  19
ENDBRANCH  17  18
ENDBRANCH  16  17
ENDBRANCH  15  16
ENDBRANCH  14  15
ENDBRANCH  13  14
ENDBRANCH   2  13
TORSDOF 15
ENDMDL
MODEL 9
REMARK VINA RESULT:    -3.729      3.665      5.571
REMARK INTER + INTRA:          -9.903
REMARK INTER:                  -7.503
REMARK INTRA:                  -2.400
REMARK UNBOUND:                -2.904
REMARK SMILES CCCCCCCCC=CCCCCCCCC(=O)[O-]
REMARK SMILES IDX 10 1 9 2 11 3 12 4 13 5 14 6 15 7 16 8 17 9 18 10 19 11
REMARK SMILES IDX 20 12 8 13 7 14 6 15 5 16 4 17 3 18 2 19 1 20
REMARK H PARENT
REMARK Flexibility Score: inf
ROOT
ATOM      1  C   UNL     1      13.614  95.102  21.901  1.00  0.00    -0.031 C 
ATOM      2  C   UNL     1      14.068  95.617  20.750  1.00  0.00    -0.031 C 
ENDROOT
BRANCH   1   3
ATOM      3  C   UNL     1      12.444  94.159  21.935  1.00  0.00     0.027 C 
BRANCH   3   4
ATOM      4  C   UNL     1      11.771  94.063  20.556  1.00  0.00     0.004 C 
BRANCH   4   5
ATOM      5  C   UNL     1      10.623  93.041  20.531  1.00  0.00     0.000 C 
BRANCH   5   6
ATOM      6  C   UNL     1      10.897  91.870  19.571  1.00  0.00     0.000 C 
BRANCH   6   7
ATOM      7  C   UNL     1      12.398  91.636  19.338  1.00  0.00     0.000 C 
BRANCH   7   8
ATOM      8  C   UNL     1      12.940  90.437  20.136  1.00  0.00     0.006 C 
BRANCH   8   9
ATOM      9  C   UNL     1      11.830  89.454  20.529  1.00  0.00     0.053 C 
BRANCH   9  10
ATOM     10  C   UNL     1      11.719  89.309  22.016  1.00  0.00     0.041 C 
ATOM     11  O   UNL     1      10.995  90.097  22.677  1.00  0.00    -0.550 OA
ATOM     12  O   UNL     1      12.390  88.281  22.666  1.00  0.00    -0.550 OA
ENDBRANCH   9  10
ENDBRANCH   8   9
ENDBRANCH   7   8
ENDBRANCH   6   7
ENDBRANCH   5   6
ENDBRANCH   4   5
ENDBRANCH   3   4
ENDBRANCH   1   3
BRANCH   2  13
ATOM     13  C   UNL     1      15.230  96.573  20.741  1.00  0.00     0.027 C 
BRANCH  13  14
ATOM     14  C   UNL     1      15.374  97.285  22.093  1.00  0.00     0.004 C 
BRANCH  14  15
ATOM     15  C   UNL     1      15.044  98.790  21.998  1.00  0.00     0.000 C 
BRANCH  15  16
ATOM     16  C   UNL     1      13.833  99.211  22.846  1.00  0.00     0.000 C 
BRANCH  16  17
ATOM     17  C   UNL     1      12.519  99.215  22.052  1.00  0.00    -0.000 C 
BRANCH  17  18
ATOM     18  C   UNL     1      11.552  98.150  22.581  1.00  0.00    -0.000 C 
BRANCH  18  19
ATOM     19  C   UNL     1      10.740  97.529  21.439  1.00  0.00    -0.003 C 
ATOM     20  C   UNL     1      11.362  97.849  20.083  1.00  0.00     0.004 C 
ENDBRANCH  18  19
ENDBRANCH  17  18
ENDBRANCH  16  17
ENDBRANCH  15  16
ENDBRANCH  14  15
ENDBRANCH  13  14
ENDBRANCH   2  13
TORSDOF 15
ENDMDL
