MODEL 1
REMARK VINA RESULT:    -5.535      0.000      0.000
REMARK INTER + INTRA:          -9.322
REMARK INTER:                  -8.610
REMARK INTRA:                  -0.712
REMARK UNBOUND:                -0.712
REMARK SMILES COc1cc(CNC(=O)CCCCC=CC(C)C)ccc1O
REMARK SMILES IDX 11 1 12 2 13 3 14 4 15 5 16 6 17 7 18 8 10 9 8 10 9 11 7 12
REMARK SMILES IDX 6 14 5 15 4 16 19 17 3 18 20 19 21 20 2 21 1 22 22 23
REMARK H PARENT 7 13 22 24
REMARK Flexibility Score: inf
ROOT
ATOM      1  C   UNL     1      -5.523  -9.564  28.297  1.00  0.00     0.010 C 
ENDROOT
BRANCH   1   2
ATOM      2  C   UNL     1      -6.140  -8.860  29.517  1.00  0.00     0.005 C 
BRANCH   2   3
ATOM      3  C   UNL     1      -5.812  -7.355  29.602  1.00  0.00     0.027 C 
BRANCH   3   4
ATOM      4  C   UNL     1      -5.900  -6.685  28.251  1.00  0.00    -0.031 C 
ATOM      5  C   UNL     1      -5.622  -5.394  27.971  1.00  0.00    -0.028 C 
BRANCH   5   6
ATOM      6  C   UNL     1      -5.047  -4.333  28.895  1.00  0.00     0.005 C 
ATOM      7  C   UNL     1      -3.514  -4.298  28.927  1.00  0.00     0.012 C 
ATOM      8  C   UNL     1      -5.658  -2.948  28.645  1.00  0.00     0.012 C 
ENDBRANCH   5   6
ENDBRANCH   3   4
ENDBRANCH   2   3
ENDBRANCH   1   2
BRANCH   1   9
ATOM      9  C   UNL     1      -4.626 -10.747  28.682  1.00  0.00     0.100 C 
BRANCH   9  10
ATOM     10  C   UNL     1      -4.252 -11.533  27.462  1.00  0.00     0.220 C 
ATOM     11  O   UNL     1      -4.924 -11.389  26.403  1.00  0.00    -0.275 OA
ATOM     12  N   UNL     1      -3.105 -12.393  27.482  1.00  0.00    -0.352 N 
ATOM     13  H   UNL     1      -2.565 -12.499  28.372  1.00  0.00     0.163 HD
BRANCH  12  14
ATOM     14  C   UNL     1      -2.594 -13.049  26.282  1.00  0.00     0.151 C 
BRANCH  14  15
ATOM     15  C   UNL     1      -1.374 -12.323  25.783  1.00  0.00    -0.025 A 
ATOM     16  C   UNL     1      -1.140 -12.189  24.405  1.00  0.00     0.056 A 
ATOM     17  C   UNL     1      -0.495 -11.719  26.693  1.00  0.00     0.009 A 
ATOM     18  C   UNL     1      -0.019 -11.477  23.934  1.00  0.00     0.160 A 
ATOM     19  C   UNL     1       0.620 -11.016  26.235  1.00  0.00     0.050 A 
ATOM     20  C   UNL     1       0.863 -10.893  24.862  1.00  0.00     0.157 A 
BRANCH  18  21
ATOM     21  O   UNL     1       0.243 -11.326  22.562  1.00  0.00    -0.493 OA
ATOM     22  C   UNL     1       0.529 -12.400  21.671  1.00  0.00     0.278 C 
ENDBRANCH  18  21
BRANCH  20  23
ATOM     23  O   UNL     1       1.989 -10.184  24.440  1.00  0.00    -0.504 OA
ATOM     24  H   UNL     1       2.924 -10.414  24.757  1.00  0.00     0.293 HD
ENDBRANCH  20  23
ENDBRANCH  14  15
ENDBRANCH  12  14
ENDBRANCH   9  10
ENDBRANCH   1   9
TORSDOF 10
ENDMDL
MODEL 2
REMARK VINA RESULT:    -5.472      4.821      9.513
REMARK INTER + INTRA:          -9.224
REMARK INTER:                  -8.624
REMARK INTRA:                  -0.600
REMARK UNBOUND:                -0.712
REMARK SMILES COc1cc(CNC(=O)CCCCC=CC(C)C)ccc1O
REMARK SMILES IDX 11 1 12 2 13 3 14 4 15 5 16 6 17 7 18 8 10 9 8 10 9 11 7 12
REMARK SMILES IDX 6 14 5 15 4 16 19 17 3 18 20 19 21 20 2 21 1 22 22 23
REMARK H PARENT 7 13 22 24
REMARK Flexibility Score: inf
ROOT
ATOM      1  C   UNL     1      -6.066  -7.562  28.987  1.00  0.00     0.010 C 
ENDROOT
BRANCH   1   2
ATOM      2  C   UNL     1      -6.225  -8.748  29.952  1.00  0.00     0.005 C 
BRANCH   2   3
ATOM      3  C   UNL     1      -5.310  -9.946  29.626  1.00  0.00     0.027 C 
BRANCH   3   4
ATOM      4  C   UNL     1      -5.247 -10.216  28.142  1.00  0.00    -0.031 C 
ATOM      5  C   UNL     1      -4.326 -10.962  27.495  1.00  0.00    -0.028 C 
BRANCH   5   6
ATOM      6  C   UNL     1      -3.207 -11.801  28.090  1.00  0.00     0.005 C 
ATOM      7  C   UNL     1      -3.691 -13.076  28.791  1.00  0.00     0.012 C 
ATOM      8  C   UNL     1      -2.085 -12.079  27.081  1.00  0.00     0.012 C 
ENDBRANCH   5   6
ENDBRANCH   3   4
ENDBRANCH   2   3
ENDBRANCH   1   2
BRANCH   1   9
ATOM      9  C   UNL     1      -5.523  -6.302  29.675  1.00  0.00     0.100 C 
BRANCH   9  10
ATOM     10  C   UNL     1      -5.371  -5.192  28.679  1.00  0.00     0.220 C 
ATOM     11  O   UNL     1      -4.987  -5.461  27.507  1.00  0.00    -0.275 OA
ATOM     12  N   UNL     1      -5.720  -3.849  29.039  1.00  0.00    -0.352 N 
ATOM     13  H   UNL     1      -6.033  -3.650  30.017  1.00  0.00     0.163 HD
BRANCH  12  14
ATOM     14  C   UNL     1      -5.756  -2.760  28.068  1.00  0.00     0.151 C 
BRANCH  14  15
ATOM     15  C   UNL     1      -4.861  -1.640  28.522  1.00  0.00    -0.025 A 
ATOM     16  C   UNL     1      -3.467  -1.748  28.396  1.00  0.00     0.056 A 
ATOM     17  C   UNL     1      -5.418  -0.452  29.016  1.00  0.00     0.009 A 
ATOM     18  C   UNL     1      -2.627  -0.684  28.785  1.00  0.00     0.160 A 
ATOM     19  C   UNL     1      -4.594   0.604  29.407  1.00  0.00     0.050 A 
ATOM     20  C   UNL     1      -3.203   0.494  29.296  1.00  0.00     0.157 A 
BRANCH  18  21
ATOM     21  O   UNL     1      -1.229  -0.763  28.673  1.00  0.00    -0.493 OA
ATOM     22  C   UNL     1      -0.524  -1.864  28.109  1.00  0.00     0.278 C 
ENDBRANCH  18  21
BRANCH  20  23
ATOM     23  O   UNL     1      -2.409   1.569  29.698  1.00  0.00    -0.504 OA
ATOM     24  H   UNL     1      -1.415   1.610  29.504  1.00  0.00     0.293 HD
ENDBRANCH  20  23
ENDBRANCH  14  15
ENDBRANCH  12  14
ENDBRANCH   9  10
ENDBRANCH   1   9
TORSDOF 10
ENDMDL
MODEL 3
REMARK VINA RESULT:    -5.442      7.843     11.030
REMARK INTER + INTRA:          -9.177
REMARK INTER:                  -7.894
REMARK INTRA:                  -1.284
REMARK UNBOUND:                -0.712
REMARK SMILES COc1cc(CNC(=O)CCCCC=CC(C)C)ccc1O
REMARK SMILES IDX 11 1 12 2 13 3 14 4 15 5 16 6 17 7 18 8 10 9 8 10 9 11 7 12
REMARK SMILES IDX 6 14 5 15 4 16 19 17 3 18 20 19 21 20 2 21 1 22 22 23
REMARK H PARENT 7 13 22 24
REMARK Flexibility Score: inf
ROOT
ATOM      1  C   UNL     1      -2.386  -2.987  28.733  1.00  0.00     0.010 C 
ENDROOT
BRANCH   1   2
ATOM      2  C   UNL     1      -3.444  -3.953  29.291  1.00  0.00     0.005 C 
BRANCH   2   3
ATOM      3  C   UNL     1      -4.832  -3.311  29.493  1.00  0.00     0.027 C 
BRANCH   3   4
ATOM      4  C   UNL     1      -5.231  -2.457  28.313  1.00  0.00    -0.031 C 
ATOM      5  C   UNL     1      -5.316  -1.109  28.284  1.00  0.00    -0.028 C 
BRANCH   5   6
ATOM      6  C   UNL     1      -4.928  -0.118  29.368  1.00  0.00     0.005 C 
ATOM      7  C   UNL     1      -3.472   0.357  29.285  1.00  0.00     0.012 C 
ATOM      8  C   UNL     1      -5.917   1.050  29.473  1.00  0.00     0.012 C 
ENDBRANCH   5   6
ENDBRANCH   3   4
ENDBRANCH   2   3
ENDBRANCH   1   2
BRANCH   1   9
ATOM      9  C   UNL     1      -0.953  -3.508  28.904  1.00  0.00     0.100 C 
BRANCH   9  10
ATOM     10  C   UNL     1       0.033  -2.464  28.477  1.00  0.00     0.220 C 
ATOM     11  O   UNL     1       0.138  -2.175  27.253  1.00  0.00    -0.275 OA
ATOM     12  N   UNL     1       0.804  -1.758  29.459  1.00  0.00    -0.352 N 
ATOM     13  H   UNL     1       0.702  -2.016  30.467  1.00  0.00     0.163 HD
BRANCH  12  14
ATOM     14  C   UNL     1       1.650  -0.617  29.120  1.00  0.00     0.151 C 
BRANCH  14  15
ATOM     15  C   UNL     1       0.809   0.623  28.988  1.00  0.00    -0.025 A 
ATOM     16  C   UNL     1       0.550   1.175  27.723  1.00  0.00     0.056 A 
ATOM     17  C   UNL     1       0.224   1.200  30.124  1.00  0.00     0.009 A 
ATOM     18  C   UNL     1      -0.270   2.315  27.593  1.00  0.00     0.160 A 
ATOM     19  C   UNL     1      -0.585   2.330  30.004  1.00  0.00     0.050 A 
ATOM     20  C   UNL     1      -0.834   2.891  28.746  1.00  0.00     0.157 A 
BRANCH  18  21
ATOM     21  O   UNL     1      -0.547   2.891  26.341  1.00  0.00    -0.493 OA
ATOM     22  C   UNL     1       0.292   3.834  25.682  1.00  0.00     0.278 C 
ENDBRANCH  18  21
BRANCH  20  23
ATOM     23  O   UNL     1      -1.646   4.023  28.664  1.00  0.00    -0.504 OA
ATOM     24  H   UNL     1      -1.996   4.374  27.779  1.00  0.00     0.293 HD
ENDBRANCH  20  23
ENDBRANCH  14  15
ENDBRANCH  12  14
ENDBRANCH   9  10
ENDBRANCH   1   9
TORSDOF 10
ENDMDL
MODEL 4
REMARK VINA RESULT:    -5.237      4.351      8.666
REMARK INTER + INTRA:          -8.858
REMARK INTER:                  -8.224
REMARK INTRA:                  -0.634
REMARK UNBOUND:                -0.712
REMARK SMILES COc1cc(CNC(=O)CCCCC=CC(C)C)ccc1O
REMARK SMILES IDX 11 1 12 2 13 3 14 4 15 5 16 6 17 7 18 8 10 9 8 10 9 11 7 12
REMARK SMILES IDX 6 14 5 15 4 16 19 17 3 18 20 19 21 20 2 21 1 22 22 23
REMARK H PARENT 7 13 22 24
REMARK Flexibility Score: inf
ROOT
ATOM      1  C   UNL     1      -6.267  -7.848  29.425  1.00  0.00     0.010 C 
ENDROOT
BRANCH   1   2
ATOM      2  C   UNL     1      -5.751  -9.290  29.567  1.00  0.00     0.005 C 
BRANCH   2   3
ATOM      3  C   UNL     1      -5.408  -9.966  28.224  1.00  0.00     0.027 C 
BRANCH   3   4
ATOM      4  C   UNL     1      -4.320 -11.001  28.379  1.00  0.00    -0.031 C 
ATOM      5  C   UNL     1      -4.076 -12.045  27.557  1.00  0.00    -0.028 C 
BRANCH   5   6
ATOM      6  C   UNL     1      -4.740 -12.374  26.231  1.00  0.00     0.005 C 
ATOM      7  C   UNL     1      -4.015 -11.794  25.010  1.00  0.00     0.012 C 
ATOM      8  C   UNL     1      -5.030 -13.873  26.079  1.00  0.00     0.012 C 
ENDBRANCH   5   6
ENDBRANCH   3   4
ENDBRANCH   2   3
ENDBRANCH   1   2
BRANCH   1   9
ATOM      9  C   UNL     1      -5.753  -7.152  28.158  1.00  0.00     0.100 C 
BRANCH   9  10
ATOM     10  C   UNL     1      -5.831  -5.664  28.316  1.00  0.00     0.220 C 
ATOM     11  O   UNL     1      -6.480  -4.985  27.473  1.00  0.00    -0.275 OA
ATOM     12  N   UNL     1      -5.225  -5.027  29.449  1.00  0.00    -0.352 N 
ATOM     13  H   UNL     1      -4.690  -5.610  30.134  1.00  0.00     0.163 HD
BRANCH  12  14
ATOM     14  C   UNL     1      -5.413  -3.610  29.746  1.00  0.00     0.151 C 
BRANCH  14  15
ATOM     15  C   UNL     1      -4.231  -2.823  29.248  1.00  0.00    -0.025 A 
ATOM     16  C   UNL     1      -2.975  -3.435  29.110  1.00  0.00     0.056 A 
ATOM     17  C   UNL     1      -4.392  -1.486  28.858  1.00  0.00     0.009 A 
ATOM     18  C   UNL     1      -1.876  -2.711  28.608  1.00  0.00     0.160 A 
ATOM     19  C   UNL     1      -3.308  -0.761  28.364  1.00  0.00     0.050 A 
ATOM     20  C   UNL     1      -2.052  -1.364  28.238  1.00  0.00     0.157 A 
BRANCH  18  21
ATOM     21  O   UNL     1      -0.607  -3.295  28.459  1.00  0.00    -0.493 OA
ATOM     22  C   UNL     1       0.478  -3.115  29.364  1.00  0.00     0.278 C 
ENDBRANCH  18  21
BRANCH  20  23
ATOM     23  O   UNL     1      -0.989  -0.608  27.741  1.00  0.00    -0.504 OA
ATOM     24  H   UNL     1      -1.090   0.007  26.941  1.00  0.00     0.293 HD
ENDBRANCH  20  23
ENDBRANCH  14  15
ENDBRANCH  12  14
ENDBRANCH   9  10
ENDBRANCH   1   9
TORSDOF 10
ENDMDL
MODEL 5
REMARK VINA RESULT:    -5.227      7.415     11.200
REMARK INTER + INTRA:          -8.843
REMARK INTER:                  -7.738
REMARK INTRA:                  -1.104
REMARK UNBOUND:                -0.712
REMARK SMILES COc1cc(CNC(=O)CCCCC=CC(C)C)ccc1O
REMARK SMILES IDX 11 1 12 2 13 3 14 4 15 5 16 6 17 7 18 8 10 9 8 10 9 11 7 12
REMARK SMILES IDX 6 14 5 15 4 16 19 17 3 18 20 19 21 20 2 21 1 22 22 23
REMARK H PARENT 7 13 22 24
REMARK Flexibility Score: inf
ROOT
ATOM      1  C   UNL     1      -2.562  -2.738  29.143  1.00  0.00     0.010 C 
ENDROOT
BRANCH   1   2
ATOM      2  C   UNL     1      -2.886  -1.397  28.465  1.00  0.00     0.005 C 
BRANCH   2   3
ATOM      3  C   UNL     1      -4.316  -1.314  27.895  1.00  0.00     0.027 C 
BRANCH   3   4
ATOM      4  C   UNL     1      -5.352  -1.710  28.920  1.00  0.00    -0.031 C 
ATOM      5  C   UNL     1      -5.944  -2.917  29.045  1.00  0.00    -0.028 C 
BRANCH   5   6
ATOM      6  C   UNL     1      -5.643  -4.196  28.282  1.00  0.00     0.005 C 
ATOM      7  C   UNL     1      -5.354  -5.405  29.180  1.00  0.00     0.012 C 
ATOM      8  C   UNL     1      -6.703  -4.502  27.215  1.00  0.00     0.012 C 
ENDBRANCH   5   6
ENDBRANCH   3   4
ENDBRANCH   2   3
ENDBRANCH   1   2
BRANCH   1   9
ATOM      9  C   UNL     1      -1.288  -3.392  28.594  1.00  0.00     0.100 C 
BRANCH   9  10
ATOM     10  C   UNL     1      -0.266  -2.345  28.268  1.00  0.00     0.220 C 
ATOM     11  O   UNL     1      -0.035  -2.061  27.060  1.00  0.00    -0.275 OA
ATOM     12  N   UNL     1       0.396  -1.632  29.321  1.00  0.00    -0.352 N 
ATOM     13  H   UNL     1       0.191  -1.887  30.315  1.00  0.00     0.163 HD
BRANCH  12  14
ATOM     14  C   UNL     1       1.269  -0.490  29.068  1.00  0.00     0.151 C 
BRANCH  14  15
ATOM     15  C   UNL     1       0.458   0.777  29.040  1.00  0.00    -0.025 A 
ATOM     16  C   UNL     1       0.645   1.719  28.016  1.00  0.00     0.056 A 
ATOM     17  C   UNL     1      -0.537   0.996  30.003  1.00  0.00     0.009 A 
ATOM     18  C   UNL     1      -0.139   2.889  27.965  1.00  0.00     0.160 A 
ATOM     19  C   UNL     1      -1.315   2.153  29.962  1.00  0.00     0.050 A 
ATOM     20  C   UNL     1      -1.121   3.100  28.951  1.00  0.00     0.157 A 
BRANCH  18  21
ATOM     21  O   UNL     1       0.025   3.851  26.954  1.00  0.00    -0.493 OA
ATOM     22  C   UNL     1       0.171   3.551  25.569  1.00  0.00     0.278 C 
ENDBRANCH  18  21
BRANCH  20  23
ATOM     23  O   UNL     1      -1.917   4.247  28.943  1.00  0.00    -0.504 OA
ATOM     24  H   UNL     1      -2.871   4.246  29.285  1.00  0.00     0.293 HD
ENDBRANCH  20  23
ENDBRANCH  14  15
ENDBRANCH  12  14
ENDBRANCH   9  10
ENDBRANCH   1   9
TORSDOF 10
ENDMDL
MODEL 6
REMARK VINA RESULT:    -5.212      1.257      2.225
REMARK INTER + INTRA:          -8.819
REMARK INTER:                  -8.160
REMARK INTRA:                  -0.659
REMARK UNBOUND:                -0.712
REMARK SMILES COc1cc(CNC(=O)CCCCC=CC(C)C)ccc1O
REMARK SMILES IDX 11 1 12 2 13 3 14 4 15 5 16 6 17 7 18 8 10 9 8 10 9 11 7 12
REMARK SMILES IDX 6 14 5 15 4 16 19 17 3 18 20 19 21 20 2 21 1 22 22 23
REMARK H PARENT 7 13 22 24
REMARK Flexibility Score: inf
ROOT
ATOM      1  C   UNL     1      -5.335  -9.840  29.189  1.00  0.00     0.010 C 
ENDROOT
BRANCH   1   2
ATOM      2  C   UNL     1      -6.354  -8.747  29.552  1.00  0.00     0.005 C 
BRANCH   2   3
ATOM      3  C   UNL     1      -5.754  -7.328  29.609  1.00  0.00     0.027 C 
BRANCH   3   4
ATOM      4  C   UNL     1      -5.888  -6.610  28.287  1.00  0.00    -0.031 C 
ATOM      5  C   UNL     1      -5.630  -5.306  28.047  1.00  0.00    -0.028 C 
BRANCH   5   6
ATOM      6  C   UNL     1      -5.037  -4.274  28.992  1.00  0.00     0.005 C 
ATOM      7  C   UNL     1      -3.506  -4.193  28.946  1.00  0.00     0.012 C 
ATOM      8  C   UNL     1      -5.699  -2.898  28.842  1.00  0.00     0.012 C 
ENDBRANCH   5   6
ENDBRANCH   3   4
ENDBRANCH   2   3
ENDBRANCH   1   2
BRANCH   1   9
ATOM      9  C   UNL     1      -5.346 -10.194  27.697  1.00  0.00     0.100 C 
BRANCH   9  10
ATOM     10  C   UNL     1      -4.344 -11.271  27.411  1.00  0.00     0.220 C 
ATOM     11  O   UNL     1      -3.373 -11.438  28.201  1.00  0.00    -0.275 OA
ATOM     12  N   UNL     1      -4.522 -12.140  26.285  1.00  0.00    -0.352 N 
ATOM     13  H   UNL     1      -5.331 -11.981  25.642  1.00  0.00     0.163 HD
BRANCH  12  14
ATOM     14  C   UNL     1      -3.677 -13.309  26.055  1.00  0.00     0.151 C 
BRANCH  14  15
ATOM     15  C   UNL     1      -2.722 -13.034  24.925  1.00  0.00    -0.025 A 
ATOM     16  C   UNL     1      -1.446 -12.508  25.185  1.00  0.00     0.056 A 
ATOM     17  C   UNL     1      -3.077 -13.361  23.609  1.00  0.00     0.009 A 
ATOM     18  C   UNL     1      -0.534 -12.286  24.133  1.00  0.00     0.160 A 
ATOM     19  C   UNL     1      -2.182 -13.139  22.562  1.00  0.00     0.050 A 
ATOM     20  C   UNL     1      -0.915 -12.603  22.815  1.00  0.00     0.157 A 
BRANCH  18  21
ATOM     21  O   UNL     1       0.749 -11.761  24.360  1.00  0.00    -0.493 OA
ATOM     22  C   UNL     1       1.027 -10.638  25.191  1.00  0.00     0.278 C 
ENDBRANCH  18  21
BRANCH  20  23
ATOM     23  O   UNL     1      -0.047 -12.394  21.743  1.00  0.00    -0.504 OA
ATOM     24  H   UNL     1      -0.172 -12.853  20.848  1.00  0.00     0.293 HD
ENDBRANCH  20  23
ENDBRANCH  14  15
ENDBRANCH  12  14
ENDBRANCH   9  10
ENDBRANCH   1   9
TORSDOF 10
ENDMDL
MODEL 7
REMARK VINA RESULT:    -5.093      7.327     10.630
REMARK INTER + INTRA:          -8.633
REMARK INTER:                  -7.508
REMARK INTRA:                  -1.126
REMARK UNBOUND:                -0.712
REMARK SMILES COc1cc(CNC(=O)CCCCC=CC(C)C)ccc1O
REMARK SMILES IDX 11 1 12 2 13 3 14 4 15 5 16 6 17 7 18 8 10 9 8 10 9 11 7 12
REMARK SMILES IDX 6 14 5 15 4 16 19 17 3 18 20 19 21 20 2 21 1 22 22 23
REMARK H PARENT 7 13 22 24
REMARK Flexibility Score: inf
ROOT
ATOM      1  C   UNL     1       0.969  -0.119  27.410  1.00  0.00     0.010 C 
ENDROOT
BRANCH   1   2
ATOM      2  C   UNL     1       1.813   1.035  27.975  1.00  0.00     0.005 C 
BRANCH   2   3
ATOM      3  C   UNL     1       1.287   2.436  27.601  1.00  0.00     0.027 C 
BRANCH   3   4
ATOM      4  C   UNL     1      -0.120   2.379  27.055  1.00  0.00    -0.031 C 
ATOM      5  C   UNL     1      -1.262   2.316  27.773  1.00  0.00    -0.028 C 
BRANCH   5   6
ATOM      6  C   UNL     1      -1.433   2.405  29.280  1.00  0.00     0.005 C 
ATOM      7  C   UNL     1      -2.201   3.647  29.748  1.00  0.00     0.012 C 
ATOM      8  C   UNL     1      -1.996   1.110  29.881  1.00  0.00     0.012 C 
ENDBRANCH   5   6
ENDBRANCH   3   4
ENDBRANCH   2   3
ENDBRANCH   1   2
BRANCH   1   9
ATOM      9  C   UNL     1       1.654  -1.484  27.552  1.00  0.00     0.100 C 
BRANCH   9  10
ATOM     10  C   UNL     1       0.968  -2.302  28.605  1.00  0.00     0.220 C 
ATOM     11  O   UNL     1       1.383  -2.250  29.796  1.00  0.00    -0.275 OA
ATOM     12  N   UNL     1      -0.185  -3.085  28.270  1.00  0.00    -0.352 N 
ATOM     13  H   UNL     1      -0.509  -3.115  27.276  1.00  0.00     0.163 HD
BRANCH  12  14
ATOM     14  C   UNL     1      -0.993  -3.763  29.279  1.00  0.00     0.151 C 
BRANCH  14  15
ATOM     15  C   UNL     1      -2.455  -3.588  28.966  1.00  0.00    -0.025 A 
ATOM     16  C   UNL     1      -2.980  -2.310  28.713  1.00  0.00     0.056 A 
ATOM     17  C   UNL     1      -3.290  -4.709  28.863  1.00  0.00     0.009 A 
ATOM     18  C   UNL     1      -4.340  -2.147  28.382  1.00  0.00     0.160 A 
ATOM     19  C   UNL     1      -4.639  -4.555  28.540  1.00  0.00     0.050 A 
ATOM     20  C   UNL     1      -5.168  -3.283  28.301  1.00  0.00     0.157 A 
BRANCH  18  21
ATOM     21  O   UNL     1      -4.895  -0.883  28.123  1.00  0.00    -0.493 OA
ATOM     22  C   UNL     1      -5.412  -0.007  29.121  1.00  0.00     0.278 C 
ENDBRANCH  18  21
BRANCH  20  23
ATOM     23  O   UNL     1      -6.522  -3.167  27.981  1.00  0.00    -0.504 OA
ATOM     24  H   UNL     1      -6.838  -2.827  27.080  1.00  0.00     0.293 HD
ENDBRANCH  20  23
ENDBRANCH  14  15
ENDBRANCH  12  14
ENDBRANCH   9  10
ENDBRANCH   1   9
TORSDOF 10
ENDMDL
MODEL 8
REMARK VINA RESULT:    -5.004      2.881      5.158
REMARK INTER + INTRA:          -8.496
REMARK INTER:                  -8.220
REMARK INTRA:                  -0.275
REMARK UNBOUND:                -0.712
REMARK SMILES COc1cc(CNC(=O)CCCCC=CC(C)C)ccc1O
REMARK SMILES IDX 11 1 12 2 13 3 14 4 15 5 16 6 17 7 18 8 10 9 8 10 9 11 7 12
REMARK SMILES IDX 6 14 5 15 4 16 19 17 3 18 20 19 21 20 2 21 1 22 22 23
REMARK H PARENT 7 13 22 24
REMARK Flexibility Score: inf
ROOT
ATOM      1  C   UNL     1      -5.766  -4.423  28.784  1.00  0.00     0.010 C 
ENDROOT
BRANCH   1   2
ATOM      2  C   UNL     1      -4.323  -3.938  28.995  1.00  0.00     0.005 C 
BRANCH   2   3
ATOM      3  C   UNL     1      -4.215  -2.452  29.392  1.00  0.00     0.027 C 
BRANCH   3   4
ATOM      4  C   UNL     1      -4.460  -1.538  28.216  1.00  0.00    -0.031 C 
ATOM      5  C   UNL     1      -3.566  -0.706  27.639  1.00  0.00    -0.028 C 
BRANCH   5   6
ATOM      6  C   UNL     1      -2.084  -0.563  27.940  1.00  0.00     0.005 C 
ATOM      7  C   UNL     1      -1.197  -0.512  26.690  1.00  0.00     0.012 C 
ATOM      8  C   UNL     1      -1.793   0.590  28.909  1.00  0.00     0.012 C 
ENDBRANCH   5   6
ENDBRANCH   3   4
ENDBRANCH   2   3
ENDBRANCH   1   2
BRANCH   1   9
ATOM      9  C   UNL     1      -5.847  -5.720  27.969  1.00  0.00     0.100 C 
BRANCH   9  10
ATOM     10  C   UNL     1      -5.727  -6.910  28.872  1.00  0.00     0.220 C 
ATOM     11  O   UNL     1      -5.641  -6.734  30.119  1.00  0.00    -0.275 OA
ATOM     12  N   UNL     1      -5.773  -8.235  28.327  1.00  0.00    -0.352 N 
ATOM     13  H   UNL     1      -5.842  -8.357  27.291  1.00  0.00     0.163 HD
BRANCH  12  14
ATOM     14  C   UNL     1      -5.833  -9.428  29.168  1.00  0.00     0.151 C 
BRANCH  14  15
ATOM     15  C   UNL     1      -4.954 -10.504  28.592  1.00  0.00    -0.025 A 
ATOM     16  C   UNL     1      -4.994 -10.797  27.219  1.00  0.00     0.056 A 
ATOM     17  C   UNL     1      -4.041 -11.180  29.414  1.00  0.00     0.009 A 
ATOM     18  C   UNL     1      -4.144 -11.778  26.670  1.00  0.00     0.160 A 
ATOM     19  C   UNL     1      -3.200 -12.156  28.878  1.00  0.00     0.050 A 
ATOM     20  C   UNL     1      -3.247 -12.460  27.513  1.00  0.00     0.157 A 
BRANCH  18  21
ATOM     21  O   UNL     1      -4.162 -12.094  25.301  1.00  0.00    -0.493 OA
ATOM     22  C   UNL     1      -3.053 -11.938  24.421  1.00  0.00     0.278 C 
ENDBRANCH  18  21
BRANCH  20  23
ATOM     23  O   UNL     1      -2.392 -13.443  27.013  1.00  0.00    -0.504 OA
ATOM     24  H   UNL     1      -2.135 -13.488  26.033  1.00  0.00     0.293 HD
ENDBRANCH  20  23
ENDBRANCH  14  15
ENDBRANCH  12  14
ENDBRANCH   9  10
ENDBRANCH   1   9
TORSDOF 10
ENDMDL
