MODEL 1
REMARK VINA RESULT:    -0.871      0.000      0.000
REMARK INTER + INTRA:          -8.265
REMARK INTER:                  -2.194
REMARK INTRA:                  -6.071
REMARK UNBOUND:                -6.071
REMARK SMILES CCCCCCCCCCCCCCCCCCCCCCCCCCCC(=O)[O-]
REMARK SMILES IDX 15 1 16 2 17 3 18 4 19 5 20 6 21 7 22 8 23 9 24 10 25 11
REMARK SMILES IDX 26 12 27 13 28 14 29 15 30 16 14 17 13 18 12 19 11 20 10 21
REMARK SMILES IDX 9 22 8 23 7 24 6 25 5 26 4 27 3 28 2 29 1 30
REMARK H PARENT
REMARK Flexibility Score: inf
ROOT
ATOM      1  C   UNL     1      24.767  -5.923  16.448  1.00  0.00     0.000 C 
ENDROOT
BRANCH   1   2
ATOM      2  C   UNL     1      25.951  -6.094  17.418  1.00  0.00     0.000 C 
BRANCH   2   3
ATOM      3  C   UNL     1      26.637  -7.473  17.319  1.00  0.00     0.000 C 
BRANCH   3   4
ATOM      4  C   UNL     1      28.087  -7.376  16.812  1.00  0.00     0.000 C 
BRANCH   4   5
ATOM      5  C   UNL     1      28.343  -8.205  15.537  1.00  0.00     0.000 C 
BRANCH   5   6
ATOM      6  C   UNL     1      29.375  -9.342  15.686  1.00  0.00     0.000 C 
BRANCH   6   7
ATOM      7  C   UNL     1      28.900 -10.476  16.606  1.00  0.00     0.000 C 
BRANCH   7   8
ATOM      8  C   UNL     1      30.050 -10.984  17.486  1.00  0.00     0.000 C 
BRANCH   8   9
ATOM      9  C   UNL     1      31.120  -9.913  17.762  1.00  0.00     0.000 C 
BRANCH   9  10
ATOM     10  C   UNL     1      30.855  -9.022  18.993  1.00  0.00     0.000 C 
BRANCH  10  11
ATOM     11  C   UNL     1      29.930  -9.639  20.059  1.00  0.00     0.000 C 
BRANCH  11  12
ATOM     12  C   UNL     1      28.585  -8.900  20.219  1.00  0.00     0.006 C 
BRANCH  12  13
ATOM     13  C   UNL     1      27.379  -9.840  20.092  1.00  0.00     0.053 C 
BRANCH  13  14
ATOM     14  C   UNL     1      26.834 -10.191  21.443  1.00  0.00     0.041 C 
ATOM     15  O   UNL     1      27.327  -9.670  22.478  1.00  0.00    -0.550 OA
ATOM     16  O   UNL     1      25.786 -11.097  21.559  1.00  0.00    -0.550 OA
ENDBRANCH  13  14
ENDBRANCH  12  13
ENDBRANCH  11  12
ENDBRANCH  10  11
ENDBRANCH   9  10
ENDBRANCH   8   9
ENDBRANCH   7   8
ENDBRANCH   6   7
ENDBRANCH   5   6
ENDBRANCH   4   5
ENDBRANCH   3   4
ENDBRANCH   2   3
ENDBRANCH   1   2
BRANCH   1  17
ATOM     17  C   UNL     1      25.180  -6.034  14.974  1.00  0.00     0.000 C 
BRANCH  17  18
ATOM     18  C   UNL     1      24.246  -6.979  14.205  1.00  0.00     0.000 C 
BRANCH  18  19
ATOM     19  C   UNL     1      24.252  -8.413  14.766  1.00  0.00     0.000 C 
BRANCH  19  20
ATOM     20  C   UNL     1      25.080  -9.425  13.954  1.00  0.00     0.000 C 
BRANCH  20  21
ATOM     21  C   UNL     1      25.648 -10.564  14.819  1.00  0.00     0.000 C 
BRANCH  21  22
ATOM     22  C   UNL     1      24.658 -11.022  15.902  1.00  0.00    -0.000 C 
BRANCH  22  23
ATOM     23  C   UNL     1      25.260 -10.935  17.314  1.00  0.00    -0.000 C 
BRANCH  23  24
ATOM     24  C   UNL     1      24.193 -10.741  18.405  1.00  0.00    -0.000 C 
BRANCH  24  25
ATOM     25  C   UNL     1      23.924  -9.274  18.793  1.00  0.00    -0.000 C 
BRANCH  25  26
ATOM     26  C   UNL     1      22.685  -8.635  18.133  1.00  0.00    -0.000 C 
BRANCH  26  27
ATOM     27  C   UNL     1      21.569  -9.625  17.757  1.00  0.00    -0.000 C 
BRANCH  27  28
ATOM     28  C   UNL     1      21.158  -9.527  16.277  1.00  0.00    -0.000 C 
BRANCH  28  29
ATOM     29  C   UNL     1      20.970 -10.906  15.627  1.00  0.00    -0.003 C 
ATOM     30  C   UNL     1      21.405 -10.932  14.159  1.00  0.00     0.004 C 
ENDBRANCH  28  29
ENDBRANCH  27  28
ENDBRANCH  26  27
ENDBRANCH  25  26
ENDBRANCH  24  25
ENDBRANCH  23  24
ENDBRANCH  22  23
ENDBRANCH  21  22
ENDBRANCH  20  21
ENDBRANCH  19  20
ENDBRANCH  18  19
ENDBRANCH  17  18
ENDBRANCH   1  17
TORSDOF 26
ENDMDL
MODEL 2
REMARK VINA RESULT:    -0.847      2.837      4.456
REMARK INTER + INTRA:          -8.206
REMARK INTER:                  -1.870
REMARK INTRA:                  -6.337
REMARK UNBOUND:                -6.071
REMARK SMILES CCCCCCCCCCCCCCCCCCCCCCCCCCCC(=O)[O-]
REMARK SMILES IDX 15 1 16 2 17 3 18 4 19 5 20 6 21 7 22 8 23 9 24 10 25 11
REMARK SMILES IDX 26 12 27 13 28 14 29 15 30 16 14 17 13 18 12 19 11 20 10 21
REMARK SMILES IDX 9 22 8 23 7 24 6 25 5 26 4 27 3 28 2 29 1 30
REMARK H PARENT
REMARK Flexibility Score: inf
ROOT
ATOM      1  C   UNL     1      26.992  -5.869  17.799  1.00  0.00     0.000 C 
ENDROOT
BRANCH   1   2
ATOM      2  C   UNL     1      28.339  -6.614  17.863  1.00  0.00     0.000 C 
BRANCH   2   3
ATOM      3  C   UNL     1      29.099  -6.404  19.190  1.00  0.00     0.000 C 
BRANCH   3   4
ATOM      4  C   UNL     1      28.155  -6.172  20.383  1.00  0.00     0.000 C 
BRANCH   4   5
ATOM      5  C   UNL     1      27.685  -7.479  21.053  1.00  0.00     0.000 C 
BRANCH   5   6
ATOM      6  C   UNL     1      28.723  -8.160  21.968  1.00  0.00     0.000 C 
BRANCH   6   7
ATOM      7  C   UNL     1      29.092  -9.580  21.515  1.00  0.00     0.000 C 
BRANCH   7   8
ATOM      8  C   UNL     1      28.056 -10.125  20.524  1.00  0.00     0.000 C 
BRANCH   8   9
ATOM      9  C   UNL     1      28.680 -10.625  19.208  1.00  0.00     0.000 C 
BRANCH   9  10
ATOM     10  C   UNL     1      30.030  -9.981  18.836  1.00  0.00     0.000 C 
BRANCH  10  11
ATOM     11  C   UNL     1      30.223  -9.685  17.337  1.00  0.00     0.000 C 
BRANCH  11  12
ATOM     12  C   UNL     1      29.180 -10.370  16.428  1.00  0.00     0.006 C 
BRANCH  12  13
ATOM     13  C   UNL     1      28.797  -9.508  15.218  1.00  0.00     0.053 C 
BRANCH  13  14
ATOM     14  C   UNL     1      28.325 -10.364  14.084  1.00  0.00     0.041 C 
ATOM     15  O   UNL     1      27.096 -10.449  13.823  1.00  0.00    -0.550 OA
ATOM     16  O   UNL     1      29.243 -11.075  13.317  1.00  0.00    -0.550 OA
ENDBRANCH  13  14
ENDBRANCH  12  13
ENDBRANCH  11  12
ENDBRANCH  10  11
ENDBRANCH   9  10
ENDBRANCH   8   9
ENDBRANCH   7   8
ENDBRANCH   6   7
ENDBRANCH   5   6
ENDBRANCH   4   5
ENDBRANCH   3   4
ENDBRANCH   2   3
ENDBRANCH   1   2
BRANCH   1  17
ATOM     17  C   UNL     1      25.803  -6.805  17.546  1.00  0.00     0.000 C 
BRANCH  17  18
ATOM     18  C   UNL     1      26.210  -8.277  17.708  1.00  0.00     0.000 C 
BRANCH  18  19
ATOM     19  C   UNL     1      25.393  -9.226  16.812  1.00  0.00     0.000 C 
BRANCH  19  20
ATOM     20  C   UNL     1      25.574 -10.723  17.119  1.00  0.00     0.000 C 
BRANCH  20  21
ATOM     21  C   UNL     1      25.016 -11.123  18.496  1.00  0.00     0.000 C 
BRANCH  21  22
ATOM     22  C   UNL     1      23.524 -10.783  18.642  1.00  0.00    -0.000 C 
BRANCH  22  23
ATOM     23  C   UNL     1      23.188 -10.227  20.036  1.00  0.00    -0.000 C 
BRANCH  23  24
ATOM     24  C   UNL     1      24.395  -9.558  20.716  1.00  0.00    -0.000 C 
BRANCH  24  25
ATOM     25  C   UNL     1      24.113  -8.162  21.307  1.00  0.00    -0.000 C 
BRANCH  25  26
ATOM     26  C   UNL     1      23.533  -7.134  20.316  1.00  0.00    -0.000 C 
BRANCH  26  27
ATOM     27  C   UNL     1      22.044  -6.805  20.521  1.00  0.00    -0.000 C 
BRANCH  27  28
ATOM     28  C   UNL     1      21.249  -6.792  19.203  1.00  0.00    -0.000 C 
BRANCH  28  29
ATOM     29  C   UNL     1      22.161  -6.788  17.966  1.00  0.00    -0.003 C 
ATOM     30  C   UNL     1      21.899  -7.973  17.034  1.00  0.00     0.004 C 
ENDBRANCH  28  29
ENDBRANCH  27  28
ENDBRANCH  26  27
ENDBRANCH  25  26
ENDBRANCH  24  25
ENDBRANCH  23  24
ENDBRANCH  22  23
ENDBRANCH  21  22
ENDBRANCH  20  21
ENDBRANCH  19  20
ENDBRANCH  18  19
ENDBRANCH  17  18
ENDBRANCH   1  17
TORSDOF 26
ENDMDL
MODEL 3
REMARK VINA RESULT:    -0.827      2.956      5.410
REMARK INTER + INTRA:          -8.156
REMARK INTER:                  -2.582
REMARK INTRA:                  -5.574
REMARK UNBOUND:                -6.071
REMARK SMILES CCCCCCCCCCCCCCCCCCCCCCCCCCCC(=O)[O-]
REMARK SMILES IDX 15 1 16 2 17 3 18 4 19 5 20 6 21 7 22 8 23 9 24 10 25 11
REMARK SMILES IDX 26 12 27 13 28 14 29 15 30 16 14 17 13 18 12 19 11 20 10 21
REMARK SMILES IDX 9 22 8 23 7 24 6 25 5 26 4 27 3 28 2 29 1 30
REMARK H PARENT
REMARK Flexibility Score: inf
ROOT
ATOM      1  C   UNL     1      26.244  -7.757  17.220  1.00  0.00     0.000 C 
ENDROOT
BRANCH   1   2
ATOM      2  C   UNL     1      26.375  -6.844  18.454  1.00  0.00     0.000 C 
BRANCH   2   3
ATOM      3  C   UNL     1      26.962  -7.556  19.691  1.00  0.00     0.000 C 
BRANCH   3   4
ATOM      4  C   UNL     1      27.888  -6.643  20.515  1.00  0.00     0.000 C 
BRANCH   4   5
ATOM      5  C   UNL     1      29.089  -6.107  19.710  1.00  0.00     0.000 C 
BRANCH   5   6
ATOM      6  C   UNL     1      29.953  -7.181  19.020  1.00  0.00     0.000 C 
BRANCH   6   7
ATOM      7  C   UNL     1      30.533  -8.213  19.998  1.00  0.00     0.000 C 
BRANCH   7   8
ATOM      8  C   UNL     1      30.395  -9.635  19.439  1.00  0.00     0.000 C 
BRANCH   8   9
ATOM      9  C   UNL     1      29.161 -10.381  19.977  1.00  0.00     0.000 C 
BRANCH   9  10
ATOM     10  C   UNL     1      29.185 -10.683  21.489  1.00  0.00     0.000 C 
BRANCH  10  11
ATOM     11  C   UNL     1      28.005 -10.100  22.291  1.00  0.00     0.000 C 
BRANCH  11  12
ATOM     12  C   UNL     1      28.408  -8.963  23.254  1.00  0.00     0.006 C 
BRANCH  12  13
ATOM     13  C   UNL     1      29.912  -8.957  23.560  1.00  0.00     0.053 C 
BRANCH  13  14
ATOM     14  C   UNL     1      30.172  -9.455  24.949  1.00  0.00     0.041 C 
ATOM     15  O   UNL     1      31.100  -8.955  25.637  1.00  0.00    -0.550 OA
ATOM     16  O   UNL     1      29.392 -10.476  25.482  1.00  0.00    -0.550 OA
ENDBRANCH  13  14
ENDBRANCH  12  13
ENDBRANCH  11  12
ENDBRANCH  10  11
ENDBRANCH   9  10
ENDBRANCH   8   9
ENDBRANCH   7   8
ENDBRANCH   6   7
ENDBRANCH   5   6
ENDBRANCH   4   5
ENDBRANCH   3   4
ENDBRANCH   2   3
ENDBRANCH   1   2
BRANCH   1  17
ATOM     17  C   UNL     1      27.395  -8.765  17.096  1.00  0.00     0.000 C 
BRANCH  17  18
ATOM     18  C   UNL     1      26.962 -10.007  16.304  1.00  0.00     0.000 C 
BRANCH  18  19
ATOM     19  C   UNL     1      26.143  -9.660  15.047  1.00  0.00     0.000 C 
BRANCH  19  20
ATOM     20  C   UNL     1      26.553 -10.421  13.774  1.00  0.00     0.000 C 
BRANCH  20  21
ATOM     21  C   UNL     1      27.905  -9.953  13.207  1.00  0.00     0.000 C 
BRANCH  21  22
ATOM     22  C   UNL     1      28.865 -11.124  12.948  1.00  0.00    -0.000 C 
BRANCH  22  23
ATOM     23  C   UNL     1      30.275 -10.853  13.498  1.00  0.00    -0.000 C 
BRANCH  23  24
ATOM     24  C   UNL     1      30.361 -11.021  15.024  1.00  0.00    -0.000 C 
BRANCH  24  25
ATOM     25  C   UNL     1      30.734  -9.739  15.796  1.00  0.00    -0.000 C 
BRANCH  25  26
ATOM     26  C   UNL     1      31.047  -8.511  14.919  1.00  0.00    -0.000 C 
BRANCH  26  27
ATOM     27  C   UNL     1      30.377  -7.203  15.372  1.00  0.00    -0.000 C 
BRANCH  27  28
ATOM     28  C   UNL     1      29.120  -6.861  14.553  1.00  0.00    -0.000 C 
BRANCH  28  29
ATOM     29  C   UNL     1      28.647  -5.417  14.776  1.00  0.00    -0.003 C 
ATOM     30  C   UNL     1      28.700  -4.996  16.246  1.00  0.00     0.004 C 
ENDBRANCH  28  29
ENDBRANCH  27  28
ENDBRANCH  26  27
ENDBRANCH  25  26
ENDBRANCH  24  25
ENDBRANCH  23  24
ENDBRANCH  22  23
ENDBRANCH  21  22
ENDBRANCH  20  21
ENDBRANCH  19  20
ENDBRANCH  18  19
ENDBRANCH  17  18
ENDBRANCH   1  17
TORSDOF 26
ENDMDL
MODEL 4
REMARK VINA RESULT:    -0.777      2.440      4.086
REMARK INTER + INTRA:          -8.028
REMARK INTER:                  -1.895
REMARK INTRA:                  -6.134
REMARK UNBOUND:                -6.071
REMARK SMILES CCCCCCCCCCCCCCCCCCCCCCCCCCCC(=O)[O-]
REMARK SMILES IDX 15 1 16 2 17 3 18 4 19 5 20 6 21 7 22 8 23 9 24 10 25 11
REMARK SMILES IDX 26 12 27 13 28 14 29 15 30 16 14 17 13 18 12 19 11 20 10 21
REMARK SMILES IDX 9 22 8 23 7 24 6 25 5 26 4 27 3 28 2 29 1 30
REMARK H PARENT
REMARK Flexibility Score: inf
ROOT
ATOM      1  C   UNL     1      27.501  -4.262  16.316  1.00  0.00     0.000 C 
ENDROOT
BRANCH   1   2
ATOM      2  C   UNL     1      28.595  -5.260  16.741  1.00  0.00     0.000 C 
BRANCH   2   3
ATOM      3  C   UNL     1      29.020  -6.227  15.616  1.00  0.00     0.000 C 
BRANCH   3   4
ATOM      4  C   UNL     1      28.163  -6.071  14.346  1.00  0.00     0.000 C 
BRANCH   4   5
ATOM      5  C   UNL     1      28.487  -7.116  13.259  1.00  0.00     0.000 C 
BRANCH   5   6
ATOM      6  C   UNL     1      29.986  -7.422  13.064  1.00  0.00     0.000 C 
BRANCH   6   7
ATOM      7  C   UNL     1      30.300  -8.924  13.036  1.00  0.00     0.000 C 
BRANCH   7   8
ATOM      8  C   UNL     1      29.072  -9.749  13.442  1.00  0.00     0.000 C 
BRANCH   8   9
ATOM      9  C   UNL     1      29.301 -10.592  14.709  1.00  0.00     0.000 C 
BRANCH   9  10
ATOM     10  C   UNL     1      30.269  -9.979  15.740  1.00  0.00     0.000 C 
BRANCH  10  11
ATOM     11  C   UNL     1      30.476 -10.811  17.020  1.00  0.00     0.000 C 
BRANCH  11  12
ATOM     12  C   UNL     1      30.790  -9.963  18.270  1.00  0.00     0.006 C 
BRANCH  12  13
ATOM     13  C   UNL     1      30.567  -8.463  18.035  1.00  0.00     0.053 C 
BRANCH  13  14
ATOM     14  C   UNL     1      30.615  -7.710  19.329  1.00  0.00     0.041 C 
ATOM     15  O   UNL     1      30.619  -6.451  19.329  1.00  0.00    -0.550 OA
ATOM     16  O   UNL     1      30.660  -8.400  20.536  1.00  0.00    -0.550 OA
ENDBRANCH  13  14
ENDBRANCH  12  13
ENDBRANCH  11  12
ENDBRANCH  10  11
ENDBRANCH   9  10
ENDBRANCH   8   9
ENDBRANCH   7   8
ENDBRANCH   6   7
ENDBRANCH   5   6
ENDBRANCH   4   5
ENDBRANCH   3   4
ENDBRANCH   2   3
ENDBRANCH   1   2
BRANCH   1  17
ATOM     17  C   UNL     1      26.165  -4.497  17.035  1.00  0.00     0.000 C 
BRANCH  17  18
ATOM     18  C   UNL     1      26.313  -5.535  18.156  1.00  0.00     0.000 C 
BRANCH  18  19
ATOM     19  C   UNL     1      25.466  -6.799  17.919  1.00  0.00     0.000 C 
BRANCH  19  20
ATOM     20  C   UNL     1      25.154  -7.103  16.443  1.00  0.00     0.000 C 
BRANCH  20  21
ATOM     21  C   UNL     1      25.856  -8.374  15.934  1.00  0.00     0.000 C 
BRANCH  21  22
ATOM     22  C   UNL     1      26.896  -8.905  16.933  1.00  0.00    -0.000 C 
BRANCH  22  23
ATOM     23  C   UNL     1      26.609 -10.356  17.354  1.00  0.00    -0.000 C 
BRANCH  23  24
ATOM     24  C   UNL     1      27.135 -10.682  18.763  1.00  0.00    -0.000 C 
BRANCH  24  25
ATOM     25  C   UNL     1      27.346  -9.456  19.673  1.00  0.00    -0.000 C 
BRANCH  25  26
ATOM     26  C   UNL     1      27.298  -9.745  21.187  1.00  0.00    -0.000 C 
BRANCH  26  27
ATOM     27  C   UNL     1      25.926  -9.526  21.846  1.00  0.00    -0.000 C 
BRANCH  27  28
ATOM     28  C   UNL     1      24.916  -8.841  20.907  1.00  0.00    -0.000 C 
BRANCH  28  29
ATOM     29  C   UNL     1      23.755  -9.768  20.515  1.00  0.00    -0.003 C 
ATOM     30  C   UNL     1      23.304  -9.570  19.066  1.00  0.00     0.004 C 
ENDBRANCH  28  29
ENDBRANCH  27  28
ENDBRANCH  26  27
ENDBRANCH  25  26
ENDBRANCH  24  25
ENDBRANCH  23  24
ENDBRANCH  22  23
ENDBRANCH  21  22
ENDBRANCH  20  21
ENDBRANCH  19  20
ENDBRANCH  18  19
ENDBRANCH  17  18
ENDBRANCH   1  17
TORSDOF 26
ENDMDL
MODEL 5
REMARK VINA RESULT:    -0.760      3.456      6.457
REMARK INTER + INTRA:          -7.986
REMARK INTER:                  -1.623
REMARK INTRA:                  -6.363
REMARK UNBOUND:                -6.071
REMARK SMILES CCCCCCCCCCCCCCCCCCCCCCCCCCCC(=O)[O-]
REMARK SMILES IDX 15 1 16 2 17 3 18 4 19 5 20 6 21 7 22 8 23 9 24 10 25 11
REMARK SMILES IDX 26 12 27 13 28 14 29 15 30 16 14 17 13 18 12 19 11 20 10 21
REMARK SMILES IDX 9 22 8 23 7 24 6 25 5 26 4 27 3 28 2 29 1 30
REMARK H PARENT
REMARK Flexibility Score: inf
ROOT
ATOM      1  C   UNL     1      26.266  -6.464  20.253  1.00  0.00     0.000 C 
ENDROOT
BRANCH   1   2
ATOM      2  C   UNL     1      25.644  -6.158  21.629  1.00  0.00     0.000 C 
BRANCH   2   3
ATOM      3  C   UNL     1      24.274  -6.833  21.852  1.00  0.00     0.000 C 
BRANCH   3   4
ATOM      4  C   UNL     1      24.381  -8.132  22.671  1.00  0.00     0.000 C 
BRANCH   4   5
ATOM      5  C   UNL     1      23.873  -9.375  21.911  1.00  0.00     0.000 C 
BRANCH   5   6
ATOM      6  C   UNL     1      24.939 -10.450  21.621  1.00  0.00     0.000 C 
BRANCH   6   7
ATOM      7  C   UNL     1      26.220 -10.274  22.448  1.00  0.00     0.000 C 
BRANCH   7   8
ATOM      8  C   UNL     1      27.423  -9.986  21.540  1.00  0.00     0.000 C 
BRANCH   8   9
ATOM      9  C   UNL     1      28.374  -8.919  22.114  1.00  0.00     0.000 C 
BRANCH   9  10
ATOM     10  C   UNL     1      27.983  -8.370  23.500  1.00  0.00     0.000 C 
BRANCH  10  11
ATOM     11  C   UNL     1      28.669  -7.048  23.897  1.00  0.00     0.000 C 
BRANCH  11  12
ATOM     12  C   UNL     1      29.182  -6.228  22.695  1.00  0.00     0.006 C 
BRANCH  12  13
ATOM     13  C   UNL     1      29.584  -4.800  23.086  1.00  0.00     0.053 C 
BRANCH  13  14
ATOM     14  C   UNL     1      29.555  -3.895  21.892  1.00  0.00     0.041 C 
ATOM     15  O   UNL     1      28.872  -4.203  20.881  1.00  0.00    -0.550 OA
ATOM     16  O   UNL     1      30.286  -2.712  21.896  1.00  0.00    -0.550 OA
ENDBRANCH  13  14
ENDBRANCH  12  13
ENDBRANCH  11  12
ENDBRANCH  10  11
ENDBRANCH   9  10
ENDBRANCH   8   9
ENDBRANCH   7   8
ENDBRANCH   6   7
ENDBRANCH   5   6
ENDBRANCH   4   5
ENDBRANCH   3   4
ENDBRANCH   2   3
ENDBRANCH   1   2
BRANCH   1  17
ATOM     17  C   UNL     1      25.258  -7.056  19.258  1.00  0.00     0.000 C 
BRANCH  17  18
ATOM     18  C   UNL     1      25.773  -8.375  18.665  1.00  0.00     0.000 C 
BRANCH  18  19
ATOM     19  C   UNL     1      26.465  -8.190  17.303  1.00  0.00     0.000 C 
BRANCH  19  20
ATOM     20  C   UNL     1      27.397  -9.342  16.887  1.00  0.00     0.000 C 
BRANCH  20  21
ATOM     21  C   UNL     1      27.428 -10.486  17.915  1.00  0.00     0.000 C 
BRANCH  21  22
ATOM     22  C   UNL     1      28.862 -10.915  18.266  1.00  0.00    -0.000 C 
BRANCH  22  23
ATOM     23  C   UNL     1      29.885 -10.429  17.225  1.00  0.00    -0.000 C 
BRANCH  23  24
ATOM     24  C   UNL     1      31.125  -9.783  17.866  1.00  0.00    -0.000 C 
BRANCH  24  25
ATOM     25  C   UNL     1      30.990  -9.478  19.371  1.00  0.00    -0.000 C 
BRANCH  25  26
ATOM     26  C   UNL     1      30.885  -7.982  19.732  1.00  0.00    -0.000 C 
BRANCH  26  27
ATOM     27  C   UNL     1      29.692  -7.245  19.101  1.00  0.00    -0.000 C 
BRANCH  27  28
ATOM     28  C   UNL     1      30.124  -6.097  18.172  1.00  0.00    -0.000 C 
BRANCH  28  29
ATOM     29  C   UNL     1      29.111  -5.837  17.047  1.00  0.00    -0.003 C 
ATOM     30  C   UNL     1      28.044  -4.810  17.438  1.00  0.00     0.004 C 
ENDBRANCH  28  29
ENDBRANCH  27  28
ENDBRANCH  26  27
ENDBRANCH  25  26
ENDBRANCH  24  25
ENDBRANCH  23  24
ENDBRANCH  22  23
ENDBRANCH  21  22
ENDBRANCH  20  21
ENDBRANCH  19  20
ENDBRANCH  18  19
ENDBRANCH  17  18
ENDBRANCH   1  17
TORSDOF 26
ENDMDL
MODEL 6
REMARK VINA RESULT:    -0.707      3.271      6.769
REMARK INTER + INTRA:          -7.853
REMARK INTER:                  -1.682
REMARK INTRA:                  -6.170
REMARK UNBOUND:                -6.071
REMARK SMILES CCCCCCCCCCCCCCCCCCCCCCCCCCCC(=O)[O-]
REMARK SMILES IDX 15 1 16 2 17 3 18 4 19 5 20 6 21 7 22 8 23 9 24 10 25 11
REMARK SMILES IDX 26 12 27 13 28 14 29 15 30 16 14 17 13 18 12 19 11 20 10 21
REMARK SMILES IDX 9 22 8 23 7 24 6 25 5 26 4 27 3 28 2 29 1 30
REMARK H PARENT
REMARK Flexibility Score: inf
ROOT
ATOM      1  C   UNL     1      25.451  -9.648  18.071  1.00  0.00     0.000 C 
ENDROOT
BRANCH   1   2
ATOM      2  C   UNL     1      25.809  -8.385  17.266  1.00  0.00     0.000 C 
BRANCH   2   3
ATOM      3  C   UNL     1      25.264  -8.395  15.822  1.00  0.00     0.000 C 
BRANCH   3   4
ATOM      4  C   UNL     1      25.099  -9.820  15.263  1.00  0.00     0.000 C 
BRANCH   4   5
ATOM      5  C   UNL     1      26.336 -10.318  14.489  1.00  0.00     0.000 C 
BRANCH   5   6
ATOM      6  C   UNL     1      26.611  -9.600  13.153  1.00  0.00     0.000 C 
BRANCH   6   7
ATOM      7  C   UNL     1      28.106  -9.376  12.880  1.00  0.00     0.000 C 
BRANCH   7   8
ATOM      8  C   UNL     1      28.950  -9.772  14.098  1.00  0.00     0.000 C 
BRANCH   8   9
ATOM      9  C   UNL     1      29.757  -8.600  14.683  1.00  0.00     0.000 C 
BRANCH   9  10
ATOM     10  C   UNL     1      28.923  -7.528  15.413  1.00  0.00     0.000 C 
BRANCH  10  11
ATOM     11  C   UNL     1      28.743  -6.204  14.645  1.00  0.00     0.000 C 
BRANCH  11  12
ATOM     12  C   UNL     1      27.368  -5.538  14.868  1.00  0.00     0.006 C 
BRANCH  12  13
ATOM     13  C   UNL     1      27.208  -4.239  14.067  1.00  0.00     0.053 C 
BRANCH  13  14
ATOM     14  C   UNL     1      27.297  -3.046  14.968  1.00  0.00     0.041 C 
ATOM     15  O   UNL     1      27.374  -3.199  16.216  1.00  0.00    -0.550 OA
ATOM     16  O   UNL     1      27.288  -1.763  14.431  1.00  0.00    -0.550 OA
ENDBRANCH  13  14
ENDBRANCH  12  13
ENDBRANCH  11  12
ENDBRANCH  10  11
ENDBRANCH   9  10
ENDBRANCH   8   9
ENDBRANCH   7   8
ENDBRANCH   6   7
ENDBRANCH   5   6
ENDBRANCH   4   5
ENDBRANCH   3   4
ENDBRANCH   2   3
ENDBRANCH   1   2
BRANCH   1  17
ATOM     17  C   UNL     1      26.683 -10.470  18.475  1.00  0.00     0.000 C 
BRANCH  17  18
ATOM     18  C   UNL     1      27.966  -9.880  17.872  1.00  0.00     0.000 C 
BRANCH  18  19
ATOM     19  C   UNL     1      29.093 -10.919  17.727  1.00  0.00     0.000 C 
BRANCH  19  20
ATOM     20  C   UNL     1      30.517 -10.359  17.889  1.00  0.00     0.000 C 
BRANCH  20  21
ATOM     21  C   UNL     1      30.534  -8.922  18.440  1.00  0.00     0.000 C 
BRANCH  21  22
ATOM     22  C   UNL     1      31.125  -8.848  19.857  1.00  0.00    -0.000 C 
BRANCH  22  23
ATOM     23  C   UNL     1      30.172  -9.429  20.915  1.00  0.00    -0.000 C 
BRANCH  23  24
ATOM     24  C   UNL     1      29.457  -8.341  21.734  1.00  0.00    -0.000 C 
BRANCH  24  25
ATOM     25  C   UNL     1      27.925  -8.310  21.572  1.00  0.00    -0.000 C 
BRANCH  25  26
ATOM     26  C   UNL     1      27.405  -7.449  20.402  1.00  0.00    -0.000 C 
BRANCH  26  27
ATOM     27  C   UNL     1      28.158  -6.126  20.186  1.00  0.00    -0.000 C 
BRANCH  27  28
ATOM     28  C   UNL     1      28.123  -5.651  18.723  1.00  0.00    -0.000 C 
BRANCH  28  29
ATOM     29  C   UNL     1      29.508  -5.237  18.205  1.00  0.00    -0.003 C 
ATOM     30  C   UNL     1      30.590  -5.306  19.286  1.00  0.00     0.004 C 
ENDBRANCH  28  29
ENDBRANCH  27  28
ENDBRANCH  26  27
ENDBRANCH  25  26
ENDBRANCH  24  25
ENDBRANCH  23  24
ENDBRANCH  22  23
ENDBRANCH  21  22
ENDBRANCH  20  21
ENDBRANCH  19  20
ENDBRANCH  18  19
ENDBRANCH  17  18
ENDBRANCH   1  17
TORSDOF 26
ENDMDL
MODEL 7
REMARK VINA RESULT:    -0.676      3.059      6.194
REMARK INTER + INTRA:          -7.774
REMARK INTER:                  -1.400
REMARK INTRA:                  -6.374
REMARK UNBOUND:                -6.071
REMARK SMILES CCCCCCCCCCCCCCCCCCCCCCCCCCCC(=O)[O-]
REMARK SMILES IDX 15 1 16 2 17 3 18 4 19 5 20 6 21 7 22 8 23 9 24 10 25 11
REMARK SMILES IDX 26 12 27 13 28 14 29 15 30 16 14 17 13 18 12 19 11 20 10 21
REMARK SMILES IDX 9 22 8 23 7 24 6 25 5 26 4 27 3 28 2 29 1 30
REMARK H PARENT
REMARK Flexibility Score: inf
ROOT
ATOM      1  C   UNL     1      27.272  -7.744  17.938  1.00  0.00     0.000 C 
ENDROOT
BRANCH   1   2
ATOM      2  C   UNL     1      28.402  -8.546  17.265  1.00  0.00     0.000 C 
BRANCH   2   3
ATOM      3  C   UNL     1      28.302 -10.069  17.496  1.00  0.00     0.000 C 
BRANCH   3   4
ATOM      4  C   UNL     1      29.483 -10.621  18.314  1.00  0.00     0.000 C 
BRANCH   4   5
ATOM      5  C   UNL     1      30.296  -9.523  19.030  1.00  0.00     0.000 C 
BRANCH   5   6
ATOM      6  C   UNL     1      30.019  -9.377  20.540  1.00  0.00     0.000 C 
BRANCH   6   7
ATOM      7  C   UNL     1      29.207 -10.542  21.124  1.00  0.00     0.000 C 
BRANCH   7   8
ATOM      8  C   UNL     1      27.803 -10.079  21.535  1.00  0.00     0.000 C 
BRANCH   8   9
ATOM      9  C   UNL     1      26.683 -10.984  20.991  1.00  0.00     0.000 C 
BRANCH   9  10
ATOM     10  C   UNL     1      25.647 -10.278  20.094  1.00  0.00     0.000 C 
BRANCH  10  11
ATOM     11  C   UNL     1      25.122 -11.118  18.914  1.00  0.00     0.000 C 
BRANCH  11  12
ATOM     12  C   UNL     1      24.498 -10.278  17.780  1.00  0.00     0.006 C 
BRANCH  12  13
ATOM     13  C   UNL     1      24.902 -10.777  16.387  1.00  0.00     0.053 C 
BRANCH  13  14
ATOM     14  C   UNL     1      24.767  -9.684  15.371  1.00  0.00     0.041 C 
ATOM     15  O   UNL     1      24.567  -8.498  15.741  1.00  0.00    -0.550 OA
ATOM     16  O   UNL     1      24.857  -9.978  14.014  1.00  0.00    -0.550 OA
ENDBRANCH  13  14
ENDBRANCH  12  13
ENDBRANCH  11  12
ENDBRANCH  10  11
ENDBRANCH   9  10
ENDBRANCH   8   9
ENDBRANCH   7   8
ENDBRANCH   6   7
ENDBRANCH   5   6
ENDBRANCH   4   5
ENDBRANCH   3   4
ENDBRANCH   2   3
ENDBRANCH   1   2
BRANCH   1  17
ATOM     17  C   UNL     1      27.782  -6.795  19.031  1.00  0.00     0.000 C 
BRANCH  17  18
ATOM     18  C   UNL     1      26.863  -6.820  20.260  1.00  0.00     0.000 C 
BRANCH  18  19
ATOM     19  C   UNL     1      27.596  -6.451  21.564  1.00  0.00     0.000 C 
BRANCH  19  20
ATOM     20  C   UNL     1      26.788  -6.689  22.852  1.00  0.00     0.000 C 
BRANCH  20  21
ATOM     21  C   UNL     1      25.444  -5.941  22.861  1.00  0.00     0.000 C 
BRANCH  21  22
ATOM     22  C   UNL     1      24.276  -6.846  23.284  1.00  0.00    -0.000 C 
BRANCH  22  23
ATOM     23  C   UNL     1      23.073  -6.725  22.334  1.00  0.00    -0.000 C 
BRANCH  23  24
ATOM     24  C   UNL     1      22.994  -7.882  21.324  1.00  0.00    -0.000 C 
BRANCH  24  25
ATOM     25  C   UNL     1      23.250  -7.480  19.857  1.00  0.00    -0.000 C 
BRANCH  25  26
ATOM     26  C   UNL     1      23.213  -5.964  19.576  1.00  0.00    -0.000 C 
BRANCH  26  27
ATOM     27  C   UNL     1      23.962  -5.522  18.307  1.00  0.00    -0.000 C 
BRANCH  27  28
ATOM     28  C   UNL     1      24.726  -4.200  18.495  1.00  0.00    -0.000 C 
BRANCH  28  29
ATOM     29  C   UNL     1      24.781  -3.755  19.964  1.00  0.00    -0.003 C 
ATOM     30  C   UNL     1      26.152  -3.207  20.366  1.00  0.00     0.004 C 
ENDBRANCH  28  29
ENDBRANCH  27  28
ENDBRANCH  26  27
ENDBRANCH  25  26
ENDBRANCH  24  25
ENDBRANCH  23  24
ENDBRANCH  22  23
ENDBRANCH  21  22
ENDBRANCH  20  21
ENDBRANCH  19  20
ENDBRANCH  18  19
ENDBRANCH  17  18
ENDBRANCH   1  17
TORSDOF 26
ENDMDL
MODEL 8
REMARK VINA RESULT:    -0.664      3.153      6.984
REMARK INTER + INTRA:          -7.745
REMARK INTER:                  -1.823
REMARK INTRA:                  -5.923
REMARK UNBOUND:                -6.071
REMARK SMILES CCCCCCCCCCCCCCCCCCCCCCCCCCCC(=O)[O-]
REMARK SMILES IDX 15 1 16 2 17 3 18 4 19 5 20 6 21 7 22 8 23 9 24 10 25 11
REMARK SMILES IDX 26 12 27 13 28 14 29 15 30 16 14 17 13 18 12 19 11 20 10 21
REMARK SMILES IDX 9 22 8 23 7 24 6 25 5 26 4 27 3 28 2 29 1 30
REMARK H PARENT
REMARK Flexibility Score: inf
ROOT
ATOM      1  C   UNL     1      28.516  -6.921  17.901  1.00  0.00     0.000 C 
ENDROOT
BRANCH   1   2
ATOM      2  C   UNL     1      27.974  -5.622  18.527  1.00  0.00     0.000 C 
BRANCH   2   3
ATOM      3  C   UNL     1      26.446  -5.460  18.390  1.00  0.00     0.000 C 
BRANCH   3   4
ATOM      4  C   UNL     1      25.803  -6.587  17.562  1.00  0.00     0.000 C 
BRANCH   4   5
ATOM      5  C   UNL     1      24.567  -7.213  18.239  1.00  0.00     0.000 C 
BRANCH   5   6
ATOM      6  C   UNL     1      24.475  -8.750  18.151  1.00  0.00     0.000 C 
BRANCH   6   7
ATOM      7  C   UNL     1      25.845  -9.442  18.172  1.00  0.00     0.000 C 
BRANCH   7   8
ATOM      8  C   UNL     1      26.005 -10.376  16.965  1.00  0.00     0.000 C 
BRANCH   8   9
ATOM      9  C   UNL     1      25.807  -9.661  15.616  1.00  0.00     0.000 C 
BRANCH   9  10
ATOM     10  C   UNL     1      27.107  -9.271  14.884  1.00  0.00     0.000 C 
BRANCH  10  11
ATOM     11  C   UNL     1      28.374 -10.003  15.366  1.00  0.00     0.000 C 
BRANCH  11  12
ATOM     12  C   UNL     1      29.401 -10.274  14.246  1.00  0.00     0.006 C 
BRANCH  12  13
ATOM     13  C   UNL     1      30.776  -9.664  14.547  1.00  0.00     0.053 C 
BRANCH  13  14
ATOM     14  C   UNL     1      30.709  -8.168  14.521  1.00  0.00     0.041 C 
ATOM     15  O   UNL     1      31.122  -7.498  15.504  1.00  0.00    -0.550 OA
ATOM     16  O   UNL     1      30.186  -7.511  13.412  1.00  0.00    -0.550 OA
ENDBRANCH  13  14
ENDBRANCH  12  13
ENDBRANCH  11  12
ENDBRANCH  10  11
ENDBRANCH   9  10
ENDBRANCH   8   9
ENDBRANCH   7   8
ENDBRANCH   6   7
ENDBRANCH   5   6
ENDBRANCH   4   5
ENDBRANCH   3   4
ENDBRANCH   2   3
ENDBRANCH   1   2
BRANCH   1  17
ATOM     17  C   UNL     1      29.469  -7.683  18.832  1.00  0.00     0.000 C 
BRANCH  17  18
ATOM     18  C   UNL     1      29.696  -9.119  18.340  1.00  0.00     0.000 C 
BRANCH  18  19
ATOM     19  C   UNL     1      29.228 -10.181  19.352  1.00  0.00     0.000 C 
BRANCH  19  20
ATOM     20  C   UNL     1      29.751  -9.985  20.786  1.00  0.00     0.000 C 
BRANCH  20  21
ATOM     21  C   UNL     1      28.868 -10.670  21.844  1.00  0.00     0.000 C 
BRANCH  21  22
ATOM     22  C   UNL     1      28.506  -9.725  23.000  1.00  0.00    -0.000 C 
BRANCH  22  23
ATOM     23  C   UNL     1      26.985  -9.565  23.166  1.00  0.00    -0.000 C 
BRANCH  23  24
ATOM     24  C   UNL     1      26.282  -9.173  21.855  1.00  0.00    -0.000 C 
BRANCH  24  25
ATOM     25  C   UNL     1      26.686  -7.796  21.291  1.00  0.00    -0.000 C 
BRANCH  25  26
ATOM     26  C   UNL     1      26.251  -6.585  22.140  1.00  0.00    -0.000 C 
BRANCH  26  27
ATOM     27  C   UNL     1      27.406  -5.783  22.763  1.00  0.00    -0.000 C 
BRANCH  27  28
ATOM     28  C   UNL     1      28.734  -5.961  22.005  1.00  0.00    -0.000 C 
BRANCH  28  29
ATOM     29  C   UNL     1      29.886  -6.383  22.929  1.00  0.00    -0.003 C 
ATOM     30  C   UNL     1      31.125  -6.845  22.157  1.00  0.00     0.004 C 
ENDBRANCH  28  29
ENDBRANCH  27  28
ENDBRANCH  26  27
ENDBRANCH  25  26
ENDBRANCH  24  25
ENDBRANCH  23  24
ENDBRANCH  22  23
ENDBRANCH  21  22
ENDBRANCH  20  21
ENDBRANCH  19  20
ENDBRANCH  18  19
ENDBRANCH  17  18
ENDBRANCH   1  17
TORSDOF 26
ENDMDL
MODEL 9
REMARK VINA RESULT:    -0.638      8.828     12.775
REMARK INTER + INTRA:          -7.678
REMARK INTER:                  -1.514
REMARK INTRA:                  -6.164
REMARK UNBOUND:                -6.071
REMARK SMILES CCCCCCCCCCCCCCCCCCCCCCCCCCCC(=O)[O-]
REMARK SMILES IDX 15 1 16 2 17 3 18 4 19 5 20 6 21 7 22 8 23 9 24 10 25 11
REMARK SMILES IDX 26 12 27 13 28 14 29 15 30 16 14 17 13 18 12 19 11 20 10 21
REMARK SMILES IDX 9 22 8 23 7 24 6 25 5 26 4 27 3 28 2 29 1 30
REMARK H PARENT
REMARK Flexibility Score: inf
ROOT
ATOM      1  C   UNL     1      15.828  -5.717  12.592  1.00  0.00     0.000 C 
ENDROOT
BRANCH   1   2
ATOM      2  C   UNL     1      15.048  -5.550  13.910  1.00  0.00     0.000 C 
BRANCH   2   3
ATOM      3  C   UNL     1      14.680  -6.888  14.585  1.00  0.00     0.000 C 
BRANCH   3   4
ATOM      4  C   UNL     1      13.159  -7.080  14.726  1.00  0.00     0.000 C 
BRANCH   4   5
ATOM      5  C   UNL     1      12.432  -7.201  13.371  1.00  0.00     0.000 C 
BRANCH   5   6
ATOM      6  C   UNL     1      12.907  -8.358  12.468  1.00  0.00     0.000 C 
BRANCH   6   7
ATOM      7  C   UNL     1      11.865  -9.475  12.314  1.00  0.00     0.000 C 
BRANCH   7   8
ATOM      8  C   UNL     1      12.450 -10.830  12.730  1.00  0.00     0.000 C 
BRANCH   8   9
ATOM      9  C   UNL     1      12.358 -11.090  14.245  1.00  0.00     0.000 C 
BRANCH   9  10
ATOM     10  C   UNL     1      13.700 -11.041  15.002  1.00  0.00     0.000 C 
BRANCH  10  11
ATOM     11  C   UNL     1      14.956 -11.124  14.113  1.00  0.00     0.000 C 
BRANCH  11  12
ATOM     12  C   UNL     1      16.074 -10.143  14.522  1.00  0.00     0.006 C 
BRANCH  12  13
ATOM     13  C   UNL     1      17.393 -10.414  13.786  1.00  0.00     0.053 C 
BRANCH  13  14
ATOM     14  C   UNL     1      18.554  -9.866  14.558  1.00  0.00     0.041 C 
ATOM     15  O   UNL     1      19.245  -8.928  14.082  1.00  0.00    -0.550 OA
ATOM     16  O   UNL     1      18.877 -10.396  15.803  1.00  0.00    -0.550 OA
ENDBRANCH  13  14
ENDBRANCH  12  13
ENDBRANCH  11  12
ENDBRANCH  10  11
ENDBRANCH   9  10
ENDBRANCH   8   9
ENDBRANCH   7   8
ENDBRANCH   6   7
ENDBRANCH   5   6
ENDBRANCH   4   5
ENDBRANCH   3   4
ENDBRANCH   2   3
ENDBRANCH   1   2
BRANCH   1  17
ATOM     17  C   UNL     1      16.474  -7.102  12.451  1.00  0.00     0.000 C 
BRANCH  17  18
ATOM     18  C   UNL     1      17.520  -7.115  11.327  1.00  0.00     0.000 C 
BRANCH  18  19
ATOM     19  C   UNL     1      17.736  -5.728  10.694  1.00  0.00     0.000 C 
BRANCH  19  20
ATOM     20  C   UNL     1      17.523  -5.670   9.171  1.00  0.00     0.000 C 
BRANCH  20  21
ATOM     21  C   UNL     1      16.794  -6.909   8.622  1.00  0.00     0.000 C 
BRANCH  21  22
ATOM     22  C   UNL     1      15.293  -6.655   8.410  1.00  0.00    -0.000 C 
BRANCH  22  23
ATOM     23  C   UNL     1      14.422  -7.521   9.336  1.00  0.00    -0.000 C 
BRANCH  23  24
ATOM     24  C   UNL     1      13.866  -8.771   8.633  1.00  0.00    -0.000 C 
BRANCH  24  25
ATOM     25  C   UNL     1      14.496 -10.102   9.087  1.00  0.00    -0.000 C 
BRANCH  25  26
ATOM     26  C   UNL     1      15.297 -10.036  10.403  1.00  0.00    -0.000 C 
BRANCH  26  27
ATOM     27  C   UNL     1      16.691 -10.683  10.347  1.00  0.00    -0.000 C 
BRANCH  27  28
ATOM     28  C   UNL     1      17.394 -10.468   8.995  1.00  0.00    -0.000 C 
BRANCH  28  29
ATOM     29  C   UNL     1      18.833  -9.952   9.155  1.00  0.00    -0.003 C 
ATOM     30  C   UNL     1      19.394 -10.191  10.558  1.00  0.00     0.004 C 
ENDBRANCH  28  29
ENDBRANCH  27  28
ENDBRANCH  26  27
ENDBRANCH  25  26
ENDBRANCH  24  25
ENDBRANCH  23  24
ENDBRANCH  22  23
ENDBRANCH  21  22
ENDBRANCH  20  21
ENDBRANCH  19  20
ENDBRANCH  18  19
ENDBRANCH  17  18
ENDBRANCH   1  17
TORSDOF 26
ENDMDL
