MODEL 1
REMARK VINA RESULT:    -3.335      0.000      0.000
REMARK INTER + INTRA:          -4.036
REMARK INTER:                  -3.919
REMARK INTRA:                  -0.116
REMARK UNBOUND:                -0.116
REMARK SMILES O=C([O-])CCC(=O)[O-]
REMARK SMILES IDX 4 1 2 2 1 3 3 4 5 5 6 6 7 7 8 8
REMARK H PARENT
REMARK Flexibility Score: inf
ROOT
ATOM      1  C   UNL     1       7.724   6.786  11.764  1.00  0.00     0.059 C 
ENDROOT
BRANCH   1   2
ATOM      2  C   UNL     1       6.938   6.846  13.035  1.00  0.00     0.042 C 
ATOM      3  O   UNL     1       7.511   7.115  14.123  1.00  0.00    -0.550 OA
ATOM      4  O   UNL     1       5.579   6.556  13.026  1.00  0.00    -0.550 OA
ENDBRANCH   1   2
BRANCH   1   5
ATOM      5  C   UNL     1       7.706   8.143  11.059  1.00  0.00     0.059 C 
BRANCH   5   6
ATOM      6  C   UNL     1       6.635   8.175  10.014  1.00  0.00     0.042 C 
ATOM      7  O   UNL     1       6.378   9.245   9.401  1.00  0.00    -0.550 OA
ATOM      8  O   UNL     1       5.952   7.011   9.683  1.00  0.00    -0.550 OA
ENDBRANCH   5   6
ENDBRANCH   1   5
TORSDOF 3
ENDMDL
MODEL 2
REMARK VINA RESULT:    -3.332      0.115      3.668
REMARK INTER + INTRA:          -4.032
REMARK INTER:                  -3.915
REMARK INTRA:                  -0.118
REMARK UNBOUND:                -0.116
REMARK SMILES O=C([O-])CCC(=O)[O-]
REMARK SMILES IDX 4 1 2 2 1 3 3 4 5 5 6 6 7 7 8 8
REMARK H PARENT
REMARK Flexibility Score: inf
ROOT
ATOM      1  C   UNL     1       7.598   8.262  11.133  1.00  0.00     0.059 C 
ENDROOT
BRANCH   1   2
ATOM      2  C   UNL     1       6.616   8.282  10.004  1.00  0.00     0.042 C 
ATOM      3  O   UNL     1       6.406   9.348   9.366  1.00  0.00    -0.550 OA
ATOM      4  O   UNL     1       5.896   7.137   9.687  1.00  0.00    -0.550 OA
ENDBRANCH   1   2
BRANCH   1   5
ATOM      5  C   UNL     1       7.703   6.856  11.725  1.00  0.00     0.059 C 
BRANCH   5   6
ATOM      6  C   UNL     1       6.956   6.776  13.019  1.00  0.00     0.042 C 
ATOM      7  O   UNL     1       7.549   6.997  14.108  1.00  0.00    -0.550 OA
ATOM      8  O   UNL     1       5.594   6.505  13.020  1.00  0.00    -0.550 OA
ENDBRANCH   5   6
ENDBRANCH   1   5
TORSDOF 3
ENDMDL
MODEL 3
REMARK VINA RESULT:    -3.305      1.883      4.276
REMARK INTER + INTRA:          -4.000
REMARK INTER:                  -3.899
REMARK INTRA:                  -0.102
REMARK UNBOUND:                -0.116
REMARK SMILES O=C([O-])CCC(=O)[O-]
REMARK SMILES IDX 4 1 2 2 1 3 3 4 5 5 6 6 7 7 8 8
REMARK H PARENT
REMARK Flexibility Score: inf
ROOT
ATOM      1  C   UNL     1       7.844   7.366  12.263  1.00  0.00     0.059 C 
ENDROOT
BRANCH   1   2
ATOM      2  C   UNL     1       8.114   6.603  11.005  1.00  0.00     0.042 C 
ATOM      3  O   UNL     1       7.276   6.615  10.064  1.00  0.00    -0.550 OA
ATOM      4  O   UNL     1       9.266   5.836  10.890  1.00  0.00    -0.550 OA
ENDBRANCH   1   2
BRANCH   1   5
ATOM      5  C   UNL     1       6.701   6.719  13.047  1.00  0.00     0.059 C 
BRANCH   5   6
ATOM      6  C   UNL     1       7.203   6.167  14.344  1.00  0.00     0.042 C 
ATOM      7  O   UNL     1       6.588   6.409  15.416  1.00  0.00    -0.550 OA
ATOM      8  O   UNL     1       8.324   5.346  14.363  1.00  0.00    -0.550 OA
ENDBRANCH   5   6
ENDBRANCH   1   5
TORSDOF 3
ENDMDL
MODEL 4
REMARK VINA RESULT:    -3.304      2.200      2.707
REMARK INTER + INTRA:          -3.999
REMARK INTER:                  -3.965
REMARK INTRA:                  -0.034
REMARK UNBOUND:                -0.116
REMARK SMILES O=C([O-])CCC(=O)[O-]
REMARK SMILES IDX 4 1 2 2 1 3 3 4 5 5 6 6 7 7 8 8
REMARK H PARENT
REMARK Flexibility Score: inf
ROOT
ATOM      1  C   UNL     1       8.113   7.381  10.524  1.00  0.00     0.059 C 
ENDROOT
BRANCH   1   2
ATOM      2  C   UNL     1       9.017   6.201  10.694  1.00  0.00     0.042 C 
ATOM      3  O   UNL     1       9.134   5.649  11.820  1.00  0.00    -0.550 OA
ATOM      4  O   UNL     1       9.769   5.740   9.621  1.00  0.00    -0.550 OA
ENDBRANCH   1   2
BRANCH   1   5
ATOM      5  C   UNL     1       6.663   6.924  10.358  1.00  0.00     0.059 C 
BRANCH   5   6
ATOM      6  C   UNL     1       5.840   8.011   9.742  1.00  0.00     0.042 C 
ATOM      7  O   UNL     1       6.310   9.173   9.623  1.00  0.00    -0.550 OA
ATOM      8  O   UNL     1       4.569   7.730   9.255  1.00  0.00    -0.550 OA
ENDBRANCH   5   6
ENDBRANCH   1   5
TORSDOF 3
ENDMDL
MODEL 5
REMARK VINA RESULT:    -3.289      0.776      3.853
REMARK INTER + INTRA:          -3.982
REMARK INTER:                  -3.878
REMARK INTRA:                  -0.104
REMARK UNBOUND:                -0.116
REMARK SMILES O=C([O-])CCC(=O)[O-]
REMARK SMILES IDX 4 1 2 2 1 3 3 4 5 5 6 6 7 7 8 8
REMARK H PARENT
REMARK Flexibility Score: inf
ROOT
ATOM      1  C   UNL     1       7.864   8.096  11.488  1.00  0.00     0.059 C 
ENDROOT
BRANCH   1   2
ATOM      2  C   UNL     1       6.970   8.064  10.289  1.00  0.00     0.042 C 
ATOM      3  O   UNL     1       6.434   6.983   9.926  1.00  0.00    -0.550 OA
ATOM      4  O   UNL     1       6.768   9.217   9.541  1.00  0.00    -0.550 OA
ENDBRANCH   1   2
BRANCH   1   5
ATOM      5  C   UNL     1       7.969   6.704  12.114  1.00  0.00     0.059 C 
BRANCH   5   6
ATOM      6  C   UNL     1       7.369   6.701  13.485  1.00  0.00     0.042 C 
ATOM      7  O   UNL     1       6.313   7.347  13.716  1.00  0.00    -0.550 OA
ATOM      8  O   UNL     1       7.949   5.944  14.496  1.00  0.00    -0.550 OA
ENDBRANCH   5   6
ENDBRANCH   1   5
TORSDOF 3
ENDMDL
MODEL 6
REMARK VINA RESULT:    -3.277      0.765      1.633
REMARK INTER + INTRA:          -3.968
REMARK INTER:                  -3.863
REMARK INTRA:                  -0.105
REMARK UNBOUND:                -0.116
REMARK SMILES O=C([O-])CCC(=O)[O-]
REMARK SMILES IDX 4 1 2 2 1 3 3 4 5 5 6 6 7 7 8 8
REMARK H PARENT
REMARK Flexibility Score: inf
ROOT
ATOM      1  C   UNL     1       7.891   6.740  12.114  1.00  0.00     0.059 C 
ENDROOT
BRANCH   1   2
ATOM      2  C   UNL     1       7.299   6.761  13.489  1.00  0.00     0.042 C 
ATOM      3  O   UNL     1       6.300   7.486  13.738  1.00  0.00    -0.550 OA
ATOM      4  O   UNL     1       7.881   6.019  14.508  1.00  0.00    -0.550 OA
ENDBRANCH   1   2
BRANCH   1   5
ATOM      5  C   UNL     1       7.851   8.137  11.493  1.00  0.00     0.059 C 
BRANCH   5   6
ATOM      6  C   UNL     1       6.953   8.151  10.296  1.00  0.00     0.042 C 
ATOM      7  O   UNL     1       6.325   7.112   9.962  1.00  0.00    -0.550 OA
ATOM      8  O   UNL     1       6.772   9.326   9.577  1.00  0.00    -0.550 OA
ENDBRANCH   5   6
ENDBRANCH   1   5
TORSDOF 3
ENDMDL
MODEL 7
REMARK VINA RESULT:    -3.271      1.448      1.741
REMARK INTER + INTRA:          -3.961
REMARK INTER:                  -3.901
REMARK INTRA:                  -0.060
REMARK UNBOUND:                -0.116
REMARK SMILES O=C([O-])CCC(=O)[O-]
REMARK SMILES IDX 4 1 2 2 1 3 3 4 5 5 6 6 7 7 8 8
REMARK H PARENT
REMARK Flexibility Score: inf
ROOT
ATOM      1  C   UNL     1       7.453   7.129  13.067  1.00  0.00     0.059 C 
ENDROOT
BRANCH   1   2
ATOM      2  C   UNL     1       7.242   6.110  14.142  1.00  0.00     0.042 C 
ATOM      3  O   UNL     1       8.223   5.661  14.791  1.00  0.00    -0.550 OA
ATOM      4  O   UNL     1       5.967   5.618  14.394  1.00  0.00    -0.550 OA
ENDBRANCH   1   2
BRANCH   1   5
ATOM      5  C   UNL     1       6.268   7.140  12.101  1.00  0.00     0.059 C 
BRANCH   5   6
ATOM      6  C   UNL     1       6.749   7.100  10.684  1.00  0.00     0.042 C 
ATOM      7  O   UNL     1       7.978   6.986  10.435  1.00  0.00    -0.550 OA
ATOM      8  O   UNL     1       5.835   7.141   9.638  1.00  0.00    -0.550 OA
ENDBRANCH   5   6
ENDBRANCH   1   5
TORSDOF 3
ENDMDL
MODEL 8
REMARK VINA RESULT:    -3.219      1.828      4.145
REMARK INTER + INTRA:          -3.899
REMARK INTER:                  -3.782
REMARK INTRA:                  -0.118
REMARK UNBOUND:                -0.116
REMARK SMILES O=C([O-])CCC(=O)[O-]
REMARK SMILES IDX 4 1 2 2 1 3 3 4 5 5 6 6 7 7 8 8
REMARK H PARENT
REMARK Flexibility Score: inf
ROOT
ATOM      1  C   UNL     1       4.481   6.738  11.390  1.00  0.00     0.059 C 
ENDROOT
BRANCH   1   2
ATOM      2  C   UNL     1       5.089   7.193  10.101  1.00  0.00     0.042 C 
ATOM      3  O   UNL     1       4.425   7.908   9.305  1.00  0.00    -0.550 OA
ATOM      4  O   UNL     1       6.372   6.787   9.755  1.00  0.00    -0.550 OA
ENDBRANCH   1   2
BRANCH   1   5
ATOM      5  C   UNL     1       5.083   7.508  12.566  1.00  0.00     0.059 C 
BRANCH   5   6
ATOM      6  C   UNL     1       6.114   6.677  13.263  1.00  0.00     0.042 C 
ATOM      7  O   UNL     1       5.766   5.817  14.114  1.00  0.00    -0.550 OA
ATOM      8  O   UNL     1       7.457   6.820  12.938  1.00  0.00    -0.550 OA
ENDBRANCH   5   6
ENDBRANCH   1   5
TORSDOF 3
ENDMDL
MODEL 9
REMARK VINA RESULT:    -3.210      1.697      2.036
REMARK INTER + INTRA:          -3.889
REMARK INTER:                  -3.789
REMARK INTRA:                  -0.100
REMARK UNBOUND:                -0.116
REMARK SMILES O=C([O-])CCC(=O)[O-]
REMARK SMILES IDX 4 1 2 2 1 3 3 4 5 5 6 6 7 7 8 8
REMARK H PARENT
REMARK Flexibility Score: inf
ROOT
ATOM      1  C   UNL     1       5.254   7.572  12.609  1.00  0.00     0.059 C 
ENDROOT
BRANCH   1   2
ATOM      2  C   UNL     1       6.331   6.839  13.343  1.00  0.00     0.042 C 
ATOM      3  O   UNL     1       7.529   7.222  13.260  1.00  0.00    -0.550 OA
ATOM      4  O   UNL     1       6.022   5.703  14.081  1.00  0.00    -0.550 OA
ENDBRANCH   1   2
BRANCH   1   5
ATOM      5  C   UNL     1       4.730   6.728  11.446  1.00  0.00     0.059 C 
BRANCH   5   6
ATOM      6  C   UNL     1       5.368   7.154  10.161  1.00  0.00     0.042 C 
ATOM      7  O   UNL     1       6.558   6.830   9.907  1.00  0.00    -0.550 OA
ATOM      8  O   UNL     1       4.633   7.869   9.223  1.00  0.00    -0.550 OA
ENDBRANCH   5   6
ENDBRANCH   1   5
TORSDOF 3
ENDMDL
