MODEL 1
REMARK VINA RESULT:    -3.832      0.000      0.000
REMARK INTER + INTRA:          -5.775
REMARK INTER:                  -5.624
REMARK INTRA:                  -0.151
REMARK UNBOUND:                -0.151
REMARK SMILES O=C([O-])CCCCCCCC(=O)[O-]
REMARK SMILES IDX 7 1 6 2 5 3 4 4 2 5 1 6 3 7 8 8 9 9 10 10 11 11 12 12 13 13
REMARK H PARENT
REMARK Flexibility Score: inf
ROOT
ATOM      1  C   UNL     1     -22.838  28.990 -41.850  1.00  0.00     0.000 C 
ENDROOT
BRANCH   1   2
ATOM      2  C   UNL     1     -24.300  29.468 -41.828  1.00  0.00     0.000 C 
BRANCH   2   3
ATOM      3  C   UNL     1     -25.303  28.305 -41.905  1.00  0.00     0.006 C 
BRANCH   3   4
ATOM      4  C   UNL     1     -26.510  28.502 -40.977  1.00  0.00     0.053 C 
BRANCH   4   5
ATOM      5  C   UNL     1     -27.713  27.810 -41.535  1.00  0.00     0.041 C 
ATOM      6  O   UNL     1     -28.709  27.579 -40.800  1.00  0.00    -0.550 OA
ATOM      7  O   UNL     1     -27.717  27.378 -42.855  1.00  0.00    -0.550 OA
ENDBRANCH   4   5
ENDBRANCH   3   4
ENDBRANCH   2   3
ENDBRANCH   1   2
BRANCH   1   8
ATOM      8  C   UNL     1     -21.944  29.867 -42.741  1.00  0.00     0.000 C 
BRANCH   8   9
ATOM      9  C   UNL     1     -20.985  30.755 -41.929  1.00  0.00     0.006 C 
BRANCH   9  10
ATOM     10  C   UNL     1     -19.513  30.431 -42.217  1.00  0.00     0.053 C 
BRANCH  10  11
ATOM     11  C   UNL     1     -18.719  31.668 -42.507  1.00  0.00     0.041 C 
ATOM     12  O   UNL     1     -18.545  32.045 -43.696  1.00  0.00    -0.550 OA
ATOM     13  O   UNL     1     -18.140  32.383 -41.467  1.00  0.00    -0.550 OA
ENDBRANCH  10  11
ENDBRANCH   9  10
ENDBRANCH   8   9
ENDBRANCH   1   8
TORSDOF 8
ENDMDL
MODEL 2
REMARK VINA RESULT:    -3.815      1.014      7.624
REMARK INTER + INTRA:          -5.750
REMARK INTER:                  -5.373
REMARK INTRA:                  -0.377
REMARK UNBOUND:                -0.151
REMARK SMILES O=C([O-])CCCCCCCC(=O)[O-]
REMARK SMILES IDX 7 1 6 2 5 3 4 4 2 5 1 6 3 7 8 8 9 9 10 10 11 11 12 12 13 13
REMARK H PARENT
REMARK Flexibility Score: inf
ROOT
ATOM      1  C   UNL     1     -23.936  30.389 -41.567  1.00  0.00     0.000 C 
ENDROOT
BRANCH   1   2
ATOM      2  C   UNL     1     -22.718  31.172 -42.087  1.00  0.00     0.000 C 
BRANCH   2   3
ATOM      3  C   UNL     1     -21.654  30.257 -42.717  1.00  0.00     0.006 C 
BRANCH   3   4
ATOM      4  C   UNL     1     -20.351  30.219 -41.907  1.00  0.00     0.053 C 
BRANCH   4   5
ATOM      5  C   UNL     1     -19.583  31.488 -42.099  1.00  0.00     0.041 C 
ATOM      6  O   UNL     1     -19.483  32.318 -41.156  1.00  0.00    -0.550 OA
ATOM      7  O   UNL     1     -19.015  31.778 -43.333  1.00  0.00    -0.550 OA
ENDBRANCH   4   5
ENDBRANCH   3   4
ENDBRANCH   2   3
ENDBRANCH   1   2
BRANCH   1   8
ATOM      8  C   UNL     1     -23.867  28.893 -41.913  1.00  0.00     0.000 C 
BRANCH   8   9
ATOM      9  C   UNL     1     -25.255  28.234 -41.981  1.00  0.00     0.006 C 
BRANCH   9  10
ATOM     10  C   UNL     1     -26.383  29.225 -41.663  1.00  0.00     0.053 C 
BRANCH  10  11
ATOM     11  C   UNL     1     -27.732  28.583 -41.766  1.00  0.00     0.041 C 
ATOM     12  O   UNL     1     -27.865  27.480 -42.358  1.00  0.00    -0.550 OA
ATOM     13  O   UNL     1     -28.849  29.220 -41.241  1.00  0.00    -0.550 OA
ENDBRANCH  10  11
ENDBRANCH   9  10
ENDBRANCH   8   9
ENDBRANCH   1   8
TORSDOF 8
ENDMDL
MODEL 3
REMARK VINA RESULT:    -3.720     10.693     12.351
REMARK INTER + INTRA:          -5.610
REMARK INTER:                  -4.792
REMARK INTRA:                  -0.818
REMARK UNBOUND:                -0.151
REMARK SMILES O=C([O-])CCCCCCCC(=O)[O-]
REMARK SMILES IDX 7 1 6 2 5 3 4 4 2 5 1 6 3 7 8 8 9 9 10 10 11 11 12 12 13 13
REMARK H PARENT
REMARK Flexibility Score: inf
ROOT
ATOM      1  C   UNL     1     -26.801  18.303 -36.915  1.00  0.00     0.000 C 
ENDROOT
BRANCH   1   2
ATOM      2  C   UNL     1     -25.468  18.644 -36.226  1.00  0.00     0.000 C 
BRANCH   2   3
ATOM      3  C   UNL     1     -25.414  20.100 -35.733  1.00  0.00     0.006 C 
BRANCH   3   4
ATOM      4  C   UNL     1     -25.788  21.109 -36.827  1.00  0.00     0.053 C 
BRANCH   4   5
ATOM      5  C   UNL     1     -27.007  21.879 -36.429  1.00  0.00     0.041 C 
ATOM      6  O   UNL     1     -27.307  22.946 -37.028  1.00  0.00    -0.550 OA
ATOM      7  O   UNL     1     -27.787  21.446 -35.364  1.00  0.00    -0.550 OA
ENDBRANCH   4   5
ENDBRANCH   3   4
ENDBRANCH   2   3
ENDBRANCH   1   2
BRANCH   1   8
ATOM      8  C   UNL     1     -26.605  17.761 -38.340  1.00  0.00     0.000 C 
BRANCH   8   9
ATOM      9  C   UNL     1     -27.688  18.251 -39.317  1.00  0.00     0.006 C 
BRANCH   9  10
ATOM     10  C   UNL     1     -28.581  19.333 -38.696  1.00  0.00     0.053 C 
BRANCH  10  11
ATOM     11  C   UNL     1     -28.527  20.612 -39.474  1.00  0.00     0.041 C 
ATOM     12  O   UNL     1     -29.561  21.318 -39.605  1.00  0.00    -0.550 OA
ATOM     13  O   UNL     1     -27.344  21.005 -40.086  1.00  0.00    -0.550 OA
ENDBRANCH  10  11
ENDBRANCH   9  10
ENDBRANCH   8   9
ENDBRANCH   1   8
TORSDOF 8
ENDMDL
MODEL 4
REMARK VINA RESULT:    -3.716     11.117     13.780
REMARK INTER + INTRA:          -5.605
REMARK INTER:                  -5.271
REMARK INTRA:                  -0.334
REMARK UNBOUND:                -0.151
REMARK SMILES O=C([O-])CCCCCCCC(=O)[O-]
REMARK SMILES IDX 7 1 6 2 5 3 4 4 2 5 1 6 3 7 8 8 9 9 10 10 11 11 12 12 13 13
REMARK H PARENT
REMARK Flexibility Score: inf
ROOT
ATOM      1  C   UNL     1     -25.626  18.795 -35.863  1.00  0.00     0.000 C 
ENDROOT
BRANCH   1   2
ATOM      2  C   UNL     1     -26.314  19.448 -34.652  1.00  0.00     0.000 C 
BRANCH   2   3
ATOM      3  C   UNL     1     -26.017  18.711 -33.335  1.00  0.00     0.006 C 
BRANCH   3   4
ATOM      4  C   UNL     1     -25.012  17.564 -33.513  1.00  0.00     0.053 C 
BRANCH   4   5
ATOM      5  C   UNL     1     -24.012  17.573 -32.400  1.00  0.00     0.041 C 
ATOM      6  O   UNL     1     -22.964  16.879 -32.485  1.00  0.00    -0.550 OA
ATOM      7  O   UNL     1     -24.258  18.310 -31.250  1.00  0.00    -0.550 OA
ENDBRANCH   4   5
ENDBRANCH   3   4
ENDBRANCH   2   3
ENDBRANCH   1   2
BRANCH   1   8
ATOM      8  C   UNL     1     -26.621  18.085 -36.794  1.00  0.00     0.000 C 
BRANCH   8   9
ATOM      9  C   UNL     1     -26.589  18.636 -38.230  1.00  0.00     0.006 C 
BRANCH   9  10
ATOM     10  C   UNL     1     -26.079  20.083 -38.284  1.00  0.00     0.053 C 
BRANCH  10  11
ATOM     11  C   UNL     1     -27.079  21.002 -38.914  1.00  0.00     0.041 C 
ATOM     12  O   UNL     1     -27.505  20.774 -40.077  1.00  0.00    -0.550 OA
ATOM     13  O   UNL     1     -27.516  22.130 -38.231  1.00  0.00    -0.550 OA
ENDBRANCH  10  11
ENDBRANCH   9  10
ENDBRANCH   8   9
ENDBRANCH   1   8
TORSDOF 8
ENDMDL
MODEL 5
REMARK VINA RESULT:    -3.654     10.362     12.556
REMARK INTER + INTRA:          -5.513
REMARK INTER:                  -4.913
REMARK INTRA:                  -0.601
REMARK UNBOUND:                -0.151
REMARK SMILES O=C([O-])CCCCCCCC(=O)[O-]
REMARK SMILES IDX 7 1 6 2 5 3 4 4 2 5 1 6 3 7 8 8 9 9 10 10 11 11 12 12 13 13
REMARK H PARENT
REMARK Flexibility Score: inf
ROOT
ATOM      1  C   UNL     1     -27.442  19.249 -39.244  1.00  0.00     0.000 C 
ENDROOT
BRANCH   1   2
ATOM      2  C   UNL     1     -26.230  18.999 -38.331  1.00  0.00     0.000 C 
BRANCH   2   3
ATOM      3  C   UNL     1     -26.618  18.320 -37.007  1.00  0.00     0.006 C 
BRANCH   3   4
ATOM      4  C   UNL     1     -25.640  18.640 -35.868  1.00  0.00     0.053 C 
BRANCH   4   5
ATOM      5  C   UNL     1     -25.971  17.829 -34.655  1.00  0.00     0.041 C 
ATOM      6  O   UNL     1     -25.064  17.211 -34.039  1.00  0.00    -0.550 OA
ATOM      7  O   UNL     1     -27.290  17.717 -34.233  1.00  0.00    -0.550 OA
ENDBRANCH   4   5
ENDBRANCH   3   4
ENDBRANCH   2   3
ENDBRANCH   1   2
BRANCH   1   8
ATOM      8  C   UNL     1     -27.586  20.727 -39.640  1.00  0.00     0.000 C 
BRANCH   8   9
ATOM      9  C   UNL     1     -28.843  21.383 -39.043  1.00  0.00     0.006 C 
BRANCH   9  10
ATOM     10  C   UNL     1     -28.762  21.506 -37.515  1.00  0.00     0.053 C 
BRANCH  10  11
ATOM     11  C   UNL     1     -27.698  22.471 -37.091  1.00  0.00     0.041 C 
ATOM     12  O   UNL     1     -26.649  22.053 -36.533  1.00  0.00    -0.550 OA
ATOM     13  O   UNL     1     -27.880  23.835 -37.280  1.00  0.00    -0.550 OA
ENDBRANCH  10  11
ENDBRANCH   9  10
ENDBRANCH   8   9
ENDBRANCH   1   8
TORSDOF 8
ENDMDL
MODEL 6
REMARK VINA RESULT:    -3.616      4.248      6.415
REMARK INTER + INTRA:          -5.458
REMARK INTER:                  -5.053
REMARK INTRA:                  -0.405
REMARK UNBOUND:                -0.151
REMARK SMILES O=C([O-])CCCCCCCC(=O)[O-]
REMARK SMILES IDX 7 1 6 2 5 3 4 4 2 5 1 6 3 7 8 8 9 9 10 10 11 11 12 12 13 13
REMARK H PARENT
REMARK Flexibility Score: inf
ROOT
ATOM      1  C   UNL     1     -19.464  32.743 -39.657  1.00  0.00     0.000 C 
ENDROOT
BRANCH   1   2
ATOM      2  C   UNL     1     -19.075  32.153 -41.024  1.00  0.00     0.000 C 
BRANCH   2   3
ATOM      3  C   UNL     1     -19.570  30.709 -41.206  1.00  0.00     0.006 C 
BRANCH   3   4
ATOM      4  C   UNL     1     -20.113  30.442 -42.617  1.00  0.00     0.053 C 
BRANCH   4   5
ATOM      5  C   UNL     1     -21.600  30.284 -42.580  1.00  0.00     0.041 C 
ATOM      6  O   UNL     1     -22.150  29.324 -43.182  1.00  0.00    -0.550 OA
ATOM      7  O   UNL     1     -22.383  31.222 -41.920  1.00  0.00    -0.550 OA
ENDBRANCH   4   5
ENDBRANCH   3   4
ENDBRANCH   2   3
ENDBRANCH   1   2
BRANCH   1   8
ATOM      8  C   UNL     1     -20.773  33.546 -39.714  1.00  0.00     0.000 C 
BRANCH   8   9
ATOM      9  C   UNL     1     -21.127  34.201 -38.367  1.00  0.00     0.006 C 
BRANCH   9  10
ATOM     10  C   UNL     1     -22.642  34.244 -38.125  1.00  0.00     0.053 C 
BRANCH  10  11
ATOM     11  C   UNL     1     -23.191  32.889 -37.797  1.00  0.00     0.041 C 
ATOM     12  O   UNL     1     -22.584  32.138 -36.989  1.00  0.00    -0.550 OA
ATOM     13  O   UNL     1     -24.354  32.442 -38.411  1.00  0.00    -0.550 OA
ENDBRANCH  10  11
ENDBRANCH   9  10
ENDBRANCH   8   9
ENDBRANCH   1   8
TORSDOF 8
ENDMDL
MODEL 7
REMARK VINA RESULT:    -3.611      4.202      5.969
REMARK INTER + INTRA:          -5.451
REMARK INTER:                  -4.700
REMARK INTRA:                  -0.751
REMARK UNBOUND:                -0.151
REMARK SMILES O=C([O-])CCCCCCCC(=O)[O-]
REMARK SMILES IDX 7 1 6 2 5 3 4 4 2 5 1 6 3 7 8 8 9 9 10 10 11 11 12 12 13 13
REMARK H PARENT
REMARK Flexibility Score: inf
ROOT
ATOM      1  C   UNL     1     -20.018  32.400 -39.529  1.00  0.00     0.000 C 
ENDROOT
BRANCH   1   2
ATOM      2  C   UNL     1     -20.958  33.608 -39.685  1.00  0.00     0.000 C 
BRANCH   2   3
ATOM      3  C   UNL     1     -21.447  34.154 -38.332  1.00  0.00     0.006 C 
BRANCH   3   4
ATOM      4  C   UNL     1     -22.977  34.168 -38.218  1.00  0.00     0.053 C 
BRANCH   4   5
ATOM      5  C   UNL     1     -23.496  32.781 -38.008  1.00  0.00     0.041 C 
ATOM      6  O   UNL     1     -22.836  31.954 -37.325  1.00  0.00    -0.550 OA
ATOM      7  O   UNL     1     -24.686  32.386 -38.605  1.00  0.00    -0.550 OA
ENDBRANCH   4   5
ENDBRANCH   3   4
ENDBRANCH   2   3
ENDBRANCH   1   2
BRANCH   1   8
ATOM      8  C   UNL     1     -20.552  31.145 -40.237  1.00  0.00     0.000 C 
BRANCH   8   9
ATOM      9  C   UNL     1     -21.794  31.430 -41.099  1.00  0.00     0.006 C 
BRANCH   9  10
ATOM     10  C   UNL     1     -22.898  30.384 -40.889  1.00  0.00     0.053 C 
BRANCH  10  11
ATOM     11  C   UNL     1     -22.985  29.430 -42.040  1.00  0.00     0.041 C 
ATOM     12  O   UNL     1     -22.126  29.466 -42.959  1.00  0.00    -0.550 OA
ATOM     13  O   UNL     1     -24.036  28.525 -42.116  1.00  0.00    -0.550 OA
ENDBRANCH  10  11
ENDBRANCH   9  10
ENDBRANCH   8   9
ENDBRANCH   1   8
TORSDOF 8
ENDMDL
MODEL 8
REMARK VINA RESULT:    -3.598     11.073     13.578
REMARK INTER + INTRA:          -5.432
REMARK INTER:                  -5.114
REMARK INTRA:                  -0.318
REMARK UNBOUND:                -0.151
REMARK SMILES O=C([O-])CCCCCCCC(=O)[O-]
REMARK SMILES IDX 7 1 6 2 5 3 4 4 2 5 1 6 3 7 8 8 9 9 10 10 11 11 12 12 13 13
REMARK H PARENT
REMARK Flexibility Score: inf
ROOT
ATOM      1  C   UNL     1     -26.536  19.528 -35.988  1.00  0.00     0.000 C 
ENDROOT
BRANCH   1   2
ATOM      2  C   UNL     1     -26.591  18.410 -37.043  1.00  0.00     0.000 C 
BRANCH   2   3
ATOM      3  C   UNL     1     -26.299  18.923 -38.464  1.00  0.00     0.006 C 
BRANCH   3   4
ATOM      4  C   UNL     1     -27.573  19.104 -39.301  1.00  0.00     0.053 C 
BRANCH   4   5
ATOM      5  C   UNL     1     -27.849  20.557 -39.521  1.00  0.00     0.041 C 
ATOM      6  O   UNL     1     -26.924  21.403 -39.400  1.00  0.00    -0.550 OA
ATOM      7  O   UNL     1     -29.138  20.984 -39.813  1.00  0.00    -0.550 OA
ENDBRANCH   4   5
ENDBRANCH   3   4
ENDBRANCH   2   3
ENDBRANCH   1   2
BRANCH   1   8
ATOM      8  C   UNL     1     -25.461  19.277 -34.920  1.00  0.00     0.000 C 
BRANCH   8   9
ATOM      9  C   UNL     1     -26.012  18.548 -33.682  1.00  0.00     0.006 C 
BRANCH   9  10
ATOM     10  C   UNL     1     -25.216  17.276 -33.357  1.00  0.00     0.053 C 
BRANCH  10  11
ATOM     11  C   UNL     1     -24.163  17.529 -32.322  1.00  0.00     0.041 C 
ATOM     12  O   UNL     1     -24.396  18.302 -31.357  1.00  0.00    -0.550 OA
ATOM     13  O   UNL     1     -22.912  16.938 -32.444  1.00  0.00    -0.550 OA
ENDBRANCH  10  11
ENDBRANCH   9  10
ENDBRANCH   8   9
ENDBRANCH   1   8
TORSDOF 8
ENDMDL
MODEL 9
REMARK VINA RESULT:    -3.578     11.482     12.521
REMARK INTER + INTRA:          -5.402
REMARK INTER:                  -4.514
REMARK INTRA:                  -0.888
REMARK UNBOUND:                -0.151
REMARK SMILES O=C([O-])CCCCCCCC(=O)[O-]
REMARK SMILES IDX 7 1 6 2 5 3 4 4 2 5 1 6 3 7 8 8 9 9 10 10 11 11 12 12 13 13
REMARK H PARENT
REMARK Flexibility Score: inf
ROOT
ATOM      1  C   UNL     1     -26.499  20.105 -38.845  1.00  0.00     0.000 C 
ENDROOT
BRANCH   1   2
ATOM      2  C   UNL     1     -27.581  20.901 -39.595  1.00  0.00     0.000 C 
BRANCH   2   3
ATOM      3  C   UNL     1     -28.694  21.408 -38.662  1.00  0.00     0.006 C 
BRANCH   3   4
ATOM      4  C   UNL     1     -28.155  21.902 -37.312  1.00  0.00     0.053 C 
BRANCH   4   5
ATOM      5  C   UNL     1     -28.816  21.169 -36.188  1.00  0.00     0.041 C 
ATOM      6  O   UNL     1     -28.879  21.688 -35.043  1.00  0.00    -0.550 OA
ATOM      7  O   UNL     1     -29.319  19.890 -36.393  1.00  0.00    -0.550 OA
ENDBRANCH   4   5
ENDBRANCH   3   4
ENDBRANCH   2   3
ENDBRANCH   1   2
BRANCH   1   8
ATOM      8  C   UNL     1     -26.860  18.619 -38.692  1.00  0.00     0.000 C 
BRANCH   8   9
ATOM      9  C   UNL     1     -26.480  18.054 -37.312  1.00  0.00     0.006 C 
BRANCH   9  10
ATOM     10  C   UNL     1     -25.689  19.065 -36.470  1.00  0.00     0.053 C 
BRANCH  10  11
ATOM     11  C   UNL     1     -25.827  18.795 -35.004  1.00  0.00     0.041 C 
ATOM     12  O   UNL     1     -26.271  19.688 -34.235  1.00  0.00    -0.550 OA
ATOM     13  O   UNL     1     -25.433  17.570 -34.480  1.00  0.00    -0.550 OA
ENDBRANCH  10  11
ENDBRANCH   9  10
ENDBRANCH   8   9
ENDBRANCH   1   8
TORSDOF 8
ENDMDL
