MODEL 1
REMARK VINA RESULT:    -3.439      0.000      0.000
REMARK INTER + INTRA:          -8.602
REMARK INTER:                  -6.253
REMARK INTRA:                  -2.349
REMARK UNBOUND:                -2.349
REMARK SMILES CCCCCCCCCCCCCCCC(=O)[O-]
REMARK SMILES IDX 9 1 10 2 11 3 12 4 13 5 14 6 15 7 16 8 17 9 18 10 8 11 7 12
REMARK SMILES IDX 6 13 5 14 4 15 3 16 2 17 1 18
REMARK H PARENT
REMARK Flexibility Score: inf
ROOT
ATOM      1  C   UNL     1      21.311   2.176  23.549  1.00  0.00     0.000 C 
ENDROOT
BRANCH   1   2
ATOM      2  C   UNL     1      22.134   3.404  23.983  1.00  0.00     0.000 C 
BRANCH   2   3
ATOM      3  C   UNL     1      21.301   4.652  24.339  1.00  0.00     0.000 C 
BRANCH   3   4
ATOM      4  C   UNL     1      19.777   4.427  24.375  1.00  0.00     0.000 C 
BRANCH   4   5
ATOM      5  C   UNL     1      19.031   5.186  25.491  1.00  0.00     0.000 C 
BRANCH   5   6
ATOM      6  C   UNL     1      18.573   6.611  25.116  1.00  0.00     0.006 C 
BRANCH   6   7
ATOM      7  C   UNL     1      18.818   6.991  23.647  1.00  0.00     0.053 C 
BRANCH   7   8
ATOM      8  C   UNL     1      19.841   8.077  23.512  1.00  0.00     0.041 C 
ATOM      9  O   UNL     1      20.757   8.195  24.368  1.00  0.00    -0.550 OA
ATOM     10  O   UNL     1      19.800   8.940  22.424  1.00  0.00    -0.550 OA
ENDBRANCH   7   8
ENDBRANCH   6   7
ENDBRANCH   5   6
ENDBRANCH   4   5
ENDBRANCH   3   4
ENDBRANCH   2   3
ENDBRANCH   1   2
BRANCH   1  11
ATOM     11  C   UNL     1      21.297   1.009  24.557  1.00  0.00     0.000 C 
BRANCH  11  12
ATOM     12  C   UNL     1      21.707   1.382  25.993  1.00  0.00    -0.000 C 
BRANCH  12  13
ATOM     13  C   UNL     1      20.501   1.671  26.903  1.00  0.00    -0.000 C 
BRANCH  13  14
ATOM     14  C   UNL     1      20.756   2.850  27.855  1.00  0.00    -0.000 C 
BRANCH  14  15
ATOM     15  C   UNL     1      22.250   3.205  27.966  1.00  0.00    -0.000 C 
BRANCH  15  16
ATOM     16  C   UNL     1      22.525   4.681  27.607  1.00  0.00    -0.000 C 
BRANCH  16  17
ATOM     17  C   UNL     1      23.941   4.928  27.061  1.00  0.00    -0.003 C 
ATOM     18  C   UNL     1      24.668   3.642  26.675  1.00  0.00     0.004 C 
ENDBRANCH  16  17
ENDBRANCH  15  16
ENDBRANCH  14  15
ENDBRANCH  13  14
ENDBRANCH  12  13
ENDBRANCH  11  12
ENDBRANCH   1  11
TORSDOF 14
ENDMDL
MODEL 2
REMARK VINA RESULT:    -3.424      1.122      2.004
REMARK INTER + INTRA:          -8.576
REMARK INTER:                  -5.878
REMARK INTRA:                  -2.698
REMARK UNBOUND:                -2.349
REMARK SMILES CCCCCCCCCCCCCCCC(=O)[O-]
REMARK SMILES IDX 9 1 10 2 11 3 12 4 13 5 14 6 15 7 16 8 17 9 18 10 8 11 7 12
REMARK SMILES IDX 6 13 5 14 4 15 3 16 2 17 1 18
REMARK H PARENT
REMARK Flexibility Score: inf
ROOT
ATOM      1  C   UNL     1      20.753   1.468  26.251  1.00  0.00     0.000 C 
ENDROOT
BRANCH   1   2
ATOM      2  C   UNL     1      21.449   1.225  24.898  1.00  0.00     0.000 C 
BRANCH   2   3
ATOM      3  C   UNL     1      22.144   2.463  24.293  1.00  0.00     0.000 C 
BRANCH   3   4
ATOM      4  C   UNL     1      21.198   3.464  23.600  1.00  0.00     0.000 C 
BRANCH   4   5
ATOM      5  C   UNL     1      20.901   4.745  24.405  1.00  0.00     0.000 C 
BRANCH   5   6
ATOM      6  C   UNL     1      19.484   5.323  24.210  1.00  0.00     0.006 C 
BRANCH   6   7
ATOM      7  C   UNL     1      19.220   6.629  24.977  1.00  0.00     0.053 C 
BRANCH   7   8
ATOM      8  C   UNL     1      20.038   7.766  24.447  1.00  0.00     0.041 C 
ATOM      9  O   UNL     1      20.849   8.368  25.199  1.00  0.00    -0.550 OA
ATOM     10  O   UNL     1      19.928   8.141  23.114  1.00  0.00    -0.550 OA
ENDBRANCH   7   8
ENDBRANCH   6   7
ENDBRANCH   5   6
ENDBRANCH   4   5
ENDBRANCH   3   4
ENDBRANCH   2   3
ENDBRANCH   1   2
BRANCH   1  11
ATOM     11  C   UNL     1      19.251   1.806  26.162  1.00  0.00     0.000 C 
BRANCH  11  12
ATOM     12  C   UNL     1      18.800   3.006  27.015  1.00  0.00    -0.000 C 
BRANCH  12  13
ATOM     13  C   UNL     1      19.874   3.463  28.018  1.00  0.00    -0.000 C 
BRANCH  13  14
ATOM     14  C   UNL     1      19.961   4.993  28.122  1.00  0.00    -0.000 C 
BRANCH  14  15
ATOM     15  C   UNL     1      21.403   5.513  27.980  1.00  0.00    -0.000 C 
BRANCH  15  16
ATOM     16  C   UNL     1      22.421   4.366  27.804  1.00  0.00    -0.000 C 
BRANCH  16  17
ATOM     17  C   UNL     1      23.663   4.765  26.992  1.00  0.00    -0.003 C 
ATOM     18  C   UNL     1      24.619   3.599  26.745  1.00  0.00     0.004 C 
ENDBRANCH  16  17
ENDBRANCH  15  16
ENDBRANCH  14  15
ENDBRANCH  13  14
ENDBRANCH  12  13
ENDBRANCH  11  12
ENDBRANCH   1  11
TORSDOF 14
ENDMDL
MODEL 3
REMARK VINA RESULT:    -3.342      1.540      3.461
REMARK INTER + INTRA:          -8.426
REMARK INTER:                  -6.106
REMARK INTRA:                  -2.320
REMARK UNBOUND:                -2.349
REMARK SMILES CCCCCCCCCCCCCCCC(=O)[O-]
REMARK SMILES IDX 9 1 10 2 11 3 12 4 13 5 14 6 15 7 16 8 17 9 18 10 8 11 7 12
REMARK SMILES IDX 6 13 5 14 4 15 3 16 2 17 1 18
REMARK H PARENT
REMARK Flexibility Score: inf
ROOT
ATOM      1  C   UNL     1      19.323   4.778  24.581  1.00  0.00     0.000 C 
ENDROOT
BRANCH   1   2
ATOM      2  C   UNL     1      18.980   5.328  25.980  1.00  0.00     0.000 C 
BRANCH   2   3
ATOM      3  C   UNL     1      20.165   5.959  26.739  1.00  0.00     0.000 C 
BRANCH   3   4
ATOM      4  C   UNL     1      20.179   7.501  26.754  1.00  0.00     0.000 C 
BRANCH   4   5
ATOM      5  C   UNL     1      21.258   8.153  25.867  1.00  0.00     0.000 C 
BRANCH   5   6
ATOM      6  C   UNL     1      20.721   9.113  24.786  1.00  0.00     0.006 C 
BRANCH   6   7
ATOM      7  C   UNL     1      20.083   8.414  23.575  1.00  0.00     0.053 C 
BRANCH   7   8
ATOM      8  C   UNL     1      19.542   9.395  22.581  1.00  0.00     0.041 C 
ATOM      9  O   UNL     1      20.136   9.581  21.487  1.00  0.00    -0.550 OA
ATOM     10  O   UNL     1      18.364  10.080  22.850  1.00  0.00    -0.550 OA
ENDBRANCH   7   8
ENDBRANCH   6   7
ENDBRANCH   5   6
ENDBRANCH   4   5
ENDBRANCH   3   4
ENDBRANCH   2   3
ENDBRANCH   1   2
BRANCH   1  11
ATOM     11  C   UNL     1      20.829   4.706  24.258  1.00  0.00     0.000 C 
BRANCH  11  12
ATOM     12  C   UNL     1      21.302   3.379  23.640  1.00  0.00    -0.000 C 
BRANCH  12  13
ATOM     13  C   UNL     1      22.339   2.650  24.512  1.00  0.00    -0.000 C 
BRANCH  13  14
ATOM     14  C   UNL     1      22.785   3.493  25.716  1.00  0.00    -0.000 C 
BRANCH  14  15
ATOM     15  C   UNL     1      22.307   2.907  27.057  1.00  0.00    -0.000 C 
BRANCH  15  16
ATOM     16  C   UNL     1      21.486   1.614  26.867  1.00  0.00    -0.000 C 
BRANCH  16  17
ATOM     17  C   UNL     1      20.022   1.743  27.318  1.00  0.00    -0.003 C 
ATOM     18  C   UNL     1      19.024   1.541  26.180  1.00  0.00     0.004 C 
ENDBRANCH  16  17
ENDBRANCH  15  16
ENDBRANCH  14  15
ENDBRANCH  13  14
ENDBRANCH  12  13
ENDBRANCH  11  12
ENDBRANCH   1  11
TORSDOF 14
ENDMDL
MODEL 4
REMARK VINA RESULT:    -3.300      1.726      3.760
REMARK INTER + INTRA:          -8.349
REMARK INTER:                  -5.891
REMARK INTRA:                  -2.458
REMARK UNBOUND:                -2.349
REMARK SMILES CCCCCCCCCCCCCCCC(=O)[O-]
REMARK SMILES IDX 9 1 10 2 11 3 12 4 13 5 14 6 15 7 16 8 17 9 18 10 8 11 7 12
REMARK SMILES IDX 6 13 5 14 4 15 3 16 2 17 1 18
REMARK H PARENT
REMARK Flexibility Score: inf
ROOT
ATOM      1  C   UNL     1      22.634   2.804  27.093  1.00  0.00     0.000 C 
ENDROOT
BRANCH   1   2
ATOM      2  C   UNL     1      22.369   4.076  27.922  1.00  0.00     0.000 C 
BRANCH   2   3
ATOM      3  C   UNL     1      22.901   5.383  27.297  1.00  0.00     0.000 C 
BRANCH   3   4
ATOM      4  C   UNL     1      21.972   6.603  27.454  1.00  0.00     0.000 C 
BRANCH   4   5
ATOM      5  C   UNL     1      22.590   7.952  27.033  1.00  0.00     0.000 C 
BRANCH   5   6
ATOM      6  C   UNL     1      21.688   8.833  26.145  1.00  0.00     0.006 C 
BRANCH   6   7
ATOM      7  C   UNL     1      20.531   8.080  25.469  1.00  0.00     0.053 C 
BRANCH   7   8
ATOM      8  C   UNL     1      20.414   8.420  24.015  1.00  0.00     0.041 C 
ATOM      9  O   UNL     1      20.979   9.447  23.558  1.00  0.00    -0.550 OA
ATOM     10  O   UNL     1      19.707   7.584  23.160  1.00  0.00    -0.550 OA
ENDBRANCH   7   8
ENDBRANCH   6   7
ENDBRANCH   5   6
ENDBRANCH   4   5
ENDBRANCH   3   4
ENDBRANCH   2   3
ENDBRANCH   1   2
BRANCH   1  11
ATOM     11  C   UNL     1      23.042   3.053  25.627  1.00  0.00     0.000 C 
BRANCH  11  12
ATOM     12  C   UNL     1      22.181   2.328  24.577  1.00  0.00    -0.000 C 
BRANCH  12  13
ATOM     13  C   UNL     1      21.479   3.297  23.608  1.00  0.00    -0.000 C 
BRANCH  13  14
ATOM     14  C   UNL     1      20.849   4.494  24.335  1.00  0.00    -0.000 C 
BRANCH  14  15
ATOM     15  C   UNL     1      19.384   4.240  24.733  1.00  0.00    -0.000 C 
BRANCH  15  16
ATOM     16  C   UNL     1      19.140   4.480  26.238  1.00  0.00    -0.000 C 
BRANCH  16  17
ATOM     17  C   UNL     1      18.736   3.210  27.005  1.00  0.00    -0.003 C 
ATOM     18  C   UNL     1      18.812   1.945  26.154  1.00  0.00     0.004 C 
ENDBRANCH  16  17
ENDBRANCH  15  16
ENDBRANCH  14  15
ENDBRANCH  13  14
ENDBRANCH  12  13
ENDBRANCH  11  12
ENDBRANCH   1  11
TORSDOF 14
ENDMDL
MODEL 5
REMARK VINA RESULT:    -3.289      1.348      3.533
REMARK INTER + INTRA:          -8.329
REMARK INTER:                  -6.160
REMARK INTRA:                  -2.170
REMARK UNBOUND:                -2.349
REMARK SMILES CCCCCCCCCCCCCCCC(=O)[O-]
REMARK SMILES IDX 9 1 10 2 11 3 12 4 13 5 14 6 15 7 16 8 17 9 18 10 8 11 7 12
REMARK SMILES IDX 6 13 5 14 4 15 3 16 2 17 1 18
REMARK H PARENT
REMARK Flexibility Score: inf
ROOT
ATOM      1  C   UNL     1      22.496   4.790  27.006  1.00  0.00     0.000 C 
ENDROOT
BRANCH   1   2
ATOM      2  C   UNL     1      21.131   4.810  27.722  1.00  0.00     0.000 C 
BRANCH   2   3
ATOM      3  C   UNL     1      20.075   5.737  27.085  1.00  0.00     0.000 C 
BRANCH   3   4
ATOM      4  C   UNL     1      20.452   6.293  25.698  1.00  0.00     0.000 C 
BRANCH   4   5
ATOM      5  C   UNL     1      19.566   5.801  24.535  1.00  0.00     0.000 C 
BRANCH   5   6
ATOM      6  C   UNL     1      18.982   6.916  23.644  1.00  0.00     0.006 C 
BRANCH   6   7
ATOM      7  C   UNL     1      19.173   8.338  24.197  1.00  0.00     0.053 C 
BRANCH   7   8
ATOM      8  C   UNL     1      20.116   9.144  23.359  1.00  0.00     0.041 C 
ATOM      9  O   UNL     1      21.271   9.411  23.783  1.00  0.00    -0.550 OA
ATOM     10  O   UNL     1      19.731   9.573  22.095  1.00  0.00    -0.550 OA
ENDBRANCH   7   8
ENDBRANCH   6   7
ENDBRANCH   5   6
ENDBRANCH   4   5
ENDBRANCH   3   4
ENDBRANCH   2   3
ENDBRANCH   1   2
BRANCH   1  11
ATOM     11  C   UNL     1      23.097   3.388  26.784  1.00  0.00     0.000 C 
BRANCH  11  12
ATOM     12  C   UNL     1      23.423   3.041  25.320  1.00  0.00    -0.000 C 
BRANCH  12  13
ATOM     13  C   UNL     1      22.267   3.366  24.358  1.00  0.00    -0.000 C 
BRANCH  13  14
ATOM     14  C   UNL     1      21.678   2.105  23.708  1.00  0.00    -0.000 C 
BRANCH  14  15
ATOM     15  C   UNL     1      20.797   1.297  24.678  1.00  0.00    -0.000 C 
BRANCH  15  16
ATOM     16  C   UNL     1      19.781   2.190  25.421  1.00  0.00    -0.000 C 
BRANCH  16  17
ATOM     17  C   UNL     1      19.332   1.615  26.775  1.00  0.00    -0.003 C 
ATOM     18  C   UNL     1      18.264   2.463  27.462  1.00  0.00     0.004 C 
ENDBRANCH  16  17
ENDBRANCH  15  16
ENDBRANCH  14  15
ENDBRANCH  13  14
ENDBRANCH  12  13
ENDBRANCH  11  12
ENDBRANCH   1  11
TORSDOF 14
ENDMDL
MODEL 6
REMARK VINA RESULT:    -3.254      1.797      3.423
REMARK INTER + INTRA:          -8.267
REMARK INTER:                  -6.369
REMARK INTRA:                  -1.898
REMARK UNBOUND:                -2.349
REMARK SMILES CCCCCCCCCCCCCCCC(=O)[O-]
REMARK SMILES IDX 9 1 10 2 11 3 12 4 13 5 14 6 15 7 16 8 17 9 18 10 8 11 7 12
REMARK SMILES IDX 6 13 5 14 4 15 3 16 2 17 1 18
REMARK H PARENT
REMARK Flexibility Score: inf
ROOT
ATOM      1  C   UNL     1      20.626   6.343  25.579  1.00  0.00     0.000 C 
ENDROOT
BRANCH   1   2
ATOM      2  C   UNL     1      20.087   6.055  24.164  1.00  0.00     0.000 C 
BRANCH   2   3
ATOM      3  C   UNL     1      18.628   5.557  24.112  1.00  0.00     0.000 C 
BRANCH   3   4
ATOM      4  C   UNL     1      17.594   6.621  23.694  1.00  0.00     0.000 C 
BRANCH   4   5
ATOM      5  C   UNL     1      17.343   7.732  24.735  1.00  0.00     0.000 C 
BRANCH   5   6
ATOM      6  C   UNL     1      17.989   9.093  24.403  1.00  0.00     0.006 C 
BRANCH   6   7
ATOM      7  C   UNL     1      18.144   9.373  22.900  1.00  0.00     0.053 C 
BRANCH   7   8
ATOM      8  C   UNL     1      19.582   9.502  22.498  1.00  0.00     0.041 C 
ATOM      9  O   UNL     1      20.492   9.388  23.360  1.00  0.00    -0.550 OA
ATOM     10  O   UNL     1      19.916   9.714  21.167  1.00  0.00    -0.550 OA
ENDBRANCH   7   8
ENDBRANCH   6   7
ENDBRANCH   5   6
ENDBRANCH   4   5
ENDBRANCH   3   4
ENDBRANCH   2   3
ENDBRANCH   1   2
BRANCH   1  11
ATOM     11  C   UNL     1      21.068   5.099  26.376  1.00  0.00     0.000 C 
BRANCH  11  12
ATOM     12  C   UNL     1      20.243   4.808  27.643  1.00  0.00    -0.000 C 
BRANCH  12  13
ATOM     13  C   UNL     1      19.845   3.326  27.769  1.00  0.00    -0.000 C 
BRANCH  13  14
ATOM     14  C   UNL     1      18.740   2.933  26.776  1.00  0.00    -0.000 C 
BRANCH  14  15
ATOM     15  C   UNL     1      19.085   1.661  25.982  1.00  0.00    -0.000 C 
BRANCH  15  16
ATOM     16  C   UNL     1      20.605   1.505  25.764  1.00  0.00    -0.000 C 
BRANCH  16  17
ATOM     17  C   UNL     1      20.999   1.306  24.291  1.00  0.00    -0.003 C 
ATOM     18  C   UNL     1      21.643   2.543  23.669  1.00  0.00     0.004 C 
ENDBRANCH  16  17
ENDBRANCH  15  16
ENDBRANCH  14  15
ENDBRANCH  13  14
ENDBRANCH  12  13
ENDBRANCH  11  12
ENDBRANCH   1  11
TORSDOF 14
ENDMDL
MODEL 7
REMARK VINA RESULT:    -3.243      2.870      5.322
REMARK INTER + INTRA:          -8.246
REMARK INTER:                  -6.202
REMARK INTRA:                  -2.045
REMARK UNBOUND:                -2.349
REMARK SMILES CCCCCCCCCCCCCCCC(=O)[O-]
REMARK SMILES IDX 9 1 10 2 11 3 12 4 13 5 14 6 15 7 16 8 17 9 18 10 8 11 7 12
REMARK SMILES IDX 6 13 5 14 4 15 3 16 2 17 1 18
REMARK H PARENT
REMARK Flexibility Score: inf
ROOT
ATOM      1  C   UNL     1      19.524   7.732  24.680  1.00  0.00     0.000 C 
ENDROOT
BRANCH   1   2
ATOM      2  C   UNL     1      20.661   8.767  24.790  1.00  0.00     0.000 C 
BRANCH   2   3
ATOM      3  C   UNL     1      21.494   8.682  26.085  1.00  0.00     0.000 C 
BRANCH   3   4
ATOM      4  C   UNL     1      21.216   7.441  26.956  1.00  0.00     0.000 C 
BRANCH   4   5
ATOM      5  C   UNL     1      22.473   6.727  27.494  1.00  0.00     0.000 C 
BRANCH   5   6
ATOM      6  C   UNL     1      22.351   5.194  27.611  1.00  0.00     0.006 C 
BRANCH   6   7
ATOM      7  C   UNL     1      22.972   4.417  26.439  1.00  0.00     0.053 C 
BRANCH   7   8
ATOM      8  C   UNL     1      24.004   3.435  26.902  1.00  0.00     0.041 C 
ATOM      9  O   UNL     1      23.695   2.528  27.719  1.00  0.00    -0.550 OA
ATOM     10  O   UNL     1      25.300   3.501  26.406  1.00  0.00    -0.550 OA
ENDBRANCH   7   8
ENDBRANCH   6   7
ENDBRANCH   5   6
ENDBRANCH   4   5
ENDBRANCH   3   4
ENDBRANCH   2   3
ENDBRANCH   1   2
BRANCH   1  11
ATOM     11  C   UNL     1      19.743   6.632  23.621  1.00  0.00     0.000 C 
BRANCH  11  12
ATOM     12  C   UNL     1      20.177   5.265  24.180  1.00  0.00    -0.000 C 
BRANCH  12  13
ATOM     13  C   UNL     1      18.992   4.423  24.685  1.00  0.00    -0.000 C 
BRANCH  13  14
ATOM     14  C   UNL     1      19.285   3.755  26.037  1.00  0.00    -0.000 C 
BRANCH  14  15
ATOM     15  C   UNL     1      19.189   2.220  25.970  1.00  0.00    -0.000 C 
BRANCH  15  16
ATOM     16  C   UNL     1      20.578   1.555  25.860  1.00  0.00    -0.000 C 
BRANCH  16  17
ATOM     17  C   UNL     1      20.959   1.160  24.424  1.00  0.00    -0.003 C 
ATOM     18  C   UNL     1      22.031   2.063  23.818  1.00  0.00     0.004 C 
ENDBRANCH  16  17
ENDBRANCH  15  16
ENDBRANCH  14  15
ENDBRANCH  13  14
ENDBRANCH  12  13
ENDBRANCH  11  12
ENDBRANCH   1  11
TORSDOF 14
ENDMDL
MODEL 8
REMARK VINA RESULT:    -3.191      1.552      3.549
REMARK INTER + INTRA:          -8.152
REMARK INTER:                  -5.580
REMARK INTRA:                  -2.572
REMARK UNBOUND:                -2.349
REMARK SMILES CCCCCCCCCCCCCCCC(=O)[O-]
REMARK SMILES IDX 9 1 10 2 11 3 12 4 13 5 14 6 15 7 16 8 17 9 18 10 8 11 7 12
REMARK SMILES IDX 6 13 5 14 4 15 3 16 2 17 1 18
REMARK H PARENT
REMARK Flexibility Score: inf
ROOT
ATOM      1  C   UNL     1      22.259   1.936  27.591  1.00  0.00     0.000 C 
ENDROOT
BRANCH   1   2
ATOM      2  C   UNL     1      23.159   3.175  27.416  1.00  0.00     0.000 C 
BRANCH   2   3
ATOM      3  C   UNL     1      22.536   4.504  27.890  1.00  0.00     0.000 C 
BRANCH   3   4
ATOM      4  C   UNL     1      23.372   5.761  27.579  1.00  0.00     0.000 C 
BRANCH   4   5
ATOM      5  C   UNL     1      22.555   7.007  27.182  1.00  0.00     0.000 C 
BRANCH   5   6
ATOM      6  C   UNL     1      21.039   6.769  27.025  1.00  0.00     0.006 C 
BRANCH   6   7
ATOM      7  C   UNL     1      20.283   7.920  26.342  1.00  0.00     0.053 C 
BRANCH   7   8
ATOM      8  C   UNL     1      19.605   7.476  25.082  1.00  0.00     0.041 C 
ATOM      9  O   UNL     1      18.383   7.171  25.093  1.00  0.00    -0.550 OA
ATOM     10  O   UNL     1      20.315   7.430  23.889  1.00  0.00    -0.550 OA
ENDBRANCH   7   8
ENDBRANCH   6   7
ENDBRANCH   5   6
ENDBRANCH   4   5
ENDBRANCH   3   4
ENDBRANCH   2   3
ENDBRANCH   1   2
BRANCH   1  11
ATOM     11  C   UNL     1      20.812   2.237  28.031  1.00  0.00     0.000 C 
BRANCH  11  12
ATOM     12  C   UNL     1      19.726   1.425  27.303  1.00  0.00    -0.000 C 
BRANCH  12  13
ATOM     13  C   UNL     1      18.621   2.312  26.701  1.00  0.00    -0.000 C 
BRANCH  13  14
ATOM     14  C   UNL     1      19.141   3.702  26.304  1.00  0.00    -0.000 C 
BRANCH  14  15
ATOM     15  C   UNL     1      19.472   3.803  24.805  1.00  0.00    -0.000 C 
BRANCH  15  16
ATOM     16  C   UNL     1      20.985   3.973  24.553  1.00  0.00    -0.000 C 
BRANCH  16  17
ATOM     17  C   UNL     1      21.579   2.902  23.623  1.00  0.00    -0.003 C 
ATOM     18  C   UNL     1      21.259   1.477  24.069  1.00  0.00     0.004 C 
ENDBRANCH  16  17
ENDBRANCH  15  16
ENDBRANCH  14  15
ENDBRANCH  13  14
ENDBRANCH  12  13
ENDBRANCH  11  12
ENDBRANCH   1  11
TORSDOF 14
ENDMDL
MODEL 9
REMARK VINA RESULT:    -3.151      1.282      2.693
REMARK INTER + INTRA:          -8.078
REMARK INTER:                  -6.135
REMARK INTRA:                  -1.943
REMARK UNBOUND:                -2.349
REMARK SMILES CCCCCCCCCCCCCCCC(=O)[O-]
REMARK SMILES IDX 9 1 10 2 11 3 12 4 13 5 14 6 15 7 16 8 17 9 18 10 8 11 7 12
REMARK SMILES IDX 6 13 5 14 4 15 3 16 2 17 1 18
REMARK H PARENT
REMARK Flexibility Score: inf
ROOT
ATOM      1  C   UNL     1      18.627   2.358  26.692  1.00  0.00     0.000 C 
ENDROOT
BRANCH   1   2
ATOM      2  C   UNL     1      18.874   3.849  26.386  1.00  0.00     0.000 C 
BRANCH   2   3
ATOM      3  C   UNL     1      19.169   4.169  24.907  1.00  0.00     0.000 C 
BRANCH   3   4
ATOM      4  C   UNL     1      19.100   5.664  24.540  1.00  0.00     0.000 C 
BRANCH   4   5
ATOM      5  C   UNL     1      19.501   6.633  25.671  1.00  0.00     0.000 C 
BRANCH   5   6
ATOM      6  C   UNL     1      19.346   8.129  25.333  1.00  0.00     0.006 C 
BRANCH   6   7
ATOM      7  C   UNL     1      19.004   8.416  23.862  1.00  0.00     0.053 C 
BRANCH   7   8
ATOM      8  C   UNL     1      20.137   9.081  23.142  1.00  0.00     0.041 C 
ATOM      9  O   UNL     1      20.018   9.396  21.929  1.00  0.00    -0.550 OA
ATOM     10  O   UNL     1      21.312   9.381  23.820  1.00  0.00    -0.550 OA
ENDBRANCH   7   8
ENDBRANCH   6   7
ENDBRANCH   5   6
ENDBRANCH   4   5
ENDBRANCH   3   4
ENDBRANCH   2   3
ENDBRANCH   1   2
BRANCH   1  11
ATOM     11  C   UNL     1      19.900   1.500  26.832  1.00  0.00     0.000 C 
BRANCH  11  12
ATOM     12  C   UNL     1      20.703   1.728  28.125  1.00  0.00    -0.000 C 
BRANCH  12  13
ATOM     13  C   UNL     1      22.160   2.145  27.857  1.00  0.00    -0.000 C 
BRANCH  13  14
ATOM     14  C   UNL     1      22.319   3.668  27.740  1.00  0.00    -0.000 C 
BRANCH  14  15
ATOM     15  C   UNL     1      22.547   4.128  26.289  1.00  0.00    -0.000 C 
BRANCH  15  16
ATOM     16  C   UNL     1      23.133   3.005  25.408  1.00  0.00    -0.000 C 
BRANCH  16  17
ATOM     17  C   UNL     1      22.408   2.837  24.062  1.00  0.00    -0.003 C 
ATOM     18  C   UNL     1      21.596   1.547  23.975  1.00  0.00     0.004 C 
ENDBRANCH  16  17
ENDBRANCH  15  16
ENDBRANCH  14  15
ENDBRANCH  13  14
ENDBRANCH  12  13
ENDBRANCH  11  12
ENDBRANCH   1  11
TORSDOF 14
ENDMDL
