MODEL 1
REMARK VINA RESULT:    -7.763      0.000      0.000
REMARK INTER + INTRA:         -12.380
REMARK INTER:                 -11.394
REMARK INTRA:                  -0.986
REMARK UNBOUND:                -0.986
REMARK SMILES O=c1c(O[C@@H]2O[C@H](CO)[C@H](O)[C@@H](O)[C@H]2O)c(-c2ccc(O)c(O)c2)oc2cc(O)cc(O)c12
REMARK SMILES IDX 4 1 3 2 16 3 25 4 2 5 26 6 1 7 33 8 27 9 31 10 28 11 30 12
REMARK SMILES IDX 17 13 18 14 19 15 20 16 24 17 22 18 21 19 23 21 32 23 29 25
REMARK SMILES IDX 5 27 14 28 6 29 12 30 7 31 10 32 15 33 13 35 8 37 9 38 11 40
REMARK H PARENT 21 20 23 22 32 24 29 26 15 34 13 36 9 39 11 41
REMARK Flexibility Score: inf
ROOT
ATOM      1  O   UNL     1     -37.604   5.547  81.828  1.00  0.00    -0.454 OA
ENDROOT
BRANCH   1   2
ATOM      2  C   UNL     1     -38.376   5.104  80.746  1.00  0.00     0.214 A 
ATOM      3  C   UNL     1     -37.915   5.126  79.414  1.00  0.00     0.180 A 
ATOM      4  O   UNL     1     -38.698   4.691  78.436  1.00  0.00    -0.452 OA
ATOM      5  C   UNL     1     -39.642   4.565  81.011  1.00  0.00     0.239 A 
ATOM      6  C   UNL     1     -39.914   4.188  78.641  1.00  0.00     0.146 A 
ATOM      7  O   UNL     1     -40.019   4.468  82.210  1.00  0.00    -0.285 OA
ATOM      8  C   UNL     1     -40.459   4.121  79.948  1.00  0.00     0.111 A 
ATOM      9  C   UNL     1     -40.627   3.689  77.547  1.00  0.00     0.094 A 
ATOM     10  C   UNL     1     -41.762   3.575  80.117  1.00  0.00     0.134 A 
ATOM     11  C   UNL     1     -41.868   3.085  77.731  1.00  0.00     0.123 A 
ATOM     12  C   UNL     1     -42.423   3.017  79.014  1.00  0.00     0.093 A 
BRANCH   3  13
ATOM     13  C   UNL     1     -36.548   5.530  79.063  1.00  0.00     0.025 A 
ATOM     14  C   UNL     1     -35.472   4.661  79.303  1.00  0.00     0.016 A 
ATOM     15  C   UNL     1     -34.167   5.067  79.014  1.00  0.00     0.051 A 
ATOM     16  C   UNL     1     -33.918   6.353  78.519  1.00  0.00     0.157 A 
ATOM     17  C   UNL     1     -36.301   6.822  78.579  1.00  0.00     0.062 A 
ATOM     18  C   UNL     1     -34.989   7.240  78.307  1.00  0.00     0.158 A 
BRANCH  16  19
ATOM     19  O   UNL     1     -32.603   6.732  78.247  1.00  0.00    -0.504 OA
ATOM     20  H   UNL     1     -32.029   6.230  77.577  1.00  0.00     0.293 HD
ENDBRANCH  16  19
BRANCH  18  21
ATOM     21  O   UNL     1     -34.750   8.530  77.832  1.00  0.00    -0.504 OA
ATOM     22  H   UNL     1     -35.498   9.207  77.726  1.00  0.00     0.293 HD
ENDBRANCH  18  21
ENDBRANCH   3  13
BRANCH  10  23
ATOM     23  O   UNL     1     -42.442   3.585  81.337  1.00  0.00    -0.507 OA
ATOM     24  H   UNL     1     -43.361   3.183  81.455  1.00  0.00     0.293 HD
ENDBRANCH  10  23
BRANCH  11  25
ATOM     25  O   UNL     1     -42.546   2.555  76.634  1.00  0.00    -0.508 OA
ATOM     26  H   UNL     1     -42.624   1.556  76.493  1.00  0.00     0.293 HD
ENDBRANCH  11  25
ENDBRANCH   1   2
BRANCH   1  27
ATOM     27  C   UNL     1     -37.430   4.855  83.066  1.00  0.00     0.339 C 
ATOM     28  C   UNL     1     -36.345   3.775  82.919  1.00  0.00     0.214 C 
ATOM     29  O   UNL     1     -37.149   5.770  84.121  1.00  0.00    -0.332 OA
ATOM     30  C   UNL     1     -34.977   4.439  82.678  1.00  0.00     0.180 C 
ATOM     31  C   UNL     1     -35.886   6.429  84.010  1.00  0.00     0.179 C 
ATOM     32  C   UNL     1     -34.702   5.441  83.815  1.00  0.00     0.177 C 
BRANCH  28  33
ATOM     33  O   UNL     1     -36.311   2.988  84.086  1.00  0.00    -0.384 OA
ATOM     34  H   UNL     1     -36.311   3.609  84.859  1.00  0.00     0.211 HD
ENDBRANCH  28  33
BRANCH  30  35
ATOM     35  O   UNL     1     -33.950   3.477  82.644  1.00  0.00    -0.387 OA
ATOM     36  H   UNL     1     -33.146   3.929  82.269  1.00  0.00     0.211 HD
ENDBRANCH  30  35
BRANCH  31  37
ATOM     37  C   UNL     1     -35.916   7.595  82.999  1.00  0.00     0.191 C 
BRANCH  37  38
ATOM     38  O   UNL     1     -35.174   7.256  81.860  1.00  0.00    -0.394 OA
ATOM     39  H   UNL     1     -35.781   6.729  81.279  1.00  0.00     0.210 HD
ENDBRANCH  37  38
ENDBRANCH  31  37
BRANCH  32  40
ATOM     40  O   UNL     1     -33.479   6.115  83.625  1.00  0.00    -0.387 OA
ATOM     41  H   UNL     1     -33.460   6.465  82.697  1.00  0.00     0.211 HD
ENDBRANCH  32  40
ENDBRANCH   1  27
TORSDOF 12
ENDMDL
MODEL 2
REMARK VINA RESULT:    -6.611     11.848     15.067
REMARK INTER + INTRA:         -10.689
REMARK INTER:                  -9.044
REMARK INTRA:                  -1.645
REMARK UNBOUND:                -0.986
REMARK SMILES O=c1c(O[C@@H]2O[C@H](CO)[C@H](O)[C@@H](O)[C@H]2O)c(-c2ccc(O)c(O)c2)oc2cc(O)cc(O)c12
REMARK SMILES IDX 4 1 3 2 16 3 25 4 2 5 26 6 1 7 33 8 27 9 31 10 28 11 30 12
REMARK SMILES IDX 17 13 18 14 19 15 20 16 24 17 22 18 21 19 23 21 32 23 29 25
REMARK SMILES IDX 5 27 14 28 6 29 12 30 7 31 10 32 15 33 13 35 8 37 9 38 11 40
REMARK H PARENT 21 20 23 22 32 24 29 26 15 34 13 36 9 39 11 41
REMARK Flexibility Score: inf
ROOT
ATOM      1  O   UNL     1     -47.768   1.682  71.627  1.00  0.00    -0.454 OA
ENDROOT
BRANCH   1   2
ATOM      2  C   UNL     1     -48.069   1.778  70.262  1.00  0.00     0.214 A 
ATOM      3  C   UNL     1     -48.202   3.010  69.590  1.00  0.00     0.180 A 
ATOM      4  O   UNL     1     -48.488   3.030  68.295  1.00  0.00    -0.452 OA
ATOM      5  C   UNL     1     -48.190   0.593  69.524  1.00  0.00     0.239 A 
ATOM      6  C   UNL     1     -48.630   1.929  67.560  1.00  0.00     0.146 A 
ATOM      7  O   UNL     1     -47.988  -0.507  70.108  1.00  0.00    -0.285 OA
ATOM      8  C   UNL     1     -48.508   0.644  68.149  1.00  0.00     0.111 A 
ATOM      9  C   UNL     1     -48.858   2.062  66.187  1.00  0.00     0.094 A 
ATOM     10  C   UNL     1     -48.667  -0.503  67.323  1.00  0.00     0.134 A 
ATOM     11  C   UNL     1     -48.933   0.935  65.373  1.00  0.00     0.123 A 
ATOM     12  C   UNL     1     -48.822  -0.340  65.940  1.00  0.00     0.093 A 
BRANCH   3  13
ATOM     13  C   UNL     1     -47.941   4.296  70.249  1.00  0.00     0.025 A 
ATOM     14  C   UNL     1     -48.883   4.838  71.136  1.00  0.00     0.016 A 
ATOM     15  C   UNL     1     -48.654   6.086  71.722  1.00  0.00     0.051 A 
ATOM     16  C   UNL     1     -47.505   6.819  71.403  1.00  0.00     0.157 A 
ATOM     17  C   UNL     1     -46.796   5.033  69.918  1.00  0.00     0.062 A 
ATOM     18  C   UNL     1     -46.572   6.295  70.490  1.00  0.00     0.158 A 
BRANCH  16  19
ATOM     19  O   UNL     1     -47.308   8.064  72.001  1.00  0.00    -0.504 OA
ATOM     20  H   UNL     1     -46.808   8.164  72.878  1.00  0.00     0.293 HD
ENDBRANCH  16  19
BRANCH  18  21
ATOM     21  O   UNL     1     -45.434   7.026  70.151  1.00  0.00    -0.504 OA
ATOM     22  H   UNL     1     -45.386   8.031  70.282  1.00  0.00     0.293 HD
ENDBRANCH  18  21
ENDBRANCH   3  13
BRANCH  10  23
ATOM     23  O   UNL     1     -48.699  -1.807  67.824  1.00  0.00    -0.507 OA
ATOM     24  H   UNL     1     -48.241  -2.074  68.683  1.00  0.00     0.293 HD
ENDBRANCH  10  23
BRANCH  11  25
ATOM     25  O   UNL     1     -49.120   1.089  64.000  1.00  0.00    -0.508 OA
ATOM     26  H   UNL     1     -49.869   1.658  63.629  1.00  0.00     0.293 HD
ENDBRANCH  11  25
ENDBRANCH   1   2
BRANCH   1  27
ATOM     27  C   UNL     1     -46.476   1.865  72.210  1.00  0.00     0.339 C 
ATOM     28  C   UNL     1     -46.456   3.148  73.058  1.00  0.00     0.214 C 
ATOM     29  O   UNL     1     -46.090   0.714  72.954  1.00  0.00    -0.332 OA
ATOM     30  C   UNL     1     -47.385   2.983  74.275  1.00  0.00     0.180 C 
ATOM     31  C   UNL     1     -46.875   0.478  74.126  1.00  0.00     0.179 C 
ATOM     32  C   UNL     1     -46.968   1.722  75.053  1.00  0.00     0.177 C 
BRANCH  28  33
ATOM     33  O   UNL     1     -45.138   3.408  73.476  1.00  0.00    -0.384 OA
ATOM     34  H   UNL     1     -45.191   3.809  74.381  1.00  0.00     0.211 HD
ENDBRANCH  28  33
BRANCH  30  35
ATOM     35  O   UNL     1     -47.306   4.103  75.123  1.00  0.00    -0.387 OA
ATOM     36  H   UNL     1     -46.352   4.196  75.389  1.00  0.00     0.211 HD
ENDBRANCH  30  35
BRANCH  31  37
ATOM     37  C   UNL     1     -48.233  -0.180  73.802  1.00  0.00     0.191 C 
BRANCH  37  38
ATOM     38  O   UNL     1     -48.062  -1.169  72.825  1.00  0.00    -0.394 OA
ATOM     39  H   UNL     1     -48.959  -1.560  72.664  1.00  0.00     0.210 HD
ENDBRANCH  37  38
ENDBRANCH  31  37
BRANCH  32  40
ATOM     40  O   UNL     1     -47.812   1.493  76.158  1.00  0.00    -0.387 OA
ATOM     41  H   UNL     1     -47.300   1.689  76.984  1.00  0.00     0.211 HD
ENDBRANCH  32  40
ENDBRANCH   1  27
TORSDOF 12
ENDMDL
MODEL 3
REMARK VINA RESULT:    -6.472     10.787     14.910
REMARK INTER + INTRA:         -10.485
REMARK INTER:                  -8.991
REMARK INTRA:                  -1.494
REMARK UNBOUND:                -0.986
REMARK SMILES O=c1c(O[C@@H]2O[C@H](CO)[C@H](O)[C@@H](O)[C@H]2O)c(-c2ccc(O)c(O)c2)oc2cc(O)cc(O)c12
REMARK SMILES IDX 4 1 3 2 16 3 25 4 2 5 26 6 1 7 33 8 27 9 31 10 28 11 30 12
REMARK SMILES IDX 17 13 18 14 19 15 20 16 24 17 22 18 21 19 23 21 32 23 29 25
REMARK SMILES IDX 5 27 14 28 6 29 12 30 7 31 10 32 15 33 13 35 8 37 9 38 11 40
REMARK H PARENT 21 20 23 22 32 24 29 26 15 34 13 36 9 39 11 41
REMARK Flexibility Score: inf
ROOT
ATOM      1  O   UNL     1     -47.484   3.773  70.453  1.00  0.00    -0.454 OA
ENDROOT
BRANCH   1   2
ATOM      2  C   UNL     1     -47.652   2.412  70.164  1.00  0.00     0.214 A 
ATOM      3  C   UNL     1     -47.373   1.390  71.093  1.00  0.00     0.180 A 
ATOM      4  O   UNL     1     -47.554   0.120  70.754  1.00  0.00    -0.452 OA
ATOM      5  C   UNL     1     -48.171   2.060  68.911  1.00  0.00     0.239 A 
ATOM      6  C   UNL     1     -48.027  -0.260  69.570  1.00  0.00     0.146 A 
ATOM      7  O   UNL     1     -48.498   2.978  68.111  1.00  0.00    -0.285 OA
ATOM      8  C   UNL     1     -48.340   0.699  68.573  1.00  0.00     0.111 A 
ATOM      9  C   UNL     1     -48.249  -1.621  69.341  1.00  0.00     0.094 A 
ATOM     10  C   UNL     1     -48.843   0.244  67.322  1.00  0.00     0.134 A 
ATOM     11  C   UNL     1     -48.816  -2.051  68.144  1.00  0.00     0.123 A 
ATOM     12  C   UNL     1     -49.125  -1.118  67.148  1.00  0.00     0.093 A 
BRANCH   3  13
ATOM     13  C   UNL     1     -46.973   1.675  72.478  1.00  0.00     0.025 A 
ATOM     14  C   UNL     1     -47.938   1.718  73.496  1.00  0.00     0.016 A 
ATOM     15  C   UNL     1     -47.561   2.038  74.802  1.00  0.00     0.051 A 
ATOM     16  C   UNL     1     -46.230   2.354  75.100  1.00  0.00     0.157 A 
ATOM     17  C   UNL     1     -45.642   2.003  72.769  1.00  0.00     0.062 A 
ATOM     18  C   UNL     1     -45.264   2.345  74.077  1.00  0.00     0.158 A 
BRANCH  16  19
ATOM     19  O   UNL     1     -45.887   2.676  76.413  1.00  0.00    -0.504 OA
ATOM     20  H   UNL     1     -46.292   3.474  76.892  1.00  0.00     0.293 HD
ENDBRANCH  16  19
BRANCH  18  21
ATOM     21  O   UNL     1     -43.940   2.677  74.358  1.00  0.00    -0.504 OA
ATOM     22  H   UNL     1     -43.623   2.853  75.306  1.00  0.00     0.293 HD
ENDBRANCH  18  21
ENDBRANCH   3  13
BRANCH  10  23
ATOM     23  O   UNL     1     -49.057   1.089  66.231  1.00  0.00    -0.507 OA
ATOM     24  H   UNL     1     -48.665   2.018  66.174  1.00  0.00     0.293 HD
ENDBRANCH  10  23
BRANCH  11  25
ATOM     25  O   UNL     1     -49.070  -3.408  67.951  1.00  0.00    -0.508 OA
ATOM     26  H   UNL     1     -49.662  -3.734  67.198  1.00  0.00     0.293 HD
ENDBRANCH  11  25
ENDBRANCH   1   2
BRANCH   1  27
ATOM     27  C   UNL     1     -46.272   4.515  70.299  1.00  0.00     0.339 C 
ATOM     28  C   UNL     1     -46.507   5.726  69.380  1.00  0.00     0.214 C 
ATOM     29  O   UNL     1     -45.744   4.888  71.568  1.00  0.00    -0.332 OA
ATOM     30  C   UNL     1     -47.460   6.723  70.064  1.00  0.00     0.180 C 
ATOM     31  C   UNL     1     -46.541   5.835  72.284  1.00  0.00     0.179 C 
ATOM     32  C   UNL     1     -46.884   7.096  71.443  1.00  0.00     0.177 C 
BRANCH  28  33
ATOM     33  O   UNL     1     -45.273   6.340  69.096  1.00  0.00    -0.384 OA
ATOM     34  H   UNL     1     -45.452   7.079  68.460  1.00  0.00     0.211 HD
ENDBRANCH  28  33
BRANCH  30  35
ATOM     35  O   UNL     1     -47.609   7.888  69.290  1.00  0.00    -0.387 OA
ATOM     36  H   UNL     1     -47.541   7.610  68.337  1.00  0.00     0.211 HD
ENDBRANCH  30  35
BRANCH  31  37
ATOM     37  C   UNL     1     -47.755   5.179  72.976  1.00  0.00     0.191 C 
BRANCH  37  38
ATOM     38  O   UNL     1     -48.040   5.851  74.172  1.00  0.00    -0.394 OA
ATOM     39  H   UNL     1     -48.811   5.377  74.580  1.00  0.00     0.210 HD
ENDBRANCH  37  38
ENDBRANCH  31  37
BRANCH  32  40
ATOM     40  O   UNL     1     -47.738   7.976  72.138  1.00  0.00    -0.387 OA
ATOM     41  H   UNL     1     -47.867   8.786  71.581  1.00  0.00     0.211 HD
ENDBRANCH  32  40
ENDBRANCH   1  27
TORSDOF 12
ENDMDL
MODEL 4
REMARK VINA RESULT:    -6.423      2.296      5.450
REMARK INTER + INTRA:         -10.413
REMARK INTER:                  -9.446
REMARK INTRA:                  -0.966
REMARK UNBOUND:                -0.986
REMARK SMILES O=c1c(O[C@@H]2O[C@H](CO)[C@H](O)[C@@H](O)[C@H]2O)c(-c2ccc(O)c(O)c2)oc2cc(O)cc(O)c12
REMARK SMILES IDX 4 1 3 2 16 3 25 4 2 5 26 6 1 7 33 8 27 9 31 10 28 11 30 12
REMARK SMILES IDX 17 13 18 14 19 15 20 16 24 17 22 18 21 19 23 21 32 23 29 25
REMARK SMILES IDX 5 27 14 28 6 29 12 30 7 31 10 32 15 33 13 35 8 37 9 38 11 40
REMARK H PARENT 21 20 23 22 32 24 29 26 15 34 13 36 9 39 11 41
REMARK Flexibility Score: inf
ROOT
ATOM      1  O   UNL     1     -36.701   5.621  80.475  1.00  0.00    -0.454 OA
ENDROOT
BRANCH   1   2
ATOM      2  C   UNL     1     -37.497   6.216  79.487  1.00  0.00     0.214 A 
ATOM      3  C   UNL     1     -38.830   5.832  79.240  1.00  0.00     0.180 A 
ATOM      4  O   UNL     1     -39.528   6.438  78.289  1.00  0.00    -0.452 OA
ATOM      5  C   UNL     1     -36.955   7.277  78.750  1.00  0.00     0.239 A 
ATOM      6  C   UNL     1     -39.047   7.438  77.553  1.00  0.00     0.146 A 
ATOM      7  O   UNL     1     -35.791   7.676  79.028  1.00  0.00    -0.285 OA
ATOM      8  C   UNL     1     -37.717   7.896  77.734  1.00  0.00     0.111 A 
ATOM      9  C   UNL     1     -39.892   8.056  76.627  1.00  0.00     0.094 A 
ATOM     10  C   UNL     1     -37.248   8.966  76.923  1.00  0.00     0.134 A 
ATOM     11  C   UNL     1     -39.450   9.155  75.894  1.00  0.00     0.123 A 
ATOM     12  C   UNL     1     -38.137   9.614  76.056  1.00  0.00     0.093 A 
BRANCH   3  13
ATOM     13  C   UNL     1     -39.527   4.837  80.066  1.00  0.00     0.025 A 
ATOM     14  C   UNL     1     -40.903   4.960  80.309  1.00  0.00     0.016 A 
ATOM     15  C   UNL     1     -41.553   4.041  81.136  1.00  0.00     0.051 A 
ATOM     16  C   UNL     1     -40.832   3.014  81.758  1.00  0.00     0.157 A 
ATOM     17  C   UNL     1     -38.800   3.818  80.697  1.00  0.00     0.062 A 
ATOM     18  C   UNL     1     -39.445   2.904  81.544  1.00  0.00     0.158 A 
BRANCH  16  19
ATOM     19  O   UNL     1     -41.508   2.115  82.583  1.00  0.00    -0.504 OA
ATOM     20  H   UNL     1     -42.172   2.427  83.284  1.00  0.00     0.293 HD
ENDBRANCH  16  19
BRANCH  18  21
ATOM     21  O   UNL     1     -38.715   1.897  82.174  1.00  0.00    -0.504 OA
ATOM     22  H   UNL     1     -38.166   1.226  81.647  1.00  0.00     0.293 HD
ENDBRANCH  18  21
ENDBRANCH   3  13
BRANCH  10  23
ATOM     23  O   UNL     1     -35.921   9.403  76.928  1.00  0.00    -0.507 OA
ATOM     24  H   UNL     1     -35.138   8.775  76.817  1.00  0.00     0.293 HD
ENDBRANCH  10  23
BRANCH  11  25
ATOM     25  O   UNL     1     -40.319   9.785  75.005  1.00  0.00    -0.508 OA
ATOM     26  H   UNL     1     -41.316   9.814  75.173  1.00  0.00     0.293 HD
ENDBRANCH  11  25
ENDBRANCH   1   2
BRANCH   1  27
ATOM     27  C   UNL     1     -36.395   6.187  81.751  1.00  0.00     0.339 C 
ATOM     28  C   UNL     1     -36.813   5.219  82.872  1.00  0.00     0.214 C 
ATOM     29  O   UNL     1     -35.019   6.547  81.827  1.00  0.00    -0.332 OA
ATOM     30  C   UNL     1     -35.942   3.951  82.818  1.00  0.00     0.180 C 
ATOM     31  C   UNL     1     -34.117   5.438  81.809  1.00  0.00     0.179 C 
ATOM     32  C   UNL     1     -34.459   4.361  82.877  1.00  0.00     0.177 C 
BRANCH  28  33
ATOM     33  O   UNL     1     -36.671   5.861  84.116  1.00  0.00    -0.384 OA
ATOM     34  H   UNL     1     -37.197   6.700  84.077  1.00  0.00     0.211 HD
ENDBRANCH  28  33
BRANCH  30  35
ATOM     35  O   UNL     1     -36.234   3.095  83.895  1.00  0.00    -0.387 OA
ATOM     36  H   UNL     1     -35.377   2.663  84.160  1.00  0.00     0.211 HD
ENDBRANCH  30  35
BRANCH  31  37
ATOM     37  C   UNL     1     -33.898   4.879  80.387  1.00  0.00     0.191 C 
BRANCH  37  38
ATOM     38  O   UNL     1     -33.683   5.934  79.489  1.00  0.00    -0.394 OA
ATOM     39  H   UNL     1     -32.851   5.714  78.997  1.00  0.00     0.210 HD
ENDBRANCH  37  38
ENDBRANCH  31  37
BRANCH  32  40
ATOM     40  O   UNL     1     -33.609   3.241  82.786  1.00  0.00    -0.387 OA
ATOM     41  H   UNL     1     -32.702   3.560  82.544  1.00  0.00     0.211 HD
ENDBRANCH  32  40
ENDBRANCH   1  27
TORSDOF 12
ENDMDL
MODEL 5
REMARK VINA RESULT:    -6.367      1.492      2.334
REMARK INTER + INTRA:         -10.330
REMARK INTER:                  -9.933
REMARK INTRA:                  -0.397
REMARK UNBOUND:                -0.986
REMARK SMILES O=c1c(O[C@@H]2O[C@H](CO)[C@H](O)[C@@H](O)[C@H]2O)c(-c2ccc(O)c(O)c2)oc2cc(O)cc(O)c12
REMARK SMILES IDX 4 1 3 2 16 3 25 4 2 5 26 6 1 7 33 8 27 9 31 10 28 11 30 12
REMARK SMILES IDX 17 13 18 14 19 15 20 16 24 17 22 18 21 19 23 21 32 23 29 25
REMARK SMILES IDX 5 27 14 28 6 29 12 30 7 31 10 32 15 33 13 35 8 37 9 38 11 40
REMARK H PARENT 21 20 23 22 32 24 29 26 15 34 13 36 9 39 11 41
REMARK Flexibility Score: inf
ROOT
ATOM      1  O   UNL     1     -39.589   5.235  81.608  1.00  0.00    -0.454 OA
ENDROOT
BRANCH   1   2
ATOM      2  C   UNL     1     -40.072   4.737  80.390  1.00  0.00     0.214 A 
ATOM      3  C   UNL     1     -39.273   4.631  79.234  1.00  0.00     0.180 A 
ATOM      4  O   UNL     1     -39.793   4.149  78.112  1.00  0.00    -0.452 OA
ATOM      5  C   UNL     1     -41.394   4.276  80.340  1.00  0.00     0.239 A 
ATOM      6  C   UNL     1     -41.048   3.717  78.015  1.00  0.00     0.146 A 
ATOM      7  O   UNL     1     -42.082   4.295  81.396  1.00  0.00    -0.285 OA
ATOM      8  C   UNL     1     -41.925   3.781  79.128  1.00  0.00     0.111 A 
ATOM      9  C   UNL     1     -41.475   3.160  76.805  1.00  0.00     0.094 A 
ATOM     10  C   UNL     1     -43.258   3.307  78.975  1.00  0.00     0.134 A 
ATOM     11  C   UNL     1     -42.755   2.626  76.689  1.00  0.00     0.123 A 
ATOM     12  C   UNL     1     -43.635   2.688  77.776  1.00  0.00     0.093 A 
BRANCH   3  13
ATOM     13  C   UNL     1     -37.838   4.945  79.238  1.00  0.00     0.025 A 
ATOM     14  C   UNL     1     -36.897   3.944  79.522  1.00  0.00     0.016 A 
ATOM     15  C   UNL     1     -35.537   4.258  79.575  1.00  0.00     0.051 A 
ATOM     16  C   UNL     1     -35.105   5.576  79.383  1.00  0.00     0.157 A 
ATOM     17  C   UNL     1     -37.411   6.268  79.058  1.00  0.00     0.062 A 
ATOM     18  C   UNL     1     -36.047   6.590  79.130  1.00  0.00     0.158 A 
BRANCH  16  19
ATOM     19  O   UNL     1     -33.741   5.858  79.449  1.00  0.00    -0.504 OA
ATOM     20  H   UNL     1     -33.060   5.340  78.904  1.00  0.00     0.293 HD
ENDBRANCH  16  19
BRANCH  18  21
ATOM     21  O   UNL     1     -35.629   7.909  78.957  1.00  0.00    -0.504 OA
ATOM     22  H   UNL     1     -35.051   8.188  78.170  1.00  0.00     0.293 HD
ENDBRANCH  18  21
ENDBRANCH   3  13
BRANCH  10  23
ATOM     23  O   UNL     1     -44.236   3.446  79.963  1.00  0.00    -0.507 OA
ATOM     24  H   UNL     1     -45.151   3.025  79.890  1.00  0.00     0.293 HD
ENDBRANCH  10  23
BRANCH  11  25
ATOM     25  O   UNL     1     -43.149   2.037  75.488  1.00  0.00    -0.508 OA
ATOM     26  H   UNL     1     -43.942   2.384  74.964  1.00  0.00     0.293 HD
ENDBRANCH  11  25
ENDBRANCH   1   2
BRANCH   1  27
ATOM     27  C   UNL     1     -39.912   4.725  82.903  1.00  0.00     0.339 C 
ATOM     28  C   UNL     1     -39.825   3.189  82.902  1.00  0.00     0.214 C 
ATOM     29  O   UNL     1     -39.084   5.317  83.900  1.00  0.00    -0.332 OA
ATOM     30  C   UNL     1     -38.364   2.749  82.690  1.00  0.00     0.180 C 
ATOM     31  C   UNL     1     -37.704   4.955  83.812  1.00  0.00     0.179 C 
ATOM     32  C   UNL     1     -37.482   3.417  83.761  1.00  0.00     0.177 C 
BRANCH  28  33
ATOM     33  O   UNL     1     -40.315   2.695  84.125  1.00  0.00    -0.384 OA
ATOM     34  H   UNL     1     -40.245   3.429  84.788  1.00  0.00     0.211 HD
ENDBRANCH  28  33
BRANCH  30  35
ATOM     35  O   UNL     1     -38.241   1.351  82.789  1.00  0.00    -0.387 OA
ATOM     36  H   UNL     1     -39.130   0.967  82.561  1.00  0.00     0.211 HD
ENDBRANCH  30  35
BRANCH  31  37
ATOM     37  C   UNL     1     -36.957   5.744  82.715  1.00  0.00     0.191 C 
BRANCH  37  38
ATOM     38  O   UNL     1     -35.588   5.789  83.011  1.00  0.00    -0.394 OA
ATOM     39  H   UNL     1     -35.485   6.442  83.751  1.00  0.00     0.210 HD
ENDBRANCH  37  38
ENDBRANCH  31  37
BRANCH  32  40
ATOM     40  O   UNL     1     -36.123   3.087  83.592  1.00  0.00    -0.387 OA
ATOM     41  H   UNL     1     -35.662   3.869  83.192  1.00  0.00     0.211 HD
ENDBRANCH  32  40
ENDBRANCH   1  27
TORSDOF 12
ENDMDL
MODEL 6
REMARK VINA RESULT:    -6.358      1.838      6.213
REMARK INTER + INTRA:         -10.318
REMARK INTER:                  -8.545
REMARK INTRA:                  -1.773
REMARK UNBOUND:                -0.986
REMARK SMILES O=c1c(O[C@@H]2O[C@H](CO)[C@H](O)[C@@H](O)[C@H]2O)c(-c2ccc(O)c(O)c2)oc2cc(O)cc(O)c12
REMARK SMILES IDX 4 1 3 2 16 3 25 4 2 5 26 6 1 7 33 8 27 9 31 10 28 11 30 12
REMARK SMILES IDX 17 13 18 14 19 15 20 16 24 17 22 18 21 19 23 21 32 23 29 25
REMARK SMILES IDX 5 27 14 28 6 29 12 30 7 31 10 32 15 33 13 35 8 37 9 38 11 40
REMARK H PARENT 21 20 23 22 32 24 29 26 15 34 13 36 9 39 11 41
REMARK Flexibility Score: inf
ROOT
ATOM      1  O   UNL     1     -37.059   4.947  81.478  1.00  0.00    -0.454 OA
ENDROOT
BRANCH   1   2
ATOM      2  C   UNL     1     -36.558   5.775  80.465  1.00  0.00     0.214 A 
ATOM      3  C   UNL     1     -37.100   5.811  79.165  1.00  0.00     0.180 A 
ATOM      4  O   UNL     1     -36.576   6.619  78.252  1.00  0.00    -0.452 OA
ATOM      5  C   UNL     1     -35.504   6.643  80.780  1.00  0.00     0.239 A 
ATOM      6  C   UNL     1     -35.564   7.447  78.502  1.00  0.00     0.146 A 
ATOM      7  O   UNL     1     -35.075   6.670  81.965  1.00  0.00    -0.285 OA
ATOM      8  C   UNL     1     -34.958   7.483  79.784  1.00  0.00     0.111 A 
ATOM      9  C   UNL     1     -35.137   8.310  77.489  1.00  0.00     0.094 A 
ATOM     10  C   UNL     1     -33.879   8.384  80.004  1.00  0.00     0.134 A 
ATOM     11  C   UNL     1     -34.134   9.244  77.737  1.00  0.00     0.123 A 
ATOM     12  C   UNL     1     -33.521   9.288  78.994  1.00  0.00     0.093 A 
BRANCH   3  13
ATOM     13  C   UNL     1     -38.299   5.050  78.792  1.00  0.00     0.025 A 
ATOM     14  C   UNL     1     -39.569   5.636  78.902  1.00  0.00     0.016 A 
ATOM     15  C   UNL     1     -40.711   4.893  78.594  1.00  0.00     0.051 A 
ATOM     16  C   UNL     1     -40.602   3.551  78.211  1.00  0.00     0.157 A 
ATOM     17  C   UNL     1     -38.187   3.703  78.420  1.00  0.00     0.062 A 
ATOM     18  C   UNL     1     -39.334   2.948  78.130  1.00  0.00     0.158 A 
BRANCH  16  19
ATOM     19  O   UNL     1     -41.762   2.834  77.917  1.00  0.00    -0.504 OA
ATOM     20  H   UNL     1     -41.944   1.921  78.321  1.00  0.00     0.293 HD
ENDBRANCH  16  19
BRANCH  18  21
ATOM     21  O   UNL     1     -39.215   1.607  77.768  1.00  0.00    -0.504 OA
ATOM     22  H   UNL     1     -40.006   1.077  77.414  1.00  0.00     0.293 HD
ENDBRANCH  18  21
ENDBRANCH   3  13
BRANCH  10  23
ATOM     23  O   UNL     1     -33.129   8.406  81.182  1.00  0.00    -0.507 OA
ATOM     24  H   UNL     1     -33.531   8.223  82.090  1.00  0.00     0.293 HD
ENDBRANCH  10  23
BRANCH  11  25
ATOM     25  O   UNL     1     -33.749  10.125  76.727  1.00  0.00    -0.508 OA
ATOM     26  H   UNL     1     -33.347   9.793  75.860  1.00  0.00     0.293 HD
ENDBRANCH  11  25
ENDBRANCH   1   2
BRANCH   1  27
ATOM     27  C   UNL     1     -37.966   5.346  82.508  1.00  0.00     0.339 C 
ATOM     28  C   UNL     1     -39.330   4.666  82.304  1.00  0.00     0.214 C 
ATOM     29  O   UNL     1     -37.414   5.086  83.795  1.00  0.00    -0.332 OA
ATOM     30  C   UNL     1     -39.192   3.146  82.510  1.00  0.00     0.180 C 
ATOM     31  C   UNL     1     -37.264   3.698  84.103  1.00  0.00     0.179 C 
ATOM     32  C   UNL     1     -38.573   2.886  83.895  1.00  0.00     0.177 C 
BRANCH  28  33
ATOM     33  O   UNL     1     -40.258   5.203  83.215  1.00  0.00    -0.384 OA
ATOM     34  H   UNL     1     -40.806   5.866  82.721  1.00  0.00     0.211 HD
ENDBRANCH  28  33
BRANCH  30  35
ATOM     35  O   UNL     1     -40.445   2.512  82.431  1.00  0.00    -0.387 OA
ATOM     36  H   UNL     1     -40.862   2.804  81.576  1.00  0.00     0.211 HD
ENDBRANCH  30  35
BRANCH  31  37
ATOM     37  C   UNL     1     -36.016   3.079  83.437  1.00  0.00     0.191 C 
BRANCH  37  38
ATOM     38  O   UNL     1     -34.983   4.024  83.391  1.00  0.00    -0.394 OA
ATOM     39  H   UNL     1     -34.276   3.636  82.814  1.00  0.00     0.210 HD
ENDBRANCH  37  38
ENDBRANCH  31  37
BRANCH  32  40
ATOM     40  O   UNL     1     -38.380   1.509  84.125  1.00  0.00    -0.387 OA
ATOM     41  H   UNL     1     -38.467   1.342  85.099  1.00  0.00     0.211 HD
ENDBRANCH  32  40
ENDBRANCH   1  27
TORSDOF 12
ENDMDL
MODEL 7
REMARK VINA RESULT:    -6.105     12.461     15.151
REMARK INTER + INTRA:          -9.946
REMARK INTER:                  -9.534
REMARK INTRA:                  -0.412
REMARK UNBOUND:                -0.986
REMARK SMILES O=c1c(O[C@@H]2O[C@H](CO)[C@H](O)[C@@H](O)[C@H]2O)c(-c2ccc(O)c(O)c2)oc2cc(O)cc(O)c12
REMARK SMILES IDX 4 1 3 2 16 3 25 4 2 5 26 6 1 7 33 8 27 9 31 10 28 11 30 12
REMARK SMILES IDX 17 13 18 14 19 15 20 16 24 17 22 18 21 19 23 21 32 23 29 25
REMARK SMILES IDX 5 27 14 28 6 29 12 30 7 31 10 32 15 33 13 35 8 37 9 38 11 40
REMARK H PARENT 21 20 23 22 32 24 29 26 15 34 13 36 9 39 11 41
REMARK Flexibility Score: inf
ROOT
ATOM      1  O   UNL     1     -47.839   3.494  71.492  1.00  0.00    -0.454 OA
ENDROOT
BRANCH   1   2
ATOM      2  C   UNL     1     -48.170   2.173  71.824  1.00  0.00     0.214 A 
ATOM      3  C   UNL     1     -48.576   1.220  70.868  1.00  0.00     0.180 A 
ATOM      4  O   UNL     1     -48.876  -0.014  71.250  1.00  0.00    -0.452 OA
ATOM      5  C   UNL     1     -48.040   1.773  73.160  1.00  0.00     0.239 A 
ATOM      6  C   UNL     1     -48.784  -0.432  72.510  1.00  0.00     0.146 A 
ATOM      7  O   UNL     1     -47.598   2.602  74.000  1.00  0.00    -0.285 OA
ATOM      8  C   UNL     1     -48.380   0.455  73.541  1.00  0.00     0.111 A 
ATOM      9  C   UNL     1     -49.053  -1.774  72.794  1.00  0.00     0.094 A 
ATOM     10  C   UNL     1     -48.296  -0.038  74.872  1.00  0.00     0.134 A 
ATOM     11  C   UNL     1     -48.892  -2.267  74.086  1.00  0.00     0.123 A 
ATOM     12  C   UNL     1     -48.500  -1.403  75.115  1.00  0.00     0.093 A 
BRANCH   3  13
ATOM     13  C   UNL     1     -48.592   1.510  69.428  1.00  0.00     0.025 A 
ATOM     14  C   UNL     1     -49.033   2.758  68.964  1.00  0.00     0.016 A 
ATOM     15  C   UNL     1     -49.094   3.013  67.592  1.00  0.00     0.051 A 
ATOM     16  C   UNL     1     -48.752   2.016  66.670  1.00  0.00     0.157 A 
ATOM     17  C   UNL     1     -48.260   0.506  68.508  1.00  0.00     0.062 A 
ATOM     18  C   UNL     1     -48.339   0.752  67.129  1.00  0.00     0.158 A 
BRANCH  16  19
ATOM     19  O   UNL     1     -48.830   2.299  65.306  1.00  0.00    -0.504 OA
ATOM     20  H   UNL     1     -48.051   2.128  64.679  1.00  0.00     0.293 HD
ENDBRANCH  16  19
BRANCH  18  21
ATOM     21  O   UNL     1     -48.015  -0.254  66.219  1.00  0.00    -0.504 OA
ATOM     22  H   UNL     1     -47.074  -0.628  66.148  1.00  0.00     0.293 HD
ENDBRANCH  18  21
ENDBRANCH   3  13
BRANCH  10  23
ATOM     23  O   UNL     1     -48.039   0.780  75.975  1.00  0.00    -0.507 OA
ATOM     24  H   UNL     1     -47.757   1.746  75.886  1.00  0.00     0.293 HD
ENDBRANCH  10  23
BRANCH  11  25
ATOM     25  O   UNL     1     -49.125  -3.618  74.342  1.00  0.00    -0.508 OA
ATOM     26  H   UNL     1     -49.643  -4.197  73.694  1.00  0.00     0.293 HD
ENDBRANCH  11  25
ENDBRANCH   1   2
BRANCH   1  27
ATOM     27  C   UNL     1     -46.540   3.957  71.117  1.00  0.00     0.339 C 
ATOM     28  C   UNL     1     -46.652   4.957  69.953  1.00  0.00     0.214 C 
ATOM     29  O   UNL     1     -45.854   4.502  72.240  1.00  0.00    -0.332 OA
ATOM     30  C   UNL     1     -47.370   6.233  70.429  1.00  0.00     0.180 C 
ATOM     31  C   UNL     1     -46.424   5.709  72.751  1.00  0.00     0.179 C 
ATOM     32  C   UNL     1     -46.629   6.794  71.656  1.00  0.00     0.177 C 
BRANCH  28  33
ATOM     33  O   UNL     1     -45.363   5.265  69.480  1.00  0.00    -0.384 OA
ATOM     34  H   UNL     1     -45.216   4.732  68.657  1.00  0.00     0.211 HD
ENDBRANCH  28  33
BRANCH  30  35
ATOM     35  O   UNL     1     -47.394   7.205  69.412  1.00  0.00    -0.387 OA
ATOM     36  H   UNL     1     -48.141   7.826  69.626  1.00  0.00     0.211 HD
ENDBRANCH  30  35
BRANCH  31  37
ATOM     37  C   UNL     1     -47.666   5.448  73.630  1.00  0.00     0.191 C 
BRANCH  37  38
ATOM     38  O   UNL     1     -47.773   6.443  74.610  1.00  0.00    -0.394 OA
ATOM     39  H   UNL     1     -48.465   6.131  75.249  1.00  0.00     0.210 HD
ENDBRANCH  37  38
ENDBRANCH  31  37
BRANCH  32  40
ATOM     40  O   UNL     1     -47.268   7.942  72.166  1.00  0.00    -0.387 OA
ATOM     41  H   UNL     1     -47.225   7.906  73.156  1.00  0.00     0.211 HD
ENDBRANCH  32  40
ENDBRANCH   1  27
TORSDOF 12
ENDMDL
MODEL 8
REMARK VINA RESULT:    -6.036      2.569      5.139
REMARK INTER + INTRA:          -9.845
REMARK INTER:                  -8.117
REMARK INTRA:                  -1.728
REMARK UNBOUND:                -0.986
REMARK SMILES O=c1c(O[C@@H]2O[C@H](CO)[C@H](O)[C@@H](O)[C@H]2O)c(-c2ccc(O)c(O)c2)oc2cc(O)cc(O)c12
REMARK SMILES IDX 4 1 3 2 16 3 25 4 2 5 26 6 1 7 33 8 27 9 31 10 28 11 30 12
REMARK SMILES IDX 17 13 18 14 19 15 20 16 24 17 22 18 21 19 23 21 32 23 29 25
REMARK SMILES IDX 5 27 14 28 6 29 12 30 7 31 10 32 15 33 13 35 8 37 9 38 11 40
REMARK H PARENT 21 20 23 22 32 24 29 26 15 34 13 36 9 39 11 41
REMARK Flexibility Score: inf
ROOT
ATOM      1  O   UNL     1     -36.141   7.000  80.275  1.00  0.00    -0.454 OA
ENDROOT
BRANCH   1   2
ATOM      2  C   UNL     1     -37.196   6.176  80.689  1.00  0.00     0.214 A 
ATOM      3  C   UNL     1     -38.516   6.323  80.216  1.00  0.00     0.180 A 
ATOM      4  O   UNL     1     -39.469   5.508  80.649  1.00  0.00    -0.452 OA
ATOM      5  C   UNL     1     -36.911   5.127  81.572  1.00  0.00     0.239 A 
ATOM      6  C   UNL     1     -39.246   4.510  81.501  1.00  0.00     0.146 A 
ATOM      7  O   UNL     1     -35.716   4.944  81.929  1.00  0.00    -0.285 OA
ATOM      8  C   UNL     1     -37.949   4.282  82.027  1.00  0.00     0.111 A 
ATOM      9  C   UNL     1     -40.308   3.664  81.836  1.00  0.00     0.094 A 
ATOM     10  C   UNL     1     -37.760   3.203  82.934  1.00  0.00     0.134 A 
ATOM     11  C   UNL     1     -40.097   2.563  82.663  1.00  0.00     0.123 A 
ATOM     12  C   UNL     1     -38.824   2.329  83.195  1.00  0.00     0.093 A 
BRANCH   3  13
ATOM     13  C   UNL     1     -38.873   7.296  79.175  1.00  0.00     0.025 A 
ATOM     14  C   UNL     1     -39.443   8.529  79.526  1.00  0.00     0.016 A 
ATOM     15  C   UNL     1     -39.827   9.431  78.531  1.00  0.00     0.051 A 
ATOM     16  C   UNL     1     -39.683   9.098  77.179  1.00  0.00     0.157 A 
ATOM     17  C   UNL     1     -38.739   6.954  77.822  1.00  0.00     0.062 A 
ATOM     18  C   UNL     1     -39.143   7.850  76.819  1.00  0.00     0.158 A 
BRANCH  16  19
ATOM     19  O   UNL     1     -40.083  10.017  76.209  1.00  0.00    -0.504 OA
ATOM     20  H   UNL     1     -39.539  10.179  75.367  1.00  0.00     0.293 HD
ENDBRANCH  16  19
BRANCH  18  21
ATOM     21  O   UNL     1     -39.013   7.501  75.476  1.00  0.00    -0.504 OA
ATOM     22  H   UNL     1     -39.799   7.543  74.834  1.00  0.00     0.293 HD
ENDBRANCH  18  21
ENDBRANCH   3  13
BRANCH  10  23
ATOM     23  O   UNL     1     -36.559   2.974  83.609  1.00  0.00    -0.507 OA
ATOM     24  H   UNL     1     -35.885   2.285  83.309  1.00  0.00     0.293 HD
ENDBRANCH  10  23
BRANCH  11  25
ATOM     25  O   UNL     1     -41.158   1.707  82.952  1.00  0.00    -0.508 OA
ATOM     26  H   UNL     1     -41.025   0.707  83.025  1.00  0.00     0.293 HD
ENDBRANCH  11  25
ENDBRANCH   1   2
BRANCH   1  27
ATOM     27  C   UNL     1     -35.210   6.700  79.233  1.00  0.00     0.339 C 
ATOM     28  C   UNL     1     -35.282   7.775  78.135  1.00  0.00     0.214 C 
ATOM     29  O   UNL     1     -33.896   6.546  79.759  1.00  0.00    -0.332 OA
ATOM     30  C   UNL     1     -34.786   9.122  78.691  1.00  0.00     0.180 C 
ATOM     31  C   UNL     1     -33.324   7.747  80.283  1.00  0.00     0.179 C 
ATOM     32  C   UNL     1     -33.375   8.931  79.276  1.00  0.00     0.177 C 
BRANCH  28  33
ATOM     33  O   UNL     1     -34.494   7.374  77.040  1.00  0.00    -0.384 OA
ATOM     34  H   UNL     1     -33.576   7.712  77.199  1.00  0.00     0.211 HD
ENDBRANCH  28  33
BRANCH  30  35
ATOM     35  O   UNL     1     -34.743  10.099  77.679  1.00  0.00    -0.387 OA
ATOM     36  H   UNL     1     -35.569   9.985  77.135  1.00  0.00     0.211 HD
ENDBRANCH  30  35
BRANCH  31  37
ATOM     37  C   UNL     1     -33.855   8.086  81.692  1.00  0.00     0.191 C 
BRANCH  37  38
ATOM     38  O   UNL     1     -33.909   6.923  82.472  1.00  0.00    -0.394 OA
ATOM     39  H   UNL     1     -33.501   7.156  83.346  1.00  0.00     0.210 HD
ENDBRANCH  37  38
ENDBRANCH  31  37
BRANCH  32  40
ATOM     40  O   UNL     1     -32.883  10.124  79.841  1.00  0.00    -0.387 OA
ATOM     41  H   UNL     1     -33.574  10.827  79.731  1.00  0.00     0.211 HD
ENDBRANCH  32  40
ENDBRANCH   1  27
TORSDOF 12
ENDMDL
MODEL 9
REMARK VINA RESULT:    -6.009      2.786      5.092
REMARK INTER + INTRA:          -9.805
REMARK INTER:                  -8.576
REMARK INTRA:                  -1.229
REMARK UNBOUND:                -0.986
REMARK SMILES O=c1c(O[C@@H]2O[C@H](CO)[C@H](O)[C@@H](O)[C@H]2O)c(-c2ccc(O)c(O)c2)oc2cc(O)cc(O)c12
REMARK SMILES IDX 4 1 3 2 16 3 25 4 2 5 26 6 1 7 33 8 27 9 31 10 28 11 30 12
REMARK SMILES IDX 17 13 18 14 19 15 20 16 24 17 22 18 21 19 23 21 32 23 29 25
REMARK SMILES IDX 5 27 14 28 6 29 12 30 7 31 10 32 15 33 13 35 8 37 9 38 11 40
REMARK H PARENT 21 20 23 22 32 24 29 26 15 34 13 36 9 39 11 41
REMARK Flexibility Score: inf
ROOT
ATOM      1  O   UNL     1     -36.619   6.999  79.563  1.00  0.00    -0.454 OA
ENDROOT
BRANCH   1   2
ATOM      2  C   UNL     1     -37.601   6.175  80.128  1.00  0.00     0.214 A 
ATOM      3  C   UNL     1     -38.973   6.299  79.828  1.00  0.00     0.180 A 
ATOM      4  O   UNL     1     -39.851   5.484  80.399  1.00  0.00    -0.452 OA
ATOM      5  C   UNL     1     -37.190   5.148  80.987  1.00  0.00     0.239 A 
ATOM      6  C   UNL     1     -39.507   4.507  81.234  1.00  0.00     0.146 A 
ATOM      7  O   UNL     1     -35.957   4.984  81.189  1.00  0.00    -0.285 OA
ATOM      8  C   UNL     1     -38.149   4.303  81.591  1.00  0.00     0.111 A 
ATOM      9  C   UNL     1     -40.505   3.659  81.722  1.00  0.00     0.094 A 
ATOM     10  C   UNL     1     -37.830   3.246  82.487  1.00  0.00     0.134 A 
ATOM     11  C   UNL     1     -40.174   2.578  82.536  1.00  0.00     0.123 A 
ATOM     12  C   UNL     1     -38.840   2.367  82.902  1.00  0.00     0.093 A 
BRANCH   3  13
ATOM     13  C   UNL     1     -39.475   7.245  78.823  1.00  0.00     0.025 A 
ATOM     14  C   UNL     1     -40.459   8.184  79.168  1.00  0.00     0.016 A 
ATOM     15  C   UNL     1     -40.970   9.050  78.197  1.00  0.00     0.051 A 
ATOM     16  C   UNL     1     -40.534   8.963  76.869  1.00  0.00     0.157 A 
ATOM     17  C   UNL     1     -39.046   7.147  77.493  1.00  0.00     0.062 A 
ATOM     18  C   UNL     1     -39.572   8.001  76.511  1.00  0.00     0.158 A 
BRANCH  16  19
ATOM     19  O   UNL     1     -41.069   9.836  75.922  1.00  0.00    -0.504 OA
ATOM     20  H   UNL     1     -41.012  10.843  76.030  1.00  0.00     0.293 HD
ENDBRANCH  16  19
BRANCH  18  21
ATOM     21  O   UNL     1     -39.145   7.893  75.188  1.00  0.00    -0.504 OA
ATOM     22  H   UNL     1     -38.161   7.839  74.946  1.00  0.00     0.293 HD
ENDBRANCH  18  21
ENDBRANCH   3  13
BRANCH  10  23
ATOM     23  O   UNL     1     -36.549   3.043  83.004  1.00  0.00    -0.507 OA
ATOM     24  H   UNL     1     -35.806   2.613  82.472  1.00  0.00     0.293 HD
ENDBRANCH  10  23
BRANCH  11  25
ATOM     25  O   UNL     1     -41.178   1.718  82.979  1.00  0.00    -0.508 OA
ATOM     26  H   UNL     1     -41.984   1.506  82.406  1.00  0.00     0.293 HD
ENDBRANCH  11  25
ENDBRANCH   1   2
BRANCH   1  27
ATOM     27  C   UNL     1     -36.505   8.411  79.755  1.00  0.00     0.339 C 
ATOM     28  C   UNL     1     -36.064   8.713  81.198  1.00  0.00     0.214 C 
ATOM     29  O   UNL     1     -35.632   8.984  78.787  1.00  0.00    -0.332 OA
ATOM     30  C   UNL     1     -34.631   8.198  81.424  1.00  0.00     0.180 C 
ATOM     31  C   UNL     1     -34.264   8.590  78.920  1.00  0.00     0.179 C 
ATOM     32  C   UNL     1     -33.707   8.809  80.355  1.00  0.00     0.177 C 
BRANCH  28  33
ATOM     33  O   UNL     1     -36.129  10.101  81.422  1.00  0.00    -0.384 OA
ATOM     34  H   UNL     1     -35.201  10.448  81.392  1.00  0.00     0.211 HD
ENDBRANCH  28  33
BRANCH  30  35
ATOM     35  O   UNL     1     -34.165   8.554  82.703  1.00  0.00    -0.387 OA
ATOM     36  H   UNL     1     -34.675   8.004  83.358  1.00  0.00     0.211 HD
ENDBRANCH  30  35
BRANCH  31  37
ATOM     37  C   UNL     1     -33.996   7.186  78.339  1.00  0.00     0.191 C 
BRANCH  37  38
ATOM     38  O   UNL     1     -32.619   7.004  78.150  1.00  0.00    -0.394 OA
ATOM     39  H   UNL     1     -32.273   6.607  78.990  1.00  0.00     0.210 HD
ENDBRANCH  37  38
ENDBRANCH  31  37
BRANCH  32  40
ATOM     40  O   UNL     1     -32.385   8.338  80.484  1.00  0.00    -0.387 OA
ATOM     41  H   UNL     1     -32.383   7.600  81.147  1.00  0.00     0.211 HD
ENDBRANCH  32  40
ENDBRANCH   1  27
TORSDOF 12
ENDMDL
