MODEL 1
REMARK VINA RESULT:    -4.127      0.000      0.000
REMARK INTER + INTRA:          -5.322
REMARK INTER:                  -5.092
REMARK INTRA:                  -0.231
REMARK UNBOUND:                -0.231
REMARK SMILES CCCCCC(=O)[O-]
REMARK SMILES IDX 4 1 5 2 6 3 7 4 8 5 3 6 2 7 1 8
REMARK H PARENT
REMARK Flexibility Score: inf
ROOT
ATOM      1  C   UNL     1      14.097 -11.511  22.232  1.00  0.00     0.006 C 
ENDROOT
BRANCH   1   2
ATOM      2  C   UNL     1      13.955 -10.503  21.088  1.00  0.00     0.053 C 
BRANCH   2   3
ATOM      3  C   UNL     1      14.277  -9.121  21.564  1.00  0.00     0.041 C 
ATOM      4  O   UNL     1      13.492  -8.168  21.317  1.00  0.00    -0.550 OA
ATOM      5  O   UNL     1      15.467  -8.878  22.237  1.00  0.00    -0.550 OA
ENDBRANCH   2   3
ENDBRANCH   1   2
BRANCH   1   6
ATOM      6  C   UNL     1      15.135 -12.591  21.887  1.00  0.00     0.000 C 
BRANCH   6   7
ATOM      7  C   UNL     1      16.515 -12.301  22.498  1.00  0.00    -0.003 C 
ATOM      8  C   UNL     1      17.479 -11.659  21.500  1.00  0.00     0.004 C 
ENDBRANCH   6   7
ENDBRANCH   1   6
TORSDOF 4
ENDMDL
MODEL 2
REMARK VINA RESULT:    -4.106      2.554      3.804
REMARK INTER + INTRA:          -5.297
REMARK INTER:                  -5.034
REMARK INTRA:                  -0.263
REMARK UNBOUND:                -0.231
REMARK SMILES CCCCCC(=O)[O-]
REMARK SMILES IDX 4 1 5 2 6 3 7 4 8 5 3 6 2 7 1 8
REMARK H PARENT
REMARK Flexibility Score: inf
ROOT
ATOM      1  C   UNL     1      15.481 -11.561  21.492  1.00  0.00     0.006 C 
ENDROOT
BRANCH   1   2
ATOM      2  C   UNL     1      15.971 -12.705  22.383  1.00  0.00     0.053 C 
BRANCH   2   3
ATOM      3  C   UNL     1      15.324 -12.635  23.731  1.00  0.00     0.041 C 
ATOM      4  O   UNL     1      14.082 -12.457  23.828  1.00  0.00    -0.550 OA
ATOM      5  O   UNL     1      16.100 -12.716  24.879  1.00  0.00    -0.550 OA
ENDBRANCH   2   3
ENDBRANCH   1   2
BRANCH   1   6
ATOM      6  C   UNL     1      16.161 -10.237  21.873  1.00  0.00     0.000 C 
BRANCH   6   7
ATOM      7  C   UNL     1      15.152  -9.147  22.267  1.00  0.00    -0.003 C 
ATOM      8  C   UNL     1      13.737  -9.444  21.770  1.00  0.00     0.004 C 
ENDBRANCH   6   7
ENDBRANCH   1   6
TORSDOF 4
ENDMDL
MODEL 3
REMARK VINA RESULT:    -4.095      1.158      1.660
REMARK INTER + INTRA:          -5.283
REMARK INTER:                  -5.056
REMARK INTRA:                  -0.227
REMARK UNBOUND:                -0.231
REMARK SMILES CCCCCC(=O)[O-]
REMARK SMILES IDX 4 1 5 2 6 3 7 4 8 5 3 6 2 7 1 8
REMARK H PARENT
REMARK Flexibility Score: inf
ROOT
ATOM      1  C   UNL     1      15.634 -11.605  21.525  1.00  0.00     0.006 C 
ENDROOT
BRANCH   1   2
ATOM      2  C   UNL     1      14.343 -10.849  21.199  1.00  0.00     0.053 C 
BRANCH   2   3
ATOM      3  C   UNL     1      14.346  -9.502  21.852  1.00  0.00     0.041 C 
ATOM      4  O   UNL     1      13.715  -8.545  21.331  1.00  0.00    -0.550 OA
ATOM      5  O   UNL     1      15.085  -9.292  23.009  1.00  0.00    -0.550 OA
ENDBRANCH   2   3
ENDBRANCH   1   2
BRANCH   1   6
ATOM      6  C   UNL     1      15.327 -13.017  22.049  1.00  0.00     0.000 C 
BRANCH   6   7
ATOM      7  C   UNL     1      14.751 -13.006  23.473  1.00  0.00    -0.003 C 
ATOM      8  C   UNL     1      15.749 -12.489  24.510  1.00  0.00     0.004 C 
ENDBRANCH   6   7
ENDBRANCH   1   6
TORSDOF 4
ENDMDL
MODEL 4
REMARK VINA RESULT:    -3.981      2.554      3.639
REMARK INTER + INTRA:          -5.143
REMARK INTER:                  -4.945
REMARK INTRA:                  -0.197
REMARK UNBOUND:                -0.231
REMARK SMILES CCCCCC(=O)[O-]
REMARK SMILES IDX 4 1 5 2 6 3 7 4 8 5 3 6 2 7 1 8
REMARK H PARENT
REMARK Flexibility Score: inf
ROOT
ATOM      1  C   UNL     1      13.546 -11.267  22.491  1.00  0.00     0.006 C 
ENDROOT
BRANCH   1   2
ATOM      2  C   UNL     1      14.380 -12.546  22.368  1.00  0.00     0.053 C 
BRANCH   2   3
ATOM      3  C   UNL     1      15.648 -12.423  23.152  1.00  0.00     0.041 C 
ATOM      4  O   UNL     1      15.618 -12.424  24.410  1.00  0.00    -0.550 OA
ATOM      5  O   UNL     1      16.860 -12.257  22.492  1.00  0.00    -0.550 OA
ENDBRANCH   2   3
ENDBRANCH   1   2
BRANCH   1   6
ATOM      6  C   UNL     1      13.588 -10.456  21.187  1.00  0.00     0.000 C 
BRANCH   6   7
ATOM      7  C   UNL     1      14.007  -8.995  21.413  1.00  0.00    -0.003 C 
ATOM      8  C   UNL     1      15.343  -8.871  22.146  1.00  0.00     0.004 C 
ENDBRANCH   6   7
ENDBRANCH   1   6
TORSDOF 4
ENDMDL
MODEL 5
REMARK VINA RESULT:    -3.853      2.072      3.800
REMARK INTER + INTRA:          -4.985
REMARK INTER:                  -4.753
REMARK INTRA:                  -0.232
REMARK UNBOUND:                -0.231
REMARK SMILES CCCCCC(=O)[O-]
REMARK SMILES IDX 4 1 5 2 6 3 7 4 8 5 3 6 2 7 1 8
REMARK H PARENT
REMARK Flexibility Score: inf
ROOT
ATOM      1  C   UNL     1      14.896 -11.671  23.315  1.00  0.00     0.006 C 
ENDROOT
BRANCH   1   2
ATOM      2  C   UNL     1      15.698 -12.745  22.575  1.00  0.00     0.053 C 
BRANCH   2   3
ATOM      3  C   UNL     1      16.957 -12.166  22.011  1.00  0.00     0.041 C 
ATOM      4  O   UNL     1      18.017 -12.843  22.001  1.00  0.00    -0.550 OA
ATOM      5  O   UNL     1      16.969 -10.858  21.541  1.00  0.00    -0.550 OA
ENDBRANCH   2   3
ENDBRANCH   1   2
BRANCH   1   6
ATOM      6  C   UNL     1      13.549 -11.415  22.622  1.00  0.00     0.000 C 
BRANCH   6   7
ATOM      7  C   UNL     1      13.492 -10.046  21.927  1.00  0.00    -0.003 C 
ATOM      8  C   UNL     1      13.626 -10.149  20.408  1.00  0.00     0.004 C 
ENDBRANCH   6   7
ENDBRANCH   1   6
TORSDOF 4
ENDMDL
MODEL 6
REMARK VINA RESULT:    -3.606      2.542      3.823
REMARK INTER + INTRA:          -4.680
REMARK INTER:                  -4.527
REMARK INTRA:                  -0.153
REMARK UNBOUND:                -0.231
REMARK SMILES CCCCCC(=O)[O-]
REMARK SMILES IDX 4 1 5 2 6 3 7 4 8 5 3 6 2 7 1 8
REMARK H PARENT
REMARK Flexibility Score: inf
ROOT
ATOM      1  C   UNL     1      15.431  -9.673  22.483  1.00  0.00     0.006 C 
ENDROOT
BRANCH   1   2
ATOM      2  C   UNL     1      15.037 -10.898  23.313  1.00  0.00     0.053 C 
BRANCH   2   3
ATOM      3  C   UNL     1      15.577 -12.148  22.692  1.00  0.00     0.041 C 
ATOM      4  O   UNL     1      14.792 -13.048  22.296  1.00  0.00    -0.550 OA
ATOM      5  O   UNL     1      16.949 -12.339  22.596  1.00  0.00    -0.550 OA
ENDBRANCH   2   3
ENDBRANCH   1   2
BRANCH   1   6
ATOM      6  C   UNL     1      14.187  -8.973  21.913  1.00  0.00     0.000 C 
BRANCH   6   7
ATOM      7  C   UNL     1      13.120  -9.966  21.430  1.00  0.00    -0.003 C 
ATOM      8  C   UNL     1      13.380 -10.467  20.009  1.00  0.00     0.004 C 
ENDBRANCH   6   7
ENDBRANCH   1   6
TORSDOF 4
ENDMDL
MODEL 7
REMARK VINA RESULT:    -3.301     12.885     13.633
REMARK INTER + INTRA:          -4.303
REMARK INTER:                  -4.182
REMARK INTRA:                  -0.121
REMARK UNBOUND:                -0.231
REMARK SMILES CCCCCC(=O)[O-]
REMARK SMILES IDX 4 1 5 2 6 3 7 4 8 5 3 6 2 7 1 8
REMARK H PARENT
REMARK Flexibility Score: inf
ROOT
ATOM      1  C   UNL     1      21.693   0.167  29.125  1.00  0.00     0.006 C 
ENDROOT
BRANCH   1   2
ATOM      2  C   UNL     1      20.806   0.676  27.984  1.00  0.00     0.053 C 
BRANCH   2   3
ATOM      3  C   UNL     1      19.438   1.007  28.491  1.00  0.00     0.041 C 
ATOM      4  O   UNL     1      18.421   0.699  27.817  1.00  0.00    -0.550 OA
ATOM      5  O   UNL     1      19.289   1.701  29.685  1.00  0.00    -0.550 OA
ENDBRANCH   2   3
ENDBRANCH   1   2
BRANCH   1   6
ATOM      6  C   UNL     1      21.537  -1.351  29.307  1.00  0.00     0.000 C 
BRANCH   6   7
ATOM      7  C   UNL     1      22.108  -2.150  28.126  1.00  0.00    -0.003 C 
ATOM      8  C   UNL     1      22.125  -3.656  28.385  1.00  0.00     0.004 C 
ENDBRANCH   6   7
ENDBRANCH   1   6
TORSDOF 4
ENDMDL
MODEL 8
REMARK VINA RESULT:    -3.206     15.795     16.562
REMARK INTER + INTRA:          -4.187
REMARK INTER:                  -4.018
REMARK INTRA:                  -0.169
REMARK UNBOUND:                -0.231
REMARK SMILES CCCCCC(=O)[O-]
REMARK SMILES IDX 4 1 5 2 6 3 7 4 8 5 3 6 2 7 1 8
REMARK H PARENT
REMARK Flexibility Score: inf
ROOT
ATOM      1  C   UNL     1      15.919  -9.348  38.735  1.00  0.00     0.006 C 
ENDROOT
BRANCH   1   2
ATOM      2  C   UNL     1      16.888  -9.368  37.549  1.00  0.00     0.053 C 
BRANCH   2   3
ATOM      3  C   UNL     1      16.897 -10.717  36.902  1.00  0.00     0.041 C 
ATOM      4  O   UNL     1      17.727 -10.978  35.992  1.00  0.00    -0.550 OA
ATOM      5  O   UNL     1      15.956 -11.671  37.271  1.00  0.00    -0.550 OA
ENDBRANCH   2   3
ENDBRANCH   1   2
BRANCH   1   6
ATOM      6  C   UNL     1      15.071  -8.067  38.729  1.00  0.00     0.000 C 
BRANCH   6   7
ATOM      7  C   UNL     1      13.562  -8.357  38.760  1.00  0.00    -0.003 C 
ATOM      8  C   UNL     1      13.250  -9.853  38.798  1.00  0.00     0.004 C 
ENDBRANCH   6   7
ENDBRANCH   1   6
TORSDOF 4
ENDMDL
MODEL 9
REMARK VINA RESULT:    -3.175     13.415     14.193
REMARK INTER + INTRA:          -4.149
REMARK INTER:                  -4.055
REMARK INTRA:                  -0.094
REMARK UNBOUND:                -0.231
REMARK SMILES CCCCCC(=O)[O-]
REMARK SMILES IDX 4 1 5 2 6 3 7 4 8 5 3 6 2 7 1 8
REMARK H PARENT
REMARK Flexibility Score: inf
ROOT
ATOM      1  C   UNL     1      20.047   1.464  28.537  1.00  0.00     0.006 C 
ENDROOT
BRANCH   1   2
ATOM      2  C   UNL     1      19.268   1.501  27.219  1.00  0.00     0.053 C 
BRANCH   2   3
ATOM      3  C   UNL     1      19.874   2.497  26.280  1.00  0.00     0.041 C 
ATOM      4  O   UNL     1      19.196   2.962  25.327  1.00  0.00    -0.550 OA
ATOM      5  O   UNL     1      21.203   2.872  26.428  1.00  0.00    -0.550 OA
ENDBRANCH   2   3
ENDBRANCH   1   2
BRANCH   1   6
ATOM      6  C   UNL     1      20.245   0.018  29.017  1.00  0.00     0.000 C 
BRANCH   6   7
ATOM      7  C   UNL     1      21.665  -0.505  28.749  1.00  0.00    -0.003 C 
ATOM      8  C   UNL     1      21.795  -2.009  28.984  1.00  0.00     0.004 C 
ENDBRANCH   6   7
ENDBRANCH   1   6
TORSDOF 4
ENDMDL
