MODEL 1
REMARK VINA RESULT:    -4.576      0.000      0.000
REMARK INTER + INTRA:          -5.477
REMARK INTER:                  -5.245
REMARK INTRA:                  -0.232
REMARK UNBOUND:                -0.232
REMARK SMILES COc1ccc(C(C)=O)c(O)c1
REMARK SMILES IDX 6 1 10 2 12 3 3 4 4 5 5 6 7 7 8 8 9 9 11 10 2 12 1 13
REMARK H PARENT 11 11
REMARK Flexibility Score: inf
ROOT
ATOM      1  C   UNL     1      39.577 -24.730  -0.229  1.00  0.00     0.059 A 
ATOM      2  C   UNL     1      40.202 -24.010  -1.274  1.00  0.00     0.130 A 
ATOM      3  C   UNL     1      39.461 -23.610  -2.396  1.00  0.00     0.093 A 
ATOM      4  C   UNL     1      38.094 -23.920  -2.499  1.00  0.00     0.122 A 
ATOM      5  C   UNL     1      37.478 -24.633  -1.470  1.00  0.00     0.047 A 
ATOM      6  C   UNL     1      38.206 -25.034  -0.348  1.00  0.00     0.019 A 
ENDROOT
BRANCH   1   7
ATOM      7  C   UNL     1      40.339 -25.158   0.979  1.00  0.00     0.163 C 
ATOM      8  C   UNL     1      39.653 -25.465   2.277  1.00  0.00     0.093 C 
ATOM      9  O   UNL     1      41.596 -25.244   0.938  1.00  0.00    -0.294 OA
ENDBRANCH   1   7
BRANCH   2  10
ATOM     10  O   UNL     1      41.561 -23.700  -1.209  1.00  0.00    -0.507 OA
ATOM     11  H   UNL     1      42.080 -23.757  -0.339  1.00  0.00     0.293 HD
ENDBRANCH   2  10
BRANCH   4  12
ATOM     12  O   UNL     1      37.316 -23.540  -3.604  1.00  0.00    -0.497 OA
ATOM     13  C   UNL     1      35.959 -23.921  -3.802  1.00  0.00     0.278 C 
ENDBRANCH   4  12
TORSDOF 3
ENDMDL
MODEL 2
REMARK VINA RESULT:    -4.526      5.064      6.799
REMARK INTER + INTRA:          -5.419
REMARK INTER:                  -5.120
REMARK INTRA:                  -0.299
REMARK UNBOUND:                -0.232
REMARK SMILES COc1ccc(C(C)=O)c(O)c1
REMARK SMILES IDX 6 1 10 2 12 3 3 4 4 5 5 6 7 7 8 8 9 9 11 10 2 12 1 13
REMARK H PARENT 11 11
REMARK Flexibility Score: inf
ROOT
ATOM      1  C   UNL     1      40.957 -24.886  -7.262  1.00  0.00     0.059 A 
ATOM      2  C   UNL     1      39.895 -24.159  -7.850  1.00  0.00     0.130 A 
ATOM      3  C   UNL     1      38.690 -23.984  -7.155  1.00  0.00     0.093 A 
ATOM      4  C   UNL     1      38.518 -24.529  -5.871  1.00  0.00     0.122 A 
ATOM      5  C   UNL     1      39.564 -25.250  -5.292  1.00  0.00     0.047 A 
ATOM      6  C   UNL     1      40.768 -25.428  -5.975  1.00  0.00     0.019 A 
ENDROOT
BRANCH   1   7
ATOM      7  C   UNL     1      42.252 -25.078  -7.975  1.00  0.00     0.163 C 
ATOM      8  C   UNL     1      42.696 -26.428  -8.455  1.00  0.00     0.093 C 
ATOM      9  O   UNL     1      43.022 -24.098  -8.165  1.00  0.00    -0.294 OA
ENDBRANCH   1   7
BRANCH   2  10
ATOM     10  O   UNL     1      40.029 -23.618  -9.130  1.00  0.00    -0.507 OA
ATOM     11  H   UNL     1      40.479 -22.724  -9.287  1.00  0.00     0.293 HD
ENDBRANCH   2  10
BRANCH   4  12
ATOM     12  O   UNL     1      37.329 -24.379  -5.141  1.00  0.00    -0.497 OA
ATOM     13  C   UNL     1      36.218 -23.595  -5.564  1.00  0.00     0.278 C 
ENDBRANCH   4  12
TORSDOF 3
ENDMDL
MODEL 3
REMARK VINA RESULT:    -4.454     10.942     12.207
REMARK INTER + INTRA:          -5.337
REMARK INTER:                  -5.013
REMARK INTRA:                  -0.324
REMARK UNBOUND:                -0.232
REMARK SMILES COc1ccc(C(C)=O)c(O)c1
REMARK SMILES IDX 6 1 10 2 12 3 3 4 4 5 5 6 7 7 8 8 9 9 11 10 2 12 1 13
REMARK H PARENT 11 11
REMARK Flexibility Score: inf
ROOT
ATOM      1  C   UNL     1      46.210 -27.853   7.693  1.00  0.00     0.059 A 
ATOM      2  C   UNL     1      47.482 -27.295   7.961  1.00  0.00     0.130 A 
ATOM      3  C   UNL     1      48.350 -26.979   6.906  1.00  0.00     0.093 A 
ATOM      4  C   UNL     1      47.973 -27.214   5.573  1.00  0.00     0.122 A 
ATOM      5  C   UNL     1      46.720 -27.767   5.308  1.00  0.00     0.047 A 
ATOM      6  C   UNL     1      45.847 -28.084   6.351  1.00  0.00     0.019 A 
ENDROOT
BRANCH   1   7
ATOM      7  C   UNL     1      45.263 -28.189   8.795  1.00  0.00     0.163 C 
ATOM      8  C   UNL     1      43.797 -27.894   8.693  1.00  0.00     0.093 C 
ATOM      9  O   UNL     1      45.692 -28.710   9.860  1.00  0.00    -0.294 OA
ENDBRANCH   1   7
BRANCH   2  10
ATOM     10  O   UNL     1      47.893 -27.064   9.275  1.00  0.00    -0.507 OA
ATOM     11  H   UNL     1      47.290 -26.605   9.949  1.00  0.00     0.293 HD
ENDBRANCH   2  10
BRANCH   4  12
ATOM     12  O   UNL     1      48.811 -26.913   4.488  1.00  0.00    -0.497 OA
ATOM     13  C   UNL     1      50.180 -27.296   4.397  1.00  0.00     0.278 C 
ENDBRANCH   4  12
TORSDOF 3
ENDMDL
MODEL 4
REMARK VINA RESULT:    -4.383      1.439      1.439
REMARK INTER + INTRA:          -5.256
REMARK INTER:                  -4.975
REMARK INTRA:                  -0.281
REMARK UNBOUND:                -0.232
REMARK SMILES COc1ccc(C(C)=O)c(O)c1
REMARK SMILES IDX 6 1 10 2 12 3 3 4 4 5 5 6 7 7 8 8 9 9 11 10 2 12 1 13
REMARK H PARENT 11 11
REMARK Flexibility Score: inf
ROOT
ATOM      1  C   UNL     1      39.682 -24.373   0.256  1.00  0.00     0.059 A 
ATOM      2  C   UNL     1      40.260 -23.662  -0.821  1.00  0.00     0.130 A 
ATOM      3  C   UNL     1      39.485 -22.768  -1.574  1.00  0.00     0.093 A 
ATOM      4  C   UNL     1      38.127 -22.569  -1.273  1.00  0.00     0.122 A 
ATOM      5  C   UNL     1      37.554 -23.273  -0.212  1.00  0.00     0.047 A 
ATOM      6  C   UNL     1      38.318 -24.164   0.544  1.00  0.00     0.019 A 
ENDROOT
BRANCH   1   7
ATOM      7  C   UNL     1      40.485 -25.322   1.078  1.00  0.00     0.163 C 
ATOM      8  C   UNL     1      39.847 -26.450   1.832  1.00  0.00     0.093 C 
ATOM      9  O   UNL     1      41.734 -25.172   1.179  1.00  0.00    -0.294 OA
ENDBRANCH   1   7
BRANCH   2  10
ATOM     10  O   UNL     1      41.602 -23.849  -1.156  1.00  0.00    -0.507 OA
ATOM     11  H   UNL     1      42.323 -23.923  -0.447  1.00  0.00     0.293 HD
ENDBRANCH   2  10
BRANCH   4  12
ATOM     12  O   UNL     1      37.315 -21.685  -2.000  1.00  0.00    -0.497 OA
ATOM     13  C   UNL     1      37.249 -21.636  -3.421  1.00  0.00     0.278 C 
ENDBRANCH   4  12
TORSDOF 3
ENDMDL
MODEL 5
REMARK VINA RESULT:    -4.340     11.146     12.395
REMARK INTER + INTRA:          -5.206
REMARK INTER:                  -4.907
REMARK INTRA:                  -0.299
REMARK UNBOUND:                -0.232
REMARK SMILES COc1ccc(C(C)=O)c(O)c1
REMARK SMILES IDX 6 1 10 2 12 3 3 4 4 5 5 6 7 7 8 8 9 9 11 10 2 12 1 13
REMARK H PARENT 11 11
REMARK Flexibility Score: inf
ROOT
ATOM      1  C   UNL     1      46.478 -27.760   7.619  1.00  0.00     0.059 A 
ATOM      2  C   UNL     1      46.623 -27.977   6.229  1.00  0.00     0.130 A 
ATOM      3  C   UNL     1      47.771 -27.527   5.561  1.00  0.00     0.093 A 
ATOM      4  C   UNL     1      48.787 -26.852   6.257  1.00  0.00     0.122 A 
ATOM      5  C   UNL     1      48.643 -26.634   7.628  1.00  0.00     0.047 A 
ATOM      6  C   UNL     1      47.506 -27.080   8.304  1.00  0.00     0.019 A 
ENDROOT
BRANCH   1   7
ATOM      7  C   UNL     1      45.273 -28.237   8.357  1.00  0.00     0.163 C 
ATOM      8  C   UNL     1      45.340 -28.646   9.798  1.00  0.00     0.093 C 
ATOM      9  O   UNL     1      44.165 -28.333   7.763  1.00  0.00    -0.294 OA
ENDBRANCH   1   7
BRANCH   2  10
ATOM     10  O   UNL     1      45.624 -28.631   5.505  1.00  0.00    -0.507 OA
ATOM     11  H   UNL     1      45.711 -28.799   4.509  1.00  0.00     0.293 HD
ENDBRANCH   2  10
BRANCH   4  12
ATOM     12  O   UNL     1      49.951 -26.385   5.628  1.00  0.00    -0.497 OA
ATOM     13  C   UNL     1      50.393 -25.032   5.655  1.00  0.00     0.278 C 
ENDBRANCH   4  12
TORSDOF 3
ENDMDL
MODEL 6
REMARK VINA RESULT:    -4.299     11.565     12.588
REMARK INTER + INTRA:          -5.160
REMARK INTER:                  -4.827
REMARK INTRA:                  -0.333
REMARK UNBOUND:                -0.232
REMARK SMILES COc1ccc(C(C)=O)c(O)c1
REMARK SMILES IDX 6 1 10 2 12 3 3 4 4 5 5 6 7 7 8 8 9 9 11 10 2 12 1 13
REMARK H PARENT 11 11
REMARK Flexibility Score: inf
ROOT
ATOM      1  C   UNL     1      47.969 -27.376   6.283  1.00  0.00     0.059 A 
ATOM      2  C   UNL     1      48.275 -26.986   7.607  1.00  0.00     0.130 A 
ATOM      3  C   UNL     1      47.360 -27.226   8.643  1.00  0.00     0.093 A 
ATOM      4  C   UNL     1      46.129 -27.851   8.380  1.00  0.00     0.122 A 
ATOM      5  C   UNL     1      45.825 -28.234   7.073  1.00  0.00     0.047 A 
ATOM      6  C   UNL     1      46.730 -28.001   6.036  1.00  0.00     0.019 A 
ENDROOT
BRANCH   1   7
ATOM      7  C   UNL     1      48.928 -27.142   5.165  1.00  0.00     0.163 C 
ATOM      8  C   UNL     1      48.530 -26.396   3.927  1.00  0.00     0.093 C 
ATOM      9  O   UNL     1      50.101 -27.601   5.231  1.00  0.00    -0.294 OA
ENDBRANCH   1   7
BRANCH   2  10
ATOM     10  O   UNL     1      49.482 -26.348   7.899  1.00  0.00    -0.507 OA
ATOM     11  H   UNL     1      49.521 -25.363   8.132  1.00  0.00     0.293 HD
ENDBRANCH   2  10
BRANCH   4  12
ATOM     12  O   UNL     1      45.185 -28.110   9.386  1.00  0.00    -0.497 OA
ATOM     13  C   UNL     1      44.500 -27.104  10.125  1.00  0.00     0.278 C 
ENDBRANCH   4  12
TORSDOF 3
ENDMDL
MODEL 7
REMARK VINA RESULT:    -4.248      2.288      2.852
REMARK INTER + INTRA:          -5.101
REMARK INTER:                  -4.788
REMARK INTRA:                  -0.313
REMARK UNBOUND:                -0.232
REMARK SMILES COc1ccc(C(C)=O)c(O)c1
REMARK SMILES IDX 6 1 10 2 12 3 3 4 4 5 5 6 7 7 8 8 9 9 11 10 2 12 1 13
REMARK H PARENT 11 11
REMARK Flexibility Score: inf
ROOT
ATOM      1  C   UNL     1      39.260 -24.472   0.881  1.00  0.00     0.059 A 
ATOM      2  C   UNL     1      38.125 -23.698   0.542  1.00  0.00     0.130 A 
ATOM      3  C   UNL     1      38.111 -22.949  -0.644  1.00  0.00     0.093 A 
ATOM      4  C   UNL     1      39.221 -22.952  -1.506  1.00  0.00     0.122 A 
ATOM      5  C   UNL     1      40.342 -23.713  -1.170  1.00  0.00     0.047 A 
ATOM      6  C   UNL     1      40.364 -24.464   0.007  1.00  0.00     0.019 A 
ENDROOT
BRANCH   1   7
ATOM      7  C   UNL     1      39.297 -25.285   2.130  1.00  0.00     0.163 C 
ATOM      8  C   UNL     1      39.976 -26.621   2.182  1.00  0.00     0.093 C 
ATOM      9  O   UNL     1      38.724 -24.870   3.174  1.00  0.00    -0.294 OA
ENDBRANCH   1   7
BRANCH   2  10
ATOM     10  O   UNL     1      37.014 -23.660   1.385  1.00  0.00    -0.507 OA
ATOM     11  H   UNL     1      36.411 -22.847   1.438  1.00  0.00     0.293 HD
ENDBRANCH   2  10
BRANCH   4  12
ATOM     12  O   UNL     1      39.249 -22.217  -2.701  1.00  0.00    -0.497 OA
ATOM     13  C   UNL     1      38.423 -21.090  -2.973  1.00  0.00     0.278 C 
ENDBRANCH   4  12
TORSDOF 3
ENDMDL
MODEL 8
REMARK VINA RESULT:    -4.206      2.713      4.042
REMARK INTER + INTRA:          -5.053
REMARK INTER:                  -4.727
REMARK INTRA:                  -0.326
REMARK UNBOUND:                -0.232
REMARK SMILES COc1ccc(C(C)=O)c(O)c1
REMARK SMILES IDX 6 1 10 2 12 3 3 4 4 5 5 6 7 7 8 8 9 9 11 10 2 12 1 13
REMARK H PARENT 11 11
REMARK Flexibility Score: inf
ROOT
ATOM      1  C   UNL     1      38.702 -24.626  -3.280  1.00  0.00     0.059 A 
ATOM      2  C   UNL     1      37.424 -24.180  -3.692  1.00  0.00     0.130 A 
ATOM      3  C   UNL     1      37.044 -24.278  -5.039  1.00  0.00     0.093 A 
ATOM      4  C   UNL     1      37.924 -24.812  -5.995  1.00  0.00     0.122 A 
ATOM      5  C   UNL     1      39.186 -25.248  -5.589  1.00  0.00     0.047 A 
ATOM      6  C   UNL     1      39.573 -25.158  -4.251  1.00  0.00     0.019 A 
ENDROOT
BRANCH   1   7
ATOM      7  C   UNL     1      39.128 -24.543  -1.853  1.00  0.00     0.163 C 
ATOM      8  C   UNL     1      40.339 -23.765  -1.435  1.00  0.00     0.093 C 
ATOM      9  O   UNL     1      38.482 -25.161  -0.963  1.00  0.00    -0.294 OA
ENDBRANCH   1   7
BRANCH   2  10
ATOM     10  O   UNL     1      36.533 -23.630  -2.770  1.00  0.00    -0.507 OA
ATOM     11  H   UNL     1      35.591 -23.989  -2.658  1.00  0.00     0.293 HD
ENDBRANCH   2  10
BRANCH   4  12
ATOM     12  O   UNL     1      37.584 -24.927  -7.351  1.00  0.00    -0.497 OA
ATOM     13  C   UNL     1      37.926 -23.972  -8.351  1.00  0.00     0.278 C 
ENDBRANCH   4  12
TORSDOF 3
ENDMDL
MODEL 9
REMARK VINA RESULT:    -4.181     16.377     17.475
REMARK INTER + INTRA:          -5.024
REMARK INTER:                  -4.677
REMARK INTRA:                  -0.347
REMARK UNBOUND:                -0.232
REMARK SMILES COc1ccc(C(C)=O)c(O)c1
REMARK SMILES IDX 6 1 10 2 12 3 3 4 4 5 5 6 7 7 8 8 9 9 11 10 2 12 1 13
REMARK H PARENT 11 11
REMARK Flexibility Score: inf
ROOT
ATOM      1  C   UNL     1      50.633 -34.526  -7.124  1.00  0.00     0.059 A 
ATOM      2  C   UNL     1      51.137 -35.636  -7.842  1.00  0.00     0.130 A 
ATOM      3  C   UNL     1      51.105 -36.918  -7.274  1.00  0.00     0.093 A 
ATOM      4  C   UNL     1      50.578 -37.117  -5.986  1.00  0.00     0.122 A 
ATOM      5  C   UNL     1      50.084 -36.022  -5.276  1.00  0.00     0.047 A 
ATOM      6  C   UNL     1      50.109 -34.743  -5.834  1.00  0.00     0.019 A 
ENDROOT
BRANCH   1   7
ATOM      7  C   UNL     1      50.646 -33.155  -7.709  1.00  0.00     0.163 C 
ATOM      8  C   UNL     1      49.394 -32.340  -7.837  1.00  0.00     0.093 C 
ATOM      9  O   UNL     1      51.723 -32.660  -8.139  1.00  0.00    -0.294 OA
ENDBRANCH   1   7
BRANCH   2  10
ATOM     10  O   UNL     1      51.682 -35.469  -9.117  1.00  0.00    -0.507 OA
ATOM     11  H   UNL     1      51.096 -35.337  -9.934  1.00  0.00     0.293 HD
ENDBRANCH   2  10
BRANCH   4  12
ATOM     12  O   UNL     1      50.527 -38.382  -5.380  1.00  0.00    -0.497 OA
ATOM     13  C   UNL     1      50.310 -38.600  -3.990  1.00  0.00     0.278 C 
ENDBRANCH   4  12
TORSDOF 3
ENDMDL
