MODEL 1
REMARK VINA RESULT:    -4.248      0.000      0.000
REMARK INTER + INTRA:          -7.345
REMARK INTER:                  -6.483
REMARK INTRA:                  -0.862
REMARK UNBOUND:                -0.862
REMARK SMILES CCCCCCCCCCC(=O)[O-]
REMARK SMILES IDX 7 1 8 2 9 3 10 4 11 5 12 6 13 7 6 8 5 9 4 10 3 11 2 12 1 13
REMARK H PARENT
REMARK Flexibility Score: inf
ROOT
ATOM      1  C   UNL     1      14.996 -33.995  21.290  1.00  0.00     0.000 C 
ENDROOT
BRANCH   1   2
ATOM      2  C   UNL     1      14.243 -32.854  20.589  1.00  0.00     0.000 C 
BRANCH   2   3
ATOM      3  C   UNL     1      14.157 -31.584  21.450  1.00  0.00     0.006 C 
BRANCH   3   4
ATOM      4  C   UNL     1      12.733 -31.016  21.524  1.00  0.00     0.053 C 
BRANCH   4   5
ATOM      5  C   UNL     1      12.599 -30.098  22.697  1.00  0.00     0.041 C 
ATOM      6  O   UNL     1      11.849 -29.089  22.629  1.00  0.00    -0.550 OA
ATOM      7  O   UNL     1      13.339 -30.329  23.850  1.00  0.00    -0.550 OA
ENDBRANCH   4   5
ENDBRANCH   3   4
ENDBRANCH   2   3
ENDBRANCH   1   2
BRANCH   1   8
ATOM      8  C   UNL     1      15.393 -35.087  20.289  1.00  0.00     0.000 C 
BRANCH   8   9
ATOM      9  C   UNL     1      16.857 -35.508  20.487  1.00  0.00    -0.000 C 
BRANCH   9  10
ATOM     10  C   UNL     1      17.742 -35.171  19.275  1.00  0.00    -0.000 C 
BRANCH  10  11
ATOM     11  C   UNL     1      17.899 -33.656  19.061  1.00  0.00    -0.000 C 
BRANCH  11  12
ATOM     12  C   UNL     1      18.427 -32.936  20.311  1.00  0.00    -0.003 C 
ATOM     13  C   UNL     1      17.817 -31.547  20.498  1.00  0.00     0.004 C 
ENDBRANCH  11  12
ENDBRANCH  10  11
ENDBRANCH   9  10
ENDBRANCH   8   9
ENDBRANCH   1   8
TORSDOF 9
ENDMDL
MODEL 2
REMARK VINA RESULT:    -4.214      1.745      2.763
REMARK INTER + INTRA:          -7.292
REMARK INTER:                  -6.840
REMARK INTRA:                  -0.452
REMARK UNBOUND:                -0.862
REMARK SMILES CCCCCCCCCCC(=O)[O-]
REMARK SMILES IDX 7 1 8 2 9 3 10 4 11 5 12 6 13 7 6 8 5 9 4 10 3 11 2 12 1 13
REMARK H PARENT
REMARK Flexibility Score: inf
ROOT
ATOM      1  C   UNL     1      13.815 -32.399  20.603  1.00  0.00     0.000 C 
ENDROOT
BRANCH   1   2
ATOM      2  C   UNL     1      13.442 -30.996  21.105  1.00  0.00     0.000 C 
BRANCH   2   3
ATOM      3  C   UNL     1      12.703 -31.026  22.452  1.00  0.00     0.006 C 
BRANCH   3   4
ATOM      4  C   UNL     1      13.190 -29.937  23.417  1.00  0.00     0.053 C 
BRANCH   4   5
ATOM      5  C   UNL     1      12.463 -28.655  23.167  1.00  0.00     0.041 C 
ATOM      6  O   UNL     1      13.038 -27.552  23.364  1.00  0.00    -0.550 OA
ATOM      7  O   UNL     1      11.134 -28.675  22.763  1.00  0.00    -0.550 OA
ENDBRANCH   4   5
ENDBRANCH   3   4
ENDBRANCH   2   3
ENDBRANCH   1   2
BRANCH   1   8
ATOM      8  C   UNL     1      14.717 -33.121  21.611  1.00  0.00     0.000 C 
BRANCH   8   9
ATOM      9  C   UNL     1      15.282 -34.419  21.012  1.00  0.00    -0.000 C 
BRANCH   9  10
ATOM     10  C   UNL     1      15.826 -34.229  19.587  1.00  0.00    -0.000 C 
BRANCH  10  11
ATOM     11  C   UNL     1      16.924 -35.246  19.233  1.00  0.00    -0.000 C 
BRANCH  11  12
ATOM     12  C   UNL     1      16.666 -36.630  19.850  1.00  0.00    -0.003 C 
ATOM     13  C   UNL     1      17.864 -37.160  20.636  1.00  0.00     0.004 C 
ENDBRANCH  11  12
ENDBRANCH  10  11
ENDBRANCH   9  10
ENDBRANCH   8   9
ENDBRANCH   1   8
TORSDOF 9
ENDMDL
MODEL 3
REMARK VINA RESULT:    -4.181      3.258      6.687
REMARK INTER + INTRA:          -7.243
REMARK INTER:                  -6.754
REMARK INTRA:                  -0.488
REMARK UNBOUND:                -0.862
REMARK SMILES CCCCCCCCCCC(=O)[O-]
REMARK SMILES IDX 7 1 8 2 9 3 10 4 11 5 12 6 13 7 6 8 5 9 4 10 3 11 2 12 1 13
REMARK H PARENT
REMARK Flexibility Score: inf
ROOT
ATOM      1  C   UNL     1      14.813 -30.661  21.674  1.00  0.00     0.000 C 
ENDROOT
BRANCH   1   2
ATOM      2  C   UNL     1      15.715 -31.868  21.377  1.00  0.00     0.000 C 
BRANCH   2   3
ATOM      3  C   UNL     1      15.018 -33.210  21.651  1.00  0.00     0.006 C 
BRANCH   3   4
ATOM      4  C   UNL     1      15.035 -34.144  20.434  1.00  0.00     0.053 C 
BRANCH   4   5
ATOM      5  C   UNL     1      16.055 -35.222  20.617  1.00  0.00     0.041 C 
ATOM      6  O   UNL     1      16.786 -35.235  21.642  1.00  0.00    -0.550 OA
ATOM      7  O   UNL     1      16.233 -36.185  19.632  1.00  0.00    -0.550 OA
ENDBRANCH   4   5
ENDBRANCH   3   4
ENDBRANCH   2   3
ENDBRANCH   1   2
BRANCH   1   8
ATOM      8  C   UNL     1      13.429 -30.839  21.038  1.00  0.00     0.000 C 
BRANCH   8   9
ATOM      9  C   UNL     1      12.320 -30.740  22.096  1.00  0.00    -0.000 C 
BRANCH   9  10
ATOM     10  C   UNL     1      12.481 -29.517  23.014  1.00  0.00    -0.000 C 
BRANCH  10  11
ATOM     11  C   UNL     1      11.288 -28.551  22.927  1.00  0.00    -0.000 C 
BRANCH  11  12
ATOM     12  C   UNL     1      11.418 -27.366  23.898  1.00  0.00    -0.003 C 
ATOM     13  C   UNL     1      12.734 -27.379  24.675  1.00  0.00     0.004 C 
ENDBRANCH  11  12
ENDBRANCH  10  11
ENDBRANCH   9  10
ENDBRANCH   8   9
ENDBRANCH   1   8
TORSDOF 9
ENDMDL
MODEL 4
REMARK VINA RESULT:    -4.171      1.217      2.101
REMARK INTER + INTRA:          -7.228
REMARK INTER:                  -6.348
REMARK INTRA:                  -0.879
REMARK UNBOUND:                -0.862
REMARK SMILES CCCCCCCCCCC(=O)[O-]
REMARK SMILES IDX 7 1 8 2 9 3 10 4 11 5 12 6 13 7 6 8 5 9 4 10 3 11 2 12 1 13
REMARK H PARENT
REMARK Flexibility Score: inf
ROOT
ATOM      1  C   UNL     1      14.856 -33.027  22.278  1.00  0.00     0.000 C 
ENDROOT
BRANCH   1   2
ATOM      2  C   UNL     1      15.632 -31.800  22.778  1.00  0.00     0.000 C 
BRANCH   2   3
ATOM      3  C   UNL     1      14.870 -30.484  22.554  1.00  0.00     0.006 C 
BRANCH   3   4
ATOM      4  C   UNL     1      13.761 -30.260  23.591  1.00  0.00     0.053 C 
BRANCH   4   5
ATOM      5  C   UNL     1      12.552 -29.667  22.942  1.00  0.00     0.041 C 
ATOM      6  O   UNL     1      12.150 -28.521  23.277  1.00  0.00    -0.550 OA
ATOM      7  O   UNL     1      11.837 -30.398  22.001  1.00  0.00    -0.550 OA
ENDBRANCH   4   5
ENDBRANCH   3   4
ENDBRANCH   2   3
ENDBRANCH   1   2
BRANCH   1   8
ATOM      8  C   UNL     1      14.208 -32.749  20.916  1.00  0.00     0.000 C 
BRANCH   8   9
ATOM      9  C   UNL     1      14.599 -33.825  19.891  1.00  0.00    -0.000 C 
BRANCH   9  10
ATOM     10  C   UNL     1      15.614 -34.837  20.449  1.00  0.00    -0.000 C 
BRANCH  10  11
ATOM     11  C   UNL     1      16.734 -35.164  19.448  1.00  0.00    -0.000 C 
BRANCH  11  12
ATOM     12  C   UNL     1      17.445 -33.905  18.927  1.00  0.00    -0.003 C 
ATOM     13  C   UNL     1      18.172 -33.136  20.030  1.00  0.00     0.004 C 
ENDBRANCH  11  12
ENDBRANCH  10  11
ENDBRANCH   9  10
ENDBRANCH   8   9
ENDBRANCH   1   8
TORSDOF 9
ENDMDL
MODEL 5
REMARK VINA RESULT:    -4.167      3.381      6.252
REMARK INTER + INTRA:          -7.221
REMARK INTER:                  -6.724
REMARK INTRA:                  -0.498
REMARK UNBOUND:                -0.862
REMARK SMILES CCCCCCCCCCC(=O)[O-]
REMARK SMILES IDX 7 1 8 2 9 3 10 4 11 5 12 6 13 7 6 8 5 9 4 10 3 11 2 12 1 13
REMARK H PARENT
REMARK Flexibility Score: inf
ROOT
ATOM      1  C   UNL     1      14.230 -32.633  21.153  1.00  0.00     0.000 C 
ENDROOT
BRANCH   1   2
ATOM      2  C   UNL     1      14.748 -33.584  20.064  1.00  0.00     0.000 C 
BRANCH   2   3
ATOM      3  C   UNL     1      15.341 -34.879  20.642  1.00  0.00     0.006 C 
BRANCH   3   4
ATOM      4  C   UNL     1      16.422 -35.488  19.739  1.00  0.00     0.053 C 
BRANCH   4   5
ATOM      5  C   UNL     1      17.612 -34.585  19.668  1.00  0.00     0.041 C 
ATOM      6  O   UNL     1      17.942 -34.058  18.573  1.00  0.00    -0.550 OA
ATOM      7  O   UNL     1      18.387 -34.364  20.799  1.00  0.00    -0.550 OA
ENDBRANCH   4   5
ENDBRANCH   3   4
ENDBRANCH   2   3
ENDBRANCH   1   2
BRANCH   1   8
ATOM      8  C   UNL     1      14.823 -32.989  22.521  1.00  0.00     0.000 C 
BRANCH   8   9
ATOM      9  C   UNL     1      14.141 -32.190  23.642  1.00  0.00    -0.000 C 
BRANCH   9  10
ATOM     10  C   UNL     1      13.187 -31.109  23.106  1.00  0.00    -0.000 C 
BRANCH  10  11
ATOM     11  C   UNL     1      13.565 -29.697  23.582  1.00  0.00    -0.000 C 
BRANCH  11  12
ATOM     12  C   UNL     1      12.343 -28.778  23.728  1.00  0.00    -0.003 C 
ATOM     13  C   UNL     1      12.591 -27.607  24.679  1.00  0.00     0.004 C 
ENDBRANCH  11  12
ENDBRANCH  10  11
ENDBRANCH   9  10
ENDBRANCH   8   9
ENDBRANCH   1   8
TORSDOF 9
ENDMDL
MODEL 6
REMARK VINA RESULT:    -4.111      2.970      5.983
REMARK INTER + INTRA:          -7.135
REMARK INTER:                  -6.078
REMARK INTRA:                  -1.057
REMARK UNBOUND:                -0.862
REMARK SMILES CCCCCCCCCCC(=O)[O-]
REMARK SMILES IDX 7 1 8 2 9 3 10 4 11 5 12 6 13 7 6 8 5 9 4 10 3 11 2 12 1 13
REMARK H PARENT
REMARK Flexibility Score: inf
ROOT
ATOM      1  C   UNL     1      16.929 -30.321  22.370  1.00  0.00     0.000 C 
ENDROOT
BRANCH   1   2
ATOM      2  C   UNL     1      16.948 -31.092  23.699  1.00  0.00     0.000 C 
BRANCH   2   3
ATOM      3  C   UNL     1      16.934 -32.616  23.499  1.00  0.00     0.006 C 
BRANCH   3   4
ATOM      4  C   UNL     1      15.527 -33.164  23.230  1.00  0.00     0.053 C 
BRANCH   4   5
ATOM      5  C   UNL     1      15.477 -33.841  21.898  1.00  0.00     0.041 C 
ATOM      6  O   UNL     1      16.348 -34.698  21.590  1.00  0.00    -0.550 OA
ATOM      7  O   UNL     1      14.499 -33.492  20.975  1.00  0.00    -0.550 OA
ENDBRANCH   4   5
ENDBRANCH   3   4
ENDBRANCH   2   3
ENDBRANCH   1   2
BRANCH   1   8
ATOM      8  C   UNL     1      15.704 -29.402  22.286  1.00  0.00     0.000 C 
BRANCH   8   9
ATOM      9  C   UNL     1      14.601 -30.033  21.422  1.00  0.00    -0.000 C 
BRANCH   9  10
ATOM     10  C   UNL     1      13.309 -30.304  22.210  1.00  0.00    -0.000 C 
BRANCH  10  11
ATOM     11  C   UNL     1      13.429 -29.916  23.693  1.00  0.00    -0.000 C 
BRANCH  11  12
ATOM     12  C   UNL     1      12.575 -28.689  24.051  1.00  0.00    -0.003 C 
ATOM     13  C   UNL     1      11.408 -28.478  23.086  1.00  0.00     0.004 C 
ENDBRANCH  11  12
ENDBRANCH  10  11
ENDBRANCH   9  10
ENDBRANCH   8   9
ENDBRANCH   1   8
TORSDOF 9
ENDMDL
MODEL 7
REMARK VINA RESULT:    -4.108      3.007      5.894
REMARK INTER + INTRA:          -7.132
REMARK INTER:                  -6.262
REMARK INTRA:                  -0.870
REMARK UNBOUND:                -0.862
REMARK SMILES CCCCCCCCCCC(=O)[O-]
REMARK SMILES IDX 7 1 8 2 9 3 10 4 11 5 12 6 13 7 6 8 5 9 4 10 3 11 2 12 1 13
REMARK H PARENT
REMARK Flexibility Score: inf
ROOT
ATOM      1  C   UNL     1      14.184 -32.681  20.933  1.00  0.00     0.000 C 
ENDROOT
BRANCH   1   2
ATOM      2  C   UNL     1      14.858 -33.309  22.162  1.00  0.00     0.000 C 
BRANCH   2   3
ATOM      3  C   UNL     1      16.375 -33.475  21.986  1.00  0.00     0.006 C 
BRANCH   3   4
ATOM      4  C   UNL     1      17.133 -32.147  22.109  1.00  0.00     0.053 C 
BRANCH   4   5
ATOM      5  C   UNL     1      17.658 -31.719  20.776  1.00  0.00     0.041 C 
ATOM      6  O   UNL     1      17.712 -32.541  19.823  1.00  0.00    -0.550 OA
ATOM      7  O   UNL     1      18.136 -30.427  20.598  1.00  0.00    -0.550 OA
ENDBRANCH   4   5
ENDBRANCH   3   4
ENDBRANCH   2   3
ENDBRANCH   1   2
BRANCH   1   8
ATOM      8  C   UNL     1      13.342 -31.463  21.330  1.00  0.00     0.000 C 
BRANCH   8   9
ATOM      9  C   UNL     1      14.207 -30.194  21.394  1.00  0.00    -0.000 C 
BRANCH   9  10
ATOM     10  C   UNL     1      14.470 -29.726  22.834  1.00  0.00    -0.000 C 
BRANCH  10  11
ATOM     11  C   UNL     1      13.223 -29.832  23.728  1.00  0.00    -0.000 C 
BRANCH  11  12
ATOM     12  C   UNL     1      12.630 -28.458  24.077  1.00  0.00    -0.003 C 
ATOM     13  C   UNL     1      11.247 -28.237  23.466  1.00  0.00     0.004 C 
ENDBRANCH  11  12
ENDBRANCH  10  11
ENDBRANCH   9  10
ENDBRANCH   8   9
ENDBRANCH   1   8
TORSDOF 9
ENDMDL
MODEL 8
REMARK VINA RESULT:    -4.106      2.173      2.905
REMARK INTER + INTRA:          -7.129
REMARK INTER:                  -5.826
REMARK INTRA:                  -1.303
REMARK UNBOUND:                -0.862
REMARK SMILES CCCCCCCCCCC(=O)[O-]
REMARK SMILES IDX 7 1 8 2 9 3 10 4 11 5 12 6 13 7 6 8 5 9 4 10 3 11 2 12 1 13
REMARK H PARENT
REMARK Flexibility Score: inf
ROOT
ATOM      1  C   UNL     1      14.181 -32.629  20.978  1.00  0.00     0.000 C 
ENDROOT
BRANCH   1   2
ATOM      2  C   UNL     1      13.395 -31.324  21.172  1.00  0.00     0.000 C 
BRANCH   2   3
ATOM      3  C   UNL     1      12.998 -31.084  22.638  1.00  0.00     0.006 C 
BRANCH   3   4
ATOM      4  C   UNL     1      13.372 -29.680  23.129  1.00  0.00     0.053 C 
BRANCH   4   5
ATOM      5  C   UNL     1      12.141 -28.862  23.359  1.00  0.00     0.041 C 
ATOM      6  O   UNL     1      12.063 -28.103  24.360  1.00  0.00    -0.550 OA
ATOM      7  O   UNL     1      11.060 -28.975  22.495  1.00  0.00    -0.550 OA
ENDBRANCH   4   5
ENDBRANCH   3   4
ENDBRANCH   2   3
ENDBRANCH   1   2
BRANCH   1   8
ATOM      8  C   UNL     1      14.719 -33.151  22.316  1.00  0.00     0.000 C 
BRANCH   8   9
ATOM      9  C   UNL     1      16.147 -33.695  22.160  1.00  0.00    -0.000 C 
BRANCH   9  10
ATOM     10  C   UNL     1      17.215 -32.722  22.685  1.00  0.00    -0.000 C 
BRANCH  10  11
ATOM     11  C   UNL     1      16.629 -31.648  23.618  1.00  0.00    -0.000 C 
BRANCH  11  12
ATOM     12  C   UNL     1      16.918 -30.221  23.127  1.00  0.00    -0.003 C 
ATOM     13  C   UNL     1      16.953 -30.114  21.602  1.00  0.00     0.004 C 
ENDBRANCH  11  12
ENDBRANCH  10  11
ENDBRANCH   9  10
ENDBRANCH   8   9
ENDBRANCH   1   8
TORSDOF 9
ENDMDL
MODEL 9
REMARK VINA RESULT:    -4.030      3.441      5.799
REMARK INTER + INTRA:          -7.012
REMARK INTER:                  -5.773
REMARK INTRA:                  -1.239
REMARK UNBOUND:                -0.862
REMARK SMILES CCCCCCCCCCC(=O)[O-]
REMARK SMILES IDX 7 1 8 2 9 3 10 4 11 5 12 6 13 7 6 8 5 9 4 10 3 11 2 12 1 13
REMARK H PARENT
REMARK Flexibility Score: inf
ROOT
ATOM      1  C   UNL     1      16.925 -32.488  22.251  1.00  0.00     0.000 C 
ENDROOT
BRANCH   1   2
ATOM      2  C   UNL     1      15.848 -33.579  22.172  1.00  0.00     0.000 C 
BRANCH   2   3
ATOM      3  C   UNL     1      15.253 -33.724  20.762  1.00  0.00     0.006 C 
BRANCH   3   4
ATOM      4  C   UNL     1      15.450 -35.129  20.178  1.00  0.00     0.053 C 
BRANCH   4   5
ATOM      5  C   UNL     1      16.661 -35.163  19.301  1.00  0.00     0.041 C 
ATOM      6  O   UNL     1      17.195 -36.264  19.001  1.00  0.00    -0.550 OA
ATOM      7  O   UNL     1      17.231 -33.978  18.856  1.00  0.00    -0.550 OA
ENDBRANCH   4   5
ENDBRANCH   3   4
ENDBRANCH   2   3
ENDBRANCH   1   2
BRANCH   1   8
ATOM      8  C   UNL     1      16.640 -31.361  21.250  1.00  0.00     0.000 C 
BRANCH   8   9
ATOM      9  C   UNL     1      16.592 -29.997  21.956  1.00  0.00    -0.000 C 
BRANCH   9  10
ATOM     10  C   UNL     1      15.158 -29.482  22.158  1.00  0.00    -0.000 C 
BRANCH  10  11
ATOM     11  C   UNL     1      14.130 -30.239  21.301  1.00  0.00    -0.000 C 
BRANCH  11  12
ATOM     12  C   UNL     1      13.080 -30.972  22.151  1.00  0.00    -0.003 C 
ATOM     13  C   UNL     1      13.473 -31.068  23.625  1.00  0.00     0.004 C 
ENDBRANCH  11  12
ENDBRANCH  10  11
ENDBRANCH   9  10
ENDBRANCH   8   9
ENDBRANCH   1   8
TORSDOF 9
ENDMDL
