MODEL 1
REMARK VINA RESULT:    -5.193      0.000      0.000
REMARK INTER + INTRA:         -10.757
REMARK INTER:                  -9.442
REMARK INTRA:                  -1.314
REMARK UNBOUND:                -1.314
REMARK SMILES CCCCCC=CCC=CCCCCCCCC(=O)[O-]
REMARK SMILES IDX 11 1 12 2 13 3 14 4 15 5 16 6 17 7 18 8 19 9 20 10 10 11
REMARK SMILES IDX 9 12 8 13 7 14 6 15 5 16 4 17 3 18 2 19 1 20
REMARK H PARENT
REMARK Flexibility Score: inf
ROOT
ATOM      1  C   UNL     1       2.719  11.026  85.129  1.00  0.00     0.027 C 
ENDROOT
BRANCH   1   2
ATOM      2  C   UNL     1       2.551  10.618  86.597  1.00  0.00     0.004 C 
BRANCH   2   3
ATOM      3  C   UNL     1       2.699   9.099  86.766  1.00  0.00     0.000 C 
BRANCH   3   4
ATOM      4  C   UNL     1       1.580   8.497  87.642  1.00  0.00     0.000 C 
BRANCH   4   5
ATOM      5  C   UNL     1       0.338   8.065  86.844  1.00  0.00     0.000 C 
BRANCH   5   6
ATOM      6  C   UNL     1       0.638   6.957  85.825  1.00  0.00     0.006 C 
BRANCH   6   7
ATOM      7  C   UNL     1       1.241   5.728  86.511  1.00  0.00     0.053 C 
BRANCH   7   8
ATOM      8  C   UNL     1       2.498   5.306  85.819  1.00  0.00     0.041 C 
ATOM      9  O   UNL     1       3.110   6.112  85.070  1.00  0.00    -0.550 OA
ATOM     10  O   UNL     1       2.969   4.006  85.961  1.00  0.00    -0.550 OA
ENDBRANCH   7   8
ENDBRANCH   6   7
ENDBRANCH   5   6
ENDBRANCH   4   5
ENDBRANCH   3   4
ENDBRANCH   2   3
ENDBRANCH   1   2
BRANCH   1  11
ATOM     11  C   UNL     1       2.143   9.977  84.212  1.00  0.00    -0.031 C 
ATOM     12  C   UNL     1       2.814   9.394  83.202  1.00  0.00    -0.027 C 
BRANCH  12  13
ATOM     13  C   UNL     1       4.221   9.749  82.791  1.00  0.00     0.054 C 
BRANCH  13  14
ATOM     14  C   UNL     1       4.909   8.584  82.134  1.00  0.00    -0.027 C 
ATOM     15  C   UNL     1       6.046   8.739  81.440  1.00  0.00    -0.031 C 
BRANCH  15  16
ATOM     16  C   UNL     1       6.733   7.571  80.786  1.00  0.00     0.027 C 
BRANCH  16  17
ATOM     17  C   UNL     1       7.712   8.044  79.702  1.00  0.00     0.004 C 
BRANCH  17  18
ATOM     18  C   UNL     1       8.822   7.022  79.412  1.00  0.00     0.000 C 
BRANCH  18  19
ATOM     19  C   UNL     1       8.373   5.556  79.587  1.00  0.00    -0.003 C 
ATOM     20  C   UNL     1       9.543   4.621  79.888  1.00  0.00     0.004 C 
ENDBRANCH  18  19
ENDBRANCH  17  18
ENDBRANCH  16  17
ENDBRANCH  15  16
ENDBRANCH  13  14
ENDBRANCH  12  13
ENDBRANCH   1  11
TORSDOF 14
ENDMDL
MODEL 2
REMARK VINA RESULT:    -4.917      2.933      7.459
REMARK INTER + INTRA:         -10.256
REMARK INTER:                  -9.208
REMARK INTRA:                  -1.049
REMARK UNBOUND:                -1.314
REMARK SMILES CCCCCC=CCC=CCCCCCCCC(=O)[O-]
REMARK SMILES IDX 11 1 12 2 13 3 14 4 15 5 16 6 17 7 18 8 19 9 20 10 10 11
REMARK SMILES IDX 9 12 8 13 7 14 6 15 5 16 4 17 3 18 2 19 1 20
REMARK H PARENT
REMARK Flexibility Score: inf
ROOT
ATOM      1  C   UNL     1       2.611  10.020  85.678  1.00  0.00     0.027 C 
ENDROOT
BRANCH   1   2
ATOM      2  C   UNL     1       2.630   8.878  84.656  1.00  0.00     0.004 C 
BRANCH   2   3
ATOM      3  C   UNL     1       2.564   9.423  83.222  1.00  0.00     0.000 C 
BRANCH   3   4
ATOM      4  C   UNL     1       3.966   9.709  82.641  1.00  0.00     0.000 C 
BRANCH   4   5
ATOM      5  C   UNL     1       4.755   8.438  82.281  1.00  0.00     0.000 C 
BRANCH   5   6
ATOM      6  C   UNL     1       6.130   8.742  81.671  1.00  0.00     0.006 C 
BRANCH   6   7
ATOM      7  C   UNL     1       6.533   7.663  80.661  1.00  0.00     0.053 C 
BRANCH   7   8
ATOM      8  C   UNL     1       7.968   7.822  80.270  1.00  0.00     0.041 C 
ATOM      9  O   UNL     1       8.552   8.925  80.439  1.00  0.00    -0.550 OA
ATOM     10  O   UNL     1       8.648   6.768  79.673  1.00  0.00    -0.550 OA
ENDBRANCH   7   8
ENDBRANCH   6   7
ENDBRANCH   5   6
ENDBRANCH   4   5
ENDBRANCH   3   4
ENDBRANCH   2   3
ENDBRANCH   1   2
BRANCH   1  11
ATOM     11  C   UNL     1       3.037   9.529  87.038  1.00  0.00    -0.031 C 
ATOM     12  C   UNL     1       2.193   9.092  87.991  1.00  0.00    -0.027 C 
BRANCH  12  13
ATOM     13  C   UNL     1       0.690   9.089  87.868  1.00  0.00     0.054 C 
BRANCH  13  14
ATOM     14  C   UNL     1       0.191   7.788  87.302  1.00  0.00    -0.027 C 
ATOM     15  C   UNL     1       0.659   6.608  87.733  1.00  0.00    -0.031 C 
BRANCH  15  16
ATOM     16  C   UNL     1       0.156   5.309  87.167  1.00  0.00     0.027 C 
BRANCH  16  17
ATOM     17  C   UNL     1       1.144   4.167  87.446  1.00  0.00     0.004 C 
BRANCH  17  18
ATOM     18  C   UNL     1       2.419   4.258  86.593  1.00  0.00     0.000 C 
BRANCH  18  19
ATOM     19  C   UNL     1       3.317   3.007  86.689  1.00  0.00    -0.003 C 
ATOM     20  C   UNL     1       2.915   2.089  87.842  1.00  0.00     0.004 C 
ENDBRANCH  18  19
ENDBRANCH  17  18
ENDBRANCH  16  17
ENDBRANCH  15  16
ENDBRANCH  13  14
ENDBRANCH  12  13
ENDBRANCH   1  11
TORSDOF 14
ENDMDL
MODEL 3
REMARK VINA RESULT:    -4.916      2.128      3.204
REMARK INTER + INTRA:         -10.254
REMARK INTER:                  -8.347
REMARK INTRA:                  -1.907
REMARK UNBOUND:                -1.314
REMARK SMILES CCCCCC=CCC=CCCCCCCCC(=O)[O-]
REMARK SMILES IDX 11 1 12 2 13 3 14 4 15 5 16 6 17 7 18 8 19 9 20 10 10 11
REMARK SMILES IDX 9 12 8 13 7 14 6 15 5 16 4 17 3 18 2 19 1 20
REMARK H PARENT
REMARK Flexibility Score: inf
ROOT
ATOM      1  C   UNL     1       1.703  12.309  81.653  1.00  0.00     0.027 C 
ENDROOT
BRANCH   1   2
ATOM      2  C   UNL     1       1.025  10.948  81.462  1.00  0.00     0.004 C 
BRANCH   2   3
ATOM      3  C   UNL     1       1.388   9.987  82.603  1.00  0.00     0.000 C 
BRANCH   3   4
ATOM      4  C   UNL     1       2.026  10.720  83.803  1.00  0.00     0.000 C 
BRANCH   4   5
ATOM      5  C   UNL     1       2.481   9.777  84.930  1.00  0.00     0.000 C 
BRANCH   5   6
ATOM      6  C   UNL     1       2.389   8.295  84.542  1.00  0.00     0.006 C 
BRANCH   6   7
ATOM      7  C   UNL     1       2.713   7.394  85.738  1.00  0.00     0.053 C 
BRANCH   7   8
ATOM      8  C   UNL     1       1.845   6.175  85.725  1.00  0.00     0.041 C 
ATOM      9  O   UNL     1       2.306   5.066  86.105  1.00  0.00    -0.550 OA
ATOM     10  O   UNL     1       0.542   6.252  85.248  1.00  0.00    -0.550 OA
ENDBRANCH   7   8
ENDBRANCH   6   7
ENDBRANCH   5   6
ENDBRANCH   4   5
ENDBRANCH   3   4
ENDBRANCH   2   3
ENDBRANCH   1   2
BRANCH   1  11
ATOM     11  C   UNL     1       2.504  12.685  80.433  1.00  0.00    -0.031 C 
ATOM     12  C   UNL     1       3.843  12.585  80.338  1.00  0.00    -0.027 C 
BRANCH  12  13
ATOM     13  C   UNL     1       4.751  12.145  81.459  1.00  0.00     0.054 C 
BRANCH  13  14
ATOM     14  C   UNL     1       5.273  10.754  81.225  1.00  0.00    -0.027 C 
ATOM     15  C   UNL     1       5.111   9.781  82.133  1.00  0.00    -0.031 C 
BRANCH  15  16
ATOM     16  C   UNL     1       5.631   8.390  81.895  1.00  0.00     0.027 C 
BRANCH  16  17
ATOM     17  C   UNL     1       6.949   8.422  81.108  1.00  0.00     0.004 C 
BRANCH  17  18
ATOM     18  C   UNL     1       7.083   7.255  80.117  1.00  0.00     0.000 C 
BRANCH  18  19
ATOM     19  C   UNL     1       8.499   7.109  79.523  1.00  0.00    -0.003 C 
ATOM     20  C   UNL     1       9.301   8.407  79.603  1.00  0.00     0.004 C 
ENDBRANCH  18  19
ENDBRANCH  17  18
ENDBRANCH  16  17
ENDBRANCH  15  16
ENDBRANCH  13  14
ENDBRANCH  12  13
ENDBRANCH   1  11
TORSDOF 14
ENDMDL
MODEL 4
REMARK VINA RESULT:    -4.907      3.021      7.438
REMARK INTER + INTRA:         -10.237
REMARK INTER:                  -9.008
REMARK INTRA:                  -1.230
REMARK UNBOUND:                -1.314
REMARK SMILES CCCCCC=CCC=CCCCCCCCC(=O)[O-]
REMARK SMILES IDX 11 1 12 2 13 3 14 4 15 5 16 6 17 7 18 8 19 9 20 10 10 11
REMARK SMILES IDX 9 12 8 13 7 14 6 15 5 16 4 17 3 18 2 19 1 20
REMARK H PARENT
REMARK Flexibility Score: inf
ROOT
ATOM      1  C   UNL     1       3.958  10.376  82.301  1.00  0.00     0.027 C 
ENDROOT
BRANCH   1   2
ATOM      2  C   UNL     1       4.070   8.890  82.659  1.00  0.00     0.004 C 
BRANCH   2   3
ATOM      3  C   UNL     1       5.223   8.225  81.892  1.00  0.00     0.000 C 
BRANCH   3   4
ATOM      4  C   UNL     1       6.515   9.070  81.934  1.00  0.00     0.000 C 
BRANCH   4   5
ATOM      5  C   UNL     1       7.453   8.820  80.740  1.00  0.00     0.000 C 
BRANCH   5   6
ATOM      6  C   UNL     1       7.296   7.416  80.140  1.00  0.00     0.006 C 
BRANCH   6   7
ATOM      7  C   UNL     1       8.151   7.260  78.879  1.00  0.00     0.053 C 
BRANCH   7   8
ATOM      8  C   UNL     1       9.394   6.485  79.183  1.00  0.00     0.041 C 
ATOM      9  O   UNL     1      10.524   7.026  79.057  1.00  0.00    -0.550 OA
ATOM     10  O   UNL     1       9.309   5.150  79.558  1.00  0.00    -0.550 OA
ENDBRANCH   7   8
ENDBRANCH   6   7
ENDBRANCH   5   6
ENDBRANCH   4   5
ENDBRANCH   3   4
ENDBRANCH   2   3
ENDBRANCH   1   2
BRANCH   1  11
ATOM     11  C   UNL     1       2.526  10.840  82.383  1.00  0.00    -0.031 C 
ATOM     12  C   UNL     1       2.042  11.661  83.334  1.00  0.00    -0.027 C 
BRANCH  12  13
ATOM     13  C   UNL     1       2.843  12.187  84.499  1.00  0.00     0.054 C 
BRANCH  13  14
ATOM     14  C   UNL     1       3.255  11.075  85.424  1.00  0.00    -0.027 C 
ATOM     15  C   UNL     1       2.351  10.354  86.104  1.00  0.00    -0.031 C 
BRANCH  15  16
ATOM     16  C   UNL     1       2.767   9.240  87.025  1.00  0.00     0.027 C 
BRANCH  16  17
ATOM     17  C   UNL     1       1.948   7.969  86.756  1.00  0.00     0.004 C 
BRANCH  17  18
ATOM     18  C   UNL     1       2.102   7.451  85.317  1.00  0.00     0.000 C 
BRANCH  18  19
ATOM     19  C   UNL     1       3.028   6.223  85.199  1.00  0.00    -0.003 C 
ATOM     20  C   UNL     1       2.479   5.005  85.940  1.00  0.00     0.004 C 
ENDBRANCH  18  19
ENDBRANCH  17  18
ENDBRANCH  16  17
ENDBRANCH  15  16
ENDBRANCH  13  14
ENDBRANCH  12  13
ENDBRANCH   1  11
TORSDOF 14
ENDMDL
MODEL 5
REMARK VINA RESULT:    -4.825      3.163      7.451
REMARK INTER + INTRA:         -10.088
REMARK INTER:                  -8.797
REMARK INTRA:                  -1.291
REMARK UNBOUND:                -1.314
REMARK SMILES CCCCCC=CCC=CCCCCCCCC(=O)[O-]
REMARK SMILES IDX 11 1 12 2 13 3 14 4 15 5 16 6 17 7 18 8 19 9 20 10 10 11
REMARK SMILES IDX 9 12 8 13 7 14 6 15 5 16 4 17 3 18 2 19 1 20
REMARK H PARENT
REMARK Flexibility Score: inf
ROOT
ATOM      1  C   UNL     1       3.341  11.925  82.949  1.00  0.00     0.027 C 
ENDROOT
BRANCH   1   2
ATOM      2  C   UNL     1       4.543  11.044  83.309  1.00  0.00     0.004 C 
BRANCH   2   3
ATOM      3  C   UNL     1       4.498   9.714  82.544  1.00  0.00     0.000 C 
BRANCH   3   4
ATOM      4  C   UNL     1       5.836   9.397  81.843  1.00  0.00     0.000 C 
BRANCH   4   5
ATOM      5  C   UNL     1       5.892   7.988  81.227  1.00  0.00     0.000 C 
BRANCH   5   6
ATOM      6  C   UNL     1       7.188   7.727  80.448  1.00  0.00     0.006 C 
BRANCH   6   7
ATOM      7  C   UNL     1       7.204   6.310  79.868  1.00  0.00     0.053 C 
BRANCH   7   8
ATOM      8  C   UNL     1       8.609   5.869  79.601  1.00  0.00     0.041 C 
ATOM      9  O   UNL     1       9.010   4.749  80.016  1.00  0.00    -0.550 OA
ATOM     10  O   UNL     1       9.489   6.713  78.937  1.00  0.00    -0.550 OA
ENDBRANCH   7   8
ENDBRANCH   6   7
ENDBRANCH   5   6
ENDBRANCH   4   5
ENDBRANCH   3   4
ENDBRANCH   2   3
ENDBRANCH   1   2
BRANCH   1  11
ATOM     11  C   UNL     1       2.981  11.772  81.493  1.00  0.00    -0.031 C 
ATOM     12  C   UNL     1       1.735  11.554  81.034  1.00  0.00    -0.027 C 
BRANCH  12  13
ATOM     13  C   UNL     1       0.521  11.365  81.908  1.00  0.00     0.054 C 
BRANCH  13  14
ATOM     14  C   UNL     1       0.541  10.023  82.588  1.00  0.00    -0.027 C 
ATOM     15  C   UNL     1       0.644   9.911  83.920  1.00  0.00    -0.031 C 
BRANCH  15  16
ATOM     16  C   UNL     1       0.661   8.568  84.597  1.00  0.00     0.027 C 
BRANCH  16  17
ATOM     17  C   UNL     1       2.078   8.203  85.061  1.00  0.00     0.004 C 
BRANCH  17  18
ATOM     18  C   UNL     1       2.209   8.138  86.591  1.00  0.00     0.000 C 
BRANCH  18  19
ATOM     19  C   UNL     1       2.801   9.419  87.215  1.00  0.00    -0.003 C 
ATOM     20  C   UNL     1       2.454   9.560  88.696  1.00  0.00     0.004 C 
ENDBRANCH  18  19
ENDBRANCH  17  18
ENDBRANCH  16  17
ENDBRANCH  15  16
ENDBRANCH  13  14
ENDBRANCH  12  13
ENDBRANCH   1  11
TORSDOF 14
ENDMDL
MODEL 6
REMARK VINA RESULT:    -4.820      1.574      2.146
REMARK INTER + INTRA:         -10.079
REMARK INTER:                  -9.282
REMARK INTRA:                  -0.797
REMARK UNBOUND:                -1.314
REMARK SMILES CCCCCC=CCC=CCCCCCCCC(=O)[O-]
REMARK SMILES IDX 11 1 12 2 13 3 14 4 15 5 16 6 17 7 18 8 19 9 20 10 10 11
REMARK SMILES IDX 9 12 8 13 7 14 6 15 5 16 4 17 3 18 2 19 1 20
REMARK H PARENT
REMARK Flexibility Score: inf
ROOT
ATOM      1  C   UNL     1       2.503   7.918  84.916  1.00  0.00     0.027 C 
ENDROOT
BRANCH   1   2
ATOM      2  C   UNL     1       1.923   8.216  86.303  1.00  0.00     0.004 C 
BRANCH   2   3
ATOM      3  C   UNL     1       0.475   7.716  86.412  1.00  0.00     0.000 C 
BRANCH   3   4
ATOM      4  C   UNL     1       0.168   7.112  87.799  1.00  0.00     0.000 C 
BRANCH   4   5
ATOM      5  C   UNL     1      -0.421   5.693  87.736  1.00  0.00     0.000 C 
BRANCH   5   6
ATOM      6  C   UNL     1       0.547   4.621  88.257  1.00  0.00     0.006 C 
BRANCH   6   7
ATOM      7  C   UNL     1       1.557   4.222  87.177  1.00  0.00     0.053 C 
BRANCH   7   8
ATOM      8  C   UNL     1       2.434   3.112  87.665  1.00  0.00     0.041 C 
ATOM      9  O   UNL     1       3.581   2.948  87.170  1.00  0.00    -0.550 OA
ATOM     10  O   UNL     1       1.968   2.229  88.630  1.00  0.00    -0.550 OA
ENDBRANCH   7   8
ENDBRANCH   6   7
ENDBRANCH   5   6
ENDBRANCH   4   5
ENDBRANCH   3   4
ENDBRANCH   2   3
ENDBRANCH   1   2
BRANCH   1  11
ATOM     11  C   UNL     1       2.605   9.178  84.095  1.00  0.00    -0.031 C 
ATOM     12  C   UNL     1       3.429   9.340  83.043  1.00  0.00    -0.027 C 
BRANCH  12  13
ATOM     13  C   UNL     1       4.422   8.309  82.567  1.00  0.00     0.054 C 
BRANCH  13  14
ATOM     14  C   UNL     1       5.641   8.959  81.973  1.00  0.00    -0.027 C 
ATOM     15  C   UNL     1       6.470   8.288  81.159  1.00  0.00    -0.031 C 
BRANCH  15  16
ATOM     16  C   UNL     1       7.686   8.942  80.564  1.00  0.00     0.027 C 
BRANCH  16  17
ATOM     17  C   UNL     1       8.556   7.916  79.822  1.00  0.00     0.004 C 
BRANCH  17  18
ATOM     18  C   UNL     1       7.972   6.495  79.865  1.00  0.00     0.000 C 
BRANCH  18  19
ATOM     19  C   UNL     1       8.813   5.459  79.089  1.00  0.00    -0.003 C 
ATOM     20  C   UNL     1       9.594   4.530  80.017  1.00  0.00     0.004 C 
ENDBRANCH  18  19
ENDBRANCH  17  18
ENDBRANCH  16  17
ENDBRANCH  15  16
ENDBRANCH  13  14
ENDBRANCH  12  13
ENDBRANCH   1  11
TORSDOF 14
ENDMDL
MODEL 7
REMARK VINA RESULT:    -4.774      1.486      2.159
REMARK INTER + INTRA:          -9.996
REMARK INTER:                  -8.817
REMARK INTRA:                  -1.179
REMARK UNBOUND:                -1.314
REMARK SMILES CCCCCC=CCC=CCCCCCCCC(=O)[O-]
REMARK SMILES IDX 11 1 12 2 13 3 14 4 15 5 16 6 17 7 18 8 19 9 20 10 10 11
REMARK SMILES IDX 9 12 8 13 7 14 6 15 5 16 4 17 3 18 2 19 1 20
REMARK H PARENT
REMARK Flexibility Score: inf
ROOT
ATOM      1  C   UNL     1       2.748  10.677  85.938  1.00  0.00     0.027 C 
ENDROOT
BRANCH   1   2
ATOM      2  C   UNL     1       2.017   9.832  86.988  1.00  0.00     0.004 C 
BRANCH   2   3
ATOM      3  C   UNL     1       2.474   8.367  86.929  1.00  0.00     0.000 C 
BRANCH   3   4
ATOM      4  C   UNL     1       1.304   7.401  86.643  1.00  0.00     0.000 C 
BRANCH   4   5
ATOM      5  C   UNL     1       1.615   6.364  85.550  1.00  0.00     0.000 C 
BRANCH   5   6
ATOM      6  C   UNL     1       2.478   5.201  86.057  1.00  0.00     0.006 C 
BRANCH   6   7
ATOM      7  C   UNL     1       1.715   4.357  87.081  1.00  0.00     0.053 C 
BRANCH   7   8
ATOM      8  C   UNL     1       2.528   3.169  87.490  1.00  0.00     0.041 C 
ATOM      9  O   UNL     1       2.096   2.380  88.372  1.00  0.00    -0.550 OA
ATOM     10  O   UNL     1       3.783   2.959  86.934  1.00  0.00    -0.550 OA
ENDBRANCH   7   8
ENDBRANCH   6   7
ENDBRANCH   5   6
ENDBRANCH   4   5
ENDBRANCH   3   4
ENDBRANCH   2   3
ENDBRANCH   1   2
BRANCH   1  11
ATOM     11  C   UNL     1       1.935  10.783  84.674  1.00  0.00    -0.031 C 
ATOM     12  C   UNL     1       2.101  10.001  83.591  1.00  0.00    -0.027 C 
BRANCH  12  13
ATOM     13  C   UNL     1       3.171   8.946  83.452  1.00  0.00     0.054 C 
BRANCH  13  14
ATOM     14  C   UNL     1       4.150   9.300  82.367  1.00  0.00    -0.027 C 
ATOM     15  C   UNL     1       5.352   8.712  82.286  1.00  0.00    -0.031 C 
BRANCH  15  16
ATOM     16  C   UNL     1       6.327   9.066  81.197  1.00  0.00     0.027 C 
BRANCH  16  17
ATOM     17  C   UNL     1       7.100   7.825  80.725  1.00  0.00     0.004 C 
BRANCH  17  18
ATOM     18  C   UNL     1       7.617   7.955  79.283  1.00  0.00     0.000 C 
BRANCH  18  19
ATOM     19  C   UNL     1       9.153   7.858  79.167  1.00  0.00    -0.003 C 
ATOM     20  C   UNL     1       9.868   8.912  80.012  1.00  0.00     0.004 C 
ENDBRANCH  18  19
ENDBRANCH  17  18
ENDBRANCH  16  17
ENDBRANCH  15  16
ENDBRANCH  13  14
ENDBRANCH  12  13
ENDBRANCH   1  11
TORSDOF 14
ENDMDL
MODEL 8
REMARK VINA RESULT:    -4.678      2.227      3.600
REMARK INTER + INTRA:          -9.821
REMARK INTER:                  -8.459
REMARK INTRA:                  -1.362
REMARK UNBOUND:                -1.314
REMARK SMILES CCCCCC=CCC=CCCCCCCCC(=O)[O-]
REMARK SMILES IDX 11 1 12 2 13 3 14 4 15 5 16 6 17 7 18 8 19 9 20 10 10 11
REMARK SMILES IDX 9 12 8 13 7 14 6 15 5 16 4 17 3 18 2 19 1 20
REMARK H PARENT
REMARK Flexibility Score: inf
ROOT
ATOM      1  C   UNL     1       2.867  12.039  82.267  1.00  0.00     0.027 C 
ENDROOT
BRANCH   1   2
ATOM      2  C   UNL     1       1.594  12.464  81.526  1.00  0.00     0.004 C 
BRANCH   2   3
ATOM      3  C   UNL     1       0.422  11.533  81.869  1.00  0.00     0.000 C 
BRANCH   3   4
ATOM      4  C   UNL     1       0.891  10.099  82.193  1.00  0.00     0.000 C 
BRANCH   4   5
ATOM      5  C   UNL     1       0.405   9.586  83.560  1.00  0.00     0.000 C 
BRANCH   5   6
ATOM      6  C   UNL     1       1.558   9.259  84.519  1.00  0.00     0.006 C 
BRANCH   6   7
ATOM      7  C   UNL     1       1.879  10.455  85.420  1.00  0.00     0.053 C 
BRANCH   7   8
ATOM      8  C   UNL     1       2.394   9.988  86.746  1.00  0.00     0.041 C 
ATOM      9  O   UNL     1       2.286  10.725  87.761  1.00  0.00    -0.550 OA
ATOM     10  O   UNL     1       3.035   8.761  86.851  1.00  0.00    -0.550 OA
ENDBRANCH   7   8
ENDBRANCH   6   7
ENDBRANCH   5   6
ENDBRANCH   4   5
ENDBRANCH   3   4
ENDBRANCH   2   3
ENDBRANCH   1   2
BRANCH   1  11
ATOM     11  C   UNL     1       4.036  11.954  81.320  1.00  0.00    -0.031 C 
ATOM     12  C   UNL     1       4.999  11.016  81.376  1.00  0.00    -0.027 C 
BRANCH  12  13
ATOM     13  C   UNL     1       5.091   9.947  82.437  1.00  0.00     0.054 C 
BRANCH  13  14
ATOM     14  C   UNL     1       5.823   8.735  81.929  1.00  0.00    -0.027 C 
ATOM     15  C   UNL     1       6.567   8.780  80.813  1.00  0.00    -0.031 C 
BRANCH  15  16
ATOM     16  C   UNL     1       7.300   7.567  80.309  1.00  0.00     0.027 C 
BRANCH  16  17
ATOM     17  C   UNL     1       8.670   7.952  79.733  1.00  0.00     0.004 C 
BRANCH  17  18
ATOM     18  C   UNL     1       9.413   6.760  79.108  1.00  0.00     0.000 C 
BRANCH  18  19
ATOM     19  C   UNL     1       8.929   5.390  79.628  1.00  0.00    -0.003 C 
ATOM     20  C   UNL     1      10.074   4.393  79.795  1.00  0.00     0.004 C 
ENDBRANCH  18  19
ENDBRANCH  17  18
ENDBRANCH  16  17
ENDBRANCH  15  16
ENDBRANCH  13  14
ENDBRANCH  12  13
ENDBRANCH   1  11
TORSDOF 14
ENDMDL
MODEL 9
REMARK VINA RESULT:    -4.610      2.974      7.442
REMARK INTER + INTRA:          -9.697
REMARK INTER:                  -8.230
REMARK INTRA:                  -1.467
REMARK UNBOUND:                -1.314
REMARK SMILES CCCCCC=CCC=CCCCCCCCC(=O)[O-]
REMARK SMILES IDX 11 1 12 2 13 3 14 4 15 5 16 6 17 7 18 8 19 9 20 10 10 11
REMARK SMILES IDX 9 12 8 13 7 14 6 15 5 16 4 17 3 18 2 19 1 20
REMARK H PARENT
REMARK Flexibility Score: inf
ROOT
ATOM      1  C   UNL     1       3.851  11.682  81.113  1.00  0.00     0.027 C 
ENDROOT
BRANCH   1   2
ATOM      2  C   UNL     1       4.838  11.928  82.261  1.00  0.00     0.004 C 
BRANCH   2   3
ATOM      3  C   UNL     1       5.220  10.610  82.949  1.00  0.00     0.000 C 
BRANCH   3   4
ATOM      4  C   UNL     1       5.243   9.422  81.964  1.00  0.00     0.000 C 
BRANCH   4   5
ATOM      5  C   UNL     1       6.587   8.675  81.930  1.00  0.00     0.000 C 
BRANCH   5   6
ATOM      6  C   UNL     1       7.119   8.466  80.505  1.00  0.00     0.006 C 
BRANCH   6   7
ATOM      7  C   UNL     1       6.890   7.024  80.040  1.00  0.00     0.053 C 
BRANCH   7   8
ATOM      8  C   UNL     1       8.193   6.369  79.706  1.00  0.00     0.041 C 
ATOM      9  O   UNL     1       9.073   7.001  79.063  1.00  0.00    -0.550 OA
ATOM     10  O   UNL     1       8.418   5.045  80.061  1.00  0.00    -0.550 OA
ENDBRANCH   7   8
ENDBRANCH   6   7
ENDBRANCH   5   6
ENDBRANCH   4   5
ENDBRANCH   3   4
ENDBRANCH   2   3
ENDBRANCH   1   2
BRANCH   1  11
ATOM     11  C   UNL     1       2.511  12.302  81.417  1.00  0.00    -0.031 C 
ATOM     12  C   UNL     1       1.491  11.660  82.016  1.00  0.00    -0.027 C 
BRANCH  12  13
ATOM     13  C   UNL     1       1.510  10.205  82.413  1.00  0.00     0.054 C 
BRANCH  13  14
ATOM     14  C   UNL     1       1.777  10.044  83.884  1.00  0.00    -0.027 C 
ATOM     15  C   UNL     1       2.249   8.895  84.391  1.00  0.00    -0.031 C 
BRANCH  15  16
ATOM     16  C   UNL     1       2.518   8.738  85.862  1.00  0.00     0.027 C 
BRANCH  16  17
ATOM     17  C   UNL     1       2.051   7.364  86.364  1.00  0.00     0.004 C 
BRANCH  17  18
ATOM     18  C   UNL     1       0.980   7.461  87.463  1.00  0.00     0.000 C 
BRANCH  18  19
ATOM     19  C   UNL     1       0.291   6.116  87.774  1.00  0.00    -0.003 C 
ATOM     20  C   UNL     1       1.024   4.928  87.151  1.00  0.00     0.004 C 
ENDBRANCH  18  19
ENDBRANCH  17  18
ENDBRANCH  16  17
ENDBRANCH  15  16
ENDBRANCH  13  14
ENDBRANCH  12  13
ENDBRANCH   1  11
TORSDOF 14
ENDMDL
