MODEL 1
REMARK VINA RESULT:    30.230      0.000      0.000
REMARK INTER + INTRA:          36.377
REMARK INTER:                  36.416
REMARK INTRA:                  -0.039
REMARK UNBOUND:                -0.039
REMARK SMILES O=c1c(O)c(-c2ccc(O)c(O)c2)oc2cc(O)cc(O)c12
REMARK SMILES IDX 5 1 3 2 2 3 1 4 22 5 20 6 19 7 17 8 16 9 15 10 14 11 6 12
REMARK SMILES IDX 7 13 8 14 9 15 13 16 11 17 10 18 12 20 4 22 21 24 18 26
REMARK H PARENT 10 19 12 21 4 23 21 25 18 27
REMARK Flexibility Score: inf
ROOT
ATOM      1  C   UNL     1     -37.973  24.371   6.737  1.00  0.00     0.180 A 
ATOM      2  C   UNL     1     -38.335  23.802   7.970  1.00  0.00     0.208 A 
ATOM      3  C   UNL     1     -39.462  22.967   8.030  1.00  0.00     0.238 A 
ATOM      4  O   UNL     1     -39.750  22.417   9.125  1.00  0.00    -0.285 OA
ATOM      5  C   UNL     1     -40.221  22.724   6.860  1.00  0.00     0.111 A 
ATOM      6  C   UNL     1     -41.405  21.927   6.813  1.00  0.00     0.134 A 
ATOM      7  C   UNL     1     -42.001  21.649   5.577  1.00  0.00     0.093 A 
ATOM      8  C   UNL     1     -41.497  22.191   4.395  1.00  0.00     0.123 A 
ATOM      9  C   UNL     1     -40.375  23.019   4.437  1.00  0.00     0.094 A 
ATOM     10  C   UNL     1     -39.737  23.287   5.651  1.00  0.00     0.146 A 
ATOM     11  O   UNL     1     -38.667  24.072   5.645  1.00  0.00    -0.452 OA
ENDROOT
BRANCH   1  12
ATOM     12  C   UNL     1     -36.813  25.281   6.600  1.00  0.00     0.025 A 
ATOM     13  C   UNL     1     -35.879  25.060   5.576  1.00  0.00     0.016 A 
ATOM     14  C   UNL     1     -34.788  25.919   5.415  1.00  0.00     0.051 A 
ATOM     15  C   UNL     1     -34.623  27.019   6.266  1.00  0.00     0.157 A 
ATOM     16  C   UNL     1     -36.656  26.399   7.439  1.00  0.00     0.062 A 
ATOM     17  C   UNL     1     -35.565  27.262   7.280  1.00  0.00     0.158 A 
BRANCH  15  18
ATOM     18  O   UNL     1     -33.534  27.873   6.104  1.00  0.00    -0.504 OA
ATOM     19  H   UNL     1     -32.931  28.118   6.881  1.00  0.00     0.293 HD
ENDBRANCH  15  18
BRANCH  17  20
ATOM     20  O   UNL     1     -35.438  28.357   8.134  1.00  0.00    -0.504 OA
ATOM     21  H   UNL     1     -34.924  28.304   9.004  1.00  0.00     0.293 HD
ENDBRANCH  17  20
ENDBRANCH   1  12
BRANCH   2  22
ATOM     22  O   UNL     1     -37.558  24.037   9.109  1.00  0.00    -0.502 OA
ATOM     23  H   UNL     1     -37.545  24.932   9.582  1.00  0.00     0.293 HD
ENDBRANCH   2  22
BRANCH   6  24
ATOM     24  O   UNL     1     -42.046  21.412   7.944  1.00  0.00    -0.507 OA
ATOM     25  H   UNL     1     -42.769  21.889   8.462  1.00  0.00     0.293 HD
ENDBRANCH   6  24
BRANCH   8  26
ATOM     26  O   UNL     1     -42.125  21.905   3.185  1.00  0.00    -0.508 OA
ATOM     27  H   UNL     1     -43.133  21.833   3.115  1.00  0.00     0.293 HD
ENDBRANCH   8  26
TORSDOF 6
ENDMDL
MODEL 2
REMARK VINA RESULT:    30.892      2.250      3.661
REMARK INTER + INTRA:          37.174
REMARK INTER:                  37.037
REMARK INTRA:                   0.137
REMARK UNBOUND:                -0.039
REMARK SMILES O=c1c(O)c(-c2ccc(O)c(O)c2)oc2cc(O)cc(O)c12
REMARK SMILES IDX 5 1 3 2 2 3 1 4 22 5 20 6 19 7 17 8 16 9 15 10 14 11 6 12
REMARK SMILES IDX 7 13 8 14 9 15 13 16 11 17 10 18 12 20 4 22 21 24 18 26
REMARK H PARENT 10 19 12 21 4 23 21 25 18 27
REMARK Flexibility Score: inf
ROOT
ATOM      1  C   UNL     1     -36.585  24.576   7.004  1.00  0.00     0.180 A 
ATOM      2  C   UNL     1     -36.800  24.316   5.639  1.00  0.00     0.208 A 
ATOM      3  C   UNL     1     -38.074  23.909   5.215  1.00  0.00     0.238 A 
ATOM      4  O   UNL     1     -38.275  23.729   3.986  1.00  0.00    -0.285 OA
ATOM      5  C   UNL     1     -39.114  23.750   6.163  1.00  0.00     0.111 A 
ATOM      6  C   UNL     1     -40.433  23.302   5.851  1.00  0.00     0.134 A 
ATOM      7  C   UNL     1     -41.418  23.308   6.848  1.00  0.00     0.093 A 
ATOM      8  C   UNL     1     -41.116  23.681   8.156  1.00  0.00     0.123 A 
ATOM      9  C   UNL     1     -39.816  24.063   8.485  1.00  0.00     0.094 A 
ATOM     10  C   UNL     1     -38.820  24.102   7.506  1.00  0.00     0.146 A 
ATOM     11  O   UNL     1     -37.597  24.482   7.858  1.00  0.00    -0.452 OA
ENDROOT
BRANCH   1  12
ATOM     12  C   UNL     1     -35.264  24.986   7.529  1.00  0.00     0.025 A 
ATOM     13  C   UNL     1     -35.196  25.903   8.591  1.00  0.00     0.016 A 
ATOM     14  C   UNL     1     -33.959  26.287   9.116  1.00  0.00     0.051 A 
ATOM     15  C   UNL     1     -32.774  25.749   8.599  1.00  0.00     0.157 A 
ATOM     16  C   UNL     1     -34.072  24.432   7.027  1.00  0.00     0.062 A 
ATOM     17  C   UNL     1     -32.832  24.814   7.553  1.00  0.00     0.158 A 
BRANCH  15  18
ATOM     18  O   UNL     1     -31.542  26.136   9.125  1.00  0.00    -0.504 OA
ATOM     19  H   UNL     1     -30.846  26.605   8.557  1.00  0.00     0.293 HD
ENDBRANCH  15  18
BRANCH  17  20
ATOM     20  O   UNL     1     -31.671  24.249   7.027  1.00  0.00    -0.504 OA
ATOM     21  H   UNL     1     -30.761  24.400   7.445  1.00  0.00     0.293 HD
ENDBRANCH  17  20
ENDBRANCH   1  12
BRANCH   2  22
ATOM     22  O   UNL     1     -35.765  24.501   4.717  1.00  0.00    -0.502 OA
ATOM     23  H   UNL     1     -34.825  24.159   4.879  1.00  0.00     0.293 HD
ENDBRANCH   2  22
BRANCH   6  24
ATOM     24  O   UNL     1     -40.819  22.820   4.596  1.00  0.00    -0.507 OA
ATOM     25  H   UNL     1     -40.180  22.567   3.857  1.00  0.00     0.293 HD
ENDBRANCH   6  24
BRANCH   8  26
ATOM     26  O   UNL     1     -42.117  23.660   9.125  1.00  0.00    -0.508 OA
ATOM     27  H   UNL     1     -42.999  24.139   8.987  1.00  0.00     0.293 HD
ENDBRANCH   8  26
TORSDOF 6
ENDMDL
MODEL 3
REMARK VINA RESULT:    32.509      1.220      1.466
REMARK INTER + INTRA:          39.122
REMARK INTER:                  38.941
REMARK INTRA:                   0.181
REMARK UNBOUND:                -0.039
REMARK SMILES O=c1c(O)c(-c2ccc(O)c(O)c2)oc2cc(O)cc(O)c12
REMARK SMILES IDX 5 1 3 2 2 3 1 4 22 5 20 6 19 7 17 8 16 9 15 10 14 11 6 12
REMARK SMILES IDX 7 13 8 14 9 15 13 16 11 17 10 18 12 20 4 22 21 24 18 26
REMARK H PARENT 10 19 12 21 4 23 21 25 18 27
REMARK Flexibility Score: inf
ROOT
ATOM      1  C   UNL     1     -37.382  24.367   6.905  1.00  0.00     0.180 A 
ATOM      2  C   UNL     1     -37.705  23.628   8.056  1.00  0.00     0.208 A 
ATOM      3  C   UNL     1     -38.922  22.929   8.099  1.00  0.00     0.238 A 
ATOM      4  O   UNL     1     -39.181  22.227   9.111  1.00  0.00    -0.285 OA
ATOM      5  C   UNL     1     -39.808  22.992   6.997  1.00  0.00     0.111 A 
ATOM      6  C   UNL     1     -41.086  22.357   6.948  1.00  0.00     0.134 A 
ATOM      7  C   UNL     1     -41.822  22.379   5.757  1.00  0.00     0.093 A 
ATOM      8  C   UNL     1     -41.359  23.065   4.636  1.00  0.00     0.123 A 
ATOM      9  C   UNL     1     -40.138  23.739   4.691  1.00  0.00     0.094 A 
ATOM     10  C   UNL     1     -39.364  23.706   5.854  1.00  0.00     0.146 A 
ATOM     11  O   UNL     1     -38.204  24.352   5.862  1.00  0.00    -0.452 OA
ENDROOT
BRANCH   1  12
ATOM     12  C   UNL     1     -36.129  25.147   6.796  1.00  0.00     0.025 A 
ATOM     13  C   UNL     1     -36.157  26.419   6.203  1.00  0.00     0.016 A 
ATOM     14  C   UNL     1     -34.990  27.182   6.108  1.00  0.00     0.051 A 
ATOM     15  C   UNL     1     -33.781  26.692   6.620  1.00  0.00     0.157 A 
ATOM     16  C   UNL     1     -34.918  24.667   7.327  1.00  0.00     0.062 A 
ATOM     17  C   UNL     1     -33.748  25.430   7.237  1.00  0.00     0.158 A 
BRANCH  15  18
ATOM     18  O   UNL     1     -32.619  27.455   6.524  1.00  0.00    -0.504 OA
ATOM     19  H   UNL     1     -31.865  27.361   7.195  1.00  0.00     0.293 HD
ENDBRANCH  15  18
BRANCH  17  20
ATOM     20  O   UNL     1     -32.564  24.920   7.769  1.00  0.00    -0.504 OA
ATOM     21  H   UNL     1     -31.711  25.463   7.802  1.00  0.00     0.293 HD
ENDBRANCH  17  20
ENDBRANCH   1  12
BRANCH   2  22
ATOM     22  O   UNL     1     -36.805  23.561   9.125  1.00  0.00    -0.502 OA
ATOM     23  H   UNL     1     -37.052  23.851  10.063  1.00  0.00     0.293 HD
ENDBRANCH   2  22
BRANCH   6  24
ATOM     24  O   UNL     1     -41.685  21.722   8.040  1.00  0.00    -0.507 OA
ATOM     25  H   UNL     1     -42.541  22.023   8.482  1.00  0.00     0.293 HD
ENDBRANCH   6  24
BRANCH   8  26
ATOM     26  O   UNL     1     -42.125  23.077   3.472  1.00  0.00    -0.508 OA
ATOM     27  H   UNL     1     -41.742  23.396   2.590  1.00  0.00     0.293 HD
ENDBRANCH   8  26
TORSDOF 6
ENDMDL
