MODEL 1
REMARK VINA RESULT:    -4.213      0.000      0.000
REMARK INTER + INTRA:          -5.143
REMARK INTER:                  -5.075
REMARK INTRA:                  -0.068
REMARK UNBOUND:                -0.068
REMARK SMILES CC[C@@H](C)[C@H]([NH3+])C(=O)[O-]
REMARK SMILES IDX 3 1 4 2 5 3 6 4 7 8 8 9 9 10 2 11 1 12
REMARK H PARENT 6 5 6 6 6 7
REMARK Flexibility Score: inf
ROOT
ATOM      1  C   UNL     1       3.193  -2.011  15.260  1.00  0.00     0.050 C 
ATOM      2  C   UNL     1       2.868  -2.216  13.767  1.00  0.00     0.014 C 
ENDROOT
BRANCH   1   3
ATOM      3  C   UNL     1       2.390  -0.836  15.899  1.00  0.00     0.230 C 
BRANCH   3   4
ATOM      4  N   UNL     1       2.175  -1.010  17.345  1.00  0.00    -0.350 N 
ATOM      5  H   UNL     1       1.237  -1.444  17.508  1.00  0.00     0.345 HD
ATOM      6  H   UNL     1       2.904  -1.627  17.768  1.00  0.00     0.345 HD
ATOM      7  H   UNL     1       2.182  -0.083  17.827  1.00  0.00     0.345 HD
ENDBRANCH   3   4
BRANCH   3   8
ATOM      8  C   UNL     1       1.081  -0.618  15.178  1.00  0.00     0.099 C 
ATOM      9  O   UNL     1       0.914   0.379  14.426  1.00  0.00    -0.544 OA
ATOM     10  O   UNL     1       0.028  -1.502  15.382  1.00  0.00    -0.544 OA
ENDBRANCH   3   8
ENDBRANCH   1   3
BRANCH   1  11
ATOM     11  C   UNL     1       3.000  -3.324  16.061  1.00  0.00     0.006 C 
ATOM     12  C   UNL     1       2.140  -4.349  15.321  1.00  0.00     0.004 C 
ENDBRANCH   1  11
TORSDOF 4
ENDMDL
MODEL 2
REMARK VINA RESULT:    -4.097      6.844      8.148
REMARK INTER + INTRA:          -5.004
REMARK INTER:                  -4.900
REMARK INTRA:                  -0.104
REMARK UNBOUND:                -0.068
REMARK SMILES CC[C@@H](C)[C@H]([NH3+])C(=O)[O-]
REMARK SMILES IDX 3 1 4 2 5 3 6 4 7 8 8 9 9 10 2 11 1 12
REMARK H PARENT 6 5 6 6 6 7
REMARK Flexibility Score: inf
ROOT
ATOM      1  C   UNL     1       1.007   5.450  11.143  1.00  0.00     0.050 C 
ATOM      2  C   UNL     1       0.781   6.138   9.782  1.00  0.00     0.014 C 
ENDROOT
BRANCH   1   3
ATOM      3  C   UNL     1       1.187   3.905  11.018  1.00  0.00     0.230 C 
BRANCH   3   4
ATOM      4  N   UNL     1       1.308   3.455   9.622  1.00  0.00    -0.350 N 
ATOM      5  H   UNL     1       0.354   3.304   9.221  1.00  0.00     0.345 HD
ATOM      6  H   UNL     1       1.807   4.161   9.034  1.00  0.00     0.345 HD
ATOM      7  H   UNL     1       1.817   2.544   9.576  1.00  0.00     0.345 HD
ENDBRANCH   3   4
BRANCH   3   8
ATOM      8  C   UNL     1       0.079   3.168  11.732  1.00  0.00     0.099 C 
ATOM      9  O   UNL     1      -0.261   2.008  11.378  1.00  0.00    -0.544 OA
ATOM     10  O   UNL     1      -0.608   3.795  12.765  1.00  0.00    -0.544 OA
ENDBRANCH   3   8
ENDBRANCH   1   3
BRANCH   1  11
ATOM     11  C   UNL     1       2.192   6.093  11.906  1.00  0.00     0.006 C 
ATOM     12  C   UNL     1       3.552   5.725  11.310  1.00  0.00     0.004 C 
ENDBRANCH   1  11
TORSDOF 4
ENDMDL
MODEL 3
REMARK VINA RESULT:    -4.039      8.356      9.573
REMARK INTER + INTRA:          -4.933
REMARK INTER:                  -4.856
REMARK INTRA:                  -0.077
REMARK UNBOUND:                -0.068
REMARK SMILES CC[C@@H](C)[C@H]([NH3+])C(=O)[O-]
REMARK SMILES IDX 3 1 4 2 5 3 6 4 7 8 8 9 9 10 2 11 1 12
REMARK H PARENT 6 5 6 6 6 7
REMARK Flexibility Score: inf
ROOT
ATOM      1  C   UNL     1       3.171   6.055  10.786  1.00  0.00     0.050 C 
ATOM      2  C   UNL     1       2.366   6.114  12.100  1.00  0.00     0.014 C 
ENDROOT
BRANCH   1   3
ATOM      3  C   UNL     1       2.841   4.793   9.930  1.00  0.00     0.230 C 
BRANCH   3   4
ATOM      4  N   UNL     1       3.189   4.958   8.510  1.00  0.00    -0.350 N 
ATOM      5  H   UNL     1       2.430   4.551   7.916  1.00  0.00     0.345 HD
ATOM      6  H   UNL     1       3.303   5.966   8.258  1.00  0.00     0.345 HD
ATOM      7  H   UNL     1       4.072   4.444   8.289  1.00  0.00     0.345 HD
ENDBRANCH   3   4
BRANCH   3   8
ATOM      8  C   UNL     1       1.394   4.390  10.091  1.00  0.00     0.099 C 
ATOM      9  O   UNL     1       1.074   3.394  10.792  1.00  0.00    -0.544 OA
ATOM     10  O   UNL     1       0.405   5.099   9.420  1.00  0.00    -0.544 OA
ENDBRANCH   3   8
ENDBRANCH   1   3
BRANCH   1  11
ATOM     11  C   UNL     1       2.992   7.355   9.961  1.00  0.00     0.006 C 
ATOM     12  C   UNL     1       1.785   8.180  10.408  1.00  0.00     0.004 C 
ENDBRANCH   1  11
TORSDOF 4
ENDMDL
MODEL 4
REMARK VINA RESULT:    -4.020      1.210      2.216
REMARK INTER + INTRA:          -4.911
REMARK INTER:                  -4.789
REMARK INTRA:                  -0.122
REMARK UNBOUND:                -0.068
REMARK SMILES CC[C@@H](C)[C@H]([NH3+])C(=O)[O-]
REMARK SMILES IDX 3 1 4 2 5 3 6 4 7 8 8 9 9 10 2 11 1 12
REMARK H PARENT 6 5 6 6 6 7
REMARK Flexibility Score: inf
ROOT
ATOM      1  C   UNL     1       2.023  -2.810  15.427  1.00  0.00     0.050 C 
ATOM      2  C   UNL     1       2.825  -3.796  16.300  1.00  0.00     0.014 C 
ENDROOT
BRANCH   1   3
ATOM      3  C   UNL     1       1.724  -1.463  16.155  1.00  0.00     0.230 C 
BRANCH   3   4
ATOM      4  N   UNL     1       2.356  -1.377  17.482  1.00  0.00    -0.350 N 
ATOM      5  H   UNL     1       2.949  -0.517  17.530  1.00  0.00     0.345 HD
ATOM      6  H   UNL     1       1.642  -1.330  18.244  1.00  0.00     0.345 HD
ATOM      7  H   UNL     1       2.980  -2.200  17.642  1.00  0.00     0.345 HD
ENDBRANCH   3   4
BRANCH   3   8
ATOM      8  C   UNL     1       0.238  -1.210  16.245  1.00  0.00     0.099 C 
ATOM      9  O   UNL     1      -0.315  -0.981  17.353  1.00  0.00    -0.544 OA
ATOM     10  O   UNL     1      -0.540  -1.277  15.095  1.00  0.00    -0.544 OA
ENDBRANCH   3   8
ENDBRANCH   1   3
BRANCH   1  11
ATOM     11  C   UNL     1       2.724  -2.568  14.066  1.00  0.00     0.006 C 
ATOM     12  C   UNL     1       3.590  -1.308  14.060  1.00  0.00     0.004 C 
ENDBRANCH   1  11
TORSDOF 4
ENDMDL
MODEL 5
REMARK VINA RESULT:    -3.975      1.690      1.763
REMARK INTER + INTRA:          -4.856
REMARK INTER:                  -4.739
REMARK INTRA:                  -0.117
REMARK UNBOUND:                -0.068
REMARK SMILES CC[C@@H](C)[C@H]([NH3+])C(=O)[O-]
REMARK SMILES IDX 3 1 4 2 5 3 6 4 7 8 8 9 9 10 2 11 1 12
REMARK H PARENT 6 5 6 6 6 7
REMARK Flexibility Score: inf
ROOT
ATOM      1  C   UNL     1       2.531  -1.692  15.352  1.00  0.00     0.050 C 
ATOM      2  C   UNL     1       3.444  -1.432  14.137  1.00  0.00     0.014 C 
ENDROOT
BRANCH   1   3
ATOM      3  C   UNL     1       1.014  -1.603  14.999  1.00  0.00     0.230 C 
BRANCH   3   4
ATOM      4  N   UNL     1       0.774  -1.268  13.586  1.00  0.00    -0.350 N 
ATOM      5  H   UNL     1       1.543  -0.648  13.240  1.00  0.00     0.345 HD
ATOM      6  H   UNL     1       0.746  -2.125  12.989  1.00  0.00     0.345 HD
ATOM      7  H   UNL     1      -0.123  -0.743  13.483  1.00  0.00     0.345 HD
ENDBRANCH   3   4
BRANCH   3   8
ATOM      8  C   UNL     1       0.298  -0.639  15.915  1.00  0.00     0.099 C 
ATOM      9  O   UNL     1       0.020   0.529  15.536  1.00  0.00    -0.544 OA
ATOM     10  O   UNL     1      -0.019  -1.030  17.211  1.00  0.00    -0.544 OA
ENDBRANCH   3   8
ENDBRANCH   1   3
BRANCH   1  11
ATOM     11  C   UNL     1       2.872  -3.043  16.030  1.00  0.00     0.006 C 
ATOM     12  C   UNL     1       2.255  -4.242  15.307  1.00  0.00     0.004 C 
ENDBRANCH   1  11
TORSDOF 4
ENDMDL
MODEL 6
REMARK VINA RESULT:    -3.944      2.554      3.436
REMARK INTER + INTRA:          -4.818
REMARK INTER:                  -4.720
REMARK INTRA:                  -0.098
REMARK UNBOUND:                -0.068
REMARK SMILES CC[C@@H](C)[C@H]([NH3+])C(=O)[O-]
REMARK SMILES IDX 3 1 4 2 5 3 6 4 7 8 8 9 9 10 2 11 1 12
REMARK H PARENT 6 5 6 6 6 7
REMARK Flexibility Score: inf
ROOT
ATOM      1  C   UNL     1       0.706   0.006  15.193  1.00  0.00     0.050 C 
ATOM      2  C   UNL     1       0.340   0.514  13.784  1.00  0.00     0.014 C 
ENDROOT
BRANCH   1   3
ATOM      3  C   UNL     1      -0.371  -0.952  15.789  1.00  0.00     0.230 C 
BRANCH   3   4
ATOM      4  N   UNL     1      -1.387  -1.355  14.803  1.00  0.00    -0.350 N 
ATOM      5  H   UNL     1      -2.032  -2.056  15.235  1.00  0.00     0.345 HD
ATOM      6  H   UNL     1      -1.953  -0.538  14.480  1.00  0.00     0.345 HD
ATOM      7  H   UNL     1      -0.933  -1.810  13.979  1.00  0.00     0.345 HD
ENDBRANCH   3   4
BRANCH   3   8
ATOM      8  C   UNL     1      -1.016  -0.350  17.016  1.00  0.00     0.099 C 
ATOM      9  O   UNL     1      -1.340  -1.071  17.996  1.00  0.00    -0.544 OA
ATOM     10  O   UNL     1      -1.297   1.010  17.046  1.00  0.00    -0.544 OA
ENDBRANCH   3   8
ENDBRANCH   1   3
BRANCH   1  11
ATOM     11  C   UNL     1       2.109  -0.651  15.205  1.00  0.00     0.006 C 
ATOM     12  C   UNL     1       2.245  -1.778  14.180  1.00  0.00     0.004 C 
ENDBRANCH   1  11
TORSDOF 4
ENDMDL
MODEL 7
REMARK VINA RESULT:    -3.894      2.064      2.755
REMARK INTER + INTRA:          -4.759
REMARK INTER:                  -4.676
REMARK INTRA:                  -0.083
REMARK UNBOUND:                -0.068
REMARK SMILES CC[C@@H](C)[C@H]([NH3+])C(=O)[O-]
REMARK SMILES IDX 3 1 4 2 5 3 6 4 7 8 8 9 9 10 2 11 1 12
REMARK H PARENT 6 5 6 6 6 7
REMARK Flexibility Score: inf
ROOT
ATOM      1  C   UNL     1       1.200  -1.344  14.425  1.00  0.00     0.050 C 
ATOM      2  C   UNL     1       0.812  -2.194  15.652  1.00  0.00     0.014 C 
ENDROOT
BRANCH   1   3
ATOM      3  C   UNL     1       0.803   0.156  14.578  1.00  0.00     0.230 C 
BRANCH   3   4
ATOM      4  N   UNL     1       0.138   0.444  15.859  1.00  0.00    -0.350 N 
ATOM      5  H   UNL     1      -0.899   0.381  15.735  1.00  0.00     0.345 HD
ATOM      6  H   UNL     1       0.424  -0.235  16.600  1.00  0.00     0.345 HD
ATOM      7  H   UNL     1       0.358   1.415  16.174  1.00  0.00     0.345 HD
ENDBRANCH   3   4
BRANCH   3   8
ATOM      8  C   UNL     1      -0.040   0.618  13.413  1.00  0.00     0.099 C 
ATOM      9  O   UNL     1      -0.345  -0.173  12.481  1.00  0.00    -0.544 OA
ATOM     10  O   UNL     1      -0.446   1.945  13.343  1.00  0.00    -0.544 OA
ENDBRANCH   3   8
ENDBRANCH   1   3
BRANCH   1  11
ATOM     11  C   UNL     1       2.707  -1.495  14.094  1.00  0.00     0.006 C 
ATOM     12  C   UNL     1       3.495  -2.177  15.214  1.00  0.00     0.004 C 
ENDBRANCH   1  11
TORSDOF 4
ENDMDL
MODEL 8
REMARK VINA RESULT:    -3.847      7.731      8.460
REMARK INTER + INTRA:          -4.701
REMARK INTER:                  -4.633
REMARK INTRA:                  -0.068
REMARK UNBOUND:                -0.068
REMARK SMILES CC[C@@H](C)[C@H]([NH3+])C(=O)[O-]
REMARK SMILES IDX 3 1 4 2 5 3 6 4 7 8 8 9 9 10 2 11 1 12
REMARK H PARENT 6 5 6 6 6 7
REMARK Flexibility Score: inf
ROOT
ATOM      1  C   UNL     1       1.220   4.009  10.851  1.00  0.00     0.050 C 
ATOM      2  C   UNL     1       0.492   3.104   9.836  1.00  0.00     0.014 C 
ENDROOT
BRANCH   1   3
ATOM      3  C   UNL     1       2.064   5.128  10.167  1.00  0.00     0.230 C 
BRANCH   3   4
ATOM      4  N   UNL     1       2.994   4.605   9.153  1.00  0.00    -0.350 N 
ATOM      5  H   UNL     1       3.930   5.056   9.275  1.00  0.00     0.345 HD
ATOM      6  H   UNL     1       3.110   3.570   9.240  1.00  0.00     0.345 HD
ATOM      7  H   UNL     1       2.654   4.837   8.193  1.00  0.00     0.345 HD
ENDBRANCH   3   4
BRANCH   3   8
ATOM      8  C   UNL     1       2.792   5.964  11.193  1.00  0.00     0.099 C 
ATOM      9  O   UNL     1       3.755   5.488  11.851  1.00  0.00    -0.544 OA
ATOM     10  O   UNL     1       2.367   7.262  11.449  1.00  0.00    -0.544 OA
ENDBRANCH   3   8
ENDBRANCH   1   3
BRANCH   1  11
ATOM     11  C   UNL     1       0.228   4.604  11.882  1.00  0.00     0.006 C 
ATOM     12  C   UNL     1      -0.709   3.553  12.480  1.00  0.00     0.004 C 
ENDBRANCH   1  11
TORSDOF 4
ENDMDL
MODEL 9
REMARK VINA RESULT:    -3.790      8.321      9.143
REMARK INTER + INTRA:          -4.634
REMARK INTER:                  -4.544
REMARK INTRA:                  -0.090
REMARK UNBOUND:                -0.068
REMARK SMILES CC[C@@H](C)[C@H]([NH3+])C(=O)[O-]
REMARK SMILES IDX 3 1 4 2 5 3 6 4 7 8 8 9 9 10 2 11 1 12
REMARK H PARENT 6 5 6 6 6 7
REMARK Flexibility Score: inf
ROOT
ATOM      1  C   UNL     1       1.322   4.218  10.254  1.00  0.00     0.050 C 
ATOM      2  C   UNL     1       0.511   4.588  11.512  1.00  0.00     0.014 C 
ENDROOT
BRANCH   1   3
ATOM      3  C   UNL     1       0.699   4.791   8.943  1.00  0.00     0.230 C 
BRANCH   3   4
ATOM      4  N   UNL     1      -0.289   5.852   9.196  1.00  0.00    -0.350 N 
ATOM      5  H   UNL     1      -0.729   6.140   8.291  1.00  0.00     0.345 HD
ATOM      6  H   UNL     1      -1.044   5.526   9.842  1.00  0.00     0.345 HD
ATOM      7  H   UNL     1       0.176   6.694   9.602  1.00  0.00     0.345 HD
ENDBRANCH   3   4
BRANCH   3   8
ATOM      8  C   UNL     1       0.109   3.690   8.095  1.00  0.00     0.099 C 
ATOM      9  O   UNL     1      -0.296   2.617   8.615  1.00  0.00    -0.544 OA
ATOM     10  O   UNL     1       0.053   3.842   6.714  1.00  0.00    -0.544 OA
ENDBRANCH   3   8
ENDBRANCH   1   3
BRANCH   1  11
ATOM     11  C   UNL     1       2.806   4.638  10.401  1.00  0.00     0.006 C 
ATOM     12  C   UNL     1       3.019   5.700  11.481  1.00  0.00     0.004 C 
ENDBRANCH   1  11
TORSDOF 4
ENDMDL
