MODEL 1
REMARK VINA RESULT:    -5.497      0.000      0.000
REMARK INTER + INTRA:          -6.612
REMARK INTER:                  -6.461
REMARK INTRA:                  -0.151
REMARK UNBOUND:                -0.151
REMARK SMILES O=c1c(O)c(-c2ccc(O)cc2)oc2cc(O)cc(O)c12
REMARK SMILES IDX 5 1 3 2 2 3 1 4 21 5 19 6 18 7 16 8 15 9 14 10 13 11 6 12
REMARK SMILES IDX 7 13 8 14 9 15 12 16 11 17 10 18 4 20 20 22 17 24
REMARK H PARENT 10 19 4 21 20 23 17 25
REMARK Flexibility Score: inf
ROOT
ATOM      1  C   UNL     1      12.686 -15.422  19.064  1.00  0.00     0.180 A 
ATOM      2  C   UNL     1      12.752 -16.553  18.231  1.00  0.00     0.208 A 
ATOM      3  C   UNL     1      12.596 -16.388  16.846  1.00  0.00     0.238 A 
ATOM      4  O   UNL     1      12.709 -17.395  16.100  1.00  0.00    -0.285 OA
ATOM      5  C   UNL     1      12.361 -15.098  16.312  1.00  0.00     0.111 A 
ATOM      6  C   UNL     1      12.149 -14.819  14.928  1.00  0.00     0.134 A 
ATOM      7  C   UNL     1      12.055 -13.491  14.497  1.00  0.00     0.093 A 
ATOM      8  C   UNL     1      12.102 -12.434  15.406  1.00  0.00     0.123 A 
ATOM      9  C   UNL     1      12.250 -12.697  16.769  1.00  0.00     0.094 A 
ATOM     10  C   UNL     1      12.381 -14.011  17.225  1.00  0.00     0.146 A 
ATOM     11  O   UNL     1      12.531 -14.218  18.527  1.00  0.00    -0.452 OA
ENDROOT
BRANCH   1  12
ATOM     12  C   UNL     1      12.816 -15.519  20.536  1.00  0.00     0.021 A 
ATOM     13  C   UNL     1      13.867 -14.848  21.184  1.00  0.00     0.016 A 
ATOM     14  C   UNL     1      13.995 -14.907  22.575  1.00  0.00     0.047 A 
ATOM     15  C   UNL     1      13.068 -15.625  23.337  1.00  0.00     0.115 A 
ATOM     16  C   UNL     1      11.875 -16.223  21.311  1.00  0.00     0.016 A 
ATOM     17  C   UNL     1      12.005 -16.280  22.701  1.00  0.00     0.047 A 
BRANCH  15  18
ATOM     18  O   UNL     1      13.208 -15.677  24.722  1.00  0.00    -0.508 OA
ATOM     19  H   UNL     1      12.891 -14.919  25.315  1.00  0.00     0.293 HD
ENDBRANCH  15  18
ENDBRANCH   1  12
BRANCH   2  20
ATOM     20  O   UNL     1      13.007 -17.814  18.777  1.00  0.00    -0.502 OA
ATOM     21  H   UNL     1      12.452 -18.630  18.545  1.00  0.00     0.293 HD
ENDBRANCH   2  20
BRANCH   6  22
ATOM     22  O   UNL     1      11.995 -15.805  13.949  1.00  0.00    -0.507 OA
ATOM     23  H   UNL     1      12.743 -16.174  13.382  1.00  0.00     0.293 HD
ENDBRANCH   6  22
BRANCH   8  24
ATOM     24  O   UNL     1      11.991 -11.125  14.943  1.00  0.00    -0.508 OA
ATOM     25  H   UNL     1      12.668 -10.730  14.300  1.00  0.00     0.293 HD
ENDBRANCH   8  24
TORSDOF 5
ENDMDL
MODEL 2
REMARK VINA RESULT:    -5.485     12.147     14.965
REMARK INTER + INTRA:          -6.598
REMARK INTER:                  -6.698
REMARK INTRA:                   0.100
REMARK UNBOUND:                -0.151
REMARK SMILES O=c1c(O)c(-c2ccc(O)cc2)oc2cc(O)cc(O)c12
REMARK SMILES IDX 5 1 3 2 2 3 1 4 21 5 19 6 18 7 16 8 15 9 14 10 13 11 6 12
REMARK SMILES IDX 7 13 8 14 9 15 12 16 11 17 10 18 4 20 20 22 17 24
REMARK H PARENT 10 19 4 21 20 23 17 25
REMARK Flexibility Score: inf
ROOT
ATOM      1  C   UNL     1      16.395  -6.060   8.554  1.00  0.00     0.180 A 
ATOM      2  C   UNL     1      17.108  -5.086   9.277  1.00  0.00     0.208 A 
ATOM      3  C   UNL     1      16.653  -3.758   9.262  1.00  0.00     0.238 A 
ATOM      4  O   UNL     1      17.263  -2.902   9.953  1.00  0.00    -0.285 OA
ATOM      5  C   UNL     1      15.501  -3.417   8.512  1.00  0.00     0.111 A 
ATOM      6  C   UNL     1      14.973  -2.096   8.394  1.00  0.00     0.134 A 
ATOM      7  C   UNL     1      13.756  -1.895   7.733  1.00  0.00     0.093 A 
ATOM      8  C   UNL     1      13.078  -2.956   7.133  1.00  0.00     0.123 A 
ATOM      9  C   UNL     1      13.615  -4.243   7.191  1.00  0.00     0.094 A 
ATOM     10  C   UNL     1      14.811  -4.480   7.874  1.00  0.00     0.146 A 
ATOM     11  O   UNL     1      15.282  -5.721   7.916  1.00  0.00    -0.452 OA
ENDROOT
BRANCH   1  12
ATOM     12  C   UNL     1      16.827  -7.475   8.502  1.00  0.00     0.021 A 
ATOM     13  C   UNL     1      17.144  -8.148   9.694  1.00  0.00     0.016 A 
ATOM     14  C   UNL     1      17.532  -9.490   9.669  1.00  0.00     0.047 A 
ATOM     15  C   UNL     1      17.594 -10.182   8.457  1.00  0.00     0.115 A 
ATOM     16  C   UNL     1      16.872  -8.183   7.286  1.00  0.00     0.016 A 
ATOM     17  C   UNL     1      17.260  -9.526   7.264  1.00  0.00     0.047 A 
BRANCH  15  18
ATOM     18  O   UNL     1      17.983 -11.520   8.446  1.00  0.00    -0.508 OA
ATOM     19  H   UNL     1      18.686 -11.873   9.085  1.00  0.00     0.293 HD
ENDBRANCH  15  18
ENDBRANCH   1  12
BRANCH   2  20
ATOM     20  O   UNL     1      18.229  -5.449  10.027  1.00  0.00    -0.502 OA
ATOM     21  H   UNL     1      18.347  -5.177  10.996  1.00  0.00     0.293 HD
ENDBRANCH   2  20
BRANCH   6  22
ATOM     22  O   UNL     1      15.617  -0.953   8.878  1.00  0.00    -0.507 OA
ATOM     23  H   UNL     1      15.350  -0.453   9.712  1.00  0.00     0.293 HD
ENDBRANCH   6  22
BRANCH   8  24
ATOM     24  O   UNL     1      11.877  -2.717   6.471  1.00  0.00    -0.508 OA
ATOM     25  H   UNL     1      11.019  -3.183   6.744  1.00  0.00     0.293 HD
ENDBRANCH   8  24
TORSDOF 5
ENDMDL
MODEL 3
REMARK VINA RESULT:    -5.480     12.237     14.965
REMARK INTER + INTRA:          -6.592
REMARK INTER:                  -6.298
REMARK INTRA:                  -0.294
REMARK UNBOUND:                -0.151
REMARK SMILES O=c1c(O)c(-c2ccc(O)cc2)oc2cc(O)cc(O)c12
REMARK SMILES IDX 5 1 3 2 2 3 1 4 21 5 19 6 18 7 16 8 15 9 14 10 13 11 6 12
REMARK SMILES IDX 7 13 8 14 9 15 12 16 11 17 10 18 4 20 20 22 17 24
REMARK H PARENT 10 19 4 21 20 23 17 25
REMARK Flexibility Score: inf
ROOT
ATOM      1  C   UNL     1      16.556  -5.912   8.319  1.00  0.00     0.180 A 
ATOM      2  C   UNL     1      17.509  -6.371   9.245  1.00  0.00     0.208 A 
ATOM      3  C   UNL     1      17.729  -7.752   9.368  1.00  0.00     0.238 A 
ATOM      4  O   UNL     1      18.621  -8.154  10.159  1.00  0.00    -0.285 OA
ATOM      5  C   UNL     1      16.983  -8.657   8.576  1.00  0.00     0.111 A 
ATOM      6  C   UNL     1      17.095 -10.079   8.646  1.00  0.00     0.134 A 
ATOM      7  C   UNL     1      16.402 -10.873   7.724  1.00  0.00     0.093 A 
ATOM      8  C   UNL     1      15.553 -10.302   6.777  1.00  0.00     0.123 A 
ATOM      9  C   UNL     1      15.390  -8.917   6.737  1.00  0.00     0.094 A 
ATOM     10  C   UNL     1      16.095  -8.096   7.621  1.00  0.00     0.146 A 
ATOM     11  O   UNL     1      15.920  -6.783   7.544  1.00  0.00    -0.452 OA
ENDROOT
BRANCH   1  12
ATOM     12  C   UNL     1      16.250  -4.473   8.149  1.00  0.00     0.021 A 
ATOM     13  C   UNL     1      16.962  -3.721   7.199  1.00  0.00     0.016 A 
ATOM     14  C   UNL     1      16.674  -2.367   7.007  1.00  0.00     0.047 A 
ATOM     15  C   UNL     1      15.664  -1.750   7.750  1.00  0.00     0.115 A 
ATOM     16  C   UNL     1      15.221  -3.851   8.880  1.00  0.00     0.016 A 
ATOM     17  C   UNL     1      14.934  -2.497   8.685  1.00  0.00     0.047 A 
BRANCH  15  18
ATOM     18  O   UNL     1      15.388  -0.400   7.550  1.00  0.00    -0.508 OA
ATOM     19  H   UNL     1      14.473  -0.011   7.747  1.00  0.00     0.293 HD
ENDBRANCH  15  18
ENDBRANCH   1  12
BRANCH   2  20
ATOM     20  O   UNL     1      18.250  -5.459  10.001  1.00  0.00    -0.502 OA
ATOM     21  H   UNL     1      18.140  -5.367  11.004  1.00  0.00     0.293 HD
ENDBRANCH   2  20
BRANCH   6  22
ATOM     22  O   UNL     1      17.844 -10.755   9.613  1.00  0.00    -0.507 OA
ATOM     23  H   UNL     1      17.814 -11.751   9.772  1.00  0.00     0.293 HD
ENDBRANCH   6  22
BRANCH   8  24
ATOM     24  O   UNL     1      14.868 -11.124   5.885  1.00  0.00    -0.508 OA
ATOM     25  H   UNL     1      14.722 -12.109   6.076  1.00  0.00     0.293 HD
ENDBRANCH   8  24
TORSDOF 5
ENDMDL
MODEL 4
REMARK VINA RESULT:    -5.460      1.682      3.313
REMARK INTER + INTRA:          -6.568
REMARK INTER:                  -6.316
REMARK INTRA:                  -0.252
REMARK UNBOUND:                -0.151
REMARK SMILES O=c1c(O)c(-c2ccc(O)cc2)oc2cc(O)cc(O)c12
REMARK SMILES IDX 5 1 3 2 2 3 1 4 21 5 19 6 18 7 16 8 15 9 14 10 13 11 6 12
REMARK SMILES IDX 7 13 8 14 9 15 12 16 11 17 10 18 4 20 20 22 17 24
REMARK H PARENT 10 19 4 21 20 23 17 25
REMARK Flexibility Score: inf
ROOT
ATOM      1  C   UNL     1      12.822 -15.634  20.198  1.00  0.00     0.180 A 
ATOM      2  C   UNL     1      12.357 -14.473  19.555  1.00  0.00     0.208 A 
ATOM      3  C   UNL     1      12.349 -14.429  18.152  1.00  0.00     0.238 A 
ATOM      4  O   UNL     1      11.882 -13.409  17.582  1.00  0.00    -0.285 OA
ATOM      5  C   UNL     1      12.822 -15.538  17.410  1.00  0.00     0.111 A 
ATOM      6  C   UNL     1      12.896 -15.587  15.985  1.00  0.00     0.134 A 
ATOM      7  C   UNL     1      13.258 -16.783  15.353  1.00  0.00     0.093 A 
ATOM      8  C   UNL     1      13.607 -17.912  16.093  1.00  0.00     0.123 A 
ATOM      9  C   UNL     1      13.595 -17.857  17.488  1.00  0.00     0.094 A 
ATOM     10  C   UNL     1      13.205 -16.689  18.146  1.00  0.00     0.146 A 
ATOM     11  O   UNL     1      13.196 -16.682  19.474  1.00  0.00    -0.452 OA
ENDROOT
BRANCH   1  12
ATOM     12  C   UNL     1      12.884 -15.747  21.673  1.00  0.00     0.021 A 
ATOM     13  C   UNL     1      13.927 -15.116  22.373  1.00  0.00     0.016 A 
ATOM     14  C   UNL     1      13.992 -15.191  23.768  1.00  0.00     0.047 A 
ATOM     15  C   UNL     1      13.010 -15.884  24.481  1.00  0.00     0.115 A 
ATOM     16  C   UNL     1      11.888 -16.426  22.400  1.00  0.00     0.016 A 
ATOM     17  C   UNL     1      11.955 -16.499  23.794  1.00  0.00     0.047 A 
BRANCH  15  18
ATOM     18  O   UNL     1      13.087 -15.951  25.871  1.00  0.00    -0.508 OA
ATOM     19  H   UNL     1      12.318 -15.653  26.459  1.00  0.00     0.293 HD
ENDBRANCH  15  18
ENDBRANCH   1  12
BRANCH   2  20
ATOM     20  O   UNL     1      11.875 -13.399  20.307  1.00  0.00    -0.502 OA
ATOM     21  H   UNL     1      12.448 -12.908  20.985  1.00  0.00     0.293 HD
ENDBRANCH   2  20
BRANCH   6  22
ATOM     22  O   UNL     1      12.656 -14.490  15.154  1.00  0.00    -0.507 OA
ATOM     23  H   UNL     1      12.139 -13.667  15.422  1.00  0.00     0.293 HD
ENDBRANCH   6  22
BRANCH   8  24
ATOM     24  O   UNL     1      13.976 -19.080  15.431  1.00  0.00    -0.508 OA
ATOM     25  H   UNL     1      14.666 -19.074  14.688  1.00  0.00     0.293 HD
ENDBRANCH   8  24
TORSDOF 5
ENDMDL
MODEL 5
REMARK VINA RESULT:    -5.381     11.788     15.112
REMARK INTER + INTRA:          -6.475
REMARK INTER:                  -6.198
REMARK INTRA:                  -0.277
REMARK UNBOUND:                -0.151
REMARK SMILES O=c1c(O)c(-c2ccc(O)cc2)oc2cc(O)cc(O)c12
REMARK SMILES IDX 5 1 3 2 2 3 1 4 21 5 19 6 18 7 16 8 15 9 14 10 13 11 6 12
REMARK SMILES IDX 7 13 8 14 9 15 12 16 11 17 10 18 4 20 20 22 17 24
REMARK H PARENT 10 19 4 21 20 23 17 25
REMARK Flexibility Score: inf
ROOT
ATOM      1  C   UNL     1      16.006  -5.681   7.901  1.00  0.00     0.180 A 
ATOM      2  C   UNL     1      15.460  -6.435   6.847  1.00  0.00     0.208 A 
ATOM      3  C   UNL     1      15.688  -7.819   6.811  1.00  0.00     0.238 A 
ATOM      4  O   UNL     1      15.152  -8.496   5.896  1.00  0.00    -0.285 OA
ATOM      5  C   UNL     1      16.471  -8.431   7.819  1.00  0.00     0.111 A 
ATOM      6  C   UNL     1      16.799  -9.820   7.860  1.00  0.00     0.134 A 
ATOM      7  C   UNL     1      17.472 -10.338   8.973  1.00  0.00     0.093 A 
ATOM      8  C   UNL     1      17.884  -9.509  10.016  1.00  0.00     0.123 A 
ATOM      9  C   UNL     1      17.620  -8.140   9.959  1.00  0.00     0.094 A 
ATOM     10  C   UNL     1      16.920  -7.599   8.878  1.00  0.00     0.146 A 
ATOM     11  O   UNL     1      16.681  -6.293   8.867  1.00  0.00    -0.452 OA
ENDROOT
BRANCH   1  12
ATOM     12  C   UNL     1      15.831  -4.214   7.994  1.00  0.00     0.021 A 
ATOM     13  C   UNL     1      14.894  -3.684   8.899  1.00  0.00     0.016 A 
ATOM     14  C   UNL     1      14.729  -2.301   9.019  1.00  0.00     0.047 A 
ATOM     15  C   UNL     1      15.505  -1.430   8.249  1.00  0.00     0.115 A 
ATOM     16  C   UNL     1      16.623  -3.330   7.237  1.00  0.00     0.016 A 
ATOM     17  C   UNL     1      16.456  -1.948   7.360  1.00  0.00     0.047 A 
BRANCH  15  18
ATOM     18  O   UNL     1      15.329  -0.054   8.378  1.00  0.00    -0.508 OA
ATOM     19  H   UNL     1      15.466   0.573   7.594  1.00  0.00     0.293 HD
ENDBRANCH  15  18
ENDBRANCH   1  12
BRANCH   2  20
ATOM     20  O   UNL     1      14.671  -5.814   5.875  1.00  0.00    -0.502 OA
ATOM     21  H   UNL     1      15.058  -5.449   5.012  1.00  0.00     0.293 HD
ENDBRANCH   2  20
BRANCH   6  22
ATOM     22  O   UNL     1      16.515 -10.718   6.828  1.00  0.00    -0.507 OA
ATOM     23  H   UNL     1      16.024 -11.591   6.945  1.00  0.00     0.293 HD
ENDBRANCH   6  22
BRANCH   8  24
ATOM     24  O   UNL     1      18.564 -10.057  11.101  1.00  0.00    -0.508 OA
ATOM     25  H   UNL     1      18.201 -10.859  11.605  1.00  0.00     0.293 HD
ENDBRANCH   8  24
TORSDOF 5
ENDMDL
MODEL 6
REMARK VINA RESULT:    -5.303     11.829     13.548
REMARK INTER + INTRA:          -6.384
REMARK INTER:                  -6.187
REMARK INTRA:                  -0.198
REMARK UNBOUND:                -0.151
REMARK SMILES O=c1c(O)c(-c2ccc(O)cc2)oc2cc(O)cc(O)c12
REMARK SMILES IDX 5 1 3 2 2 3 1 4 21 5 19 6 18 7 16 8 15 9 14 10 13 11 6 12
REMARK SMILES IDX 7 13 8 14 9 15 12 16 11 17 10 18 4 20 20 22 17 24
REMARK H PARENT 10 19 4 21 20 23 17 25
REMARK Flexibility Score: inf
ROOT
ATOM      1  C   UNL     1      15.683  -9.245   8.170  1.00  0.00     0.180 A 
ATOM      2  C   UNL     1      16.827  -9.475   8.955  1.00  0.00     0.208 A 
ATOM      3  C   UNL     1      17.571  -8.377   9.413  1.00  0.00     0.238 A 
ATOM      4  O   UNL     1      18.562  -8.587  10.159  1.00  0.00    -0.285 OA
ATOM      5  C   UNL     1      17.173  -7.063   9.068  1.00  0.00     0.111 A 
ATOM      6  C   UNL     1      17.874  -5.878   9.444  1.00  0.00     0.134 A 
ATOM      7  C   UNL     1      17.317  -4.625   9.158  1.00  0.00     0.093 A 
ATOM      8  C   UNL     1      16.118  -4.513   8.455  1.00  0.00     0.123 A 
ATOM      9  C   UNL     1      15.454  -5.665   8.031  1.00  0.00     0.094 A 
ATOM     10  C   UNL     1      15.967  -6.929   8.332  1.00  0.00     0.146 A 
ATOM     11  O   UNL     1      15.298  -8.000   7.919  1.00  0.00    -0.452 OA
ENDROOT
BRANCH   1  12
ATOM     12  C   UNL     1      14.862 -10.352   7.630  1.00  0.00     0.021 A 
ATOM     13  C   UNL     1      13.541 -10.518   8.080  1.00  0.00     0.016 A 
ATOM     14  C   UNL     1      12.741 -11.543   7.566  1.00  0.00     0.047 A 
ATOM     15  C   UNL     1      13.244 -12.405   6.587  1.00  0.00     0.115 A 
ATOM     16  C   UNL     1      15.356 -11.211   6.630  1.00  0.00     0.016 A 
ATOM     17  C   UNL     1      14.553 -12.234   6.117  1.00  0.00     0.047 A 
BRANCH  15  18
ATOM     18  O   UNL     1      12.436 -13.423   6.085  1.00  0.00    -0.508 OA
ATOM     19  H   UNL     1      11.575 -13.221   5.591  1.00  0.00     0.293 HD
ENDBRANCH  15  18
ENDBRANCH   1  12
BRANCH   2  20
ATOM     20  O   UNL     1      17.190 -10.779   9.301  1.00  0.00    -0.502 OA
ATOM     21  H   UNL     1      17.324 -11.509   8.611  1.00  0.00     0.293 HD
ENDBRANCH   2  20
BRANCH   6  22
ATOM     22  O   UNL     1      19.124  -5.877  10.069  1.00  0.00    -0.507 OA
ATOM     23  H   UNL     1      19.414  -5.218  10.775  1.00  0.00     0.293 HD
ENDBRANCH   6  22
BRANCH   8  24
ATOM     24  O   UNL     1      15.602  -3.251   8.175  1.00  0.00    -0.508 OA
ATOM     25  H   UNL     1      15.558  -2.894   7.227  1.00  0.00     0.293 HD
ENDBRANCH   8  24
TORSDOF 5
ENDMDL
MODEL 7
REMARK VINA RESULT:    -5.189     12.140     14.876
REMARK INTER + INTRA:          -6.249
REMARK INTER:                  -6.353
REMARK INTRA:                   0.103
REMARK UNBOUND:                -0.151
REMARK SMILES O=c1c(O)c(-c2ccc(O)cc2)oc2cc(O)cc(O)c12
REMARK SMILES IDX 5 1 3 2 2 3 1 4 21 5 19 6 18 7 16 8 15 9 14 10 13 11 6 12
REMARK SMILES IDX 7 13 8 14 9 15 12 16 11 17 10 18 4 20 20 22 17 24
REMARK H PARENT 10 19 4 21 20 23 17 25
REMARK Flexibility Score: inf
ROOT
ATOM      1  C   UNL     1      16.006  -6.196   8.393  1.00  0.00     0.180 A 
ATOM      2  C   UNL     1      14.832  -5.861   7.696  1.00  0.00     0.208 A 
ATOM      3  C   UNL     1      14.355  -4.542   7.761  1.00  0.00     0.238 A 
ATOM      4  O   UNL     1      13.334  -4.235   7.092  1.00  0.00    -0.285 OA
ATOM      5  C   UNL     1      15.047  -3.580   8.534  1.00  0.00     0.111 A 
ATOM      6  C   UNL     1      14.632  -2.224   8.704  1.00  0.00     0.134 A 
ATOM      7  C   UNL     1      15.464  -1.327   9.384  1.00  0.00     0.093 A 
ATOM      8  C   UNL     1      16.664  -1.749   9.956  1.00  0.00     0.123 A 
ATOM      9  C   UNL     1      17.051  -3.086   9.847  1.00  0.00     0.094 A 
ATOM     10  C   UNL     1      16.259  -3.996   9.144  1.00  0.00     0.146 A 
ATOM     11  O   UNL     1      16.669  -5.256   9.055  1.00  0.00    -0.452 OA
ENDROOT
BRANCH   1  12
ATOM     12  C   UNL     1      16.557  -7.571   8.393  1.00  0.00     0.021 A 
ATOM     13  C   UNL     1      16.921  -8.171   9.611  1.00  0.00     0.016 A 
ATOM     14  C   UNL     1      17.422  -9.476   9.636  1.00  0.00     0.047 A 
ATOM     15  C   UNL     1      17.553 -10.202   8.449  1.00  0.00     0.115 A 
ATOM     16  C   UNL     1      16.673  -8.315   7.204  1.00  0.00     0.016 A 
ATOM     17  C   UNL     1      17.173  -9.619   7.232  1.00  0.00     0.047 A 
BRANCH  15  18
ATOM     18  O   UNL     1      18.055 -11.501   8.488  1.00  0.00    -0.508 OA
ATOM     19  H   UNL     1      19.042 -11.692   8.361  1.00  0.00     0.293 HD
ENDBRANCH  15  18
ENDBRANCH   1  12
BRANCH   2  20
ATOM     20  O   UNL     1      14.176  -6.821   6.921  1.00  0.00    -0.502 OA
ATOM     21  H   UNL     1      13.190  -7.027   7.029  1.00  0.00     0.293 HD
ENDBRANCH   2  20
BRANCH   6  22
ATOM     22  O   UNL     1      13.409  -1.722   8.251  1.00  0.00    -0.507 OA
ATOM     23  H   UNL     1      12.840  -2.149   7.536  1.00  0.00     0.293 HD
ENDBRANCH   6  22
BRANCH   8  24
ATOM     24  O   UNL     1      17.459  -0.832  10.639  1.00  0.00    -0.508 OA
ATOM     25  H   UNL     1      17.105  -0.312  11.434  1.00  0.00     0.293 HD
ENDBRANCH   8  24
TORSDOF 5
ENDMDL
MODEL 8
REMARK VINA RESULT:    -4.925     12.356     13.694
REMARK INTER + INTRA:          -5.940
REMARK INTER:                  -5.643
REMARK INTRA:                  -0.296
REMARK UNBOUND:                -0.151
REMARK SMILES O=c1c(O)c(-c2ccc(O)cc2)oc2cc(O)cc(O)c12
REMARK SMILES IDX 5 1 3 2 2 3 1 4 21 5 19 6 18 7 16 8 15 9 14 10 13 11 6 12
REMARK SMILES IDX 7 13 8 14 9 15 12 16 11 17 10 18 4 20 20 22 17 24
REMARK H PARENT 10 19 4 21 20 23 17 25
REMARK Flexibility Score: inf
ROOT
ATOM      1  C   UNL     1      17.033 -10.496   7.478  1.00  0.00     0.180 A 
ATOM      2  C   UNL     1      15.800 -11.169   7.435  1.00  0.00     0.208 A 
ATOM      3  C   UNL     1      15.771 -12.513   7.029  1.00  0.00     0.238 A 
ATOM      4  O   UNL     1      14.673 -13.126   7.044  1.00  0.00    -0.285 OA
ATOM      5  C   UNL     1      16.973 -13.161   6.656  1.00  0.00     0.111 A 
ATOM      6  C   UNL     1      17.057 -14.508   6.191  1.00  0.00     0.134 A 
ATOM      7  C   UNL     1      18.313 -15.087   5.975  1.00  0.00     0.093 A 
ATOM      8  C   UNL     1      19.485 -14.351   6.145  1.00  0.00     0.123 A 
ATOM      9  C   UNL     1      19.412 -13.015   6.542  1.00  0.00     0.094 A 
ATOM     10  C   UNL     1      18.175 -12.420   6.800  1.00  0.00     0.146 A 
ATOM     11  O   UNL     1      18.150 -11.150   7.186  1.00  0.00    -0.452 OA
ENDROOT
BRANCH   1  12
ATOM     12  C   UNL     1      17.141  -9.072   7.871  1.00  0.00     0.021 A 
ATOM     13  C   UNL     1      17.479  -8.743   9.195  1.00  0.00     0.016 A 
ATOM     14  C   UNL     1      17.608  -7.405   9.582  1.00  0.00     0.047 A 
ATOM     15  C   UNL     1      17.415  -6.382   8.650  1.00  0.00     0.115 A 
ATOM     16  C   UNL     1      16.968  -8.037   6.933  1.00  0.00     0.016 A 
ATOM     17  C   UNL     1      17.098  -6.701   7.323  1.00  0.00     0.047 A 
BRANCH  15  18
ATOM     18  O   UNL     1      17.545  -5.054   9.049  1.00  0.00    -0.508 OA
ATOM     19  H   UNL     1      16.960  -4.658   9.776  1.00  0.00     0.293 HD
ENDBRANCH  15  18
ENDBRANCH   1  12
BRANCH   2  20
ATOM     20  O   UNL     1      14.629 -10.516   7.828  1.00  0.00    -0.502 OA
ATOM     21  H   UNL     1      13.822 -11.014   8.188  1.00  0.00     0.293 HD
ENDBRANCH   2  20
BRANCH   6  22
ATOM     22  O   UNL     1      15.945 -15.303   5.902  1.00  0.00    -0.507 OA
ATOM     23  H   UNL     1      15.067 -15.268   6.398  1.00  0.00     0.293 HD
ENDBRANCH   6  22
BRANCH   8  24
ATOM     24  O   UNL     1      20.717 -14.955   5.905  1.00  0.00    -0.508 OA
ATOM     25  H   UNL     1      21.583 -14.538   6.225  1.00  0.00     0.293 HD
ENDBRANCH   8  24
TORSDOF 5
ENDMDL
MODEL 9
REMARK VINA RESULT:    -4.914      1.884      7.478
REMARK INTER + INTRA:          -5.926
REMARK INTER:                  -6.375
REMARK INTRA:                   0.449
REMARK UNBOUND:                -0.151
REMARK SMILES O=c1c(O)c(-c2ccc(O)cc2)oc2cc(O)cc(O)c12
REMARK SMILES IDX 5 1 3 2 2 3 1 4 21 5 19 6 18 7 16 8 15 9 14 10 13 11 6 12
REMARK SMILES IDX 7 13 8 14 9 15 12 16 11 17 10 18 4 20 20 22 17 24
REMARK H PARENT 10 19 4 21 20 23 17 25
REMARK Flexibility Score: inf
ROOT
ATOM      1  C   UNL     1      12.411 -15.529  20.189  1.00  0.00     0.180 A 
ATOM      2  C   UNL     1      12.112 -14.525  21.127  1.00  0.00     0.208 A 
ATOM      3  C   UNL     1      12.094 -14.851  22.492  1.00  0.00     0.238 A 
ATOM      4  O   UNL     1      11.879 -13.937  23.329  1.00  0.00    -0.285 OA
ATOM      5  C   UNL     1      12.357 -16.180  22.901  1.00  0.00     0.111 A 
ATOM      6  C   UNL     1      12.327 -16.633  24.255  1.00  0.00     0.134 A 
ATOM      7  C   UNL     1      12.732 -17.938  24.557  1.00  0.00     0.093 A 
ATOM      8  C   UNL     1      13.106 -18.827  23.550  1.00  0.00     0.123 A 
ATOM      9  C   UNL     1      13.083 -18.414  22.217  1.00  0.00     0.094 A 
ATOM     10  C   UNL     1      12.717 -17.107  21.888  1.00  0.00     0.146 A 
ATOM     11  O   UNL     1      12.719 -16.750  20.609  1.00  0.00    -0.452 OA
ENDROOT
BRANCH   1  12
ATOM     12  C   UNL     1      12.425 -15.268  18.732  1.00  0.00     0.021 A 
ATOM     13  C   UNL     1      12.939 -16.242  17.858  1.00  0.00     0.016 A 
ATOM     14  C   UNL     1      12.941 -16.026  16.477  1.00  0.00     0.047 A 
ATOM     15  C   UNL     1      12.418 -14.842  15.950  1.00  0.00     0.115 A 
ATOM     16  C   UNL     1      11.882 -14.087  18.192  1.00  0.00     0.016 A 
ATOM     17  C   UNL     1      11.885 -13.873  16.811  1.00  0.00     0.047 A 
BRANCH  15  18
ATOM     18  O   UNL     1      12.428 -14.638  14.572  1.00  0.00    -0.508 OA
ATOM     19  H   UNL     1      11.579 -14.420  14.062  1.00  0.00     0.293 HD
ENDBRANCH  15  18
ENDBRANCH   1  12
BRANCH   2  20
ATOM     20  O   UNL     1      11.876 -13.215  20.701  1.00  0.00    -0.502 OA
ATOM     21  H   UNL     1      11.065 -12.960  20.149  1.00  0.00     0.293 HD
ENDBRANCH   2  20
BRANCH   6  22
ATOM     22  O   UNL     1      11.882 -15.854  25.327  1.00  0.00    -0.507 OA
ATOM     23  H   UNL     1      12.214 -14.925  25.541  1.00  0.00     0.293 HD
ENDBRANCH   6  22
BRANCH   8  24
ATOM     24  O   UNL     1      13.488 -20.124  23.885  1.00  0.00    -0.508 OA
ATOM     25  H   UNL     1      13.686 -20.387  24.844  1.00  0.00     0.293 HD
ENDBRANCH   8  24
TORSDOF 5
ENDMDL
