MODEL 1
REMARK VINA RESULT:    -4.952      0.000      0.000
REMARK INTER + INTRA:          -4.952
REMARK INTER:                  -4.952
REMARK INTRA:                   0.000
REMARK UNBOUND:                 0.000
REMARK SMILES c1ccc2nc3ccccc3cc2c1
REMARK SMILES IDX 1 1 2 2 3 3 4 4 13 5 14 6 12 7 11 8 10 9 9 10 8 11 7 12 6 13
REMARK SMILES IDX 5 14
REMARK H PARENT
REMARK Flexibility Score: inf
ROOT
ATOM      1  C   UNL     1       1.736 104.737 177.628  1.00  0.00     0.001 A 
ATOM      2  C   UNL     1       0.859 105.818 177.490  1.00  0.00     0.002 A 
ATOM      3  C   UNL     1       0.936 106.902 178.370  1.00  0.00     0.029 A 
ATOM      4  C   UNL     1       1.890 106.906 179.395  1.00  0.00     0.071 A 
ATOM      5  C   UNL     1       2.776 105.813 179.537  1.00  0.00     0.001 A 
ATOM      6  C   UNL     1       2.692 104.731 178.648  1.00  0.00     0.010 A 
ATOM      7  C   UNL     1       3.725 105.835 180.567  1.00  0.00     0.020 A 
ATOM      8  C   UNL     1       3.783 106.931 181.437  1.00  0.00     0.001 A 
ATOM      9  C   UNL     1       4.722 106.981 182.480  1.00  0.00     0.010 A 
ATOM     10  C   UNL     1       4.758 108.088 183.334  1.00  0.00     0.001 A 
ATOM     11  C   UNL     1       3.861 109.145 183.155  1.00  0.00     0.002 A 
ATOM     12  C   UNL     1       2.923 109.103 182.120  1.00  0.00     0.029 A 
ATOM     13  C   UNL     1       2.877 108.002 181.258  1.00  0.00     0.071 A 
ATOM     14  N   UNL     1       1.965 107.959 180.251  1.00  0.00    -0.248 NA
ENDROOT
TORSDOF 0
ENDMDL
MODEL 2
REMARK VINA RESULT:    -4.944      0.058      4.831
REMARK INTER + INTRA:          -4.944
REMARK INTER:                  -4.944
REMARK INTRA:                   0.000
REMARK UNBOUND:                 0.000
REMARK SMILES c1ccc2nc3ccccc3cc2c1
REMARK SMILES IDX 1 1 2 2 3 3 4 4 13 5 14 6 12 7 11 8 10 9 9 10 8 11 7 12 6 13
REMARK SMILES IDX 5 14
REMARK H PARENT
REMARK Flexibility Score: inf
ROOT
ATOM      1  C   UNL     1       4.737 108.124 183.294  1.00  0.00     0.001 A 
ATOM      2  C   UNL     1       3.864 109.195 183.078  1.00  0.00     0.002 A 
ATOM      3  C   UNL     1       2.936 109.146 182.034  1.00  0.00     0.029 A 
ATOM      4  C   UNL     1       2.879 108.023 181.198  1.00  0.00     0.071 A 
ATOM      5  C   UNL     1       3.762 106.940 181.414  1.00  0.00     0.001 A 
ATOM      6  C   UNL     1       4.689 106.998 182.465  1.00  0.00     0.010 A 
ATOM      7  C   UNL     1       3.691 105.824 180.569  1.00  0.00     0.020 A 
ATOM      8  C   UNL     1       2.753 105.797 179.529  1.00  0.00     0.001 A 
ATOM      9  C   UNL     1       2.659 104.695 178.665  1.00  0.00     0.010 A 
ATOM     10  C   UNL     1       1.713 104.694 177.635  1.00  0.00     0.001 A 
ATOM     11  C   UNL     1       0.861 105.789 177.460  1.00  0.00     0.002 A 
ATOM     12  C   UNL     1       0.949 106.891 178.315  1.00  0.00     0.029 A 
ATOM     13  C   UNL     1       1.891 106.904 179.350  1.00  0.00     0.071 A 
ATOM     14  N   UNL     1       1.978 107.975 180.183  1.00  0.00    -0.248 NA
ENDROOT
TORSDOF 0
ENDMDL
MODEL 3
REMARK VINA RESULT:    -4.853      0.803      2.119
REMARK INTER + INTRA:          -4.853
REMARK INTER:                  -4.853
REMARK INTRA:                   0.000
REMARK UNBOUND:                 0.000
REMARK SMILES c1ccc2nc3ccccc3cc2c1
REMARK SMILES IDX 1 1 2 2 3 3 4 4 13 5 14 6 12 7 11 8 10 9 9 10 8 11 7 12 6 13
REMARK SMILES IDX 5 14
REMARK H PARENT
REMARK Flexibility Score: inf
ROOT
ATOM      1  C   UNL     1       0.836 105.804 177.442  1.00  0.00     0.001 A 
ATOM      2  C   UNL     1       1.732 104.745 177.624  1.00  0.00     0.002 A 
ATOM      3  C   UNL     1       2.660 104.783 178.669  1.00  0.00     0.029 A 
ATOM      4  C   UNL     1       2.698 105.883 179.535  1.00  0.00     0.071 A 
ATOM      5  C   UNL     1       1.794 106.954 179.351  1.00  0.00     0.001 A 
ATOM      6  C   UNL     1       0.865 106.907 178.300  1.00  0.00     0.010 A 
ATOM      7  C   UNL     1       1.845 108.047 180.226  1.00  0.00     0.020 A 
ATOM      8  C   UNL     1       2.784 108.063 181.266  1.00  0.00     0.001 A 
ATOM      9  C   UNL     1       2.861 109.143 182.159  1.00  0.00     0.010 A 
ATOM     10  C   UNL     1       3.808 109.133 183.187  1.00  0.00     0.001 A 
ATOM     11  C   UNL     1       4.681 108.051 183.329  1.00  0.00     0.002 A 
ATOM     12  C   UNL     1       4.613 106.971 182.444  1.00  0.00     0.029 A 
ATOM     13  C   UNL     1       3.669 106.969 181.411  1.00  0.00     0.071 A 
ATOM     14  N   UNL     1       3.601 105.920 180.550  1.00  0.00    -0.248 NA
ENDROOT
TORSDOF 0
ENDMDL
MODEL 4
REMARK VINA RESULT:    -4.847      0.804      5.275
REMARK INTER + INTRA:          -4.847
REMARK INTER:                  -4.847
REMARK INTRA:                   0.000
REMARK UNBOUND:                 0.000
REMARK SMILES c1ccc2nc3ccccc3cc2c1
REMARK SMILES IDX 1 1 2 2 3 3 4 4 13 5 14 6 12 7 11 8 10 9 9 10 8 11 7 12 6 13
REMARK SMILES IDX 5 14
REMARK H PARENT
REMARK Flexibility Score: inf
ROOT
ATOM      1  C   UNL     1       3.833 109.192 183.140  1.00  0.00     0.001 A 
ATOM      2  C   UNL     1       4.683 108.095 183.317  1.00  0.00     0.002 A 
ATOM      3  C   UNL     1       4.600 106.996 182.456  1.00  0.00     0.029 A 
ATOM      4  C   UNL     1       3.663 106.989 181.415  1.00  0.00     0.071 A 
ATOM      5  C   UNL     1       2.802 108.097 181.236  1.00  0.00     0.001 A 
ATOM      6  C   UNL     1       2.893 109.195 182.105  1.00  0.00     0.010 A 
ATOM      7  C   UNL     1       1.871 108.074 180.189  1.00  0.00     0.020 A 
ATOM      8  C   UNL     1       1.806 106.962 179.340  1.00  0.00     0.001 A 
ATOM      9  C   UNL     1       0.884 106.908 178.283  1.00  0.00     0.010 A 
ATOM     10  C   UNL     1       0.841 105.786 177.450  1.00  0.00     0.001 A 
ATOM     11  C   UNL     1       1.713 104.715 177.666  1.00  0.00     0.002 A 
ATOM     12  C   UNL     1       2.634 104.759 178.716  1.00  0.00     0.029 A 
ATOM     13  C   UNL     1       2.687 105.877 179.557  1.00  0.00     0.071 A 
ATOM     14  N   UNL     1       3.582 105.921 180.579  1.00  0.00    -0.248 NA
ENDROOT
TORSDOF 0
ENDMDL
MODEL 5
REMARK VINA RESULT:    -4.720      1.201      5.163
REMARK INTER + INTRA:          -4.720
REMARK INTER:                  -4.720
REMARK INTRA:                   0.000
REMARK UNBOUND:                 0.000
REMARK SMILES c1ccc2nc3ccccc3cc2c1
REMARK SMILES IDX 1 1 2 2 3 3 4 4 13 5 14 6 12 7 11 8 10 9 9 10 8 11 7 12 6 13
REMARK SMILES IDX 5 14
REMARK H PARENT
REMARK Flexibility Score: inf
ROOT
ATOM      1  C   UNL     1       6.270 108.961 184.253  1.00  0.00     0.001 A 
ATOM      2  C   UNL     1       5.552 110.131 183.984  1.00  0.00     0.002 A 
ATOM      3  C   UNL     1       4.514 110.119 183.048  1.00  0.00     0.029 A 
ATOM      4  C   UNL     1       4.191 108.935 182.374  1.00  0.00     0.071 A 
ATOM      5  C   UNL     1       4.917 107.751 182.643  1.00  0.00     0.001 A 
ATOM      6  C   UNL     1       5.957 107.773 183.585  1.00  0.00     0.010 A 
ATOM      7  C   UNL     1       4.580 106.575 181.961  1.00  0.00     0.020 A 
ATOM      8  C   UNL     1       3.537 106.587 181.026  1.00  0.00     0.001 A 
ATOM      9  C   UNL     1       3.176 105.425 180.325  1.00  0.00     0.010 A 
ATOM     10  C   UNL     1       2.130 105.465 179.398  1.00  0.00     0.001 A 
ATOM     11  C   UNL     1       1.441 106.659 179.165  1.00  0.00     0.002 A 
ATOM     12  C   UNL     1       1.793 107.821 179.858  1.00  0.00     0.029 A 
ATOM     13  C   UNL     1       2.838 107.794 180.789  1.00  0.00     0.071 A 
ATOM     14  N   UNL     1       3.183 108.922 181.463  1.00  0.00    -0.248 NA
ENDROOT
TORSDOF 0
ENDMDL
MODEL 6
REMARK VINA RESULT:    -4.618      3.232      6.901
REMARK INTER + INTRA:          -4.618
REMARK INTER:                  -4.618
REMARK INTRA:                   0.000
REMARK UNBOUND:                 0.000
REMARK SMILES c1ccc2nc3ccccc3cc2c1
REMARK SMILES IDX 1 1 2 2 3 3 4 4 13 5 14 6 12 7 11 8 10 9 9 10 8 11 7 12 6 13
REMARK SMILES IDX 5 14
REMARK H PARENT
REMARK Flexibility Score: inf
ROOT
ATOM      1  C   UNL     1       4.014 113.636 184.840  1.00  0.00     0.001 A 
ATOM      2  C   UNL     1       5.362 113.400 185.125  1.00  0.00     0.002 A 
ATOM      3  C   UNL     1       5.952 112.182 184.775  1.00  0.00     0.029 A 
ATOM      4  C   UNL     1       5.193 111.192 184.139  1.00  0.00     0.071 A 
ATOM      5  C   UNL     1       3.829 111.428 183.851  1.00  0.00     0.001 A 
ATOM      6  C   UNL     1       3.246 112.655 184.206  1.00  0.00     0.010 A 
ATOM      7  C   UNL     1       3.083 110.428 183.214  1.00  0.00     0.020 A 
ATOM      8  C   UNL     1       3.695 109.214 182.873  1.00  0.00     0.001 A 
ATOM      9  C   UNL     1       2.975 108.192 182.235  1.00  0.00     0.010 A 
ATOM     10  C   UNL     1       3.611 106.991 181.906  1.00  0.00     0.001 A 
ATOM     11  C   UNL     1       4.962 106.803 182.211  1.00  0.00     0.002 A 
ATOM     12  C   UNL     1       5.687 107.815 182.847  1.00  0.00     0.029 A 
ATOM     13  C   UNL     1       5.062 109.022 183.181  1.00  0.00     0.071 A 
ATOM     14  N   UNL     1       5.765 110.007 183.799  1.00  0.00    -0.248 NA
ENDROOT
TORSDOF 0
ENDMDL
MODEL 7
REMARK VINA RESULT:    -4.510      3.063      5.208
REMARK INTER + INTRA:          -4.510
REMARK INTER:                  -4.510
REMARK INTRA:                   0.000
REMARK UNBOUND:                 0.000
REMARK SMILES c1ccc2nc3ccccc3cc2c1
REMARK SMILES IDX 1 1 2 2 3 3 4 4 13 5 14 6 12 7 11 8 10 9 9 10 8 11 7 12 6 13
REMARK SMILES IDX 5 14
REMARK H PARENT
REMARK Flexibility Score: inf
ROOT
ATOM      1  C   UNL     1       3.939 106.790 181.464  1.00  0.00     0.001 A 
ATOM      2  C   UNL     1       5.256 106.620 181.902  1.00  0.00     0.002 A 
ATOM      3  C   UNL     1       5.881 107.618 182.656  1.00  0.00     0.029 A 
ATOM      4  C   UNL     1       5.189 108.794 182.972  1.00  0.00     0.071 A 
ATOM      5  C   UNL     1       3.857 108.968 182.529  1.00  0.00     0.001 A 
ATOM      6  C   UNL     1       3.239 107.959 181.774  1.00  0.00     0.010 A 
ATOM      7  C   UNL     1       3.179 110.150 182.855  1.00  0.00     0.020 A 
ATOM      8  C   UNL     1       3.825 111.137 183.611  1.00  0.00     0.001 A 
ATOM      9  C   UNL     1       3.173 112.332 183.953  1.00  0.00     0.010 A 
ATOM     10  C   UNL     1       3.842 113.301 184.708  1.00  0.00     0.001 A 
ATOM     11  C   UNL     1       5.159 113.084 185.124  1.00  0.00     0.002 A 
ATOM     12  C   UNL     1       5.816 111.897 184.788  1.00  0.00     0.029 A 
ATOM     13  C   UNL     1       5.158 110.920 184.032  1.00  0.00     0.071 A 
ATOM     14  N   UNL     1       5.795 109.765 183.704  1.00  0.00    -0.248 NA
ENDROOT
TORSDOF 0
ENDMDL
MODEL 8
REMARK VINA RESULT:    -4.506      3.745      6.101
REMARK INTER + INTRA:          -4.506
REMARK INTER:                  -4.506
REMARK INTRA:                   0.000
REMARK UNBOUND:                 0.000
REMARK SMILES c1ccc2nc3ccccc3cc2c1
REMARK SMILES IDX 1 1 2 2 3 3 4 4 13 5 14 6 12 7 11 8 10 9 9 10 8 11 7 12 6 13
REMARK SMILES IDX 5 14
REMARK H PARENT
REMARK Flexibility Score: inf
ROOT
ATOM      1  C   UNL     1       8.943 105.648 183.999  1.00  0.00     0.001 A 
ATOM      2  C   UNL     1       9.485 106.887 184.355  1.00  0.00     0.002 A 
ATOM      3  C   UNL     1       8.707 108.045 184.272  1.00  0.00     0.029 A 
ATOM      4  C   UNL     1       7.381 107.969 183.827  1.00  0.00     0.071 A 
ATOM      5  C   UNL     1       6.831 106.717 183.465  1.00  0.00     0.001 A 
ATOM      6  C   UNL     1       7.621 105.560 183.554  1.00  0.00     0.010 A 
ATOM      7  C   UNL     1       5.503 106.658 183.024  1.00  0.00     0.020 A 
ATOM      8  C   UNL     1       4.742 107.832 182.947  1.00  0.00     0.001 A 
ATOM      9  C   UNL     1       3.409 107.806 182.508  1.00  0.00     0.010 A 
ATOM     10  C   UNL     1       2.673 108.993 182.441  1.00  0.00     0.001 A 
ATOM     11  C   UNL     1       3.260 110.207 182.810  1.00  0.00     0.002 A 
ATOM     12  C   UNL     1       4.587 110.243 183.248  1.00  0.00     0.029 A 
ATOM     13  C   UNL     1       5.334 109.062 183.319  1.00  0.00     0.071 A 
ATOM     14  N   UNL     1       6.625 109.094 183.745  1.00  0.00    -0.248 NA
ENDROOT
TORSDOF 0
ENDMDL
MODEL 9
REMARK VINA RESULT:    -4.470      2.747      6.427
REMARK INTER + INTRA:          -4.470
REMARK INTER:                  -4.470
REMARK INTRA:                   0.000
REMARK UNBOUND:                 0.000
REMARK SMILES c1ccc2nc3ccccc3cc2c1
REMARK SMILES IDX 1 1 2 2 3 3 4 4 13 5 14 6 12 7 11 8 10 9 9 10 8 11 7 12 6 13
REMARK SMILES IDX 5 14
REMARK H PARENT
REMARK Flexibility Score: inf
ROOT
ATOM      1  C   UNL     1       5.230 113.044 185.125  1.00  0.00     0.001 A 
ATOM      2  C   UNL     1       3.902 113.278 184.756  1.00  0.00     0.002 A 
ATOM      3  C   UNL     1       3.199 112.322 184.015  1.00  0.00     0.029 A 
ATOM      4  C   UNL     1       3.826 111.128 183.638  1.00  0.00     0.071 A 
ATOM      5  C   UNL     1       5.170 110.890 184.010  1.00  0.00     0.001 A 
ATOM      6  C   UNL     1       5.866 111.856 184.753  1.00  0.00     0.010 A 
ATOM      7  C   UNL     1       5.782 109.690 183.625  1.00  0.00     0.020 A 
ATOM      8  C   UNL     1       5.059 108.747 182.883  1.00  0.00     0.001 A 
ATOM      9  C   UNL     1       5.644 107.536 182.481  1.00  0.00     0.010 A 
ATOM     10  C   UNL     1       4.899 106.612 181.741  1.00  0.00     0.001 A 
ATOM     11  C   UNL     1       3.573 106.891 181.397  1.00  0.00     0.002 A 
ATOM     12  C   UNL     1       2.982 108.095 181.792  1.00  0.00     0.029 A 
ATOM     13  C   UNL     1       3.717 109.027 182.533  1.00  0.00     0.071 A 
ATOM     14  N   UNL     1       3.145 110.199 182.918  1.00  0.00    -0.248 NA
ENDROOT
TORSDOF 0
ENDMDL
