MODEL 1
REMARK VINA RESULT:    -2.376      0.000      0.000
REMARK INTER + INTRA:          -2.690
REMARK INTER:                  -2.515
REMARK INTRA:                  -0.175
REMARK UNBOUND:                -0.175
REMARK SMILES CC1=CC[C@@H]2[C@H]3[C@@H](C(C)C)CC[C@]2(C)[C@@H]13
REMARK SMILES IDX 1 1 2 2 3 3 4 4 5 5 6 6 15 7 13 8 12 9 11 10 7 11 14 12 8 13
REMARK SMILES IDX 9 14 10 15
REMARK H PARENT
REMARK Flexibility Score: inf
ROOT
ATOM      1  C   UNL     1       3.121  10.504  11.493  1.00  0.00     0.039 C 
ATOM      2  C   UNL     1       3.753   9.576  12.488  1.00  0.00    -0.073 C 
ATOM      3  C   UNL     1       4.047   9.989  13.749  1.00  0.00    -0.027 C 
ATOM      4  C   UNL     1       4.666   8.987  14.728  1.00  0.00     0.031 C 
ATOM      5  C   UNL     1       4.883   7.605  14.033  1.00  0.00     0.003 C 
ATOM      6  C   UNL     1       5.535   7.874  12.650  1.00  0.00     0.004 C 
ATOM      7  C   UNL     1       4.102   8.128  12.131  1.00  0.00     0.024 C 
ATOM      8  C   UNL     1       3.625   7.163  13.242  1.00  0.00    -0.022 C 
ATOM      9  C   UNL     1       3.779   5.698  12.736  1.00  0.00     0.008 C 
ATOM     10  C   UNL     1       5.251   5.332  12.412  1.00  0.00     0.005 C 
ATOM     11  C   UNL     1       6.102   6.572  12.001  1.00  0.00    -0.005 C 
ATOM     12  C   UNL     1       2.231   7.388  13.875  1.00  0.00     0.012 C 
ENDROOT
BRANCH  11  13
ATOM     13  C   UNL     1       7.625   6.355  12.247  1.00  0.00    -0.014 C 
ATOM     14  C   UNL     1       8.113   7.125  13.483  1.00  0.00     0.007 C 
ATOM     15  C   UNL     1       8.034   4.875  12.364  1.00  0.00     0.007 C 
ENDBRANCH  11  13
TORSDOF 1
ENDMDL
MODEL 2
REMARK VINA RESULT:    -1.402      1.165      4.688
REMARK INTER + INTRA:          -1.659
REMARK INTER:                  -1.417
REMARK INTRA:                  -0.243
REMARK UNBOUND:                -0.175
REMARK SMILES CC1=CC[C@@H]2[C@H]3[C@@H](C(C)C)CC[C@]2(C)[C@@H]13
REMARK SMILES IDX 1 1 2 2 3 3 4 4 5 5 6 6 15 7 13 8 12 9 11 10 7 11 14 12 8 13
REMARK SMILES IDX 9 14 10 15
REMARK H PARENT
REMARK Flexibility Score: inf
ROOT
ATOM      1  C   UNL     1       8.071   6.361  11.276  1.00  0.00     0.039 C 
ATOM      2  C   UNL     1       6.741   6.381  11.970  1.00  0.00    -0.073 C 
ATOM      3  C   UNL     1       5.942   5.283  11.995  1.00  0.00    -0.027 C 
ATOM      4  C   UNL     1       4.608   5.357  12.743  1.00  0.00     0.031 C 
ATOM      5  C   UNL     1       4.397   6.782  13.346  1.00  0.00     0.003 C 
ATOM      6  C   UNL     1       4.749   7.814  12.240  1.00  0.00     0.004 C 
ATOM      7  C   UNL     1       6.220   7.637  12.677  1.00  0.00     0.024 C 
ATOM      8  C   UNL     1       5.669   7.284  14.078  1.00  0.00    -0.022 C 
ATOM      9  C   UNL     1       5.375   8.605  14.850  1.00  0.00     0.008 C 
ATOM     10  C   UNL     1       4.309   9.482  14.145  1.00  0.00     0.005 C 
ATOM     11  C   UNL     1       4.268   9.256  12.603  1.00  0.00    -0.005 C 
ATOM     12  C   UNL     1       6.460   6.289  14.960  1.00  0.00     0.012 C 
ENDROOT
BRANCH  11  13
ATOM     13  C   UNL     1       2.890   9.636  11.982  1.00  0.00    -0.014 C 
ATOM     14  C   UNL     1       1.887  10.075  13.059  1.00  0.00     0.007 C 
ATOM     15  C   UNL     1       2.977  10.712  10.884  1.00  0.00     0.007 C 
ENDBRANCH  11  13
TORSDOF 1
ENDMDL
MODEL 3
REMARK VINA RESULT:    -1.115      0.439      1.017
REMARK INTER + INTRA:          -1.356
REMARK INTER:                  -1.078
REMARK INTRA:                  -0.277
REMARK UNBOUND:                -0.175
REMARK SMILES CC1=CC[C@@H]2[C@H]3[C@@H](C(C)C)CC[C@]2(C)[C@@H]13
REMARK SMILES IDX 1 1 2 2 3 3 4 4 5 5 6 6 15 7 13 8 12 9 11 10 7 11 14 12 8 13
REMARK SMILES IDX 9 14 10 15
REMARK H PARENT
REMARK Flexibility Score: inf
ROOT
ATOM      1  C   UNL     1       3.598  10.398  11.100  1.00  0.00     0.039 C 
ATOM      2  C   UNL     1       3.963   9.535  12.272  1.00  0.00    -0.073 C 
ATOM      3  C   UNL     1       4.120  10.063  13.514  1.00  0.00    -0.027 C 
ATOM      4  C   UNL     1       4.465   9.128  14.676  1.00  0.00     0.031 C 
ATOM      5  C   UNL     1       4.610   7.657  14.170  1.00  0.00     0.003 C 
ATOM      6  C   UNL     1       5.483   7.689  12.886  1.00  0.00     0.004 C 
ATOM      7  C   UNL     1       4.182   8.026  12.125  1.00  0.00     0.024 C 
ATOM      8  C   UNL     1       3.436   7.257  13.240  1.00  0.00    -0.022 C 
ATOM      9  C   UNL     1       3.483   5.734  12.918  1.00  0.00     0.008 C 
ATOM     10  C   UNL     1       4.930   5.180  12.869  1.00  0.00     0.005 C 
ATOM     11  C   UNL     1       5.976   6.266  12.471  1.00  0.00    -0.005 C 
ATOM     12  C   UNL     1       2.003   7.700  13.620  1.00  0.00     0.012 C 
ENDROOT
BRANCH  11  13
ATOM     13  C   UNL     1       7.410   5.923  12.975  1.00  0.00    -0.014 C 
ATOM     14  C   UNL     1       8.089   4.876  12.079  1.00  0.00     0.007 C 
ATOM     15  C   UNL     1       8.328   7.150  13.126  1.00  0.00     0.007 C 
ENDBRANCH  11  13
TORSDOF 1
ENDMDL
MODEL 4
REMARK VINA RESULT:    -0.769      1.120      4.543
REMARK INTER + INTRA:          -0.989
REMARK INTER:                  -0.684
REMARK INTRA:                  -0.305
REMARK UNBOUND:                -0.175
REMARK SMILES CC1=CC[C@@H]2[C@H]3[C@@H](C(C)C)CC[C@]2(C)[C@@H]13
REMARK SMILES IDX 1 1 2 2 3 3 4 4 5 5 6 6 15 7 13 8 12 9 11 10 7 11 14 12 8 13
REMARK SMILES IDX 9 14 10 15
REMARK H PARENT
REMARK Flexibility Score: inf
ROOT
ATOM      1  C   UNL     1       7.874   7.501  14.250  1.00  0.00     0.039 C 
ATOM      2  C   UNL     1       6.713   7.499  13.300  1.00  0.00    -0.073 C 
ATOM      3  C   UNL     1       6.851   7.069  12.019  1.00  0.00    -0.027 C 
ATOM      4  C   UNL     1       5.623   7.065  11.105  1.00  0.00     0.031 C 
ATOM      5  C   UNL     1       4.375   7.620  11.863  1.00  0.00     0.003 C 
ATOM      6  C   UNL     1       4.814   8.914  12.601  1.00  0.00     0.004 C 
ATOM      7  C   UNL     1       5.324   7.985  13.725  1.00  0.00     0.024 C 
ATOM      8  C   UNL     1       4.235   6.985  13.270  1.00  0.00    -0.022 C 
ATOM      9  C   UNL     1       2.879   7.387  13.924  1.00  0.00     0.008 C 
ATOM     10  C   UNL     1       2.409   8.802  13.498  1.00  0.00     0.005 C 
ATOM     11  C   UNL     1       3.595   9.741  13.121  1.00  0.00    -0.005 C 
ATOM     12  C   UNL     1       4.501   5.470  13.432  1.00  0.00     0.012 C 
ENDROOT
BRANCH  11  13
ATOM     13  C   UNL     1       3.161  10.893  12.166  1.00  0.00    -0.014 C 
ATOM     14  C   UNL     1       4.000  10.908  10.879  1.00  0.00     0.007 C 
ATOM     15  C   UNL     1       1.663  10.875  11.808  1.00  0.00     0.007 C 
ENDBRANCH  11  13
TORSDOF 1
ENDMDL
MODEL 5
REMARK VINA RESULT:    -0.001      1.426      2.897
REMARK INTER + INTRA:          -0.177
REMARK INTER:                   0.078
REMARK INTRA:                  -0.254
REMARK UNBOUND:                -0.175
REMARK SMILES CC1=CC[C@@H]2[C@H]3[C@@H](C(C)C)CC[C@]2(C)[C@@H]13
REMARK SMILES IDX 1 1 2 2 3 3 4 4 5 5 6 6 15 7 13 8 12 9 11 10 7 11 14 12 8 13
REMARK SMILES IDX 9 14 10 15
REMARK H PARENT
REMARK Flexibility Score: inf
ROOT
ATOM      1  C   UNL     1       4.376  12.673  14.370  1.00  0.00     0.039 C 
ATOM      2  C   UNL     1       3.746  11.354  14.030  1.00  0.00    -0.073 C 
ATOM      3  C   UNL     1       2.587  10.954  14.616  1.00  0.00    -0.027 C 
ATOM      4  C   UNL     1       1.979   9.611  14.207  1.00  0.00     0.031 C 
ATOM      5  C   UNL     1       2.882   8.899  13.150  1.00  0.00     0.003 C 
ATOM      6  C   UNL     1       4.349   8.990  13.652  1.00  0.00     0.004 C 
ATOM      7  C   UNL     1       4.379  10.397  13.015  1.00  0.00     0.024 C 
ATOM      8  C   UNL     1       3.314   9.873  12.024  1.00  0.00    -0.022 C 
ATOM      9  C   UNL     1       4.032   9.104  10.875  1.00  0.00     0.008 C 
ATOM     10  C   UNL     1       4.825   7.874  11.387  1.00  0.00     0.005 C 
ATOM     11  C   UNL     1       5.304   8.039  12.862  1.00  0.00    -0.005 C 
ATOM     12  C   UNL     1       2.271  10.866  11.459  1.00  0.00     0.012 C 
ENDROOT
BRANCH  11  13
ATOM     13  C   UNL     1       5.553   6.670  13.563  1.00  0.00    -0.014 C 
ATOM     14  C   UNL     1       4.976   5.503  12.748  1.00  0.00     0.007 C 
ATOM     15  C   UNL     1       7.034   6.395  13.884  1.00  0.00     0.007 C 
ENDBRANCH  11  13
TORSDOF 1
ENDMDL
