MODEL 1
REMARK VINA RESULT:    -3.824      0.000      0.000
REMARK INTER + INTRA:          -8.475
REMARK INTER:                  -6.953
REMARK INTRA:                  -1.522
REMARK UNBOUND:                -1.522
REMARK SMILES CCCCCCCCCCCCCCCC(=O)[O-]
REMARK SMILES IDX 9 1 10 2 11 3 12 4 13 5 14 6 15 7 16 8 17 9 18 10 8 11 7 12
REMARK SMILES IDX 6 13 5 14 4 15 3 16 2 17 1 18
REMARK H PARENT
REMARK Flexibility Score: inf
ROOT
ATOM      1  C   UNL     1     -13.985 -15.660   3.772  1.00  0.00     0.000 C 
ENDROOT
BRANCH   1   2
ATOM      2  C   UNL     1     -13.432 -16.066   2.397  1.00  0.00     0.000 C 
BRANCH   2   3
ATOM      3  C   UNL     1     -13.545 -14.908   1.395  1.00  0.00     0.000 C 
BRANCH   3   4
ATOM      4  C   UNL     1     -12.601 -13.737   1.722  1.00  0.00     0.000 C 
BRANCH   4   5
ATOM      5  C   UNL     1     -13.195 -12.333   1.500  1.00  0.00     0.000 C 
BRANCH   5   6
ATOM      6  C   UNL     1     -13.567 -11.563   2.781  1.00  0.00     0.006 C 
BRANCH   6   7
ATOM      7  C   UNL     1     -12.616 -11.823   3.964  1.00  0.00     0.053 C 
BRANCH   7   8
ATOM      8  C   UNL     1     -13.346 -12.236   5.206  1.00  0.00     0.041 C 
ATOM      9  O   UNL     1     -12.717 -12.730   6.178  1.00  0.00    -0.550 OA
ATOM     10  O   UNL     1     -14.719 -12.044   5.304  1.00  0.00    -0.550 OA
ENDBRANCH   7   8
ENDBRANCH   6   7
ENDBRANCH   5   6
ENDBRANCH   4   5
ENDBRANCH   3   4
ENDBRANCH   2   3
ENDBRANCH   1   2
BRANCH   1  11
ATOM     11  C   UNL     1     -15.131 -16.571   4.239  1.00  0.00     0.000 C 
BRANCH  11  12
ATOM     12  C   UNL     1     -15.315 -16.556   5.766  1.00  0.00    -0.000 C 
BRANCH  12  13
ATOM     13  C   UNL     1     -15.253 -17.962   6.391  1.00  0.00    -0.000 C 
BRANCH  13  14
ATOM     14  C   UNL     1     -13.859 -18.617   6.392  1.00  0.00    -0.000 C 
BRANCH  14  15
ATOM     15  C   UNL     1     -13.753 -19.805   5.422  1.00  0.00    -0.000 C 
BRANCH  15  16
ATOM     16  C   UNL     1     -12.514 -19.726   4.511  1.00  0.00    -0.000 C 
BRANCH  16  17
ATOM     17  C   UNL     1     -11.731 -18.404   4.587  1.00  0.00    -0.003 C 
ATOM     18  C   UNL     1     -10.403 -18.534   5.333  1.00  0.00     0.004 C 
ENDBRANCH  16  17
ENDBRANCH  15  16
ENDBRANCH  14  15
ENDBRANCH  13  14
ENDBRANCH  12  13
ENDBRANCH  11  12
ENDBRANCH   1  11
TORSDOF 14
ENDMDL
MODEL 2
REMARK VINA RESULT:    -3.686      2.853      6.711
REMARK INTER + INTRA:          -8.225
REMARK INTER:                  -6.256
REMARK INTRA:                  -1.969
REMARK UNBOUND:                -1.522
REMARK SMILES CCCCCCCCCCCCCCCC(=O)[O-]
REMARK SMILES IDX 9 1 10 2 11 3 12 4 13 5 14 6 15 7 16 8 17 9 18 10 8 11 7 12
REMARK SMILES IDX 6 13 5 14 4 15 3 16 2 17 1 18
REMARK H PARENT
REMARK Flexibility Score: inf
ROOT
ATOM      1  C   UNL     1     -14.201 -15.811   4.681  1.00  0.00     0.000 C 
ENDROOT
BRANCH   1   2
ATOM      2  C   UNL     1     -15.395 -16.217   5.559  1.00  0.00     0.000 C 
BRANCH   2   3
ATOM      3  C   UNL     1     -15.509 -17.745   5.658  1.00  0.00     0.000 C 
BRANCH   3   4
ATOM      4  C   UNL     1     -14.418 -18.372   6.543  1.00  0.00     0.000 C 
BRANCH   4   5
ATOM      5  C   UNL     1     -13.525 -19.415   5.843  1.00  0.00     0.000 C 
BRANCH   5   6
ATOM      6  C   UNL     1     -12.188 -18.879   5.296  1.00  0.00     0.006 C 
BRANCH   6   7
ATOM      7  C   UNL     1     -12.150 -18.744   3.762  1.00  0.00     0.053 C 
BRANCH   7   8
ATOM      8  C   UNL     1     -13.088 -19.693   3.080  1.00  0.00     0.041 C 
ATOM      9  O   UNL     1     -12.778 -20.905   2.944  1.00  0.00    -0.550 OA
ATOM     10  O   UNL     1     -14.322 -19.245   2.622  1.00  0.00    -0.550 OA
ENDBRANCH   7   8
ENDBRANCH   6   7
ENDBRANCH   5   6
ENDBRANCH   4   5
ENDBRANCH   3   4
ENDBRANCH   2   3
ENDBRANCH   1   2
BRANCH   1  11
ATOM     11  C   UNL     1     -14.567 -15.728   3.191  1.00  0.00     0.000 C 
BRANCH  11  12
ATOM     12  C   UNL     1     -13.335 -15.540   2.288  1.00  0.00    -0.000 C 
BRANCH  12  13
ATOM     13  C   UNL     1     -13.418 -14.273   1.417  1.00  0.00    -0.000 C 
BRANCH  13  14
ATOM     14  C   UNL     1     -12.481 -13.127   1.839  1.00  0.00    -0.000 C 
BRANCH  14  15
ATOM     15  C   UNL     1     -13.177 -12.073   2.716  1.00  0.00    -0.000 C 
BRANCH  15  16
ATOM     16  C   UNL     1     -12.530 -11.928   4.106  1.00  0.00    -0.000 C 
BRANCH  16  17
ATOM     17  C   UNL     1     -13.427 -12.334   5.290  1.00  0.00    -0.003 C 
ATOM     18  C   UNL     1     -14.918 -12.266   4.964  1.00  0.00     0.004 C 
ENDBRANCH  16  17
ENDBRANCH  15  16
ENDBRANCH  14  15
ENDBRANCH  13  14
ENDBRANCH  12  13
ENDBRANCH  11  12
ENDBRANCH   1  11
TORSDOF 14
ENDMDL
MODEL 3
REMARK VINA RESULT:    -3.515      1.388      2.452
REMARK INTER + INTRA:          -7.914
REMARK INTER:                  -6.100
REMARK INTRA:                  -1.814
REMARK UNBOUND:                -1.522
REMARK SMILES CCCCCCCCCCCCCCCC(=O)[O-]
REMARK SMILES IDX 9 1 10 2 11 3 12 4 13 5 14 6 15 7 16 8 17 9 18 10 8 11 7 12
REMARK SMILES IDX 6 13 5 14 4 15 3 16 2 17 1 18
REMARK H PARENT
REMARK Flexibility Score: inf
ROOT
ATOM      1  C   UNL     1     -15.383 -16.233   5.689  1.00  0.00     0.000 C 
ENDROOT
BRANCH   1   2
ATOM      2  C   UNL     1     -14.367 -15.530   4.775  1.00  0.00     0.000 C 
BRANCH   2   3
ATOM      3  C   UNL     1     -14.421 -16.103   3.351  1.00  0.00     0.000 C 
BRANCH   3   4
ATOM      4  C   UNL     1     -13.387 -15.464   2.408  1.00  0.00     0.000 C 
BRANCH   4   5
ATOM      5  C   UNL     1     -13.932 -14.342   1.501  1.00  0.00     0.000 C 
BRANCH   5   6
ATOM      6  C   UNL     1     -13.944 -12.935   2.127  1.00  0.00     0.006 C 
BRANCH   6   7
ATOM      7  C   UNL     1     -12.620 -12.542   2.808  1.00  0.00     0.053 C 
BRANCH   7   8
ATOM      8  C   UNL     1     -12.831 -11.718   4.042  1.00  0.00     0.041 C 
ATOM      9  O   UNL     1     -12.809 -12.259   5.178  1.00  0.00    -0.550 OA
ATOM     10  O   UNL     1     -13.021 -10.345   3.938  1.00  0.00    -0.550 OA
ENDBRANCH   7   8
ENDBRANCH   6   7
ENDBRANCH   5   6
ENDBRANCH   4   5
ENDBRANCH   3   4
ENDBRANCH   2   3
ENDBRANCH   1   2
BRANCH   1  11
ATOM     11  C   UNL     1     -15.346 -17.763   5.544  1.00  0.00     0.000 C 
BRANCH  11  12
ATOM     12  C   UNL     1     -14.356 -18.426   6.517  1.00  0.00    -0.000 C 
BRANCH  12  13
ATOM     13  C   UNL     1     -13.322 -19.319   5.805  1.00  0.00    -0.000 C 
BRANCH  13  14
ATOM     14  C   UNL     1     -12.188 -18.563   5.089  1.00  0.00    -0.000 C 
BRANCH  14  15
ATOM     15  C   UNL     1     -11.983 -19.024   3.637  1.00  0.00    -0.000 C 
BRANCH  15  16
ATOM     16  C   UNL     1     -13.186 -19.809   3.082  1.00  0.00    -0.000 C 
BRANCH  16  17
ATOM     17  C   UNL     1     -12.863 -21.224   2.571  1.00  0.00    -0.003 C 
ATOM     18  C   UNL     1     -13.091 -22.309   3.623  1.00  0.00     0.004 C 
ENDBRANCH  16  17
ENDBRANCH  15  16
ENDBRANCH  14  15
ENDBRANCH  13  14
ENDBRANCH  12  13
ENDBRANCH  11  12
ENDBRANCH   1  11
TORSDOF 14
ENDMDL
MODEL 4
REMARK VINA RESULT:    -3.487      2.668      6.520
REMARK INTER + INTRA:          -7.863
REMARK INTER:                  -6.402
REMARK INTRA:                  -1.460
REMARK UNBOUND:                -1.522
REMARK SMILES CCCCCCCCCCCCCCCC(=O)[O-]
REMARK SMILES IDX 9 1 10 2 11 3 12 4 13 5 14 6 15 7 16 8 17 9 18 10 8 11 7 12
REMARK SMILES IDX 6 13 5 14 4 15 3 16 2 17 1 18
REMARK H PARENT
REMARK Flexibility Score: inf
ROOT
ATOM      1  C   UNL     1     -15.103 -16.381   4.636  1.00  0.00     0.000 C 
ENDROOT
BRANCH   1   2
ATOM      2  C   UNL     1     -15.474 -16.507   6.121  1.00  0.00     0.000 C 
BRANCH   2   3
ATOM      3  C   UNL     1     -15.553 -17.981   6.544  1.00  0.00     0.000 C 
BRANCH   3   4
ATOM      4  C   UNL     1     -14.911 -18.934   5.520  1.00  0.00     0.000 C 
BRANCH   4   5
ATOM      5  C   UNL     1     -13.494 -19.424   5.878  1.00  0.00     0.000 C 
BRANCH   5   6
ATOM      6  C   UNL     1     -12.343 -18.513   5.411  1.00  0.00     0.006 C 
BRANCH   6   7
ATOM      7  C   UNL     1     -11.569 -19.057   4.196  1.00  0.00     0.053 C 
BRANCH   7   8
ATOM      8  C   UNL     1     -12.409 -19.105   2.956  1.00  0.00     0.041 C 
ATOM      9  O   UNL     1     -12.731 -20.211   2.450  1.00  0.00    -0.550 OA
ATOM     10  O   UNL     1     -12.865 -17.926   2.377  1.00  0.00    -0.550 OA
ENDBRANCH   7   8
ENDBRANCH   6   7
ENDBRANCH   5   6
ENDBRANCH   4   5
ENDBRANCH   3   4
ENDBRANCH   2   3
ENDBRANCH   1   2
BRANCH   1  11
ATOM     11  C   UNL     1     -14.497 -15.010   4.294  1.00  0.00     0.000 C 
BRANCH  11  12
ATOM     12  C   UNL     1     -14.751 -13.960   5.389  1.00  0.00    -0.000 C 
BRANCH  12  13
ATOM     13  C   UNL     1     -13.529 -13.059   5.650  1.00  0.00    -0.000 C 
BRANCH  13  14
ATOM     14  C   UNL     1     -13.507 -11.741   4.855  1.00  0.00    -0.000 C 
BRANCH  14  15
ATOM     15  C   UNL     1     -12.645 -11.822   3.584  1.00  0.00    -0.000 C 
BRANCH  15  16
ATOM     16  C   UNL     1     -13.484 -11.903   2.295  1.00  0.00    -0.000 C 
BRANCH  16  17
ATOM     17  C   UNL     1     -13.143 -13.082   1.368  1.00  0.00    -0.003 C 
ATOM     18  C   UNL     1     -11.643 -13.356   1.270  1.00  0.00     0.004 C 
ENDBRANCH  16  17
ENDBRANCH  15  16
ENDBRANCH  14  15
ENDBRANCH  13  14
ENDBRANCH  12  13
ENDBRANCH  11  12
ENDBRANCH   1  11
TORSDOF 14
ENDMDL
MODEL 5
REMARK VINA RESULT:    -3.472      2.750      7.220
REMARK INTER + INTRA:          -7.837
REMARK INTER:                  -6.123
REMARK INTRA:                  -1.713
REMARK UNBOUND:                -1.522
REMARK SMILES CCCCCCCCCCCCCCCC(=O)[O-]
REMARK SMILES IDX 9 1 10 2 11 3 12 4 13 5 14 6 15 7 16 8 17 9 18 10 8 11 7 12
REMARK SMILES IDX 6 13 5 14 4 15 3 16 2 17 1 18
REMARK H PARENT
REMARK Flexibility Score: inf
ROOT
ATOM      1  C   UNL     1     -13.840 -13.110   5.647  1.00  0.00     0.000 C 
ENDROOT
BRANCH   1   2
ATOM      2  C   UNL     1     -15.327 -13.428   5.422  1.00  0.00     0.000 C 
BRANCH   2   3
ATOM      3  C   UNL     1     -15.506 -14.851   4.872  1.00  0.00     0.000 C 
BRANCH   3   4
ATOM      4  C   UNL     1     -14.170 -15.583   4.653  1.00  0.00     0.000 C 
BRANCH   4   5
ATOM      5  C   UNL     1     -14.055 -16.354   3.324  1.00  0.00     0.000 C 
BRANCH   5   6
ATOM      6  C   UNL     1     -13.851 -17.875   3.458  1.00  0.00     0.006 C 
BRANCH   6   7
ATOM      7  C   UNL     1     -12.373 -18.306   3.503  1.00  0.00     0.053 C 
BRANCH   7   8
ATOM      8  C   UNL     1     -11.913 -18.631   4.891  1.00  0.00     0.041 C 
ATOM      9  O   UNL     1     -12.727 -19.075   5.743  1.00  0.00    -0.550 OA
ATOM     10  O   UNL     1     -10.575 -18.476   5.236  1.00  0.00    -0.550 OA
ENDBRANCH   7   8
ENDBRANCH   6   7
ENDBRANCH   5   6
ENDBRANCH   4   5
ENDBRANCH   3   4
ENDBRANCH   2   3
ENDBRANCH   1   2
BRANCH   1  11
ATOM     11  C   UNL     1     -13.416 -11.783   4.999  1.00  0.00     0.000 C 
BRANCH  11  12
ATOM     12  C   UNL     1     -12.474 -11.984   3.799  1.00  0.00    -0.000 C 
BRANCH  12  13
ATOM     13  C   UNL     1     -13.220 -12.387   2.513  1.00  0.00    -0.000 C 
BRANCH  13  14
ATOM     14  C   UNL     1     -14.484 -11.564   2.205  1.00  0.00    -0.000 C 
BRANCH  14  15
ATOM     15  C   UNL     1     -14.184 -10.265   1.439  1.00  0.00    -0.000 C 
BRANCH  15  16
ATOM     16  C   UNL     1     -14.585  -9.001   2.221  1.00  0.00    -0.000 C 
BRANCH  16  17
ATOM     17  C   UNL     1     -13.497  -8.437   3.152  1.00  0.00    -0.003 C 
ATOM     18  C   UNL     1     -13.987  -8.217   4.583  1.00  0.00     0.004 C 
ENDBRANCH  16  17
ENDBRANCH  15  16
ENDBRANCH  14  15
ENDBRANCH  13  14
ENDBRANCH  12  13
ENDBRANCH  11  12
ENDBRANCH   1  11
TORSDOF 14
ENDMDL
MODEL 6
REMARK VINA RESULT:    -3.466      2.303      3.676
REMARK INTER + INTRA:          -7.825
REMARK INTER:                  -6.286
REMARK INTRA:                  -1.539
REMARK UNBOUND:                -1.522
REMARK SMILES CCCCCCCCCCCCCCCC(=O)[O-]
REMARK SMILES IDX 9 1 10 2 11 3 12 4 13 5 14 6 15 7 16 8 17 9 18 10 8 11 7 12
REMARK SMILES IDX 6 13 5 14 4 15 3 16 2 17 1 18
REMARK H PARENT
REMARK Flexibility Score: inf
ROOT
ATOM      1  C   UNL     1     -15.468 -14.216   5.409  1.00  0.00     0.000 C 
ENDROOT
BRANCH   1   2
ATOM      2  C   UNL     1     -14.954 -12.781   5.600  1.00  0.00     0.000 C 
BRANCH   2   3
ATOM      3  C   UNL     1     -13.424 -12.758   5.723  1.00  0.00     0.000 C 
BRANCH   3   4
ATOM      4  C   UNL     1     -12.746 -11.921   4.623  1.00  0.00     0.000 C 
BRANCH   4   5
ATOM      5  C   UNL     1     -13.431 -11.973   3.243  1.00  0.00     0.000 C 
BRANCH   5   6
ATOM      6  C   UNL     1     -13.924 -10.618   2.700  1.00  0.00     0.006 C 
BRANCH   6   7
ATOM      7  C   UNL     1     -13.432  -9.404   3.509  1.00  0.00     0.053 C 
BRANCH   7   8
ATOM      8  C   UNL     1     -13.964  -8.108   2.978  1.00  0.00     0.041 C 
ATOM      9  O   UNL     1     -13.184  -7.263   2.466  1.00  0.00    -0.550 OA
ATOM     10  O   UNL     1     -15.329  -7.846   3.018  1.00  0.00    -0.550 OA
ENDBRANCH   7   8
ENDBRANCH   6   7
ENDBRANCH   5   6
ENDBRANCH   4   5
ENDBRANCH   3   4
ENDBRANCH   2   3
ENDBRANCH   1   2
BRANCH   1  11
ATOM     11  C   UNL     1     -14.361 -15.185   4.964  1.00  0.00     0.000 C 
BRANCH  11  12
ATOM     12  C   UNL     1     -14.579 -15.718   3.537  1.00  0.00    -0.000 C 
BRANCH  12  13
ATOM     13  C   UNL     1     -13.387 -16.542   3.016  1.00  0.00    -0.000 C 
BRANCH  13  14
ATOM     14  C   UNL     1     -13.393 -18.027   3.420  1.00  0.00    -0.000 C 
BRANCH  14  15
ATOM     15  C   UNL     1     -12.435 -18.337   4.582  1.00  0.00    -0.000 C 
BRANCH  15  16
ATOM     16  C   UNL     1     -13.108 -19.127   5.720  1.00  0.00    -0.000 C 
BRANCH  16  17
ATOM     17  C   UNL     1     -14.638 -18.984   5.798  1.00  0.00    -0.003 C 
ATOM     18  C   UNL     1     -15.099 -18.063   6.927  1.00  0.00     0.004 C 
ENDBRANCH  16  17
ENDBRANCH  15  16
ENDBRANCH  14  15
ENDBRANCH  13  14
ENDBRANCH  12  13
ENDBRANCH  11  12
ENDBRANCH   1  11
TORSDOF 14
ENDMDL
MODEL 7
REMARK VINA RESULT:    -3.464      3.620      7.356
REMARK INTER + INTRA:          -7.821
REMARK INTER:                  -6.437
REMARK INTRA:                  -1.384
REMARK UNBOUND:                -1.522
REMARK SMILES CCCCCCCCCCCCCCCC(=O)[O-]
REMARK SMILES IDX 9 1 10 2 11 3 12 4 13 5 14 6 15 7 16 8 17 9 18 10 8 11 7 12
REMARK SMILES IDX 6 13 5 14 4 15 3 16 2 17 1 18
REMARK H PARENT
REMARK Flexibility Score: inf
ROOT
ATOM      1  C   UNL     1     -14.056 -16.529   2.478  1.00  0.00     0.000 C 
ENDROOT
BRANCH   1   2
ATOM      2  C   UNL     1     -13.530 -16.961   3.855  1.00  0.00     0.000 C 
BRANCH   2   3
ATOM      3  C   UNL     1     -12.389 -17.979   3.711  1.00  0.00     0.000 C 
BRANCH   3   4
ATOM      4  C   UNL     1     -12.115 -18.760   5.009  1.00  0.00     0.000 C 
BRANCH   4   5
ATOM      5  C   UNL     1     -13.362 -19.089   5.853  1.00  0.00     0.000 C 
BRANCH   5   6
ATOM      6  C   UNL     1     -13.838 -20.553   5.787  1.00  0.00     0.006 C 
BRANCH   6   7
ATOM      7  C   UNL     1     -14.170 -21.038   4.364  1.00  0.00     0.053 C 
BRANCH   7   8
ATOM      8  C   UNL     1     -13.229 -22.102   3.886  1.00  0.00     0.041 C 
ATOM      9  O   UNL     1     -13.001 -23.114   4.599  1.00  0.00    -0.550 OA
ATOM     10  O   UNL     1     -12.629 -21.993   2.637  1.00  0.00    -0.550 OA
ENDBRANCH   7   8
ENDBRANCH   6   7
ENDBRANCH   5   6
ENDBRANCH   4   5
ENDBRANCH   3   4
ENDBRANCH   2   3
ENDBRANCH   1   2
BRANCH   1  11
ATOM     11  C   UNL     1     -13.959 -15.011   2.259  1.00  0.00     0.000 C 
BRANCH  11  12
ATOM     12  C   UNL     1     -12.747 -14.613   1.399  1.00  0.00    -0.000 C 
BRANCH  12  13
ATOM     13  C   UNL     1     -12.202 -13.214   1.742  1.00  0.00    -0.000 C 
BRANCH  13  14
ATOM     14  C   UNL     1     -13.173 -12.306   2.519  1.00  0.00    -0.000 C 
BRANCH  14  15
ATOM     15  C   UNL     1     -12.564 -11.747   3.816  1.00  0.00    -0.000 C 
BRANCH  15  16
ATOM     16  C   UNL     1     -13.497 -11.903   5.032  1.00  0.00    -0.000 C 
BRANCH  16  17
ATOM     17  C   UNL     1     -13.753 -13.353   5.477  1.00  0.00    -0.003 C 
ATOM     18  C   UNL     1     -15.234 -13.731   5.470  1.00  0.00     0.004 C 
ENDBRANCH  16  17
ENDBRANCH  15  16
ENDBRANCH  14  15
ENDBRANCH  13  14
ENDBRANCH  12  13
ENDBRANCH  11  12
ENDBRANCH   1  11
TORSDOF 14
ENDMDL
MODEL 8
REMARK VINA RESULT:    -3.437      1.882      4.203
REMARK INTER + INTRA:          -7.772
REMARK INTER:                  -5.450
REMARK INTRA:                  -2.322
REMARK UNBOUND:                -1.522
REMARK SMILES CCCCCCCCCCCCCCCC(=O)[O-]
REMARK SMILES IDX 9 1 10 2 11 3 12 4 13 5 14 6 15 7 16 8 17 9 18 10 8 11 7 12
REMARK SMILES IDX 6 13 5 14 4 15 3 16 2 17 1 18
REMARK H PARENT
REMARK Flexibility Score: inf
ROOT
ATOM      1  C   UNL     1     -13.430 -19.387   5.794  1.00  0.00     0.000 C 
ENDROOT
BRANCH   1   2
ATOM      2  C   UNL     1     -14.393 -18.451   6.541  1.00  0.00     0.000 C 
BRANCH   2   3
ATOM      3  C   UNL     1     -15.758 -18.396   5.841  1.00  0.00     0.000 C 
BRANCH   3   4
ATOM      4  C   UNL     1     -15.938 -17.137   4.974  1.00  0.00     0.000 C 
BRANCH   4   5
ATOM      5  C   UNL     1     -15.303 -15.853   5.543  1.00  0.00     0.000 C 
BRANCH   5   6
ATOM      6  C   UNL     1     -14.244 -15.186   4.645  1.00  0.00     0.006 C 
BRANCH   6   7
ATOM      7  C   UNL     1     -14.589 -13.741   4.238  1.00  0.00     0.053 C 
BRANCH   7   8
ATOM      8  C   UNL     1     -13.572 -12.752   4.719  1.00  0.00     0.041 C 
ATOM      9  O   UNL     1     -13.223 -11.792   3.983  1.00  0.00    -0.550 OA
ATOM     10  O   UNL     1     -13.033 -12.869   5.995  1.00  0.00    -0.550 OA
ENDBRANCH   7   8
ENDBRANCH   6   7
ENDBRANCH   5   6
ENDBRANCH   4   5
ENDBRANCH   3   4
ENDBRANCH   2   3
ENDBRANCH   1   2
BRANCH   1  11
ATOM     11  C   UNL     1     -12.135 -18.680   5.365  1.00  0.00     0.000 C 
BRANCH  11  12
ATOM     12  C   UNL     1     -11.847 -18.833   3.861  1.00  0.00    -0.000 C 
BRANCH  12  13
ATOM     13  C   UNL     1     -13.009 -18.344   2.976  1.00  0.00    -0.000 C 
BRANCH  13  14
ATOM     14  C   UNL     1     -13.615 -19.409   2.044  1.00  0.00    -0.000 C 
BRANCH  14  15
ATOM     15  C   UNL     1     -14.986 -19.914   2.523  1.00  0.00    -0.000 C 
BRANCH  15  16
ATOM     16  C   UNL     1     -14.941 -21.358   3.056  1.00  0.00    -0.000 C 
BRANCH  16  17
ATOM     17  C   UNL     1     -13.543 -22.002   3.080  1.00  0.00    -0.003 C 
ATOM     18  C   UNL     1     -13.233 -22.713   4.397  1.00  0.00     0.004 C 
ENDBRANCH  16  17
ENDBRANCH  15  16
ENDBRANCH  14  15
ENDBRANCH  13  14
ENDBRANCH  12  13
ENDBRANCH  11  12
ENDBRANCH   1  11
TORSDOF 14
ENDMDL
MODEL 9
REMARK VINA RESULT:    -3.378      2.238      4.454
REMARK INTER + INTRA:          -7.664
REMARK INTER:                  -5.370
REMARK INTRA:                  -2.294
REMARK UNBOUND:                -1.522
REMARK SMILES CCCCCCCCCCCCCCCC(=O)[O-]
REMARK SMILES IDX 9 1 10 2 11 3 12 4 13 5 14 6 15 7 16 8 17 9 18 10 8 11 7 12
REMARK SMILES IDX 6 13 5 14 4 15 3 16 2 17 1 18
REMARK H PARENT
REMARK Flexibility Score: inf
ROOT
ATOM      1  C   UNL     1     -12.749 -18.345   3.936  1.00  0.00     0.000 C 
ENDROOT
BRANCH   1   2
ATOM      2  C   UNL     1     -12.518 -18.903   5.349  1.00  0.00     0.000 C 
BRANCH   2   3
ATOM      3  C   UNL     1     -13.801 -18.821   6.189  1.00  0.00     0.000 C 
BRANCH   3   4
ATOM      4  C   UNL     1     -14.956 -18.120   5.452  1.00  0.00     0.000 C 
BRANCH   4   5
ATOM      5  C   UNL     1     -15.375 -16.756   6.035  1.00  0.00     0.000 C 
BRANCH   5   6
ATOM      6  C   UNL     1     -15.496 -15.610   5.013  1.00  0.00     0.006 C 
BRANCH   6   7
ATOM      7  C   UNL     1     -14.198 -14.805   4.820  1.00  0.00     0.053 C 
BRANCH   7   8
ATOM      8  C   UNL     1     -14.217 -13.501   5.559  1.00  0.00     0.041 C 
ATOM      9  O   UNL     1     -13.163 -12.825   5.680  1.00  0.00    -0.550 OA
ATOM     10  O   UNL     1     -15.409 -13.016   6.085  1.00  0.00    -0.550 OA
ENDBRANCH   7   8
ENDBRANCH   6   7
ENDBRANCH   5   6
ENDBRANCH   4   5
ENDBRANCH   3   4
ENDBRANCH   2   3
ENDBRANCH   1   2
BRANCH   1  11
ATOM     11  C   UNL     1     -12.083 -19.201   2.847  1.00  0.00     0.000 C 
BRANCH  11  12
ATOM     12  C   UNL     1     -13.056 -20.204   2.204  1.00  0.00    -0.000 C 
BRANCH  12  13
ATOM     13  C   UNL     1     -14.451 -19.604   1.946  1.00  0.00    -0.000 C 
BRANCH  13  14
ATOM     14  C   UNL     1     -15.608 -20.293   2.692  1.00  0.00    -0.000 C 
BRANCH  14  15
ATOM     15  C   UNL     1     -15.251 -21.706   3.180  1.00  0.00    -0.000 C 
BRANCH  15  16
ATOM     16  C   UNL     1     -15.385 -21.866   4.705  1.00  0.00    -0.000 C 
BRANCH  16  17
ATOM     17  C   UNL     1     -14.113 -22.346   5.426  1.00  0.00    -0.003 C 
ATOM     18  C   UNL     1     -13.150 -23.099   4.508  1.00  0.00     0.004 C 
ENDBRANCH  16  17
ENDBRANCH  15  16
ENDBRANCH  14  15
ENDBRANCH  13  14
ENDBRANCH  12  13
ENDBRANCH  11  12
ENDBRANCH   1  11
TORSDOF 14
ENDMDL
