MODEL 1
REMARK VINA RESULT:    -3.562      0.000      0.000
REMARK INTER + INTRA:          -5.372
REMARK INTER:                  -5.020
REMARK INTRA:                  -0.352
REMARK UNBOUND:                -0.352
REMARK SMILES CCCCCCCCC(=O)[O-]
REMARK SMILES IDX 6 1 7 2 8 3 9 4 10 5 11 6 5 7 4 8 3 9 2 10 1 11
REMARK H PARENT
REMARK Flexibility Score: inf
ROOT
ATOM      1  C   UNL     1      57.389  27.642  50.748  1.00  0.00     0.000 C 
ENDROOT
BRANCH   1   2
ATOM      2  C   UNL     1      58.493  28.650  50.396  1.00  0.00     0.006 C 
BRANCH   2   3
ATOM      3  C   UNL     1      59.532  28.061  49.433  1.00  0.00     0.053 C 
BRANCH   3   4
ATOM      4  C   UNL     1      60.320  26.959  50.073  1.00  0.00     0.041 C 
ATOM      5  O   UNL     1      60.203  25.774  49.662  1.00  0.00    -0.550 OA
ATOM      6  O   UNL     1      61.158  27.235  51.146  1.00  0.00    -0.550 OA
ENDBRANCH   3   4
ENDBRANCH   2   3
ENDBRANCH   1   2
BRANCH   1   7
ATOM      7  C   UNL     1      56.032  28.341  50.893  1.00  0.00     0.000 C 
BRANCH   7   8
ATOM      8  C   UNL     1      54.887  27.417  50.462  1.00  0.00    -0.000 C 
BRANCH   8   9
ATOM      9  C   UNL     1      55.354  25.955  50.405  1.00  0.00    -0.000 C 
BRANCH   9  10
ATOM     10  C   UNL     1      54.603  25.136  49.343  1.00  0.00    -0.003 C 
ATOM     11  C   UNL     1      53.095  25.386  49.360  1.00  0.00     0.004 C 
ENDBRANCH   9  10
ENDBRANCH   8   9
ENDBRANCH   7   8
ENDBRANCH   1   7
TORSDOF 7
ENDMDL
MODEL 2
REMARK VINA RESULT:    -3.508      3.193      5.561
REMARK INTER + INTRA:          -5.296
REMARK INTER:                  -5.018
REMARK INTRA:                  -0.277
REMARK UNBOUND:                -0.352
REMARK SMILES CCCCCCCCC(=O)[O-]
REMARK SMILES IDX 6 1 7 2 8 3 9 4 10 5 11 6 5 7 4 8 3 9 2 10 1 11
REMARK H PARENT
REMARK Flexibility Score: inf
ROOT
ATOM      1  C   UNL     1      55.819  28.116  50.978  1.00  0.00     0.000 C 
ENDROOT
BRANCH   1   2
ATOM      2  C   UNL     1      54.690  27.291  50.345  1.00  0.00     0.006 C 
BRANCH   2   3
ATOM      3  C   UNL     1      55.166  25.905  49.892  1.00  0.00     0.053 C 
BRANCH   3   4
ATOM      4  C   UNL     1      54.016  25.000  49.571  1.00  0.00     0.041 C 
ATOM      5  O   UNL     1      53.118  25.375  48.771  1.00  0.00    -0.550 OA
ATOM      6  O   UNL     1      53.918  23.756  50.181  1.00  0.00    -0.550 OA
ENDBRANCH   3   4
ENDBRANCH   2   3
ENDBRANCH   1   2
BRANCH   1   7
ATOM      7  C   UNL     1      57.192  27.536  50.617  1.00  0.00     0.000 C 
BRANCH   7   8
ATOM      8  C   UNL     1      58.264  28.633  50.587  1.00  0.00    -0.000 C 
BRANCH   8   9
ATOM      9  C   UNL     1      59.268  28.388  49.451  1.00  0.00    -0.000 C 
BRANCH   9  10
ATOM     10  C   UNL     1      60.579  27.760  49.948  1.00  0.00    -0.003 C 
ATOM     11  C   UNL     1      60.560  26.233  49.898  1.00  0.00     0.004 C 
ENDBRANCH   9  10
ENDBRANCH   8   9
ENDBRANCH   7   8
ENDBRANCH   1   7
TORSDOF 7
ENDMDL
MODEL 3
REMARK VINA RESULT:    -3.439     12.310     14.075
REMARK INTER + INTRA:          -5.199
REMARK INTER:                  -4.834
REMARK INTRA:                  -0.365
REMARK UNBOUND:                -0.352
REMARK SMILES CCCCCCCCC(=O)[O-]
REMARK SMILES IDX 6 1 7 2 8 3 9 4 10 5 11 6 5 7 4 8 3 9 2 10 1 11
REMARK H PARENT
REMARK Flexibility Score: inf
ROOT
ATOM      1  C   UNL     1      61.467  31.798  61.010  1.00  0.00     0.000 C 
ENDROOT
BRANCH   1   2
ATOM      2  C   UNL     1      61.877  30.384  60.573  1.00  0.00     0.006 C 
BRANCH   2   3
ATOM      3  C   UNL     1      62.692  29.657  61.651  1.00  0.00     0.053 C 
BRANCH   3   4
ATOM      4  C   UNL     1      64.125  29.494  61.247  1.00  0.00     0.041 C 
ATOM      5  O   UNL     1      64.641  28.346  61.188  1.00  0.00    -0.550 OA
ATOM      6  O   UNL     1      64.901  30.612  60.968  1.00  0.00    -0.550 OA
ENDBRANCH   3   4
ENDBRANCH   2   3
ENDBRANCH   1   2
BRANCH   1   7
ATOM      7  C   UNL     1      62.338  32.859  60.327  1.00  0.00     0.000 C 
BRANCH   7   8
ATOM      8  C   UNL     1      61.778  34.267  60.560  1.00  0.00    -0.000 C 
BRANCH   8   9
ATOM      9  C   UNL     1      62.865  35.207  61.101  1.00  0.00    -0.000 C 
BRANCH   9  10
ATOM     10  C   UNL     1      64.204  34.491  61.331  1.00  0.00    -0.003 C 
ATOM     11  C   UNL     1      65.231  35.370  62.043  1.00  0.00     0.004 C 
ENDBRANCH   9  10
ENDBRANCH   8   9
ENDBRANCH   7   8
ENDBRANCH   1   7
TORSDOF 7
ENDMDL
MODEL 4
REMARK VINA RESULT:    -3.390      2.890      5.010
REMARK INTER + INTRA:          -5.130
REMARK INTER:                  -4.500
REMARK INTRA:                  -0.630
REMARK UNBOUND:                -0.352
REMARK SMILES CCCCCCCCC(=O)[O-]
REMARK SMILES IDX 6 1 7 2 8 3 9 4 10 5 11 6 5 7 4 8 3 9 2 10 1 11
REMARK H PARENT
REMARK Flexibility Score: inf
ROOT
ATOM      1  C   UNL     1      58.112  28.158  51.200  1.00  0.00     0.000 C 
ENDROOT
BRANCH   1   2
ATOM      2  C   UNL     1      56.646  27.894  50.832  1.00  0.00     0.006 C 
BRANCH   2   3
ATOM      3  C   UNL     1      56.364  26.403  50.604  1.00  0.00     0.053 C 
BRANCH   3   4
ATOM      4  C   UNL     1      55.019  26.181  49.983  1.00  0.00     0.041 C 
ATOM      5  O   UNL     1      54.181  27.121  49.931  1.00  0.00    -0.550 OA
ATOM      6  O   UNL     1      54.677  24.927  49.493  1.00  0.00    -0.550 OA
ENDBRANCH   3   4
ENDBRANCH   2   3
ENDBRANCH   1   2
BRANCH   1   7
ATOM      7  C   UNL     1      58.877  28.762  50.016  1.00  0.00     0.000 C 
BRANCH   7   8
ATOM      8  C   UNL     1      59.916  27.776  49.469  1.00  0.00    -0.000 C 
BRANCH   8   9
ATOM      9  C   UNL     1      60.353  26.782  50.555  1.00  0.00    -0.000 C 
BRANCH   9  10
ATOM     10  C   UNL     1      60.357  25.328  50.058  1.00  0.00    -0.003 C 
ATOM     11  C   UNL     1      59.538  24.395  50.949  1.00  0.00     0.004 C 
ENDBRANCH   9  10
ENDBRANCH   8   9
ENDBRANCH   7   8
ENDBRANCH   1   7
TORSDOF 7
ENDMDL
MODEL 5
REMARK VINA RESULT:    -3.371     12.677     13.673
REMARK INTER + INTRA:          -5.103
REMARK INTER:                  -4.679
REMARK INTRA:                  -0.424
REMARK UNBOUND:                -0.352
REMARK SMILES CCCCCCCCC(=O)[O-]
REMARK SMILES IDX 6 1 7 2 8 3 9 4 10 5 11 6 5 7 4 8 3 9 2 10 1 11
REMARK H PARENT
REMARK Flexibility Score: inf
ROOT
ATOM      1  C   UNL     1      61.940  29.935  61.593  1.00  0.00     0.000 C 
ENDROOT
BRANCH   1   2
ATOM      2  C   UNL     1      63.474  29.972  61.636  1.00  0.00     0.006 C 
BRANCH   2   3
ATOM      3  C   UNL     1      64.101  28.682  61.092  1.00  0.00     0.053 C 
BRANCH   3   4
ATOM      4  C   UNL     1      65.549  28.868  60.754  1.00  0.00     0.041 C 
ATOM      5  O   UNL     1      65.924  29.884  60.110  1.00  0.00    -0.550 OA
ATOM      6  O   UNL     1      66.479  27.904  61.121  1.00  0.00    -0.550 OA
ENDBRANCH   3   4
ENDBRANCH   2   3
ENDBRANCH   1   2
BRANCH   1   7
ATOM      7  C   UNL     1      61.373  31.256  61.057  1.00  0.00     0.000 C 
BRANCH   7   8
ATOM      8  C   UNL     1      62.492  32.164  60.534  1.00  0.00    -0.000 C 
BRANCH   8   9
ATOM      9  C   UNL     1      62.058  33.637  60.557  1.00  0.00    -0.000 C 
BRANCH   9  10
ATOM     10  C   UNL     1      63.206  34.584  60.941  1.00  0.00    -0.003 C 
ATOM     11  C   UNL     1      64.497  33.841  61.283  1.00  0.00     0.004 C 
ENDBRANCH   9  10
ENDBRANCH   8   9
ENDBRANCH   7   8
ENDBRANCH   1   7
TORSDOF 7
ENDMDL
MODEL 6
REMARK VINA RESULT:    -3.355      1.336      1.908
REMARK INTER + INTRA:          -5.080
REMARK INTER:                  -4.604
REMARK INTRA:                  -0.476
REMARK UNBOUND:                -0.352
REMARK SMILES CCCCCCCCC(=O)[O-]
REMARK SMILES IDX 6 1 7 2 8 3 9 4 10 5 11 6 5 7 4 8 3 9 2 10 1 11
REMARK H PARENT
REMARK Flexibility Score: inf
ROOT
ATOM      1  C   UNL     1      58.881  28.505  51.434  1.00  0.00     0.000 C 
ENDROOT
BRANCH   1   2
ATOM      2  C   UNL     1      58.993  28.381  49.908  1.00  0.00     0.006 C 
BRANCH   2   3
ATOM      3  C   UNL     1      60.182  27.511  49.481  1.00  0.00     0.053 C 
BRANCH   3   4
ATOM      4  C   UNL     1      60.019  26.090  49.928  1.00  0.00     0.041 C 
ATOM      5  O   UNL     1      61.019  25.427  50.310  1.00  0.00    -0.550 OA
ATOM      6  O   UNL     1      58.768  25.488  49.891  1.00  0.00    -0.550 OA
ENDBRANCH   3   4
ENDBRANCH   2   3
ENDBRANCH   1   2
BRANCH   1   7
ATOM      7  C   UNL     1      57.469  28.148  51.913  1.00  0.00     0.000 C 
BRANCH   7   8
ATOM      8  C   UNL     1      56.467  28.183  50.753  1.00  0.00    -0.000 C 
BRANCH   8   9
ATOM      9  C   UNL     1      55.606  26.911  50.733  1.00  0.00    -0.000 C 
BRANCH   9  10
ATOM     10  C   UNL     1      54.245  27.131  50.054  1.00  0.00    -0.003 C 
ATOM     11  C   UNL     1      53.608  28.470  50.424  1.00  0.00     0.004 C 
ENDBRANCH   9  10
ENDBRANCH   8   9
ENDBRANCH   7   8
ENDBRANCH   1   7
TORSDOF 7
ENDMDL
MODEL 7
REMARK VINA RESULT:    -3.266      1.660      2.453
REMARK INTER + INTRA:          -4.955
REMARK INTER:                  -4.441
REMARK INTRA:                  -0.514
REMARK UNBOUND:                -0.352
REMARK SMILES CCCCCCCCC(=O)[O-]
REMARK SMILES IDX 6 1 7 2 8 3 9 4 10 5 11 6 5 7 4 8 3 9 2 10 1 11
REMARK H PARENT
REMARK Flexibility Score: inf
ROOT
ATOM      1  C   UNL     1      55.179  27.787  50.704  1.00  0.00     0.000 C 
ENDROOT
BRANCH   1   2
ATOM      2  C   UNL     1      56.585  27.181  50.809  1.00  0.00     0.006 C 
BRANCH   2   3
ATOM      3  C   UNL     1      57.675  28.255  50.914  1.00  0.00     0.053 C 
BRANCH   3   4
ATOM      4  C   UNL     1      58.869  27.919  50.073  1.00  0.00     0.041 C 
ATOM      5  O   UNL     1      59.416  26.788  50.172  1.00  0.00    -0.550 OA
ATOM      6  O   UNL     1      59.399  28.865  49.205  1.00  0.00    -0.550 OA
ENDBRANCH   3   4
ENDBRANCH   2   3
ENDBRANCH   1   2
BRANCH   1   7
ATOM      7  C   UNL     1      54.225  26.840  49.968  1.00  0.00     0.000 C 
BRANCH   7   8
ATOM      8  C   UNL     1      54.901  25.495  49.673  1.00  0.00    -0.000 C 
BRANCH   8   9
ATOM      9  C   UNL     1      53.975  24.325  50.034  1.00  0.00    -0.000 C 
BRANCH   9  10
ATOM     10  C   UNL     1      53.437  24.419  51.470  1.00  0.00    -0.003 C 
ATOM     11  C   UNL     1      54.530  24.243  52.525  1.00  0.00     0.004 C 
ENDBRANCH   9  10
ENDBRANCH   8   9
ENDBRANCH   7   8
ENDBRANCH   1   7
TORSDOF 7
ENDMDL
MODEL 8
REMARK VINA RESULT:    -3.266      1.894      3.140
REMARK INTER + INTRA:          -4.954
REMARK INTER:                  -4.416
REMARK INTRA:                  -0.538
REMARK UNBOUND:                -0.352
REMARK SMILES CCCCCCCCC(=O)[O-]
REMARK SMILES IDX 6 1 7 2 8 3 9 4 10 5 11 6 5 7 4 8 3 9 2 10 1 11
REMARK H PARENT
REMARK Flexibility Score: inf
ROOT
ATOM      1  C   UNL     1      60.096  27.523  49.641  1.00  0.00     0.000 C 
ENDROOT
BRANCH   1   2
ATOM      2  C   UNL     1      59.758  26.027  49.565  1.00  0.00     0.006 C 
BRANCH   2   3
ATOM      3  C   UNL     1      60.822  25.156  50.245  1.00  0.00     0.053 C 
BRANCH   3   4
ATOM      4  C   UNL     1      60.228  23.911  50.831  1.00  0.00     0.041 C 
ATOM      5  O   UNL     1      59.232  23.984  51.598  1.00  0.00    -0.550 OA
ATOM      6  O   UNL     1      60.796  22.674  50.557  1.00  0.00    -0.550 OA
ENDBRANCH   3   4
ENDBRANCH   2   3
ENDBRANCH   1   2
BRANCH   1   7
ATOM      7  C   UNL     1      58.852  28.350  49.990  1.00  0.00     0.000 C 
BRANCH   7   8
ATOM      8  C   UNL     1      57.961  27.610  50.994  1.00  0.00    -0.000 C 
BRANCH   8   9
ATOM      9  C   UNL     1      56.514  28.119  50.922  1.00  0.00    -0.000 C 
BRANCH   9  10
ATOM     10  C   UNL     1      55.538  27.053  50.400  1.00  0.00    -0.003 C 
ATOM     11  C   UNL     1      56.169  25.663  50.317  1.00  0.00     0.004 C 
ENDBRANCH   9  10
ENDBRANCH   8   9
ENDBRANCH   7   8
ENDBRANCH   1   7
TORSDOF 7
ENDMDL
MODEL 9
REMARK VINA RESULT:    -3.240      1.557      2.411
REMARK INTER + INTRA:          -4.918
REMARK INTER:                  -4.383
REMARK INTRA:                  -0.535
REMARK UNBOUND:                -0.352
REMARK SMILES CCCCCCCCC(=O)[O-]
REMARK SMILES IDX 6 1 7 2 8 3 9 4 10 5 11 6 5 7 4 8 3 9 2 10 1 11
REMARK H PARENT
REMARK Flexibility Score: inf
ROOT
ATOM      1  C   UNL     1      57.076  25.751  50.348  1.00  0.00     0.000 C 
ENDROOT
BRANCH   1   2
ATOM      2  C   UNL     1      57.469  27.157  50.822  1.00  0.00     0.006 C 
BRANCH   2   3
ATOM      3  C   UNL     1      58.984  27.301  51.020  1.00  0.00     0.053 C 
BRANCH   3   4
ATOM      4  C   UNL     1      59.662  27.797  49.780  1.00  0.00     0.041 C 
ATOM      5  O   UNL     1      60.699  27.225  49.353  1.00  0.00    -0.550 OA
ATOM      6  O   UNL     1      59.166  28.911  49.115  1.00  0.00    -0.550 OA
ENDBRANCH   3   4
ENDBRANCH   2   3
ENDBRANCH   1   2
BRANCH   1   7
ATOM      7  C   UNL     1      55.810  25.263  51.064  1.00  0.00     0.000 C 
BRANCH   7   8
ATOM      8  C   UNL     1      54.681  24.989  50.063  1.00  0.00    -0.000 C 
BRANCH   8   9
ATOM      9  C   UNL     1      54.004  26.297  49.629  1.00  0.00    -0.000 C 
BRANCH   9  10
ATOM     10  C   UNL     1      53.635  27.195  50.821  1.00  0.00    -0.003 C 
ATOM     11  C   UNL     1      54.042  28.653  50.613  1.00  0.00     0.004 C 
ENDBRANCH   9  10
ENDBRANCH   8   9
ENDBRANCH   7   8
ENDBRANCH   1   7
TORSDOF 7
ENDMDL
