MODEL 1
REMARK VINA RESULT:    -3.125      0.000      0.000
REMARK INTER + INTRA:          -3.522
REMARK INTER:                  -3.491
REMARK INTRA:                  -0.032
REMARK UNBOUND:                -0.032
REMARK SMILES CCCC(=O)[O-]
REMARK SMILES IDX 3 1 4 2 5 3 6 4 2 5 1 6
REMARK H PARENT
REMARK Flexibility Score: inf
ROOT
ATOM      1  C   UNL     1     -29.202 -22.031  17.458  1.00  0.00     0.052 C 
ENDROOT
BRANCH   1   2
ATOM      2  C   UNL     1     -29.999 -23.130  18.087  1.00  0.00     0.041 C 
ATOM      3  O   UNL     1     -31.161 -22.904  18.516  1.00  0.00    -0.550 OA
ATOM      4  O   UNL     1     -29.440 -24.391  18.246  1.00  0.00    -0.550 OA
ENDBRANCH   1   2
BRANCH   1   5
ATOM      5  C   UNL     1     -29.955 -20.701  17.554  1.00  0.00     0.003 C 
ATOM      6  C   UNL     1     -29.426 -19.851  18.706  1.00  0.00     0.004 C 
ENDBRANCH   1   5
TORSDOF 2
ENDMDL
MODEL 2
REMARK VINA RESULT:    -3.089      2.475      3.356
REMARK INTER + INTRA:          -3.482
REMARK INTER:                  -3.477
REMARK INTRA:                  -0.005
REMARK UNBOUND:                -0.032
REMARK SMILES CCCC(=O)[O-]
REMARK SMILES IDX 3 1 4 2 5 3 6 4 2 5 1 6
REMARK H PARENT
REMARK Flexibility Score: inf
ROOT
ATOM      1  C   UNL     1     -29.145 -21.747  17.751  1.00  0.00     0.052 C 
ENDROOT
BRANCH   1   2
ATOM      2  C   UNL     1     -29.654 -20.349  17.905  1.00  0.00     0.041 C 
ATOM      3  O   UNL     1     -30.412 -19.851  17.031  1.00  0.00    -0.550 OA
ATOM      4  O   UNL     1     -29.253 -19.579  18.989  1.00  0.00    -0.550 OA
ENDBRANCH   1   2
BRANCH   1   5
ATOM      5  C   UNL     1     -30.230 -22.758  18.131  1.00  0.00     0.003 C 
ATOM      6  C   UNL     1     -29.670 -24.177  18.172  1.00  0.00     0.004 C 
ENDBRANCH   1   5
TORSDOF 2
ENDMDL
MODEL 3
REMARK VINA RESULT:    -3.067     19.298     19.645
REMARK INTER + INTRA:          -3.458
REMARK INTER:                  -3.419
REMARK INTRA:                  -0.038
REMARK UNBOUND:                -0.032
REMARK SMILES CCCC(=O)[O-]
REMARK SMILES IDX 3 1 4 2 5 3 6 4 2 5 1 6
REMARK H PARENT
REMARK Flexibility Score: inf
ROOT
ATOM      1  C   UNL     1     -25.785 -19.813  -0.074  1.00  0.00     0.052 C 
ENDROOT
BRANCH   1   2
ATOM      2  C   UNL     1     -24.631 -19.046  -0.637  1.00  0.00     0.041 C 
ATOM      3  O   UNL     1     -24.810 -17.899  -1.125  1.00  0.00    -0.550 OA
ATOM      4  O   UNL     1     -23.366 -19.619  -0.669  1.00  0.00    -0.550 OA
ENDBRANCH   1   2
BRANCH   1   5
ATOM      5  C   UNL     1     -26.961 -19.810  -1.055  1.00  0.00     0.003 C 
ATOM      6  C   UNL     1     -28.146 -19.031  -0.492  1.00  0.00     0.004 C 
ENDBRANCH   1   5
TORSDOF 2
ENDMDL
MODEL 4
REMARK VINA RESULT:    -2.956     12.165     12.861
REMARK INTER + INTRA:          -3.334
REMARK INTER:                  -3.304
REMARK INTRA:                  -0.030
REMARK UNBOUND:                -0.032
REMARK SMILES CCCC(=O)[O-]
REMARK SMILES IDX 3 1 4 2 5 3 6 4 2 5 1 6
REMARK H PARENT
REMARK Flexibility Score: inf
ROOT
ATOM      1  C   UNL     1     -19.057 -21.316  11.465  1.00  0.00     0.052 C 
ENDROOT
BRANCH   1   2
ATOM      2  C   UNL     1     -19.586 -21.192  10.072  1.00  0.00     0.041 C 
ATOM      3  O   UNL     1     -20.119 -20.117   9.691  1.00  0.00    -0.550 OA
ATOM      4  O   UNL     1     -19.536 -22.279   9.210  1.00  0.00    -0.550 OA
ENDBRANCH   1   2
BRANCH   1   5
ATOM      5  C   UNL     1     -19.051 -22.782  11.908  1.00  0.00     0.003 C 
ATOM      6  C   UNL     1     -20.093 -23.033  12.994  1.00  0.00     0.004 C 
ENDBRANCH   1   5
TORSDOF 2
ENDMDL
MODEL 5
REMARK VINA RESULT:    -2.920     12.694     13.027
REMARK INTER + INTRA:          -3.293
REMARK INTER:                  -3.282
REMARK INTRA:                  -0.011
REMARK UNBOUND:                -0.032
REMARK SMILES CCCC(=O)[O-]
REMARK SMILES IDX 3 1 4 2 5 3 6 4 2 5 1 6
REMARK H PARENT
REMARK Flexibility Score: inf
ROOT
ATOM      1  C   UNL     1     -19.956 -20.657   9.823  1.00  0.00     0.052 C 
ENDROOT
BRANCH   1   2
ATOM      2  C   UNL     1     -19.350 -21.016  11.143  1.00  0.00     0.041 C 
ATOM      3  O   UNL     1     -18.951 -22.190  11.358  1.00  0.00    -0.550 OA
ATOM      4  O   UNL     1     -19.273 -20.066  12.153  1.00  0.00    -0.550 OA
ENDBRANCH   1   2
BRANCH   1   5
ATOM      5  C   UNL     1     -20.412 -21.918   9.082  1.00  0.00     0.003 C 
ATOM      6  C   UNL     1     -21.414 -21.578   7.983  1.00  0.00     0.004 C 
ENDBRANCH   1   5
TORSDOF 2
ENDMDL
MODEL 6
REMARK VINA RESULT:    -2.904     13.740     14.530
REMARK INTER + INTRA:          -3.275
REMARK INTER:                  -3.257
REMARK INTRA:                  -0.018
REMARK UNBOUND:                -0.032
REMARK SMILES CCCC(=O)[O-]
REMARK SMILES IDX 3 1 4 2 5 3 6 4 2 5 1 6
REMARK H PARENT
REMARK Flexibility Score: inf
ROOT
ATOM      1  C   UNL     1     -25.787 -29.501   6.222  1.00  0.00     0.052 C 
ENDROOT
BRANCH   1   2
ATOM      2  C   UNL     1     -27.189 -29.266   6.686  1.00  0.00     0.041 C 
ATOM      3  O   UNL     1     -28.129 -29.195   5.851  1.00  0.00    -0.550 OA
ATOM      4  O   UNL     1     -27.452 -29.077   8.036  1.00  0.00    -0.550 OA
ENDBRANCH   1   2
BRANCH   1   5
ATOM      5  C   UNL     1     -25.402 -28.486   5.142  1.00  0.00     0.003 C 
ATOM      6  C   UNL     1     -24.431 -29.095   4.134  1.00  0.00     0.004 C 
ENDBRANCH   1   5
TORSDOF 2
ENDMDL
MODEL 7
REMARK VINA RESULT:    -2.899     20.353     20.932
REMARK INTER + INTRA:          -3.269
REMARK INTER:                  -3.264
REMARK INTRA:                  -0.006
REMARK UNBOUND:                -0.032
REMARK SMILES CCCC(=O)[O-]
REMARK SMILES IDX 3 1 4 2 5 3 6 4 2 5 1 6
REMARK H PARENT
REMARK Flexibility Score: inf
ROOT
ATOM      1  C   UNL     1     -19.258 -26.847   1.598  1.00  0.00     0.052 C 
ENDROOT
BRANCH   1   2
ATOM      2  C   UNL     1     -17.880 -27.411   1.465  1.00  0.00     0.041 C 
ATOM      3  O   UNL     1     -17.650 -28.332   0.637  1.00  0.00    -0.550 OA
ATOM      4  O   UNL     1     -16.859 -26.957   2.290  1.00  0.00    -0.550 OA
ENDBRANCH   1   2
BRANCH   1   5
ATOM      5  C   UNL     1     -19.640 -26.061   0.341  1.00  0.00     0.003 C 
ATOM      6  C   UNL     1     -20.933 -25.279   0.551  1.00  0.00     0.004 C 
ENDBRANCH   1   5
TORSDOF 2
ENDMDL
MODEL 8
REMARK VINA RESULT:    -2.893     13.362     14.125
REMARK INTER + INTRA:          -3.263
REMARK INTER:                  -3.251
REMARK INTRA:                  -0.012
REMARK UNBOUND:                -0.032
REMARK SMILES CCCC(=O)[O-]
REMARK SMILES IDX 3 1 4 2 5 3 6 4 2 5 1 6
REMARK H PARENT
REMARK Flexibility Score: inf
ROOT
ATOM      1  C   UNL     1     -22.853 -31.560  11.731  1.00  0.00     0.052 C 
ENDROOT
BRANCH   1   2
ATOM      2  C   UNL     1     -22.892 -32.901  11.069  1.00  0.00     0.041 C 
ATOM      3  O   UNL     1     -23.847 -33.690  11.293  1.00  0.00    -0.550 OA
ATOM      4  O   UNL     1     -21.849 -33.298  10.242  1.00  0.00    -0.550 OA
ENDBRANCH   1   2
BRANCH   1   5
ATOM      5  C   UNL     1     -21.559 -31.395  12.532  1.00  0.00     0.003 C 
ATOM      6  C   UNL     1     -21.852 -31.040  13.987  1.00  0.00     0.004 C 
ENDBRANCH   1   5
TORSDOF 2
ENDMDL
MODEL 9
REMARK VINA RESULT:    -2.846     20.203     20.923
REMARK INTER + INTRA:          -3.211
REMARK INTER:                  -3.174
REMARK INTRA:                  -0.037
REMARK UNBOUND:                -0.032
REMARK SMILES CCCC(=O)[O-]
REMARK SMILES IDX 3 1 4 2 5 3 6 4 2 5 1 6
REMARK H PARENT
REMARK Flexibility Score: inf
ROOT
ATOM      1  C   UNL     1     -19.586 -27.056   1.430  1.00  0.00     0.052 C 
ENDROOT
BRANCH   1   2
ATOM      2  C   UNL     1     -19.904 -26.058   0.362  1.00  0.00     0.041 C 
ATOM      3  O   UNL     1     -19.313 -26.109  -0.749  1.00  0.00    -0.550 OA
ATOM      4  O   UNL     1     -20.817 -25.041   0.611  1.00  0.00    -0.550 OA
ENDBRANCH   1   2
BRANCH   1   5
ATOM      5  C   UNL     1     -18.150 -27.568   1.275  1.00  0.00     0.003 C 
ATOM      6  C   UNL     1     -17.218 -26.907   2.286  1.00  0.00     0.004 C 
ENDBRANCH   1   5
TORSDOF 2
ENDMDL
