MODEL 1
REMARK VINA RESULT:    -3.717      0.000      0.000
REMARK INTER + INTRA:          -4.648
REMARK INTER:                  -4.369
REMARK INTRA:                  -0.279
REMARK UNBOUND:                -0.279
REMARK SMILES C=C[C@@]1(C)CC[C@H](C(=C)C)C[C@@H]1C(=C)C
REMARK SMILES IDX 7 1 6 2 5 3 3 4 12 5 11 6 4 7 8 8 10 9 9 10 13 11 14 12
REMARK SMILES IDX 15 13 2 14 1 15
REMARK H PARENT
REMARK Flexibility Score: inf
ROOT
ATOM      1  C   UNL     1       4.167   9.832  11.452  1.00  0.00     0.015 C 
ATOM      2  C   UNL     1       2.674   9.469  11.401  1.00  0.00     0.009 C 
ATOM      3  C   UNL     1       1.839  10.646  10.879  1.00  0.00     0.012 C 
ATOM      4  C   UNL     1       2.018  11.948  11.719  1.00  0.00    -0.008 C 
ATOM      5  C   UNL     1       3.556  12.274  11.827  1.00  0.00     0.024 C 
ATOM      6  C   UNL     1       4.395  11.075  12.330  1.00  0.00     0.017 C 
ATOM      7  C   UNL     1       1.358  11.775  13.111  1.00  0.00     0.016 C 
ENDROOT
BRANCH   1   8
ATOM      8  C   UNL     1       5.004   8.655  11.938  1.00  0.00    -0.077 C 
ATOM      9  C   UNL     1       4.382   7.506  12.691  1.00  0.00     0.039 C 
ATOM     10  C   UNL     1       6.325   8.627  11.701  1.00  0.00     0.008 C 
ENDBRANCH   1   8
BRANCH   5  11
ATOM     11  C   UNL     1       3.881  13.548  12.616  1.00  0.00    -0.077 C 
ATOM     12  C   UNL     1       4.000  13.496  13.954  1.00  0.00     0.008 C 
ATOM     13  C   UNL     1       4.052  14.893  11.949  1.00  0.00     0.039 C 
ENDBRANCH   5  11
BRANCH   4  14
ATOM     14  C   UNL     1       1.314  13.087  10.980  1.00  0.00    -0.028 C 
ATOM     15  C   UNL     1      -0.017  13.234  10.952  1.00  0.00     0.004 C 
ENDBRANCH   4  14
TORSDOF 3
ENDMDL
MODEL 2
REMARK VINA RESULT:    -3.247      0.941      1.271
REMARK INTER + INTRA:          -4.095
REMARK INTER:                  -3.906
REMARK INTRA:                  -0.189
REMARK UNBOUND:                -0.279
REMARK SMILES C=C[C@@]1(C)CC[C@H](C(=C)C)C[C@@H]1C(=C)C
REMARK SMILES IDX 7 1 6 2 5 3 3 4 12 5 11 6 4 7 8 8 10 9 9 10 13 11 14 12
REMARK SMILES IDX 15 13 2 14 1 15
REMARK H PARENT
REMARK Flexibility Score: inf
ROOT
ATOM      1  C   UNL     1       3.710   9.444  11.758  1.00  0.00     0.015 C 
ATOM      2  C   UNL     1       2.485   9.165  12.644  1.00  0.00     0.009 C 
ATOM      3  C   UNL     1       1.392  10.220  12.419  1.00  0.00     0.012 C 
ATOM      4  C   UNL     1       1.883  11.678  12.673  1.00  0.00    -0.008 C 
ATOM      5  C   UNL     1       3.181  11.932  11.816  1.00  0.00     0.024 C 
ATOM      6  C   UNL     1       4.268  10.852  12.028  1.00  0.00     0.017 C 
ATOM      7  C   UNL     1       2.130  11.897  14.187  1.00  0.00     0.016 C 
ENDROOT
BRANCH   1   8
ATOM      8  C   UNL     1       4.784   8.380  11.953  1.00  0.00    -0.077 C 
ATOM      9  C   UNL     1       4.439   6.994  12.437  1.00  0.00     0.039 C 
ATOM     10  C   UNL     1       6.070   8.669  11.697  1.00  0.00     0.008 C 
ENDBRANCH   1   8
BRANCH   5  11
ATOM     11  C   UNL     1       3.767  13.343  11.954  1.00  0.00    -0.077 C 
ATOM     12  C   UNL     1       3.818  14.156  10.885  1.00  0.00     0.008 C 
ATOM     13  C   UNL     1       4.323  13.865  13.258  1.00  0.00     0.039 C 
ENDBRANCH   5  11
BRANCH   4  14
ATOM     14  C   UNL     1       0.782  12.634  12.211  1.00  0.00    -0.028 C 
ATOM     15  C   UNL     1       0.475  12.834  10.922  1.00  0.00     0.004 C 
ENDBRANCH   4  14
TORSDOF 3
ENDMDL
MODEL 3
REMARK VINA RESULT:    -2.569      2.278      6.591
REMARK INTER + INTRA:          -3.299
REMARK INTER:                  -3.942
REMARK INTRA:                   0.643
REMARK UNBOUND:                -0.279
REMARK SMILES C=C[C@@]1(C)CC[C@H](C(=C)C)C[C@@H]1C(=C)C
REMARK SMILES IDX 7 1 6 2 5 3 3 4 12 5 11 6 4 7 8 8 10 9 9 10 13 11 14 12
REMARK SMILES IDX 15 13 2 14 1 15
REMARK H PARENT
REMARK Flexibility Score: inf
ROOT
ATOM      1  C   UNL     1       3.833   9.210  11.614  1.00  0.00     0.015 C 
ATOM      2  C   UNL     1       5.170   9.886  11.960  1.00  0.00     0.009 C 
ATOM      3  C   UNL     1       6.355   8.975  11.609  1.00  0.00     0.012 C 
ATOM      4  C   UNL     1       6.290   7.585  12.311  1.00  0.00    -0.008 C 
ATOM      5  C   UNL     1       4.890   6.929  12.011  1.00  0.00     0.024 C 
ATOM      6  C   UNL     1       3.700   7.862  12.343  1.00  0.00     0.017 C 
ATOM      7  C   UNL     1       6.546   7.748  13.832  1.00  0.00     0.016 C 
ENDROOT
BRANCH   1   8
ATOM      8  C   UNL     1       2.655  10.124  11.929  1.00  0.00    -0.077 C 
ATOM      9  C   UNL     1       2.049  11.017  10.876  1.00  0.00     0.039 C 
ATOM     10  C   UNL     1       2.137  10.150  13.168  1.00  0.00     0.008 C 
ENDBRANCH   1   8
BRANCH   5  11
ATOM     11  C   UNL     1       4.694   5.539  12.629  1.00  0.00    -0.077 C 
ATOM     12  C   UNL     1       3.541   4.875  12.435  1.00  0.00     0.008 C 
ATOM     13  C   UNL     1       5.748   4.877  13.485  1.00  0.00     0.039 C 
ENDBRANCH   5  11
BRANCH   4  14
ATOM     14  C   UNL     1       7.393   6.706  11.719  1.00  0.00    -0.028 C 
ATOM     15  C   UNL     1       8.489   6.342  12.401  1.00  0.00     0.004 C 
ENDBRANCH   4  14
TORSDOF 3
ENDMDL
MODEL 4
REMARK VINA RESULT:    -2.154      2.435      6.293
REMARK INTER + INTRA:          -2.810
REMARK INTER:                  -2.834
REMARK INTRA:                   0.024
REMARK UNBOUND:                -0.279
REMARK SMILES C=C[C@@]1(C)CC[C@H](C(=C)C)C[C@@H]1C(=C)C
REMARK SMILES IDX 7 1 6 2 5 3 3 4 12 5 11 6 4 7 8 8 10 9 9 10 13 11 14 12
REMARK SMILES IDX 15 13 2 14 1 15
REMARK H PARENT
REMARK Flexibility Score: inf
ROOT
ATOM      1  C   UNL     1       4.392   8.782  12.341  1.00  0.00     0.015 C 
ATOM      2  C   UNL     1       4.356   7.607  11.350  1.00  0.00     0.009 C 
ATOM      3  C   UNL     1       5.013   6.358  11.955  1.00  0.00     0.012 C 
ATOM      4  C   UNL     1       6.485   6.596  12.410  1.00  0.00    -0.008 C 
ATOM      5  C   UNL     1       6.523   7.846  13.368  1.00  0.00     0.024 C 
ATOM      6  C   UNL     1       5.838   9.094  12.763  1.00  0.00     0.017 C 
ATOM      7  C   UNL     1       7.398   6.780  11.171  1.00  0.00     0.016 C 
ENDROOT
BRANCH   1   8
ATOM      8  C   UNL     1       3.710  10.014  11.757  1.00  0.00    -0.077 C 
ATOM      9  C   UNL     1       2.303  10.392  12.145  1.00  0.00     0.039 C 
ATOM     10  C   UNL     1       4.363  10.788  10.875  1.00  0.00     0.008 C 
ENDBRANCH   1   8
BRANCH   5  11
ATOM     11  C   UNL     1       7.917   8.187  13.910  1.00  0.00    -0.077 C 
ATOM     12  C   UNL     1       8.054   8.635  15.170  1.00  0.00     0.008 C 
ATOM     13  C   UNL     1       9.166   8.064  13.070  1.00  0.00     0.039 C 
ENDBRANCH   5  11
BRANCH   4  14
ATOM     14  C   UNL     1       6.947   5.358  13.181  1.00  0.00    -0.028 C 
ATOM     15  C   UNL     1       6.300   4.875  14.251  1.00  0.00     0.004 C 
ENDBRANCH   4  14
TORSDOF 3
ENDMDL
MODEL 5
REMARK VINA RESULT:    -1.952      1.336      2.463
REMARK INTER + INTRA:          -2.573
REMARK INTER:                  -2.528
REMARK INTRA:                  -0.045
REMARK UNBOUND:                -0.279
REMARK SMILES C=C[C@@]1(C)CC[C@H](C(=C)C)C[C@@H]1C(=C)C
REMARK SMILES IDX 7 1 6 2 5 3 3 4 12 5 11 6 4 7 8 8 10 9 9 10 13 11 14 12
REMARK SMILES IDX 15 13 2 14 1 15
REMARK H PARENT
REMARK Flexibility Score: inf
ROOT
ATOM      1  C   UNL     1       4.379   9.560  12.311  1.00  0.00     0.015 C 
ATOM      2  C   UNL     1       4.292  10.104  10.876  1.00  0.00     0.009 C 
ATOM      3  C   UNL     1       4.037  11.618  10.875  1.00  0.00     0.012 C 
ATOM      4  C   UNL     1       2.750  12.026  11.654  1.00  0.00    -0.008 C 
ATOM      5  C   UNL     1       2.814  11.405  13.101  1.00  0.00     0.024 C 
ATOM      6  C   UNL     1       3.096   9.883  13.095  1.00  0.00     0.017 C 
ATOM      7  C   UNL     1       1.492  11.564  10.875  1.00  0.00     0.016 C 
ENDROOT
BRANCH   1   8
ATOM      8  C   UNL     1       4.665   8.063  12.316  1.00  0.00    -0.077 C 
ATOM      9  C   UNL     1       3.799   7.100  13.089  1.00  0.00     0.039 C 
ATOM     10  C   UNL     1       5.709   7.576  11.626  1.00  0.00     0.008 C 
ENDBRANCH   1   8
BRANCH   5  11
ATOM     11  C   UNL     1       1.612  11.743  13.991  1.00  0.00    -0.077 C 
ATOM     12  C   UNL     1       1.808  12.150  15.257  1.00  0.00     0.008 C 
ATOM     13  C   UNL     1       0.186  11.614  13.510  1.00  0.00     0.039 C 
ENDBRANCH   5  11
BRANCH   4  14
ATOM     14  C   UNL     1       2.728  13.551  11.764  1.00  0.00    -0.028 C 
ATOM     15  C   UNL     1       3.830  14.310  11.693  1.00  0.00     0.004 C 
ENDBRANCH   4  14
TORSDOF 3
ENDMDL
MODEL 6
REMARK VINA RESULT:    -1.731      1.177      1.831
REMARK INTER + INTRA:          -2.313
REMARK INTER:                  -2.007
REMARK INTRA:                  -0.306
REMARK UNBOUND:                -0.279
REMARK SMILES C=C[C@@]1(C)CC[C@H](C(=C)C)C[C@@H]1C(=C)C
REMARK SMILES IDX 7 1 6 2 5 3 3 4 12 5 11 6 4 7 8 8 10 9 9 10 13 11 14 12
REMARK SMILES IDX 15 13 2 14 1 15
REMARK H PARENT
REMARK Flexibility Score: inf
ROOT
ATOM      1  C   UNL     1       5.318   9.043  11.723  1.00  0.00     0.015 C 
ATOM      2  C   UNL     1       3.989   8.302  11.941  1.00  0.00     0.009 C 
ATOM      3  C   UNL     1       2.826   9.049  11.271  1.00  0.00     0.012 C 
ATOM      4  C   UNL     1       2.676  10.521  11.762  1.00  0.00    -0.008 C 
ATOM      5  C   UNL     1       4.062  11.253  11.602  1.00  0.00     0.024 C 
ATOM      6  C   UNL     1       5.233  10.483  12.258  1.00  0.00     0.017 C 
ATOM      7  C   UNL     1       2.170  10.541  13.228  1.00  0.00     0.016 C 
ENDROOT
BRANCH   1   8
ATOM      8  C   UNL     1       6.480   8.288  12.357  1.00  0.00    -0.077 C 
ATOM      9  C   UNL     1       6.679   6.811  12.124  1.00  0.00     0.039 C 
ATOM     10  C   UNL     1       7.351   8.936  13.147  1.00  0.00     0.008 C 
ENDBRANCH   1   8
BRANCH   5  11
ATOM     11  C   UNL     1       4.056  12.725  12.033  1.00  0.00    -0.077 C 
ATOM     12  C   UNL     1       4.015  13.695  11.103  1.00  0.00     0.008 C 
ATOM     13  C   UNL     1       4.120  13.146  13.482  1.00  0.00     0.039 C 
ENDBRANCH   5  11
BRANCH   4  14
ATOM     14  C   UNL     1       1.639  11.211  10.875  1.00  0.00    -0.028 C 
ATOM     15  C   UNL     1       0.332  11.258  11.171  1.00  0.00     0.004 C 
ENDBRANCH   4  14
TORSDOF 3
ENDMDL
