MODEL 1
REMARK VINA RESULT:    -5.004      0.000      0.000
REMARK INTER + INTRA:          -9.901
REMARK INTER:                  -8.515
REMARK INTRA:                  -1.386
REMARK UNBOUND:                -1.386
REMARK SMILES CCCCCCCCCCCCCC(=O)[O-]
REMARK SMILES IDX 8 1 9 2 10 3 11 4 12 5 13 6 14 7 15 8 16 9 7 10 6 11 5 12
REMARK SMILES IDX 4 13 3 14 2 15 1 16
REMARK H PARENT
REMARK Flexibility Score: inf
ROOT
ATOM      1  C   UNL     1      54.116  33.404  43.872  1.00  0.00     0.000 C 
ENDROOT
BRANCH   1   2
ATOM      2  C   UNL     1      53.056  33.845  42.850  1.00  0.00     0.000 C 
BRANCH   2   3
ATOM      3  C   UNL     1      52.089  34.898  43.418  1.00  0.00     0.000 C 
BRANCH   3   4
ATOM      4  C   UNL     1      52.742  35.775  44.499  1.00  0.00     0.000 C 
BRANCH   4   5
ATOM      5  C   UNL     1      53.041  37.202  44.006  1.00  0.00     0.006 C 
BRANCH   5   6
ATOM      6  C   UNL     1      54.528  37.558  44.131  1.00  0.00     0.053 C 
BRANCH   6   7
ATOM      7  C   UNL     1      55.358  36.835  43.116  1.00  0.00     0.041 C 
ATOM      8  O   UNL     1      54.972  36.753  41.921  1.00  0.00    -0.550 OA
ATOM      9  O   UNL     1      56.544  36.220  43.499  1.00  0.00    -0.550 OA
ENDBRANCH   6   7
ENDBRANCH   5   6
ENDBRANCH   4   5
ENDBRANCH   3   4
ENDBRANCH   2   3
ENDBRANCH   1   2
BRANCH   1  10
ATOM     10  C   UNL     1      55.269  32.617  43.224  1.00  0.00     0.000 C 
BRANCH  10  11
ATOM     11  C   UNL     1      55.334  31.160  43.711  1.00  0.00    -0.000 C 
BRANCH  11  12
ATOM     12  C   UNL     1      54.659  30.177  42.738  1.00  0.00    -0.000 C 
BRANCH  12  13
ATOM     13  C   UNL     1      53.272  29.727  43.223  1.00  0.00    -0.000 C 
BRANCH  13  14
ATOM     14  C   UNL     1      52.206  29.806  42.117  1.00  0.00    -0.000 C 
BRANCH  14  15
ATOM     15  C   UNL     1      50.810  30.138  42.668  1.00  0.00    -0.003 C 
ATOM     16  C   UNL     1      50.358  31.555  42.314  1.00  0.00     0.004 C 
ENDBRANCH  14  15
ENDBRANCH  13  14
ENDBRANCH  12  13
ENDBRANCH  11  12
ENDBRANCH  10  11
ENDBRANCH   1  10
TORSDOF 12
ENDMDL
MODEL 2
REMARK VINA RESULT:    -4.879      7.676     10.724
REMARK INTER + INTRA:          -9.688
REMARK INTER:                  -8.079
REMARK INTRA:                  -1.610
REMARK UNBOUND:                -1.386
REMARK SMILES CCCCCCCCCCCCCC(=O)[O-]
REMARK SMILES IDX 8 1 9 2 10 3 11 4 12 5 13 6 14 7 15 8 16 9 7 10 6 11 5 12
REMARK SMILES IDX 4 13 3 14 2 15 1 16
REMARK H PARENT
REMARK Flexibility Score: inf
ROOT
ATOM      1  C   UNL     1      58.027  37.960  34.820  1.00  0.00     0.000 C 
ENDROOT
BRANCH   1   2
ATOM      2  C   UNL     1      57.724  37.356  36.201  1.00  0.00     0.000 C 
BRANCH   2   3
ATOM      3  C   UNL     1      58.789  37.718  37.250  1.00  0.00     0.000 C 
BRANCH   3   4
ATOM      4  C   UNL     1      58.197  38.455  38.462  1.00  0.00     0.000 C 
BRANCH   4   5
ATOM      5  C   UNL     1      56.822  37.903  38.879  1.00  0.00     0.006 C 
BRANCH   5   6
ATOM      6  C   UNL     1      56.372  38.441  40.244  1.00  0.00     0.053 C 
BRANCH   6   7
ATOM      7  C   UNL     1      55.289  37.598  40.843  1.00  0.00     0.041 C 
ATOM      8  O   UNL     1      54.093  37.988  40.818  1.00  0.00    -0.550 OA
ATOM      9  O   UNL     1      55.608  36.395  41.461  1.00  0.00    -0.550 OA
ENDBRANCH   6   7
ENDBRANCH   5   6
ENDBRANCH   4   5
ENDBRANCH   3   4
ENDBRANCH   2   3
ENDBRANCH   1   2
BRANCH   1  10
ATOM     10  C   UNL     1      57.269  39.276  34.572  1.00  0.00     0.000 C 
BRANCH  10  11
ATOM     11  C   UNL     1      58.099  40.514  34.949  1.00  0.00    -0.000 C 
BRANCH  11  12
ATOM     12  C   UNL     1      59.571  40.398  34.512  1.00  0.00    -0.000 C 
BRANCH  12  13
ATOM     13  C   UNL     1      60.551  40.649  35.668  1.00  0.00    -0.000 C 
BRANCH  13  14
ATOM     14  C   UNL     1      61.511  39.469  35.895  1.00  0.00    -0.000 C 
BRANCH  14  15
ATOM     15  C   UNL     1      61.678  38.597  34.641  1.00  0.00    -0.003 C 
ATOM     16  C   UNL     1      61.594  37.102  34.946  1.00  0.00     0.004 C 
ENDBRANCH  14  15
ENDBRANCH  13  14
ENDBRANCH  12  13
ENDBRANCH  11  12
ENDBRANCH  10  11
ENDBRANCH   1  10
TORSDOF 12
ENDMDL
MODEL 3
REMARK VINA RESULT:    -4.872      7.501     10.391
REMARK INTER + INTRA:          -9.677
REMARK INTER:                  -8.320
REMARK INTRA:                  -1.356
REMARK UNBOUND:                -1.386
REMARK SMILES CCCCCCCCCCCCCC(=O)[O-]
REMARK SMILES IDX 8 1 9 2 10 3 11 4 12 5 13 6 14 7 15 8 16 9 7 10 6 11 5 12
REMARK SMILES IDX 4 13 3 14 2 15 1 16
REMARK H PARENT
REMARK Flexibility Score: inf
ROOT
ATOM      1  C   UNL     1      60.539  37.018  36.722  1.00  0.00     0.000 C 
ENDROOT
BRANCH   1   2
ATOM      2  C   UNL     1      59.009  37.134  36.813  1.00  0.00     0.000 C 
BRANCH   2   3
ATOM      3  C   UNL     1      58.556  38.121  37.903  1.00  0.00     0.000 C 
BRANCH   3   4
ATOM      4  C   UNL     1      57.084  37.925  38.300  1.00  0.00     0.000 C 
BRANCH   4   5
ATOM      5  C   UNL     1      56.813  38.279  39.773  1.00  0.00     0.006 C 
BRANCH   5   6
ATOM      6  C   UNL     1      55.994  37.197  40.487  1.00  0.00     0.053 C 
BRANCH   6   7
ATOM      7  C   UNL     1      54.837  37.782  41.238  1.00  0.00     0.041 C 
ATOM      8  O   UNL     1      54.158  37.065  42.017  1.00  0.00    -0.550 OA
ATOM      9  O   UNL     1      54.489  39.114  41.049  1.00  0.00    -0.550 OA
ENDBRANCH   6   7
ENDBRANCH   5   6
ENDBRANCH   4   5
ENDBRANCH   3   4
ENDBRANCH   2   3
ENDBRANCH   1   2
BRANCH   1  10
ATOM     10  C   UNL     1      61.045  37.014  35.268  1.00  0.00     0.000 C 
BRANCH  10  11
ATOM     11  C   UNL     1      61.663  38.360  34.857  1.00  0.00    -0.000 C 
BRANCH  11  12
ATOM     12  C   UNL     1      61.772  39.348  36.032  1.00  0.00    -0.000 C 
BRANCH  12  13
ATOM     13  C   UNL     1      60.719  40.466  35.962  1.00  0.00    -0.000 C 
BRANCH  13  14
ATOM     14  C   UNL     1      59.910  40.433  34.654  1.00  0.00    -0.000 C 
BRANCH  14  15
ATOM     15  C   UNL     1      58.409  40.663  34.886  1.00  0.00    -0.003 C 
ATOM     16  C   UNL     1      57.561  39.453  34.496  1.00  0.00     0.004 C 
ENDBRANCH  14  15
ENDBRANCH  13  14
ENDBRANCH  12  13
ENDBRANCH  11  12
ENDBRANCH  10  11
ENDBRANCH   1  10
TORSDOF 12
ENDMDL
MODEL 4
REMARK VINA RESULT:    -4.870      1.960      2.610
REMARK INTER + INTRA:          -9.672
REMARK INTER:                  -8.526
REMARK INTRA:                  -1.146
REMARK UNBOUND:                -1.386
REMARK SMILES CCCCCCCCCCCCCC(=O)[O-]
REMARK SMILES IDX 8 1 9 2 10 3 11 4 12 5 13 6 14 7 15 8 16 9 7 10 6 11 5 12
REMARK SMILES IDX 4 13 3 14 2 15 1 16
REMARK H PARENT
REMARK Flexibility Score: inf
ROOT
ATOM      1  C   UNL     1      54.856  32.610  43.617  1.00  0.00     0.000 C 
ENDROOT
BRANCH   1   2
ATOM      2  C   UNL     1      55.535  33.440  42.516  1.00  0.00     0.000 C 
BRANCH   2   3
ATOM      3  C   UNL     1      55.603  34.937  42.861  1.00  0.00     0.000 C 
BRANCH   3   4
ATOM      4  C   UNL     1      54.427  35.394  43.739  1.00  0.00     0.000 C 
BRANCH   4   5
ATOM      5  C   UNL     1      53.366  36.181  42.949  1.00  0.00     0.006 C 
BRANCH   5   6
ATOM      6  C   UNL     1      52.062  36.349  43.740  1.00  0.00     0.053 C 
BRANCH   6   7
ATOM      7  C   UNL     1      52.306  36.949  45.091  1.00  0.00     0.041 C 
ATOM      8  O   UNL     1      52.695  38.142  45.194  1.00  0.00    -0.550 OA
ATOM      9  O   UNL     1      52.137  36.179  46.234  1.00  0.00    -0.550 OA
ENDBRANCH   6   7
ENDBRANCH   5   6
ENDBRANCH   4   5
ENDBRANCH   3   4
ENDBRANCH   2   3
ENDBRANCH   1   2
BRANCH   1  10
ATOM     10  C   UNL     1      55.370  31.159  43.665  1.00  0.00     0.000 C 
BRANCH  10  11
ATOM     11  C   UNL     1      54.644  30.246  42.664  1.00  0.00    -0.000 C 
BRANCH  11  12
ATOM     12  C   UNL     1      53.278  29.763  43.182  1.00  0.00    -0.000 C 
BRANCH  12  13
ATOM     13  C   UNL     1      52.195  29.775  42.091  1.00  0.00    -0.000 C 
BRANCH  13  14
ATOM     14  C   UNL     1      50.843  30.297  42.608  1.00  0.00    -0.000 C 
BRANCH  14  15
ATOM     15  C   UNL     1      50.487  31.676  42.034  1.00  0.00    -0.003 C 
ATOM     16  C   UNL     1      51.299  32.806  42.668  1.00  0.00     0.004 C 
ENDBRANCH  14  15
ENDBRANCH  13  14
ENDBRANCH  12  13
ENDBRANCH  11  12
ENDBRANCH  10  11
ENDBRANCH   1  10
TORSDOF 12
ENDMDL
MODEL 5
REMARK VINA RESULT:    -4.866      7.197     10.081
REMARK INTER + INTRA:          -9.666
REMARK INTER:                  -8.287
REMARK INTRA:                  -1.379
REMARK UNBOUND:                -1.386
REMARK SMILES CCCCCCCCCCCCCC(=O)[O-]
REMARK SMILES IDX 8 1 9 2 10 3 11 4 12 5 13 6 14 7 15 8 16 9 7 10 6 11 5 12
REMARK SMILES IDX 4 13 3 14 2 15 1 16
REMARK H PARENT
REMARK Flexibility Score: inf
ROOT
ATOM      1  C   UNL     1      58.701  37.026  36.485  1.00  0.00     0.000 C 
ENDROOT
BRANCH   1   2
ATOM      2  C   UNL     1      57.695  37.895  37.257  1.00  0.00     0.000 C 
BRANCH   2   3
ATOM      3  C   UNL     1      58.229  38.338  38.630  1.00  0.00     0.000 C 
BRANCH   3   4
ATOM      4  C   UNL     1      57.104  38.609  39.641  1.00  0.00     0.000 C 
BRANCH   4   5
ATOM      5  C   UNL     1      56.033  37.503  39.649  1.00  0.00     0.006 C 
BRANCH   5   6
ATOM      6  C   UNL     1      55.790  36.943  41.057  1.00  0.00     0.053 C 
BRANCH   6   7
ATOM      7  C   UNL     1      54.510  37.454  41.644  1.00  0.00     0.041 C 
ATOM      8  O   UNL     1      54.094  38.606  41.352  1.00  0.00    -0.550 OA
ATOM      9  O   UNL     1      53.796  36.670  42.540  1.00  0.00    -0.550 OA
ENDBRANCH   6   7
ENDBRANCH   5   6
ENDBRANCH   4   5
ENDBRANCH   3   4
ENDBRANCH   2   3
ENDBRANCH   1   2
BRANCH   1  10
ATOM     10  C   UNL     1      58.628  37.251  34.963  1.00  0.00     0.000 C 
BRANCH  10  11
ATOM     11  C   UNL     1      59.978  37.009  34.268  1.00  0.00    -0.000 C 
BRANCH  11  12
ATOM     12  C   UNL     1      61.176  37.174  35.220  1.00  0.00    -0.000 C 
BRANCH  12  13
ATOM     13  C   UNL     1      61.813  38.570  35.129  1.00  0.00    -0.000 C 
BRANCH  13  14
ATOM     14  C   UNL     1      61.704  39.355  36.447  1.00  0.00    -0.000 C 
BRANCH  14  15
ATOM     15  C   UNL     1      60.493  40.300  36.470  1.00  0.00    -0.003 C 
ATOM     16  C   UNL     1      60.028  40.696  35.069  1.00  0.00     0.004 C 
ENDBRANCH  14  15
ENDBRANCH  13  14
ENDBRANCH  12  13
ENDBRANCH  11  12
ENDBRANCH  10  11
ENDBRANCH   1  10
TORSDOF 12
ENDMDL
MODEL 6
REMARK VINA RESULT:    -4.860      2.183      3.694
REMARK INTER + INTRA:          -9.655
REMARK INTER:                  -8.230
REMARK INTRA:                  -1.425
REMARK UNBOUND:                -1.386
REMARK SMILES CCCCCCCCCCCCCC(=O)[O-]
REMARK SMILES IDX 8 1 9 2 10 3 11 4 12 5 13 6 14 7 15 8 16 9 7 10 6 11 5 12
REMARK SMILES IDX 4 13 3 14 2 15 1 16
REMARK H PARENT
REMARK Flexibility Score: inf
ROOT
ATOM      1  C   UNL     1      50.382  32.466  43.347  1.00  0.00     0.000 C 
ENDROOT
BRANCH   1   2
ATOM      2  C   UNL     1      51.154  33.755  43.674  1.00  0.00     0.000 C 
BRANCH   2   3
ATOM      3  C   UNL     1      52.284  34.037  42.670  1.00  0.00     0.000 C 
BRANCH   3   4
ATOM      4  C   UNL     1      53.087  35.298  43.026  1.00  0.00     0.000 C 
BRANCH   4   5
ATOM      5  C   UNL     1      53.865  35.155  44.346  1.00  0.00     0.006 C 
BRANCH   5   6
ATOM      6  C   UNL     1      53.846  36.448  45.172  1.00  0.00     0.053 C 
BRANCH   6   7
ATOM      7  C   UNL     1      53.053  36.289  46.432  1.00  0.00     0.041 C 
ATOM      8  O   UNL     1      53.636  36.226  47.546  1.00  0.00    -0.550 OA
ATOM      9  O   UNL     1      51.670  36.177  46.372  1.00  0.00    -0.550 OA
ENDBRANCH   6   7
ENDBRANCH   5   6
ENDBRANCH   4   5
ENDBRANCH   3   4
ENDBRANCH   2   3
ENDBRANCH   1   2
BRANCH   1  10
ATOM     10  C   UNL     1      50.983  31.705  42.152  1.00  0.00     0.000 C 
BRANCH  10  11
ATOM     11  C   UNL     1      50.910  30.180  42.327  1.00  0.00    -0.000 C 
BRANCH  11  12
ATOM     12  C   UNL     1      52.262  29.487  42.085  1.00  0.00    -0.000 C 
BRANCH  12  13
ATOM     13  C   UNL     1      53.207  29.599  43.292  1.00  0.00    -0.000 C 
BRANCH  13  14
ATOM     14  C   UNL     1      54.590  30.153  42.908  1.00  0.00    -0.000 C 
BRANCH  14  15
ATOM     15  C   UNL     1      54.910  31.477  43.619  1.00  0.00    -0.003 C 
ATOM     16  C   UNL     1      55.704  32.442  42.738  1.00  0.00     0.004 C 
ENDBRANCH  14  15
ENDBRANCH  13  14
ENDBRANCH  12  13
ENDBRANCH  11  12
ENDBRANCH  10  11
ENDBRANCH   1  10
TORSDOF 12
ENDMDL
MODEL 7
REMARK VINA RESULT:    -4.842      2.106      2.375
REMARK INTER + INTRA:          -9.625
REMARK INTER:                  -8.513
REMARK INTRA:                  -1.112
REMARK UNBOUND:                -1.386
REMARK SMILES CCCCCCCCCCCCCC(=O)[O-]
REMARK SMILES IDX 8 1 9 2 10 3 11 4 12 5 13 6 14 7 15 8 16 9 7 10 6 11 5 12
REMARK SMILES IDX 4 13 3 14 2 15 1 16
REMARK H PARENT
REMARK Flexibility Score: inf
ROOT
ATOM      1  C   UNL     1      54.153  33.631  43.797  1.00  0.00     0.000 C 
ENDROOT
BRANCH   1   2
ATOM      2  C   UNL     1      53.158  34.344  42.867  1.00  0.00     0.000 C 
BRANCH   2   3
ATOM      3  C   UNL     1      52.405  35.485  43.572  1.00  0.00     0.000 C 
BRANCH   3   4
ATOM      4  C   UNL     1      51.542  34.988  44.742  1.00  0.00     0.000 C 
BRANCH   4   5
ATOM      5  C   UNL     1      51.789  35.777  46.040  1.00  0.00     0.006 C 
BRANCH   5   6
ATOM      6  C   UNL     1      53.149  36.488  46.035  1.00  0.00     0.053 C 
BRANCH   6   7
ATOM      7  C   UNL     1      53.014  37.945  46.351  1.00  0.00     0.041 C 
ATOM      8  O   UNL     1      52.869  38.785  45.425  1.00  0.00    -0.550 OA
ATOM      9  O   UNL     1      53.084  38.379  47.669  1.00  0.00    -0.550 OA
ENDBRANCH   6   7
ENDBRANCH   5   6
ENDBRANCH   4   5
ENDBRANCH   3   4
ENDBRANCH   2   3
ENDBRANCH   1   2
BRANCH   1  10
ATOM     10  C   UNL     1      55.084  32.667  43.038  1.00  0.00     0.000 C 
BRANCH  10  11
ATOM     11  C   UNL     1      55.297  31.342  43.787  1.00  0.00    -0.000 C 
BRANCH  11  12
ATOM     12  C   UNL     1      54.774  30.125  43.003  1.00  0.00    -0.000 C 
BRANCH  12  13
ATOM     13  C   UNL     1      53.287  29.844  43.271  1.00  0.00    -0.000 C 
BRANCH  13  14
ATOM     14  C   UNL     1      52.472  29.701  41.975  1.00  0.00    -0.000 C 
BRANCH  14  15
ATOM     15  C   UNL     1      51.012  30.149  42.146  1.00  0.00    -0.003 C 
ATOM     16  C   UNL     1      50.881  31.652  42.386  1.00  0.00     0.004 C 
ENDBRANCH  14  15
ENDBRANCH  13  14
ENDBRANCH  12  13
ENDBRANCH  11  12
ENDBRANCH  10  11
ENDBRANCH   1  10
TORSDOF 12
ENDMDL
MODEL 8
REMARK VINA RESULT:    -4.808      0.906      2.957
REMARK INTER + INTRA:          -9.567
REMARK INTER:                  -8.132
REMARK INTRA:                  -1.435
REMARK UNBOUND:                -1.386
REMARK SMILES CCCCCCCCCCCCCC(=O)[O-]
REMARK SMILES IDX 8 1 9 2 10 3 11 4 12 5 13 6 14 7 15 8 16 9 7 10 6 11 5 12
REMARK SMILES IDX 4 13 3 14 2 15 1 16
REMARK H PARENT
REMARK Flexibility Score: inf
ROOT
ATOM      1  C   UNL     1      50.792  32.532  42.120  1.00  0.00     0.000 C 
ENDROOT
BRANCH   1   2
ATOM      2  C   UNL     1      51.945  33.470  42.511  1.00  0.00     0.000 C 
BRANCH   2   3
ATOM      3  C   UNL     1      51.648  34.270  43.791  1.00  0.00     0.000 C 
BRANCH   3   4
ATOM      4  C   UNL     1      52.924  34.654  44.556  1.00  0.00     0.000 C 
BRANCH   4   5
ATOM      5  C   UNL     1      53.137  36.176  44.632  1.00  0.00     0.006 C 
BRANCH   5   6
ATOM      6  C   UNL     1      53.546  36.772  43.278  1.00  0.00     0.053 C 
BRANCH   6   7
ATOM      7  C   UNL     1      55.004  36.566  43.001  1.00  0.00     0.041 C 
ATOM      8  O   UNL     1      55.843  36.632  43.936  1.00  0.00    -0.550 OA
ATOM      9  O   UNL     1      55.437  36.337  41.701  1.00  0.00    -0.550 OA
ENDBRANCH   6   7
ENDBRANCH   5   6
ENDBRANCH   4   5
ENDBRANCH   3   4
ENDBRANCH   2   3
ENDBRANCH   1   2
BRANCH   1  10
ATOM     10  C   UNL     1      50.885  31.161  42.812  1.00  0.00     0.000 C 
BRANCH  10  11
ATOM     11  C   UNL     1      51.141  30.016  41.819  1.00  0.00    -0.000 C 
BRANCH  11  12
ATOM     12  C   UNL     1      52.594  29.509  41.857  1.00  0.00    -0.000 C 
BRANCH  12  13
ATOM     13  C   UNL     1      53.328  29.919  43.144  1.00  0.00    -0.000 C 
BRANCH  13  14
ATOM     14  C   UNL     1      54.801  30.285  42.891  1.00  0.00    -0.000 C 
BRANCH  14  15
ATOM     15  C   UNL     1      55.242  31.526  43.682  1.00  0.00    -0.003 C 
ATOM     16  C   UNL     1      55.553  32.720  42.781  1.00  0.00     0.004 C 
ENDBRANCH  14  15
ENDBRANCH  13  14
ENDBRANCH  12  13
ENDBRANCH  11  12
ENDBRANCH  10  11
ENDBRANCH   1  10
TORSDOF 12
ENDMDL
MODEL 9
REMARK VINA RESULT:    -4.792      6.603      8.937
REMARK INTER + INTRA:          -9.540
REMARK INTER:                  -8.462
REMARK INTRA:                  -1.077
REMARK UNBOUND:                -1.386
REMARK SMILES CCCCCCCCCCCCCC(=O)[O-]
REMARK SMILES IDX 8 1 9 2 10 3 11 4 12 5 13 6 14 7 15 8 16 9 7 10 6 11 5 12
REMARK SMILES IDX 4 13 3 14 2 15 1 16
REMARK H PARENT
REMARK Flexibility Score: inf
ROOT
ATOM      1  C   UNL     1      59.030  38.864  37.613  1.00  0.00     0.000 C 
ENDROOT
BRANCH   1   2
ATOM      2  C   UNL     1      57.666  38.185  37.816  1.00  0.00     0.000 C 
BRANCH   2   3
ATOM      3  C   UNL     1      57.232  38.162  39.292  1.00  0.00     0.000 C 
BRANCH   3   4
ATOM      4  C   UNL     1      55.922  37.388  39.509  1.00  0.00     0.000 C 
BRANCH   4   5
ATOM      5  C   UNL     1      55.371  37.540  40.938  1.00  0.00     0.006 C 
BRANCH   5   6
ATOM      6  C   UNL     1      55.592  36.278  41.781  1.00  0.00     0.053 C 
BRANCH   6   7
ATOM      7  C   UNL     1      56.057  36.610  43.166  1.00  0.00     0.041 C 
ATOM      8  O   UNL     1      57.263  36.452  43.486  1.00  0.00    -0.550 OA
ATOM      9  O   UNL     1      55.147  37.063  44.113  1.00  0.00    -0.550 OA
ENDBRANCH   6   7
ENDBRANCH   5   6
ENDBRANCH   4   5
ENDBRANCH   3   4
ENDBRANCH   2   3
ENDBRANCH   1   2
BRANCH   1  10
ATOM     10  C   UNL     1      60.186  37.851  37.528  1.00  0.00     0.000 C 
BRANCH  10  11
ATOM     11  C   UNL     1      59.931  36.754  36.482  1.00  0.00    -0.000 C 
BRANCH  11  12
ATOM     12  C   UNL     1      60.747  36.958  35.193  1.00  0.00    -0.000 C 
BRANCH  12  13
ATOM     13  C   UNL     1      59.871  37.364  33.998  1.00  0.00    -0.000 C 
BRANCH  13  14
ATOM     14  C   UNL     1      58.375  37.105  34.248  1.00  0.00    -0.000 C 
BRANCH  14  15
ATOM     15  C   UNL     1      57.520  38.367  34.061  1.00  0.00    -0.003 C 
ATOM     16  C   UNL     1      56.071  38.169  34.506  1.00  0.00     0.004 C 
ENDBRANCH  14  15
ENDBRANCH  13  14
ENDBRANCH  12  13
ENDBRANCH  11  12
ENDBRANCH  10  11
ENDBRANCH   1  10
TORSDOF 12
ENDMDL
