MODEL 1
REMARK VINA RESULT:    -4.337      0.000      0.000
REMARK INTER + INTRA:          -6.196
REMARK INTER:                  -6.112
REMARK INTRA:                  -0.084
REMARK UNBOUND:                -0.084
REMARK SMILES CC1=CCC(=C(C)C)CCC(C)=CCC1
REMARK SMILES IDX 5 1 6 2 7 3 8 4 9 5 10 6 11 7 12 8 13 9 4 11 3 12 2 13 1 14
REMARK SMILES IDX 15 15 14 16
REMARK H PARENT
REMARK Flexibility Score: 60.00
ROOT
ATOM      1  C   UNL     1      11.492   7.733  27.034  1.00  0.00    -0.067 C 
ATOM      2  C   UNL     1      11.912   8.165  25.802  1.00  0.00    -0.077 C 
ATOM      3  C   UNL     1      12.812   7.306  24.936  1.00  0.00     0.039 C 
ATOM      4  C   UNL     1      11.485   9.507  25.242  1.00  0.00     0.039 C 
ENDROOT
BRANCH   1   5
ATOM      5  C   UNL     1      10.542   8.583  27.873  1.00  0.00     0.035 C 
BRANCH   5   6
ATOM      6  C   UNL     1       9.401   7.748  28.496  1.00  0.00     0.035 C 
BRANCH   6   7
ATOM      7  C   UNL     1       9.536   7.658  30.002  1.00  0.00    -0.077 C 
ATOM      8  C   UNL     1       9.749   8.933  30.777  1.00  0.00     0.039 C 
ATOM      9  C   UNL     1       9.420   6.501  30.691  1.00  0.00    -0.028 CG0
ATOM     10  G   UNL     1       9.204   5.128  30.091  1.00  0.00     0.000 G0
ENDBRANCH   6   7
ENDBRANCH   5   6
ENDBRANCH   1   5
BRANCH   1  11
ATOM     11  C   UNL     1      11.883   6.336  27.526  1.00  0.00     0.058 C 
BRANCH  11  12
ATOM     12  C   UNL     1      10.967   5.211  27.100  1.00  0.00    -0.024 C 
ATOM     13  C   UNL     1      10.357   4.344  27.942  1.00  0.00    -0.077 C 
ATOM     14  C   UNL     1       9.611   3.178  27.344  1.00  0.00     0.039 C 
BRANCH  13  15
ATOM     15  C   UNL     1      10.439   4.470  29.455  1.00  0.00     0.034 C 
BRANCH  15  16
ATOM     16  C   UNL     1       9.195   5.118  30.104  1.00  0.00     0.032 CG0
ATOM     17  G   UNL     1       9.413   6.499  30.684  1.00  0.00     0.000 G0
ENDBRANCH  15  16
ENDBRANCH  13  15
ENDBRANCH  11  12
ENDBRANCH   1  11
TORSDOF 0
ENDMDL
MODEL 2
REMARK VINA RESULT:    -4.187      0.763      3.471
REMARK INTER + INTRA:          -5.984
REMARK INTER:                  -6.281
REMARK INTRA:                   0.297
REMARK UNBOUND:                -0.084
REMARK SMILES CC1=CCC(=C(C)C)CCC(C)=CCC1
REMARK SMILES IDX 5 1 6 2 7 3 8 4 9 5 10 6 11 7 12 8 13 9 4 11 3 12 2 13 1 14
REMARK SMILES IDX 15 15 14 16
REMARK H PARENT
REMARK Flexibility Score: 60.00
ROOT
ATOM      1  C   UNL     1      11.160   7.100  26.790  1.00  0.00    -0.067 C 
ATOM      2  C   UNL     1      11.865   7.962  25.989  1.00  0.00    -0.077 C 
ATOM      3  C   UNL     1      11.431   9.404  25.819  1.00  0.00     0.039 C 
ATOM      4  C   UNL     1      13.116   7.522  25.255  1.00  0.00     0.039 C 
ENDROOT
BRANCH   1   5
ATOM      5  C   UNL     1      11.638   5.665  26.996  1.00  0.00     0.035 C 
BRANCH   5   6
ATOM      6  C   UNL     1      11.530   5.217  28.471  1.00  0.00     0.035 C 
BRANCH   6   7
ATOM      7  C   UNL     1      10.183   4.587  28.763  1.00  0.00    -0.077 C 
ATOM      8  C   UNL     1       9.739   3.426  27.912  1.00  0.00     0.039 C 
ATOM      9  C   UNL     1       9.385   4.976  29.782  1.00  0.00    -0.028 CG0
ATOM     10  G   UNL     1       9.662   6.115  30.741  1.00  0.00     0.000 G0
ENDBRANCH   6   7
ENDBRANCH   5   6
ENDBRANCH   1   5
BRANCH   1  11
ATOM     11  C   UNL     1       9.949   7.609  27.577  1.00  0.00     0.058 C 
BRANCH  11  12
ATOM     12  C   UNL     1      10.250   8.612  28.668  1.00  0.00    -0.024 C 
ATOM     13  C   UNL     1       9.739   8.574  29.921  1.00  0.00    -0.077 C 
ATOM     14  C   UNL     1      10.009   9.742  30.834  1.00  0.00     0.039 C 
BRANCH  13  15
ATOM     15  C   UNL     1       8.866   7.433  30.420  1.00  0.00     0.034 C 
BRANCH  15  16
ATOM     16  C   UNL     1       9.642   6.132  30.728  1.00  0.00     0.032 CG0
ATOM     17  G   UNL     1       9.380   4.981  29.779  1.00  0.00     0.000 G0
ENDBRANCH  15  16
ENDBRANCH  13  15
ENDBRANCH  11  12
ENDBRANCH   1  11
TORSDOF 0
ENDMDL
MODEL 3
REMARK VINA RESULT:    -4.049      4.386      7.149
REMARK INTER + INTRA:          -5.790
REMARK INTER:                  -5.617
REMARK INTRA:                  -0.173
REMARK UNBOUND:                -0.084
REMARK SMILES CC1=CCC(=C(C)C)CCC(C)=CCC1
REMARK SMILES IDX 5 1 6 2 7 3 8 4 9 5 10 6 11 7 12 8 13 9 4 11 3 12 2 13 1 14
REMARK SMILES IDX 15 15 14 16
REMARK H PARENT
REMARK Flexibility Score: 60.00
ROOT
ATOM      1  C   UNL     1      12.900   7.291  25.970  1.00  0.00    -0.067 C 
ATOM      2  C   UNL     1      12.501   6.314  26.846  1.00  0.00    -0.077 C 
ATOM      3  C   UNL     1      11.052   5.878  26.925  1.00  0.00     0.039 C 
ATOM      4  C   UNL     1      13.488   5.612  27.757  1.00  0.00     0.039 C 
ENDROOT
BRANCH   1   5
ATOM      5  C   UNL     1      14.371   7.682  25.861  1.00  0.00     0.035 C 
BRANCH   5   6
ATOM      6  C   UNL     1      14.879   7.654  24.402  1.00  0.00     0.035 C 
BRANCH   6   7
ATOM      7  C   UNL     1      15.267   9.037  23.921  1.00  0.00    -0.077 C 
ATOM      8  C   UNL     1      16.236   9.836  24.754  1.00  0.00     0.039 C 
ATOM      9  C   UNL     1      14.833   9.569  22.756  1.00  0.00    -0.028 CG0
ATOM     10  G   UNL     1      13.865   8.919  21.790  1.00  0.00     0.000 G0
ENDBRANCH   6   7
ENDBRANCH   5   6
ENDBRANCH   1   5
BRANCH   1  11
ATOM     11  C   UNL     1      11.883   7.916  25.011  1.00  0.00     0.058 C 
BRANCH  11  12
ATOM     12  C   UNL     1      11.606   7.133  23.747  1.00  0.00    -0.024 C 
ATOM     13  C   UNL     1      11.774   7.604  22.489  1.00  0.00    -0.077 C 
ATOM     14  C   UNL     1      11.293   6.753  21.342  1.00  0.00     0.039 C 
BRANCH  13  15
ATOM     15  C   UNL     1      12.374   8.970  22.193  1.00  0.00     0.034 C 
BRANCH  15  16
ATOM     16  C   UNL     1      13.860   8.930  21.772  1.00  0.00     0.032 CG0
ATOM     17  G   UNL     1      14.829   9.558  22.751  1.00  0.00     0.000 G0
ENDBRANCH  15  16
ENDBRANCH  13  15
ENDBRANCH  11  12
ENDBRANCH   1  11
TORSDOF 0
ENDMDL
MODEL 4
REMARK VINA RESULT:    -3.901     11.941     13.699
REMARK INTER + INTRA:          -5.582
REMARK INTER:                  -5.477
REMARK INTRA:                  -0.105
REMARK UNBOUND:                -0.084
REMARK SMILES CC1=CCC(=C(C)C)CCC(C)=CCC1
REMARK SMILES IDX 5 1 6 2 7 3 8 4 9 5 10 6 11 7 12 8 13 9 4 11 3 12 2 13 1 14
REMARK SMILES IDX 15 15 14 16
REMARK H PARENT
REMARK Flexibility Score: 60.00
ROOT
ATOM      1  C   UNL     1       5.938   7.611  14.621  1.00  0.00    -0.067 C 
ATOM      2  C   UNL     1       7.003   7.047  13.967  1.00  0.00    -0.077 C 
ATOM      3  C   UNL     1       8.427   7.445  14.302  1.00  0.00     0.039 C 
ATOM      4  C   UNL     1       6.811   5.991  12.897  1.00  0.00     0.039 C 
ENDROOT
BRANCH   1   5
ATOM      5  C   UNL     1       4.512   7.163  14.312  1.00  0.00     0.035 C 
BRANCH   5   6
ATOM      6  C   UNL     1       3.671   6.958  15.592  1.00  0.00     0.035 C 
BRANCH   6   7
ATOM      7  C   UNL     1       2.768   8.145  15.860  1.00  0.00    -0.077 C 
ATOM      8  C   UNL     1       1.871   8.624  14.749  1.00  0.00     0.039 C 
ATOM      9  C   UNL     1       2.686   8.760  17.061  1.00  0.00    -0.028 CG0
ATOM     10  G   UNL     1       3.501   8.421  18.290  1.00  0.00     0.000 G0
ENDBRANCH   6   7
ENDBRANCH   5   6
ENDBRANCH   1   5
BRANCH   1  11
ATOM     11  C   UNL     1       6.182   8.616  15.751  1.00  0.00     0.058 C 
BRANCH  11  12
ATOM     12  C   UNL     1       6.631   8.024  17.068  1.00  0.00    -0.024 C 
ATOM     13  C   UNL     1       6.081   8.302  18.273  1.00  0.00    -0.077 C 
ATOM     14  C   UNL     1       6.756   7.756  19.505  1.00  0.00     0.039 C 
BRANCH  13  15
ATOM     15  C   UNL     1       4.850   9.180  18.433  1.00  0.00     0.034 C 
BRANCH  15  16
ATOM     16  C   UNL     1       3.510   8.420  18.303  1.00  0.00     0.032 CG0
ATOM     17  G   UNL     1       2.693   8.754  17.073  1.00  0.00     0.000 G0
ENDBRANCH  15  16
ENDBRANCH  13  15
ENDBRANCH  11  12
ENDBRANCH   1  11
TORSDOF 0
ENDMDL
MODEL 5
REMARK VINA RESULT:    -3.864      3.937      6.650
REMARK INTER + INTRA:          -5.529
REMARK INTER:                  -5.214
REMARK INTRA:                  -0.315
REMARK UNBOUND:                -0.084
REMARK SMILES CC1=CCC(=C(C)C)CCC(C)=CCC1
REMARK SMILES IDX 5 1 6 2 7 3 8 4 9 5 10 6 11 7 12 8 13 9 4 11 3 12 2 13 1 14
REMARK SMILES IDX 15 15 14 16
REMARK H PARENT
REMARK Flexibility Score: 60.00
ROOT
ATOM      1  C   UNL     1      15.683   8.931  25.226  1.00  0.00    -0.067 C 
ATOM      2  C   UNL     1      17.046   8.948  25.081  1.00  0.00    -0.077 C 
ATOM      3  C   UNL     1      17.742  10.081  24.352  1.00  0.00     0.039 C 
ATOM      4  C   UNL     1      17.921   7.852  25.656  1.00  0.00     0.039 C 
ENDROOT
BRANCH   1   5
ATOM      5  C   UNL     1      14.999   7.813  26.009  1.00  0.00     0.035 C 
BRANCH   5   6
ATOM      6  C   UNL     1      14.267   6.813  25.086  1.00  0.00     0.035 C 
BRANCH   6   7
ATOM      7  C   UNL     1      12.824   6.624  25.504  1.00  0.00    -0.077 C 
ATOM      8  C   UNL     1      12.546   5.949  26.822  1.00  0.00     0.039 C 
ATOM      9  C   UNL     1      11.775   7.079  24.783  1.00  0.00    -0.028 CG0
ATOM     10  G   UNL     1      11.855   7.779  23.443  1.00  0.00     0.000 G0
ENDBRANCH   6   7
ENDBRANCH   5   6
ENDBRANCH   1   5
BRANCH   1  11
ATOM     11  C   UNL     1      14.845  10.100  24.698  1.00  0.00     0.058 C 
BRANCH  11  12
ATOM     12  C   UNL     1      14.553  10.079  23.215  1.00  0.00    -0.024 C 
ATOM     13  C   UNL     1      13.389   9.670  22.658  1.00  0.00    -0.077 C 
ATOM     14  C   UNL     1      13.322   9.555  21.156  1.00  0.00     0.039 C 
BRANCH  13  15
ATOM     15  C   UNL     1      12.175   9.274  23.484  1.00  0.00     0.034 C 
BRANCH  15  16
ATOM     16  C   UNL     1      11.842   7.766  23.435  1.00  0.00     0.032 CG0
ATOM     17  G   UNL     1      11.775   7.073  24.780  1.00  0.00     0.000 G0
ENDBRANCH  15  16
ENDBRANCH  13  15
ENDBRANCH  11  12
ENDBRANCH   1  11
TORSDOF 0
ENDMDL
MODEL 6
REMARK VINA RESULT:    -3.830      4.131      7.004
REMARK INTER + INTRA:          -5.482
REMARK INTER:                  -5.247
REMARK INTRA:                  -0.234
REMARK UNBOUND:                -0.084
REMARK SMILES CC1=CCC(=C(C)C)CCC(C)=CCC1
REMARK SMILES IDX 5 1 6 2 7 3 8 4 9 5 10 6 11 7 12 8 13 9 4 11 3 12 2 13 1 14
REMARK SMILES IDX 15 15 14 16
REMARK H PARENT
REMARK Flexibility Score: 60.00
ROOT
ATOM      1  C   UNL     1      11.977   6.634  25.530  1.00  0.00    -0.067 C 
ATOM      2  C   UNL     1      11.343   6.336  26.710  1.00  0.00    -0.077 C 
ATOM      3  C   UNL     1      12.074   5.628  27.834  1.00  0.00     0.039 C 
ATOM      4  C   UNL     1       9.896   6.716  26.953  1.00  0.00     0.039 C 
ENDROOT
BRANCH   1   5
ATOM      5  C   UNL     1      11.247   7.395  24.427  1.00  0.00     0.035 C 
BRANCH   5   6
ATOM      6  C   UNL     1      12.027   8.645  23.963  1.00  0.00     0.035 C 
BRANCH   6   7
ATOM      7  C   UNL     1      12.555   8.480  22.553  1.00  0.00    -0.077 C 
ATOM      8  C   UNL     1      11.577   8.126  21.462  1.00  0.00     0.039 C 
ATOM      9  C   UNL     1      13.847   8.687  22.213  1.00  0.00    -0.028 CG0
ATOM     10  G   UNL     1      14.968   9.049  23.164  1.00  0.00     0.000 G0
ENDBRANCH   6   7
ENDBRANCH   5   6
ENDBRANCH   1   5
BRANCH   1  11
ATOM     11  C   UNL     1      13.463   6.303  25.359  1.00  0.00     0.058 C 
BRANCH  11  12
ATOM     12  C   UNL     1      14.427   7.247  26.040  1.00  0.00    -0.024 C 
ATOM     13  C   UNL     1      15.429   7.915  25.420  1.00  0.00    -0.077 C 
ATOM     14  C   UNL     1      16.403   8.686  26.274  1.00  0.00     0.039 C 
BRANCH  13  15
ATOM     15  C   UNL     1      15.639   7.874  23.915  1.00  0.00     0.034 C 
BRANCH  15  16
ATOM     16  C   UNL     1      14.997   9.056  23.155  1.00  0.00     0.032 CG0
ATOM     17  G   UNL     1      13.860   8.688  22.224  1.00  0.00     0.000 G0
ENDBRANCH  15  16
ENDBRANCH  13  15
ENDBRANCH  11  12
ENDBRANCH   1  11
TORSDOF 0
ENDMDL
MODEL 7
REMARK VINA RESULT:    -3.809     10.857     12.373
REMARK INTER + INTRA:          -5.452
REMARK INTER:                  -5.306
REMARK INTRA:                  -0.146
REMARK UNBOUND:                -0.084
REMARK SMILES CC1=CCC(=C(C)C)CCC(C)=CCC1
REMARK SMILES IDX 5 1 6 2 7 3 8 4 9 5 10 6 11 7 12 8 13 9 4 11 3 12 2 13 1 14
REMARK SMILES IDX 15 15 14 16
REMARK H PARENT
REMARK Flexibility Score: 60.00
ROOT
ATOM      1  C   UNL     1       2.418   9.815  17.986  1.00  0.00    -0.067 C 
ATOM      2  C   UNL     1       1.190   9.577  17.425  1.00  0.00    -0.077 C 
ATOM      3  C   UNL     1       1.035   9.400  15.928  1.00  0.00     0.039 C 
ATOM      4  C   UNL     1      -0.062   9.459  18.271  1.00  0.00     0.039 C 
ENDROOT
BRANCH   1   5
ATOM      5  C   UNL     1       2.569   9.937  19.500  1.00  0.00     0.035 C 
BRANCH   5   6
ATOM      6  C   UNL     1       3.119   8.643  20.141  1.00  0.00     0.035 C 
BRANCH   6   7
ATOM      7  C   UNL     1       4.463   8.876  20.800  1.00  0.00    -0.077 C 
ATOM      8  C   UNL     1       4.513   9.744  22.031  1.00  0.00     0.039 C 
ATOM      9  C   UNL     1       5.610   8.301  20.375  1.00  0.00    -0.028 CG0
ATOM     10  G   UNL     1       5.757   7.403  19.165  1.00  0.00     0.000 G0
ENDBRANCH   6   7
ENDBRANCH   5   6
ENDBRANCH   1   5
BRANCH   1  11
ATOM     11  C   UNL     1       3.668   9.846  17.101  1.00  0.00     0.058 C 
BRANCH  11  12
ATOM     12  C   UNL     1       4.023   8.542  16.424  1.00  0.00    -0.024 C 
ATOM     13  C   UNL     1       5.115   7.793  16.705  1.00  0.00    -0.077 C 
ATOM     14  C   UNL     1       5.410   6.607  15.822  1.00  0.00     0.039 C 
BRANCH  13  15
ATOM     15  C   UNL     1       6.077   8.129  17.833  1.00  0.00     0.034 C 
BRANCH  15  16
ATOM     16  C   UNL     1       5.766   7.409  19.165  1.00  0.00     0.032 CG0
ATOM     17  G   UNL     1       5.610   8.313  20.369  1.00  0.00     0.000 G0
ENDBRANCH  15  16
ENDBRANCH  13  15
ENDBRANCH  11  12
ENDBRANCH   1  11
TORSDOF 0
ENDMDL
MODEL 8
REMARK VINA RESULT:    -3.770     11.207     12.842
REMARK INTER + INTRA:          -5.397
REMARK INTER:                  -5.137
REMARK INTRA:                  -0.260
REMARK UNBOUND:                -0.084
REMARK SMILES CC1=CCC(=C(C)C)CCC(C)=CCC1
REMARK SMILES IDX 5 1 6 2 7 3 8 4 9 5 10 6 11 7 12 8 13 9 4 11 3 12 2 13 1 14
REMARK SMILES IDX 15 15 14 16
REMARK H PARENT
REMARK Flexibility Score: 60.00
ROOT
ATOM      1  C   UNL     1       5.265   8.528  19.511  1.00  0.00    -0.067 C 
ATOM      2  C   UNL     1       5.756   7.720  20.504  1.00  0.00    -0.077 C 
ATOM      3  C   UNL     1       7.151   7.135  20.419  1.00  0.00     0.039 C 
ATOM      4  C   UNL     1       4.939   7.391  21.738  1.00  0.00     0.039 C 
ENDROOT
BRANCH   1   5
ATOM      5  C   UNL     1       3.879   9.156  19.635  1.00  0.00     0.035 C 
BRANCH   5   6
ATOM      6  C   UNL     1       2.787   8.306  18.947  1.00  0.00     0.035 C 
BRANCH   6   7
ATOM      7  C   UNL     1       1.941   9.141  18.008  1.00  0.00    -0.077 C 
ATOM      8  C   UNL     1       0.936  10.090  18.607  1.00  0.00     0.039 C 
ATOM      9  C   UNL     1       2.079   9.119  16.663  1.00  0.00    -0.028 CG0
ATOM     10  G   UNL     1       3.031   8.238  15.883  1.00  0.00     0.000 G0
ENDBRANCH   6   7
ENDBRANCH   5   6
ENDBRANCH   1   5
BRANCH   1  11
ATOM     11  C   UNL     1       6.154   8.900  18.321  1.00  0.00     0.058 C 
BRANCH  11  12
ATOM     12  C   UNL     1       6.308   7.833  17.260  1.00  0.00    -0.024 C 
ATOM     13  C   UNL     1       5.543   7.727  16.148  1.00  0.00    -0.077 C 
ATOM     14  C   UNL     1       5.718   6.508  15.278  1.00  0.00     0.039 C 
BRANCH  13  15
ATOM     15  C   UNL     1       4.484   8.753  15.775  1.00  0.00     0.034 C 
BRANCH  15  16
ATOM     16  C   UNL     1       3.033   8.231  15.880  1.00  0.00     0.032 CG0
ATOM     17  G   UNL     1       2.079   9.118  16.652  1.00  0.00     0.000 G0
ENDBRANCH  15  16
ENDBRANCH  13  15
ENDBRANCH  11  12
ENDBRANCH   1  11
TORSDOF 0
ENDMDL
MODEL 9
REMARK VINA RESULT:    -3.753      3.446      6.044
REMARK INTER + INTRA:          -5.373
REMARK INTER:                  -5.052
REMARK INTRA:                  -0.321
REMARK UNBOUND:                -0.084
REMARK SMILES CC1=CCC(=C(C)C)CCC(C)=CCC1
REMARK SMILES IDX 5 1 6 2 7 3 8 4 9 5 10 6 11 7 12 8 13 9 4 11 3 12 2 13 1 14
REMARK SMILES IDX 15 15 14 16
REMARK H PARENT
REMARK Flexibility Score: 60.00
ROOT
ATOM      1  C   UNL     1      11.637   8.207  23.027  1.00  0.00    -0.067 C 
ATOM      2  C   UNL     1      10.787   9.073  22.388  1.00  0.00    -0.077 C 
ATOM      3  C   UNL     1      11.181   9.737  21.084  1.00  0.00     0.039 C 
ATOM      4  C   UNL     1       9.413   9.392  22.942  1.00  0.00     0.039 C 
ENDROOT
BRANCH   1   5
ATOM      5  C   UNL     1      11.208   7.504  24.311  1.00  0.00     0.035 C 
BRANCH   5   6
ATOM      6  C   UNL     1      11.882   8.106  25.564  1.00  0.00     0.035 C 
BRANCH   6   7
ATOM      7  C   UNL     1      12.537   7.036  26.413  1.00  0.00    -0.077 C 
ATOM      8  C   UNL     1      11.651   6.033  27.105  1.00  0.00     0.039 C 
ATOM      9  C   UNL     1      13.876   6.901  26.537  1.00  0.00    -0.028 CG0
ATOM     10  G   UNL     1      14.921   7.805  25.918  1.00  0.00     0.000 G0
ENDBRANCH   6   7
ENDBRANCH   5   6
ENDBRANCH   1   5
BRANCH   1  11
ATOM     11  C   UNL     1      12.984   7.853  22.390  1.00  0.00     0.058 C 
BRANCH  11  12
ATOM     12  C   UNL     1      14.094   8.858  22.601  1.00  0.00    -0.024 C 
ATOM     13  C   UNL     1      15.072   8.752  23.531  1.00  0.00    -0.077 C 
ATOM     14  C   UNL     1      16.002   9.922  23.721  1.00  0.00     0.039 C 
BRANCH  13  15
ATOM     15  C   UNL     1      15.233   7.529  24.421  1.00  0.00     0.034 C 
BRANCH  15  16
ATOM     16  C   UNL     1      14.934   7.790  25.914  1.00  0.00     0.032 CG0
ATOM     17  G   UNL     1      13.872   6.903  26.527  1.00  0.00     0.000 G0
ENDBRANCH  15  16
ENDBRANCH  13  15
ENDBRANCH  11  12
ENDBRANCH   1  11
TORSDOF 0
ENDMDL
