MODEL 1
REMARK VINA RESULT:    -4.431      0.000      0.000
REMARK INTER + INTRA:          -9.025
REMARK INTER:                  -8.057
REMARK INTRA:                  -0.968
REMARK UNBOUND:                -0.968
REMARK SMILES CCCCCCCCCCCCCCCC(=O)[O-]
REMARK SMILES IDX 9 1 10 2 11 3 12 4 13 5 14 6 15 7 16 8 17 9 18 10 8 11 7 12
REMARK SMILES IDX 6 13 5 14 4 15 3 16 2 17 1 18
REMARK H PARENT
REMARK Flexibility Score: inf
ROOT
ATOM      1  C   UNL     1      12.616   2.607 -17.180  1.00  0.00     0.000 C 
ENDROOT
BRANCH   1   2
ATOM      2  C   UNL     1      12.995   1.401 -16.309  1.00  0.00     0.000 C 
BRANCH   2   3
ATOM      3  C   UNL     1      11.959   0.276 -16.449  1.00  0.00     0.000 C 
BRANCH   3   4
ATOM      4  C   UNL     1      12.597  -1.073 -16.818  1.00  0.00     0.000 C 
BRANCH   4   5
ATOM      5  C   UNL     1      12.612  -2.062 -15.638  1.00  0.00     0.000 C 
BRANCH   5   6
ATOM      6  C   UNL     1      11.722  -3.291 -15.885  1.00  0.00     0.006 C 
BRANCH   6   7
ATOM      7  C   UNL     1      12.322  -4.578 -15.307  1.00  0.00     0.053 C 
BRANCH   7   8
ATOM      8  C   UNL     1      12.328  -4.525 -13.812  1.00  0.00     0.041 C 
ATOM      9  O   UNL     1      13.343  -4.900 -13.168  1.00  0.00    -0.550 OA
ATOM     10  O   UNL     1      11.192  -4.111 -13.127  1.00  0.00    -0.550 OA
ENDBRANCH   7   8
ENDBRANCH   6   7
ENDBRANCH   5   6
ENDBRANCH   4   5
ENDBRANCH   3   4
ENDBRANCH   2   3
ENDBRANCH   1   2
BRANCH   1  11
ATOM     11  C   UNL     1      11.794   2.208 -18.416  1.00  0.00     0.000 C 
BRANCH  11  12
ATOM     12  C   UNL     1      12.640   2.168 -19.699  1.00  0.00    -0.000 C 
BRANCH  12  13
ATOM     13  C   UNL     1      13.229   0.773 -19.981  1.00  0.00    -0.000 C 
BRANCH  13  14
ATOM     14  C   UNL     1      12.701   0.094 -21.260  1.00  0.00    -0.000 C 
BRANCH  14  15
ATOM     15  C   UNL     1      11.165   0.029 -21.382  1.00  0.00    -0.000 C 
BRANCH  15  16
ATOM     16  C   UNL     1      10.640  -0.882 -22.508  1.00  0.00    -0.000 C 
BRANCH  16  17
ATOM     17  C   UNL     1       9.595  -1.893 -22.016  1.00  0.00    -0.003 C 
ATOM     18  C   UNL     1       9.368  -2.993 -23.047  1.00  0.00     0.004 C 
ENDBRANCH  16  17
ENDBRANCH  15  16
ENDBRANCH  14  15
ENDBRANCH  13  14
ENDBRANCH  12  13
ENDBRANCH  11  12
ENDBRANCH   1  11
TORSDOF 14
ENDMDL
MODEL 2
REMARK VINA RESULT:    -4.110      3.436      6.766
REMARK INTER + INTRA:          -8.441
REMARK INTER:                  -7.087
REMARK INTRA:                  -1.354
REMARK UNBOUND:                -0.968
REMARK SMILES CCCCCCCCCCCCCCCC(=O)[O-]
REMARK SMILES IDX 9 1 10 2 11 3 12 4 13 5 14 6 15 7 16 8 17 9 18 10 8 11 7 12
REMARK SMILES IDX 6 13 5 14 4 15 3 16 2 17 1 18
REMARK H PARENT
REMARK Flexibility Score: inf
ROOT
ATOM      1  C   UNL     1      12.897   2.672 -16.815  1.00  0.00     0.000 C 
ENDROOT
BRANCH   1   2
ATOM      2  C   UNL     1      11.941   2.820 -18.008  1.00  0.00     0.000 C 
BRANCH   2   3
ATOM      3  C   UNL     1      12.669   3.403 -19.226  1.00  0.00     0.000 C 
BRANCH   3   4
ATOM      4  C   UNL     1      12.705   2.431 -20.417  1.00  0.00     0.000 C 
BRANCH   4   5
ATOM      5  C   UNL     1      13.425   1.112 -20.081  1.00  0.00     0.000 C 
BRANCH   5   6
ATOM      6  C   UNL     1      12.661  -0.122 -20.586  1.00  0.00     0.006 C 
BRANCH   6   7
ATOM      7  C   UNL     1      11.322   0.241 -21.239  1.00  0.00     0.053 C 
BRANCH   7   8
ATOM      8  C   UNL     1      10.980  -0.747 -22.310  1.00  0.00     0.041 C 
ATOM      9  O   UNL     1      11.728  -0.877 -23.315  1.00  0.00    -0.550 OA
ATOM     10  O   UNL     1       9.807  -1.487 -22.224  1.00  0.00    -0.550 OA
ENDBRANCH   7   8
ENDBRANCH   6   7
ENDBRANCH   5   6
ENDBRANCH   4   5
ENDBRANCH   3   4
ENDBRANCH   2   3
ENDBRANCH   1   2
BRANCH   1  11
ATOM     11  C   UNL     1      12.642   1.389 -16.009  1.00  0.00     0.000 C 
BRANCH  11  12
ATOM     12  C   UNL     1      11.824   0.351 -16.794  1.00  0.00    -0.000 C 
BRANCH  12  13
ATOM     13  C   UNL     1      12.625  -0.928 -17.103  1.00  0.00    -0.000 C 
BRANCH  13  14
ATOM     14  C   UNL     1      12.674  -1.955 -15.954  1.00  0.00    -0.000 C 
BRANCH  14  15
ATOM     15  C   UNL     1      11.688  -3.133 -16.085  1.00  0.00    -0.000 C 
BRANCH  15  16
ATOM     16  C   UNL     1      12.207  -4.478 -15.544  1.00  0.00    -0.000 C 
BRANCH  16  17
ATOM     17  C   UNL     1      12.706  -4.383 -14.094  1.00  0.00    -0.003 C 
ATOM     18  C   UNL     1      11.544  -4.461 -13.108  1.00  0.00     0.004 C 
ENDBRANCH  16  17
ENDBRANCH  15  16
ENDBRANCH  14  15
ENDBRANCH  13  14
ENDBRANCH  12  13
ENDBRANCH  11  12
ENDBRANCH   1  11
TORSDOF 14
ENDMDL
MODEL 3
REMARK VINA RESULT:    -4.068      1.243      1.734
REMARK INTER + INTRA:          -8.365
REMARK INTER:                  -6.932
REMARK INTRA:                  -1.432
REMARK UNBOUND:                -0.968
REMARK SMILES CCCCCCCCCCCCCCCC(=O)[O-]
REMARK SMILES IDX 9 1 10 2 11 3 12 4 13 5 14 6 15 7 16 8 17 9 18 10 8 11 7 12
REMARK SMILES IDX 6 13 5 14 4 15 3 16 2 17 1 18
REMARK H PARENT
REMARK Flexibility Score: inf
ROOT
ATOM      1  C   UNL     1      12.955   2.667 -16.680  1.00  0.00     0.000 C 
ENDROOT
BRANCH   1   2
ATOM      2  C   UNL     1      13.028   1.301 -15.983  1.00  0.00     0.000 C 
BRANCH   2   3
ATOM      3  C   UNL     1      11.990   0.331 -16.564  1.00  0.00     0.000 C 
BRANCH   3   4
ATOM      4  C   UNL     1      12.567  -1.070 -16.821  1.00  0.00     0.000 C 
BRANCH   4   5
ATOM      5  C   UNL     1      12.533  -1.962 -15.566  1.00  0.00     0.000 C 
BRANCH   5   6
ATOM      6  C   UNL     1      12.573  -3.461 -15.906  1.00  0.00     0.006 C 
BRANCH   6   7
ATOM      7  C   UNL     1      11.539  -4.271 -15.115  1.00  0.00     0.053 C 
BRANCH   7   8
ATOM      8  C   UNL     1      11.982  -4.437 -13.695  1.00  0.00     0.041 C 
ATOM      9  O   UNL     1      11.208  -4.133 -12.749  1.00  0.00    -0.550 OA
ATOM     10  O   UNL     1      13.269  -4.878 -13.416  1.00  0.00    -0.550 OA
ENDBRANCH   7   8
ENDBRANCH   6   7
ENDBRANCH   5   6
ENDBRANCH   4   5
ENDBRANCH   3   4
ENDBRANCH   2   3
ENDBRANCH   1   2
BRANCH   1  11
ATOM     11  C   UNL     1      12.046   2.649 -17.919  1.00  0.00     0.000 C 
BRANCH  11  12
ATOM     12  C   UNL     1      12.584   3.529 -19.060  1.00  0.00    -0.000 C 
BRANCH  12  13
ATOM     13  C   UNL     1      12.816   2.740 -20.362  1.00  0.00    -0.000 C 
BRANCH  13  14
ATOM     14  C   UNL     1      12.916   1.212 -20.184  1.00  0.00    -0.000 C 
BRANCH  14  15
ATOM     15  C   UNL     1      12.305   0.377 -21.327  1.00  0.00    -0.000 C 
BRANCH  15  16
ATOM     16  C   UNL     1      10.819   0.015 -21.145  1.00  0.00    -0.000 C 
BRANCH  16  17
ATOM     17  C   UNL     1      10.354   0.131 -19.686  1.00  0.00    -0.003 C 
ATOM     18  C   UNL     1       9.212  -0.838 -19.395  1.00  0.00     0.004 C 
ENDBRANCH  16  17
ENDBRANCH  15  16
ENDBRANCH  14  15
ENDBRANCH  13  14
ENDBRANCH  12  13
ENDBRANCH  11  12
ENDBRANCH   1  11
TORSDOF 14
ENDMDL
MODEL 4
REMARK VINA RESULT:    -3.960      3.170      6.598
REMARK INTER + INTRA:          -8.169
REMARK INTER:                  -6.962
REMARK INTRA:                  -1.207
REMARK UNBOUND:                -0.968
REMARK SMILES CCCCCCCCCCCCCCCC(=O)[O-]
REMARK SMILES IDX 9 1 10 2 11 3 12 4 13 5 14 6 15 7 16 8 17 9 18 10 8 11 7 12
REMARK SMILES IDX 6 13 5 14 4 15 3 16 2 17 1 18
REMARK H PARENT
REMARK Flexibility Score: inf
ROOT
ATOM      1  C   UNL     1      12.018   2.587 -18.085  1.00  0.00     0.000 C 
ENDROOT
BRANCH   1   2
ATOM      2  C   UNL     1      12.623   3.386 -19.247  1.00  0.00     0.000 C 
BRANCH   2   3
ATOM      3  C   UNL     1      12.628   2.557 -20.540  1.00  0.00     0.000 C 
BRANCH   3   4
ATOM      4  C   UNL     1      13.337   1.204 -20.372  1.00  0.00     0.000 C 
BRANCH   4   5
ATOM      5  C   UNL     1      12.370   0.011 -20.494  1.00  0.00     0.000 C 
BRANCH   5   6
ATOM      6  C   UNL     1      11.176   0.311 -21.415  1.00  0.00     0.006 C 
BRANCH   6   7
ATOM      7  C   UNL     1      11.016  -0.731 -22.529  1.00  0.00     0.053 C 
BRANCH   7   8
ATOM      8  C   UNL     1       9.917  -1.689 -22.192  1.00  0.00     0.041 C 
ATOM      9  O   UNL     1       9.632  -2.629 -22.980  1.00  0.00    -0.550 OA
ATOM     10  O   UNL     1       9.173  -1.513 -21.032  1.00  0.00    -0.550 OA
ENDBRANCH   7   8
ENDBRANCH   6   7
ENDBRANCH   5   6
ENDBRANCH   4   5
ENDBRANCH   3   4
ENDBRANCH   2   3
ENDBRANCH   1   2
BRANCH   1  11
ATOM     11  C   UNL     1      12.878   2.651 -16.813  1.00  0.00     0.000 C 
BRANCH  11  12
ATOM     12  C   UNL     1      12.844   1.340 -16.010  1.00  0.00    -0.000 C 
BRANCH  12  13
ATOM     13  C   UNL     1      11.892   0.294 -16.618  1.00  0.00    -0.000 C 
BRANCH  13  14
ATOM     14  C   UNL     1      12.525  -1.089 -16.868  1.00  0.00    -0.000 C 
BRANCH  14  15
ATOM     15  C   UNL     1      12.703  -1.967 -15.613  1.00  0.00    -0.000 C 
BRANCH  15  16
ATOM     16  C   UNL     1      12.029  -3.349 -15.686  1.00  0.00    -0.000 C 
BRANCH  16  17
ATOM     17  C   UNL     1      12.628  -4.356 -14.692  1.00  0.00    -0.003 C 
ATOM     18  C   UNL     1      11.783  -4.445 -13.425  1.00  0.00     0.004 C 
ENDBRANCH  16  17
ENDBRANCH  15  16
ENDBRANCH  14  15
ENDBRANCH  13  14
ENDBRANCH  12  13
ENDBRANCH  11  12
ENDBRANCH   1  11
TORSDOF 14
ENDMDL
MODEL 5
REMARK VINA RESULT:    -2.985      1.540      3.797
REMARK INTER + INTRA:          -6.396
REMARK INTER:                  -5.682
REMARK INTRA:                  -0.714
REMARK UNBOUND:                -0.968
REMARK SMILES CCCCCCCCCCCCCCCC(=O)[O-]
REMARK SMILES IDX 9 1 10 2 11 3 12 4 13 5 14 6 15 7 16 8 17 9 18 10 8 11 7 12
REMARK SMILES IDX 6 13 5 14 4 15 3 16 2 17 1 18
REMARK H PARENT
REMARK Flexibility Score: inf
ROOT
ATOM      1  C   UNL     1      14.083  -0.396 -19.940  1.00  0.00     0.000 C 
ENDROOT
BRANCH   1   2
ATOM      2  C   UNL     1      13.583   0.060 -18.562  1.00  0.00     0.000 C 
BRANCH   2   3
ATOM      3  C   UNL     1      12.997  -1.120 -17.773  1.00  0.00     0.000 C 
BRANCH   3   4
ATOM      4  C   UNL     1      12.895  -0.833 -16.266  1.00  0.00     0.000 C 
BRANCH   4   5
ATOM      5  C   UNL     1      12.242  -1.989 -15.487  1.00  0.00     0.000 C 
BRANCH   5   6
ATOM      6  C   UNL     1      12.547  -3.363 -16.106  1.00  0.00     0.006 C 
BRANCH   6   7
ATOM      7  C   UNL     1      11.842  -4.510 -15.370  1.00  0.00     0.053 C 
BRANCH   7   8
ATOM      8  C   UNL     1      12.116  -4.433 -13.901  1.00  0.00     0.041 C 
ATOM      9  O   UNL     1      11.266  -3.924 -13.123  1.00  0.00    -0.550 OA
ATOM     10  O   UNL     1      13.332  -4.875 -13.397  1.00  0.00    -0.550 OA
ENDBRANCH   7   8
ENDBRANCH   6   7
ENDBRANCH   5   6
ENDBRANCH   4   5
ENDBRANCH   3   4
ENDBRANCH   2   3
ENDBRANCH   1   2
BRANCH   1  11
ATOM     11  C   UNL     1      13.103  -0.044 -21.070  1.00  0.00     0.000 C 
BRANCH  11  12
ATOM     12  C   UNL     1      11.932   0.827 -20.586  1.00  0.00    -0.000 C 
BRANCH  12  13
ATOM     13  C   UNL     1      10.604   0.050 -20.508  1.00  0.00    -0.000 C 
BRANCH  13  14
ATOM     14  C   UNL     1       9.995  -0.052 -19.095  1.00  0.00    -0.000 C 
BRANCH  14  15
ATOM     15  C   UNL     1       9.817   1.292 -18.360  1.00  0.00    -0.000 C 
BRANCH  15  16
ATOM     16  C   UNL     1      10.828   1.551 -17.227  1.00  0.00    -0.000 C 
BRANCH  16  17
ATOM     17  C   UNL     1      11.940   2.528 -17.636  1.00  0.00    -0.003 C 
ATOM     18  C   UNL     1      12.884   2.804 -16.469  1.00  0.00     0.004 C 
ENDBRANCH  16  17
ENDBRANCH  15  16
ENDBRANCH  14  15
ENDBRANCH  13  14
ENDBRANCH  12  13
ENDBRANCH  11  12
ENDBRANCH   1  11
TORSDOF 14
ENDMDL
MODEL 6
REMARK VINA RESULT:    -2.842      3.204      6.745
REMARK INTER + INTRA:          -6.135
REMARK INTER:                  -5.578
REMARK INTRA:                  -0.558
REMARK UNBOUND:                -0.968
REMARK SMILES CCCCCCCCCCCCCCCC(=O)[O-]
REMARK SMILES IDX 9 1 10 2 11 3 12 4 13 5 14 6 15 7 16 8 17 9 18 10 8 11 7 12
REMARK SMILES IDX 6 13 5 14 4 15 3 16 2 17 1 18
REMARK H PARENT
REMARK Flexibility Score: inf
ROOT
ATOM      1  C   UNL     1      10.344   1.223 -17.917  1.00  0.00     0.000 C 
ENDROOT
BRANCH   1   2
ATOM      2  C   UNL     1      10.417  -0.080 -18.725  1.00  0.00     0.000 C 
BRANCH   2   3
ATOM      3  C   UNL     1       9.448  -0.042 -19.915  1.00  0.00     0.000 C 
BRANCH   3   4
ATOM      4  C   UNL     1       9.508  -1.320 -20.769  1.00  0.00     0.000 C 
BRANCH   4   5
ATOM      5  C   UNL     1      10.177  -1.086 -22.136  1.00  0.00     0.000 C 
BRANCH   5   6
ATOM      6  C   UNL     1      11.202   0.060 -22.103  1.00  0.00     0.006 C 
BRANCH   6   7
ATOM      7  C   UNL     1      12.610  -0.419 -21.728  1.00  0.00     0.053 C 
BRANCH   7   8
ATOM      8  C   UNL     1      13.191   0.456 -20.662  1.00  0.00     0.041 C 
ATOM      9  O   UNL     1      12.859   1.668 -20.585  1.00  0.00    -0.550 OA
ATOM     10  O   UNL     1      14.139  -0.055 -19.785  1.00  0.00    -0.550 OA
ENDBRANCH   7   8
ENDBRANCH   6   7
ENDBRANCH   5   6
ENDBRANCH   4   5
ENDBRANCH   3   4
ENDBRANCH   2   3
ENDBRANCH   1   2
BRANCH   1  11
ATOM     11  C   UNL     1      11.730   1.731 -17.488  1.00  0.00     0.000 C 
BRANCH  11  12
ATOM     12  C   UNL     1      12.309   0.938 -16.305  1.00  0.00    -0.000 C 
BRANCH  12  13
ATOM     13  C   UNL     1      12.667  -0.512 -16.679  1.00  0.00    -0.000 C 
BRANCH  13  14
ATOM     14  C   UNL     1      12.305  -1.564 -15.611  1.00  0.00    -0.000 C 
BRANCH  14  15
ATOM     15  C   UNL     1      12.698  -3.014 -15.959  1.00  0.00    -0.000 C 
BRANCH  15  16
ATOM     16  C   UNL     1      11.783  -4.097 -15.359  1.00  0.00    -0.000 C 
BRANCH  16  17
ATOM     17  C   UNL     1      12.343  -4.698 -14.062  1.00  0.00    -0.003 C 
ATOM     18  C   UNL     1      11.575  -4.190 -12.845  1.00  0.00     0.004 C 
ENDBRANCH  16  17
ENDBRANCH  15  16
ENDBRANCH  14  15
ENDBRANCH  13  14
ENDBRANCH  12  13
ENDBRANCH  11  12
ENDBRANCH   1  11
TORSDOF 14
ENDMDL
MODEL 7
REMARK VINA RESULT:    -2.792      2.197      4.514
REMARK INTER + INTRA:          -6.044
REMARK INTER:                  -4.710
REMARK INTRA:                  -1.334
REMARK UNBOUND:                -0.968
REMARK SMILES CCCCCCCCCCCCCCCC(=O)[O-]
REMARK SMILES IDX 9 1 10 2 11 3 12 4 13 5 14 6 15 7 16 8 17 9 18 10 8 11 7 12
REMARK SMILES IDX 6 13 5 14 4 15 3 16 2 17 1 18
REMARK H PARENT
REMARK Flexibility Score: inf
ROOT
ATOM      1  C   UNL     1      10.615  -0.009 -18.972  1.00  0.00     0.000 C 
ENDROOT
BRANCH   1   2
ATOM      2  C   UNL     1      10.237   1.094 -17.973  1.00  0.00     0.000 C 
BRANCH   2   3
ATOM      3  C   UNL     1      11.480   1.624 -17.245  1.00  0.00     0.000 C 
BRANCH   3   4
ATOM      4  C   UNL     1      12.591   0.568 -17.124  1.00  0.00     0.000 C 
BRANCH   4   5
ATOM      5  C   UNL     1      12.441  -0.305 -15.864  1.00  0.00     0.000 C 
BRANCH   5   6
ATOM      6  C   UNL     1      12.370  -1.805 -16.191  1.00  0.00     0.006 C 
BRANCH   6   7
ATOM      7  C   UNL     1      13.012  -2.676 -15.104  1.00  0.00     0.053 C 
BRANCH   7   8
ATOM      8  C   UNL     1      12.233  -3.941 -14.922  1.00  0.00     0.041 C 
ATOM      9  O   UNL     1      11.313  -4.240 -15.728  1.00  0.00    -0.550 OA
ATOM     10  O   UNL     1      12.488  -4.763 -13.831  1.00  0.00    -0.550 OA
ENDBRANCH   7   8
ENDBRANCH   6   7
ENDBRANCH   5   6
ENDBRANCH   4   5
ENDBRANCH   3   4
ENDBRANCH   2   3
ENDBRANCH   1   2
BRANCH   1  11
ATOM     11  C   UNL     1      10.863   0.536 -20.387  1.00  0.00     0.000 C 
BRANCH  11  12
ATOM     12  C   UNL     1      12.332   0.403 -20.823  1.00  0.00    -0.000 C 
BRANCH  12  13
ATOM     13  C   UNL     1      13.190   1.610 -20.400  1.00  0.00    -0.000 C 
BRANCH  13  14
ATOM     14  C   UNL     1      12.496   2.980 -20.544  1.00  0.00    -0.000 C 
BRANCH  14  15
ATOM     15  C   UNL     1      12.972   4.063 -19.555  1.00  0.00    -0.000 C 
BRANCH  15  16
ATOM     16  C   UNL     1      12.838   5.510 -20.064  1.00  0.00    -0.000 C 
BRANCH  16  17
ATOM     17  C   UNL     1      14.115   6.336 -19.850  1.00  0.00    -0.003 C 
ATOM     18  C   UNL     1      14.993   6.322 -21.098  1.00  0.00     0.004 C 
ENDBRANCH  16  17
ENDBRANCH  15  16
ENDBRANCH  14  15
ENDBRANCH  13  14
ENDBRANCH  12  13
ENDBRANCH  11  12
ENDBRANCH   1  11
TORSDOF 14
ENDMDL
MODEL 8
REMARK VINA RESULT:    -2.780      1.216      2.768
REMARK INTER + INTRA:          -6.022
REMARK INTER:                  -4.752
REMARK INTRA:                  -1.270
REMARK UNBOUND:                -0.968
REMARK SMILES CCCCCCCCCCCCCCCC(=O)[O-]
REMARK SMILES IDX 9 1 10 2 11 3 12 4 13 5 14 6 15 7 16 8 17 9 18 10 8 11 7 12
REMARK SMILES IDX 6 13 5 14 4 15 3 16 2 17 1 18
REMARK H PARENT
REMARK Flexibility Score: inf
ROOT
ATOM      1  C   UNL     1      10.161   0.985 -17.701  1.00  0.00     0.000 C 
ENDROOT
BRANCH   1   2
ATOM      2  C   UNL     1      11.588   1.435 -17.358  1.00  0.00     0.000 C 
BRANCH   2   3
ATOM      3  C   UNL     1      12.139   0.646 -16.161  1.00  0.00     0.000 C 
BRANCH   3   4
ATOM      4  C   UNL     1      12.894  -0.624 -16.586  1.00  0.00     0.000 C 
BRANCH   4   5
ATOM      5  C   UNL     1      12.638  -1.808 -15.635  1.00  0.00     0.000 C 
BRANCH   5   6
ATOM      6  C   UNL     1      11.704  -2.865 -16.247  1.00  0.00     0.006 C 
BRANCH   6   7
ATOM      7  C   UNL     1      12.006  -4.281 -15.741  1.00  0.00     0.053 C 
BRANCH   7   8
ATOM      8  C   UNL     1      12.488  -4.236 -14.325  1.00  0.00     0.041 C 
ATOM      9  O   UNL     1      13.719  -4.326 -14.071  1.00  0.00    -0.550 OA
ATOM     10  O   UNL     1      11.575  -4.148 -13.282  1.00  0.00    -0.550 OA
ENDBRANCH   7   8
ENDBRANCH   6   7
ENDBRANCH   5   6
ENDBRANCH   4   5
ENDBRANCH   3   4
ENDBRANCH   2   3
ENDBRANCH   1   2
BRANCH   1  11
ATOM     11  C   UNL     1      10.133  -0.285 -18.566  1.00  0.00     0.000 C 
BRANCH  11  12
ATOM     12  C   UNL     1       9.378  -0.081 -19.890  1.00  0.00    -0.000 C 
BRANCH  12  13
ATOM     13  C   UNL     1       9.559  -1.259 -20.865  1.00  0.00    -0.000 C 
BRANCH  13  14
ATOM     14  C   UNL     1      10.357  -0.926 -22.142  1.00  0.00    -0.000 C 
BRANCH  14  15
ATOM     15  C   UNL     1      11.459   0.139 -21.967  1.00  0.00    -0.000 C 
BRANCH  15  16
ATOM     16  C   UNL     1      12.799  -0.396 -21.428  1.00  0.00    -0.000 C 
BRANCH  16  17
ATOM     17  C   UNL     1      13.384   0.481 -20.311  1.00  0.00    -0.003 C 
ATOM     18  C   UNL     1      12.805   1.892 -20.361  1.00  0.00     0.004 C 
ENDBRANCH  16  17
ENDBRANCH  15  16
ENDBRANCH  14  15
ENDBRANCH  13  14
ENDBRANCH  12  13
ENDBRANCH  11  12
ENDBRANCH   1  11
TORSDOF 14
ENDMDL
MODEL 9
REMARK VINA RESULT:    -2.673      3.002      5.222
REMARK INTER + INTRA:          -5.829
REMARK INTER:                  -5.172
REMARK INTRA:                  -0.657
REMARK UNBOUND:                -0.968
REMARK SMILES CCCCCCCCCCCCCCCC(=O)[O-]
REMARK SMILES IDX 9 1 10 2 11 3 12 4 13 5 14 6 15 7 16 8 17 9 18 10 8 11 7 12
REMARK SMILES IDX 6 13 5 14 4 15 3 16 2 17 1 18
REMARK H PARENT
REMARK Flexibility Score: inf
ROOT
ATOM      1  C   UNL     1      11.860   0.684 -20.245  1.00  0.00     0.000 C 
ENDROOT
BRANCH   1   2
ATOM      2  C   UNL     1      11.394   0.150 -18.883  1.00  0.00     0.000 C 
BRANCH   2   3
ATOM      3  C   UNL     1      12.593  -0.146 -17.971  1.00  0.00     0.000 C 
BRANCH   3   4
ATOM      4  C   UNL     1      12.267   0.053 -16.482  1.00  0.00     0.000 C 
BRANCH   4   5
ATOM      5  C   UNL     1      12.480  -1.228 -15.654  1.00  0.00     0.000 C 
BRANCH   5   6
ATOM      6  C   UNL     1      12.367  -2.504 -16.504  1.00  0.00     0.006 C 
BRANCH   6   7
ATOM      7  C   UNL     1      11.643  -3.639 -15.769  1.00  0.00     0.053 C 
BRANCH   7   8
ATOM      8  C   UNL     1      12.371  -3.992 -14.510  1.00  0.00     0.041 C 
ATOM      9  O   UNL     1      11.734  -4.163 -13.436  1.00  0.00    -0.550 OA
ATOM     10  O   UNL     1      13.757  -4.082 -14.510  1.00  0.00    -0.550 OA
ENDBRANCH   7   8
ENDBRANCH   6   7
ENDBRANCH   5   6
ENDBRANCH   4   5
ENDBRANCH   3   4
ENDBRANCH   2   3
ENDBRANCH   1   2
BRANCH   1  11
ATOM     11  C   UNL     1      12.941   1.769 -20.116  1.00  0.00     0.000 C 
BRANCH  11  12
ATOM     12  C   UNL     1      12.374   3.114 -19.634  1.00  0.00    -0.000 C 
BRANCH  12  13
ATOM     13  C   UNL     1      12.969   4.316 -20.391  1.00  0.00    -0.000 C 
BRANCH  13  14
ATOM     14  C   UNL     1      13.259   5.552 -19.517  1.00  0.00    -0.000 C 
BRANCH  14  15
ATOM     15  C   UNL     1      13.697   6.813 -20.289  1.00  0.00    -0.000 C 
BRANCH  15  16
ATOM     16  C   UNL     1      15.211   6.924 -20.549  1.00  0.00    -0.000 C 
BRANCH  16  17
ATOM     17  C   UNL     1      15.608   6.457 -21.956  1.00  0.00    -0.003 C 
ATOM     18  C   UNL     1      17.125   6.408 -22.110  1.00  0.00     0.004 C 
ENDBRANCH  16  17
ENDBRANCH  15  16
ENDBRANCH  14  15
ENDBRANCH  13  14
ENDBRANCH  12  13
ENDBRANCH  11  12
ENDBRANCH   1  11
TORSDOF 14
ENDMDL
