MODEL 1
REMARK VINA RESULT:    -2.831      0.000      0.000
REMARK INTER + INTRA:          -5.015
REMARK INTER:                  -4.320
REMARK INTRA:                  -0.695
REMARK UNBOUND:                -0.695
REMARK SMILES CCCCCCCCCCC(=O)[O-]
REMARK SMILES IDX 7 1 8 2 9 3 10 4 11 5 12 6 13 7 6 8 5 9 4 10 3 11 2 12 1 13
REMARK H PARENT
REMARK Flexibility Score: inf
ROOT
ATOM      1  C   UNL     1      31.264  64.427  19.638  1.00  0.00     0.000 C 
ENDROOT
BRANCH   1   2
ATOM      2  C   UNL     1      32.028  65.013  20.832  1.00  0.00     0.000 C 
BRANCH   2   3
ATOM      3  C   UNL     1      32.899  63.943  21.507  1.00  0.00     0.006 C 
BRANCH   3   4
ATOM      4  C   UNL     1      33.037  62.679  20.647  1.00  0.00     0.053 C 
BRANCH   4   5
ATOM      5  C   UNL     1      32.678  61.444  21.414  1.00  0.00     0.041 C 
ATOM      6  O   UNL     1      32.208  60.440  20.816  1.00  0.00    -0.550 OA
ATOM      7  O   UNL     1      32.893  61.390  22.786  1.00  0.00    -0.550 OA
ENDBRANCH   4   5
ENDBRANCH   3   4
ENDBRANCH   2   3
ENDBRANCH   1   2
BRANCH   1   8
ATOM      8  C   UNL     1      31.420  65.318  18.396  1.00  0.00     0.000 C 
BRANCH   8   9
ATOM      9  C   UNL     1      32.597  64.892  17.505  1.00  0.00    -0.000 C 
BRANCH   9  10
ATOM     10  C   UNL     1      32.442  63.463  16.960  1.00  0.00    -0.000 C 
BRANCH  10  11
ATOM     11  C   UNL     1      32.933  63.375  15.507  1.00  0.00    -0.000 C 
BRANCH  11  12
ATOM     12  C   UNL     1      31.806  63.023  14.524  1.00  0.00    -0.003 C 
ATOM     13  C   UNL     1      30.510  63.779  14.815  1.00  0.00     0.004 C 
ENDBRANCH  11  12
ENDBRANCH  10  11
ENDBRANCH   9  10
ENDBRANCH   8   9
ENDBRANCH   1   8
TORSDOF 9
ENDMDL
MODEL 2
REMARK VINA RESULT:    -2.642      1.895      2.912
REMARK INTER + INTRA:          -4.727
REMARK INTER:                  -4.043
REMARK INTRA:                  -0.684
REMARK UNBOUND:                -0.695
REMARK SMILES CCCCCCCCCCC(=O)[O-]
REMARK SMILES IDX 7 1 8 2 9 3 10 4 11 5 12 6 13 7 6 8 5 9 4 10 3 11 2 12 1 13
REMARK H PARENT
REMARK Flexibility Score: inf
ROOT
ATOM      1  C   UNL     1      28.797  65.217  18.272  1.00  0.00     0.000 C 
ENDROOT
BRANCH   1   2
ATOM      2  C   UNL     1      29.396  66.028  19.427  1.00  0.00     0.000 C 
BRANCH   2   3
ATOM      3  C   UNL     1      30.868  65.653  19.657  1.00  0.00     0.006 C 
BRANCH   3   4
ATOM      4  C   UNL     1      31.169  64.205  19.250  1.00  0.00     0.053 C 
BRANCH   4   5
ATOM      5  C   UNL     1      31.970  63.490  20.296  1.00  0.00     0.041 C 
ATOM      6  O   UNL     1      32.243  64.060  21.385  1.00  0.00    -0.550 OA
ATOM      7  O   UNL     1      32.386  62.182  20.079  1.00  0.00    -0.550 OA
ENDBRANCH   4   5
ENDBRANCH   3   4
ENDBRANCH   2   3
ENDBRANCH   1   2
BRANCH   1   8
ATOM      8  C   UNL     1      28.695  66.068  16.997  1.00  0.00     0.000 C 
BRANCH   8   9
ATOM      9  C   UNL     1      29.004  65.266  15.723  1.00  0.00    -0.000 C 
BRANCH   9  10
ATOM     10  C   UNL     1      30.246  64.372  15.871  1.00  0.00    -0.000 C 
BRANCH  10  11
ATOM     11  C   UNL     1      30.576  63.670  14.546  1.00  0.00    -0.000 C 
BRANCH  11  12
ATOM     12  C   UNL     1      32.015  63.131  14.506  1.00  0.00    -0.003 C 
ATOM     13  C   UNL     1      32.642  63.017  15.895  1.00  0.00     0.004 C 
ENDBRANCH  11  12
ENDBRANCH  10  11
ENDBRANCH   9  10
ENDBRANCH   8   9
ENDBRANCH   1   8
TORSDOF 9
ENDMDL
MODEL 3
REMARK VINA RESULT:    -2.603      3.927      5.134
REMARK INTER + INTRA:          -4.667
REMARK INTER:                  -4.040
REMARK INTRA:                  -0.627
REMARK UNBOUND:                -0.695
REMARK SMILES CCCCCCCCCCC(=O)[O-]
REMARK SMILES IDX 7 1 8 2 9 3 10 4 11 5 12 6 13 7 6 8 5 9 4 10 3 11 2 12 1 13
REMARK H PARENT
REMARK Flexibility Score: inf
ROOT
ATOM      1  C   UNL     1      31.098  65.574  18.650  1.00  0.00     0.000 C 
ENDROOT
BRANCH   1   2
ATOM      2  C   UNL     1      29.663  65.830  19.123  1.00  0.00     0.000 C 
BRANCH   2   3
ATOM      3  C   UNL     1      28.655  65.036  18.279  1.00  0.00     0.006 C 
BRANCH   3   4
ATOM      4  C   UNL     1      27.791  65.948  17.397  1.00  0.00     0.053 C 
BRANCH   4   5
ATOM      5  C   UNL     1      26.936  65.159  16.453  1.00  0.00     0.041 C 
ATOM      6  O   UNL     1      27.452  64.278  15.716  1.00  0.00    -0.550 OA
ATOM      7  O   UNL     1      25.565  65.375  16.411  1.00  0.00    -0.550 OA
ENDBRANCH   4   5
ENDBRANCH   3   4
ENDBRANCH   2   3
ENDBRANCH   1   2
BRANCH   1   8
ATOM      8  C   UNL     1      31.787  64.517  19.528  1.00  0.00     0.000 C 
BRANCH   8   9
ATOM      9  C   UNL     1      32.475  63.418  18.703  1.00  0.00    -0.000 C 
BRANCH   9  10
ATOM     10  C   UNL     1      32.859  63.890  17.291  1.00  0.00    -0.000 C 
BRANCH  10  11
ATOM     11  C   UNL     1      32.730  62.742  16.277  1.00  0.00    -0.000 C 
BRANCH  11  12
ATOM     12  C   UNL     1      32.336  63.235  14.876  1.00  0.00    -0.003 C 
ATOM     13  C   UNL     1      30.841  63.528  14.751  1.00  0.00     0.004 C 
ENDBRANCH  11  12
ENDBRANCH  10  11
ENDBRANCH   9  10
ENDBRANCH   8   9
ENDBRANCH   1   8
TORSDOF 9
ENDMDL
MODEL 4
REMARK VINA RESULT:    -2.520     13.622     15.383
REMARK INTER + INTRA:          -4.540
REMARK INTER:                  -4.101
REMARK INTRA:                  -0.440
REMARK UNBOUND:                -0.695
REMARK SMILES CCCCCCCCCCC(=O)[O-]
REMARK SMILES IDX 7 1 8 2 9 3 10 4 11 5 12 6 13 7 6 8 5 9 4 10 3 11 2 12 1 13
REMARK H PARENT
REMARK Flexibility Score: inf
ROOT
ATOM      1  C   UNL     1      18.099  65.863  16.254  1.00  0.00     0.000 C 
ENDROOT
BRANCH   1   2
ATOM      2  C   UNL     1      18.541  65.828  14.786  1.00  0.00     0.000 C 
BRANCH   2   3
ATOM      3  C   UNL     1      20.004  65.378  14.662  1.00  0.00     0.006 C 
BRANCH   3   4
ATOM      4  C   UNL     1      20.926  66.124  15.637  1.00  0.00     0.053 C 
BRANCH   4   5
ATOM      5  C   UNL     1      21.850  65.188  16.354  1.00  0.00     0.041 C 
ATOM      6  O   UNL     1      21.402  64.400  17.227  1.00  0.00    -0.550 OA
ATOM      7  O   UNL     1      23.202  65.164  16.033  1.00  0.00    -0.550 OA
ENDBRANCH   4   5
ENDBRANCH   3   4
ENDBRANCH   2   3
ENDBRANCH   1   2
BRANCH   1   8
ATOM      8  C   UNL     1      16.567  65.825  16.368  1.00  0.00     0.000 C 
BRANCH   8   9
ATOM      9  C   UNL     1      16.063  64.620  17.177  1.00  0.00    -0.000 C 
BRANCH   9  10
ATOM     10  C   UNL     1      14.707  64.884  17.852  1.00  0.00    -0.000 C 
BRANCH  10  11
ATOM     11  C   UNL     1      13.610  65.115  16.802  1.00  0.00    -0.000 C 
BRANCH  11  12
ATOM     12  C   UNL     1      13.639  64.067  15.678  1.00  0.00    -0.003 C 
ATOM     13  C   UNL     1      13.540  64.690  14.287  1.00  0.00     0.004 C 
ENDBRANCH  11  12
ENDBRANCH  10  11
ENDBRANCH   9  10
ENDBRANCH   8   9
ENDBRANCH   1   8
TORSDOF 9
ENDMDL
MODEL 5
REMARK VINA RESULT:    -2.348      3.745      6.295
REMARK INTER + INTRA:          -4.278
REMARK INTER:                  -3.596
REMARK INTRA:                  -0.682
REMARK UNBOUND:                -0.695
REMARK SMILES CCCCCCCCCCC(=O)[O-]
REMARK SMILES IDX 7 1 8 2 9 3 10 4 11 5 12 6 13 7 6 8 5 9 4 10 3 11 2 12 1 13
REMARK H PARENT
REMARK Flexibility Score: inf
ROOT
ATOM      1  C   UNL     1      30.655  64.561  18.734  1.00  0.00     0.000 C 
ENDROOT
BRANCH   1   2
ATOM      2  C   UNL     1      30.695  65.493  17.518  1.00  0.00     0.000 C 
BRANCH   2   3
ATOM      3  C   UNL     1      29.564  65.163  16.533  1.00  0.00     0.006 C 
BRANCH   3   4
ATOM      4  C   UNL     1      28.350  66.085  16.712  1.00  0.00     0.053 C 
BRANCH   4   5
ATOM      5  C   UNL     1      27.141  65.328  17.171  1.00  0.00     0.041 C 
ATOM      6  O   UNL     1      26.078  65.362  16.497  1.00  0.00    -0.550 OA
ATOM      7  O   UNL     1      27.200  64.558  18.326  1.00  0.00    -0.550 OA
ENDBRANCH   4   5
ENDBRANCH   3   4
ENDBRANCH   2   3
ENDBRANCH   1   2
BRANCH   1   8
ATOM      8  C   UNL     1      32.073  64.141  19.151  1.00  0.00     0.000 C 
BRANCH   8   9
ATOM      9  C   UNL     1      32.075  62.981  20.159  1.00  0.00    -0.000 C 
BRANCH   9  10
ATOM     10  C   UNL     1      32.813  63.329  21.462  1.00  0.00    -0.000 C 
BRANCH  10  11
ATOM     11  C   UNL     1      32.663  64.821  21.794  1.00  0.00    -0.000 C 
BRANCH  11  12
ATOM     12  C   UNL     1      31.564  65.086  22.835  1.00  0.00    -0.003 C 
ATOM     13  C   UNL     1      30.340  65.780  22.238  1.00  0.00     0.004 C 
ENDBRANCH  11  12
ENDBRANCH  10  11
ENDBRANCH   9  10
ENDBRANCH   8   9
ENDBRANCH   1   8
TORSDOF 9
ENDMDL
MODEL 6
REMARK VINA RESULT:    -2.260      3.955      5.815
REMARK INTER + INTRA:          -4.145
REMARK INTER:                  -3.638
REMARK INTRA:                  -0.507
REMARK UNBOUND:                -0.695
REMARK SMILES CCCCCCCCCCC(=O)[O-]
REMARK SMILES IDX 7 1 8 2 9 3 10 4 11 5 12 6 13 7 6 8 5 9 4 10 3 11 2 12 1 13
REMARK H PARENT
REMARK Flexibility Score: inf
ROOT
ATOM      1  C   UNL     1      30.201  64.793  18.992  1.00  0.00     0.000 C 
ENDROOT
BRANCH   1   2
ATOM      2  C   UNL     1      29.464  66.125  19.173  1.00  0.00     0.000 C 
BRANCH   2   3
ATOM      3  C   UNL     1      27.942  65.920  19.153  1.00  0.00     0.006 C 
BRANCH   3   4
ATOM      4  C   UNL     1      27.527  64.742  18.261  1.00  0.00     0.053 C 
BRANCH   4   5
ATOM      5  C   UNL     1      27.236  65.184  16.859  1.00  0.00     0.041 C 
ATOM      6  O   UNL     1      26.073  65.542  16.536  1.00  0.00    -0.550 OA
ATOM      7  O   UNL     1      28.257  65.232  15.918  1.00  0.00    -0.550 OA
ENDBRANCH   4   5
ENDBRANCH   3   4
ENDBRANCH   2   3
ENDBRANCH   1   2
BRANCH   1   8
ATOM      8  C   UNL     1      31.695  65.023  18.718  1.00  0.00     0.000 C 
BRANCH   8   9
ATOM      9  C   UNL     1      32.335  63.877  17.919  1.00  0.00    -0.000 C 
BRANCH   9  10
ATOM     10  C   UNL     1      32.845  62.740  18.819  1.00  0.00    -0.000 C 
BRANCH  10  11
ATOM     11  C   UNL     1      33.050  63.232  20.260  1.00  0.00    -0.000 C 
BRANCH  11  12
ATOM     12  C   UNL     1      32.991  62.091  21.287  1.00  0.00    -0.003 C 
ATOM     13  C   UNL     1      32.267  60.855  20.756  1.00  0.00     0.004 C 
ENDBRANCH  11  12
ENDBRANCH  10  11
ENDBRANCH   9  10
ENDBRANCH   8   9
ENDBRANCH   1   8
TORSDOF 9
ENDMDL
MODEL 7
REMARK VINA RESULT:    -1.852      2.081      2.815
REMARK INTER + INTRA:          -3.521
REMARK INTER:                  -2.854
REMARK INTRA:                  -0.667
REMARK UNBOUND:                -0.695
REMARK SMILES CCCCCCCCCCC(=O)[O-]
REMARK SMILES IDX 7 1 8 2 9 3 10 4 11 5 12 6 13 7 6 8 5 9 4 10 3 11 2 12 1 13
REMARK H PARENT
REMARK Flexibility Score: inf
ROOT
ATOM      1  C   UNL     1      31.198  65.740  20.157  1.00  0.00     0.000 C 
ENDROOT
BRANCH   1   2
ATOM      2  C   UNL     1      31.563  64.855  21.354  1.00  0.00     0.000 C 
BRANCH   2   3
ATOM      3  C   UNL     1      32.961  64.243  21.179  1.00  0.00     0.006 C 
BRANCH   3   4
ATOM      4  C   UNL     1      33.025  62.791  21.671  1.00  0.00     0.053 C 
BRANCH   4   5
ATOM      5  C   UNL     1      32.609  61.825  20.604  1.00  0.00     0.041 C 
ATOM      6  O   UNL     1      32.837  62.082  19.393  1.00  0.00    -0.550 OA
ATOM      7  O   UNL     1      31.999  60.626  20.951  1.00  0.00    -0.550 OA
ENDBRANCH   4   5
ENDBRANCH   3   4
ENDBRANCH   2   3
ENDBRANCH   1   2
BRANCH   1   8
ATOM      8  C   UNL     1      30.715  64.891  18.971  1.00  0.00     0.000 C 
BRANCH   8   9
ATOM      9  C   UNL     1      31.093  65.501  17.612  1.00  0.00    -0.000 C 
BRANCH   9  10
ATOM     10  C   UNL     1      29.890  66.125  16.887  1.00  0.00    -0.000 C 
BRANCH  10  11
ATOM     11  C   UNL     1      28.961  65.035  16.331  1.00  0.00    -0.000 C 
BRANCH  11  12
ATOM     12  C   UNL     1      27.481  65.301  16.651  1.00  0.00    -0.003 C 
ATOM     13  C   UNL     1      27.119  64.957  18.095  1.00  0.00     0.004 C 
ENDBRANCH  11  12
ENDBRANCH  10  11
ENDBRANCH   9  10
ENDBRANCH   8   9
ENDBRANCH   1   8
TORSDOF 9
ENDMDL
