MODEL 1
REMARK VINA RESULT:    -3.676      0.000      0.000
REMARK INTER + INTRA:          -6.120
REMARK INTER:                  -5.073
REMARK INTRA:                  -1.047
REMARK UNBOUND:                -1.047
REMARK SMILES CCCCc1cccc(O)c1CCCC
REMARK SMILES IDX 5 1 11 2 9 3 8 4 7 5 6 6 4 7 3 8 2 9 1 10 12 11 13 12 14 13
REMARK SMILES IDX 15 14 10 15
REMARK H PARENT 10 16
REMARK Flexibility Score: inf
ROOT
ATOM      1  C   UNL     1      22.189  -2.526  41.215  1.00  0.00    -0.041 A 
ATOM      2  C   UNL     1      22.612  -2.835  42.541  1.00  0.00    -0.003 A 
ATOM      3  C   UNL     1      23.276  -4.069  42.777  1.00  0.00     0.119 A 
ATOM      4  C   UNL     1      23.572  -4.921  41.710  1.00  0.00     0.046 A 
ATOM      5  C   UNL     1      23.198  -4.589  40.412  1.00  0.00     0.004 A 
ATOM      6  C   UNL     1      22.510  -3.405  40.165  1.00  0.00     0.004 A 
ENDROOT
BRANCH   1   7
ATOM      7  C   UNL     1      21.441  -1.258  40.861  1.00  0.00     0.036 C 
BRANCH   7   8
ATOM      8  C   UNL     1      20.039  -1.581  40.331  1.00  0.00     0.004 C 
BRANCH   8   9
ATOM      9  C   UNL     1      19.176  -2.230  41.418  1.00  0.00    -0.003 C 
ATOM     10  C   UNL     1      18.681  -3.605  40.982  1.00  0.00     0.004 C 
ENDBRANCH   8   9
ENDBRANCH   7   8
ENDBRANCH   1   7
BRANCH   2  11
ATOM     11  C   UNL     1      22.327  -1.889  43.694  1.00  0.00     0.040 C 
BRANCH  11  12
ATOM     12  C   UNL     1      23.516  -0.947  43.935  1.00  0.00     0.005 C 
BRANCH  12  13
ATOM     13  C   UNL     1      24.199  -1.195  45.288  1.00  0.00    -0.003 C 
ATOM     14  C   UNL     1      25.563  -1.872  45.145  1.00  0.00     0.004 C 
ENDBRANCH  12  13
ENDBRANCH  11  12
ENDBRANCH   2  11
BRANCH   3  15
ATOM     15  O   UNL     1      23.654  -4.493  44.055  1.00  0.00    -0.508 OA
ATOM     16  H   UNL     1      24.591  -4.408  44.427  1.00  0.00     0.293 HD
ENDBRANCH   3  15
TORSDOF 7
ENDMDL
MODEL 2
REMARK VINA RESULT:    -3.485     18.224     20.844
REMARK INTER + INTRA:          -5.856
REMARK INTER:                  -5.084
REMARK INTRA:                  -0.772
REMARK UNBOUND:                -1.047
REMARK SMILES CCCCc1cccc(O)c1CCCC
REMARK SMILES IDX 5 1 11 2 9 3 8 4 7 5 6 6 4 7 3 8 2 9 1 10 12 11 13 12 14 13
REMARK SMILES IDX 15 14 10 15
REMARK H PARENT 10 16
REMARK Flexibility Score: inf
ROOT
ATOM      1  C   UNL     1      35.778  -2.527  58.916  1.00  0.00    -0.041 A 
ATOM      2  C   UNL     1      36.053  -3.179  57.677  1.00  0.00    -0.003 A 
ATOM      3  C   UNL     1      36.697  -4.445  57.699  1.00  0.00     0.119 A 
ATOM      4  C   UNL     1      36.983  -5.065  58.919  1.00  0.00     0.046 A 
ATOM      5  C   UNL     1      36.667  -4.443  60.122  1.00  0.00     0.004 A 
ATOM      6  C   UNL     1      36.074  -3.184  60.123  1.00  0.00     0.004 A 
ENDROOT
BRANCH   1   7
ATOM      7  C   UNL     1      35.130  -1.161  59.004  1.00  0.00     0.036 C 
BRANCH   7   8
ATOM      8  C   UNL     1      33.926  -1.188  59.954  1.00  0.00     0.004 C 
BRANCH   8   9
ATOM      9  C   UNL     1      32.752  -1.951  59.333  1.00  0.00    -0.003 C 
ATOM     10  C   UNL     1      32.437  -3.216  60.125  1.00  0.00     0.004 C 
ENDBRANCH   8   9
ENDBRANCH   7   8
ENDBRANCH   1   7
BRANCH   2  11
ATOM     11  C   UNL     1      35.705  -2.522  56.353  1.00  0.00     0.040 C 
BRANCH  11  12
ATOM     12  C   UNL     1      36.974  -2.056  55.624  1.00  0.00     0.005 C 
BRANCH  12  13
ATOM     13  C   UNL     1      36.902  -2.290  54.107  1.00  0.00    -0.003 C 
ATOM     14  C   UNL     1      36.073  -3.522  53.739  1.00  0.00     0.004 C 
ENDBRANCH  12  13
ENDBRANCH  11  12
ENDBRANCH   2  11
BRANCH   3  15
ATOM     15  O   UNL     1      37.079  -5.120  56.535  1.00  0.00    -0.508 OA
ATOM     16  H   UNL     1      37.794  -4.794  55.899  1.00  0.00     0.293 HD
ENDBRANCH   3  15
TORSDOF 7
ENDMDL
MODEL 3
REMARK VINA RESULT:    -3.480     12.604     14.355
REMARK INTER + INTRA:          -5.850
REMARK INTER:                  -5.156
REMARK INTRA:                  -0.694
REMARK UNBOUND:                -1.047
REMARK SMILES CCCCc1cccc(O)c1CCCC
REMARK SMILES IDX 5 1 11 2 9 3 8 4 7 5 6 6 4 7 3 8 2 9 1 10 12 11 13 12 14 13
REMARK SMILES IDX 15 14 10 15
REMARK H PARENT 10 16
REMARK Flexibility Score: inf
ROOT
ATOM      1  C   UNL     1      35.258  -3.051  46.737  1.00  0.00    -0.041 A 
ATOM      2  C   UNL     1      35.176  -3.574  45.413  1.00  0.00    -0.003 A 
ATOM      3  C   UNL     1      34.708  -2.729  44.371  1.00  0.00     0.119 A 
ATOM      4  C   UNL     1      34.410  -1.390  44.637  1.00  0.00     0.046 A 
ATOM      5  C   UNL     1      34.538  -0.875  45.923  1.00  0.00     0.004 A 
ATOM      6  C   UNL     1      34.954  -1.697  46.965  1.00  0.00     0.004 A 
ENDROOT
BRANCH   1   7
ATOM      7  C   UNL     1      35.706  -3.876  47.925  1.00  0.00     0.036 C 
BRANCH   7   8
ATOM      8  C   UNL     1      35.651  -3.050  49.216  1.00  0.00     0.004 C 
BRANCH   8   9
ATOM      9  C   UNL     1      34.489  -3.501  50.108  1.00  0.00    -0.003 C 
ATOM     10  C   UNL     1      34.416  -5.022  50.191  1.00  0.00     0.004 C 
ENDBRANCH   8   9
ENDBRANCH   7   8
ENDBRANCH   1   7
BRANCH   2  11
ATOM     11  C   UNL     1      35.541  -5.019  45.119  1.00  0.00     0.040 C 
BRANCH  11  12
ATOM     12  C   UNL     1      36.932  -5.110  44.474  1.00  0.00     0.005 C 
BRANCH  12  13
ATOM     13  C   UNL     1      37.069  -6.319  43.537  1.00  0.00    -0.003 C 
ATOM     14  C   UNL     1      36.281  -6.151  42.238  1.00  0.00     0.004 C 
ENDBRANCH  12  13
ENDBRANCH  11  12
ENDBRANCH   2  11
BRANCH   3  15
ATOM     15  O   UNL     1      34.519  -3.177  43.060  1.00  0.00    -0.508 OA
ATOM     16  H   UNL     1      34.876  -2.704  42.242  1.00  0.00     0.293 HD
ENDBRANCH   3  15
TORSDOF 7
ENDMDL
MODEL 4
REMARK VINA RESULT:    -3.454     17.729     20.460
REMARK INTER + INTRA:          -5.814
REMARK INTER:                  -4.877
REMARK INTRA:                  -0.937
REMARK UNBOUND:                -1.047
REMARK SMILES CCCCc1cccc(O)c1CCCC
REMARK SMILES IDX 5 1 11 2 9 3 8 4 7 5 6 6 4 7 3 8 2 9 1 10 12 11 13 12 14 13
REMARK SMILES IDX 15 14 10 15
REMARK H PARENT 10 16
REMARK Flexibility Score: inf
ROOT
ATOM      1  C   UNL     1      35.983  -2.496  56.939  1.00  0.00    -0.041 A 
ATOM      2  C   UNL     1      35.568  -2.579  58.301  1.00  0.00    -0.003 A 
ATOM      3  C   UNL     1      34.508  -1.742  58.745  1.00  0.00     0.119 A 
ATOM      4  C   UNL     1      33.843  -0.914  57.838  1.00  0.00     0.046 A 
ATOM      5  C   UNL     1      34.223  -0.875  56.501  1.00  0.00     0.004 A 
ATOM      6  C   UNL     1      35.286  -1.655  56.055  1.00  0.00     0.004 A 
ENDROOT
BRANCH   1   7
ATOM      7  C   UNL     1      37.125  -3.314  56.374  1.00  0.00     0.036 C 
BRANCH   7   8
ATOM      8  C   UNL     1      36.599  -4.419  55.448  1.00  0.00     0.004 C 
BRANCH   8   9
ATOM      9  C   UNL     1      36.989  -4.147  53.991  1.00  0.00    -0.003 C 
ATOM     10  C   UNL     1      35.755  -3.951  53.117  1.00  0.00     0.004 C 
ENDBRANCH   8   9
ENDBRANCH   7   8
ENDBRANCH   1   7
BRANCH   2  11
ATOM     11  C   UNL     1      36.265  -3.510  59.277  1.00  0.00     0.040 C 
BRANCH  11  12
ATOM     12  C   UNL     1      35.361  -4.699  59.639  1.00  0.00     0.005 C 
BRANCH  12  13
ATOM     13  C   UNL     1      36.144  -6.012  59.784  1.00  0.00    -0.003 C 
ATOM     14  C   UNL     1      37.114  -6.252  58.626  1.00  0.00     0.004 C 
ENDBRANCH  12  13
ENDBRANCH  11  12
ENDBRANCH   2  11
BRANCH   3  15
ATOM     15  O   UNL     1      34.088  -1.696  60.078  1.00  0.00    -0.508 OA
ATOM     16  H   UNL     1      34.647  -2.011  60.860  1.00  0.00     0.293 HD
ENDBRANCH   3  15
TORSDOF 7
ENDMDL
MODEL 5
REMARK VINA RESULT:    -3.398     17.064     20.653
REMARK INTER + INTRA:          -5.737
REMARK INTER:                  -5.100
REMARK INTRA:                  -0.637
REMARK UNBOUND:                -1.047
REMARK SMILES CCCCc1cccc(O)c1CCCC
REMARK SMILES IDX 5 1 11 2 9 3 8 4 7 5 6 6 4 7 3 8 2 9 1 10 12 11 13 12 14 13
REMARK SMILES IDX 15 14 10 15
REMARK H PARENT 10 16
REMARK Flexibility Score: inf
ROOT
ATOM      1  C   UNL     1      36.259  -3.131  58.061  1.00  0.00    -0.041 A 
ATOM      2  C   UNL     1      36.286  -2.655  56.717  1.00  0.00    -0.003 A 
ATOM      3  C   UNL     1      35.481  -1.535  56.372  1.00  0.00     0.119 A 
ATOM      4  C   UNL     1      34.740  -0.876  57.357  1.00  0.00     0.046 A 
ATOM      5  C   UNL     1      34.758  -1.319  58.675  1.00  0.00     0.004 A 
ATOM      6  C   UNL     1      35.506  -2.438  59.025  1.00  0.00     0.004 A 
ENDROOT
BRANCH   1   7
ATOM      7  C   UNL     1      37.048  -4.338  58.525  1.00  0.00     0.036 C 
BRANCH   7   8
ATOM      8  C   UNL     1      36.636  -4.747  59.944  1.00  0.00     0.004 C 
BRANCH   8   9
ATOM      9  C   UNL     1      35.742  -5.991  59.920  1.00  0.00    -0.003 C 
ATOM     10  C   UNL     1      34.277  -5.621  60.125  1.00  0.00     0.004 C 
ENDBRANCH   8   9
ENDBRANCH   7   8
ENDBRANCH   1   7
BRANCH   2  11
ATOM     11  C   UNL     1      37.124  -3.348  55.657  1.00  0.00     0.040 C 
BRANCH  11  12
ATOM     12  C   UNL     1      36.245  -4.227  54.754  1.00  0.00     0.005 C 
BRANCH  12  13
ATOM     13  C   UNL     1      36.819  -4.376  53.338  1.00  0.00    -0.003 C 
ATOM     14  C   UNL     1      35.749  -4.259  52.251  1.00  0.00     0.004 C 
ENDBRANCH  12  13
ENDBRANCH  11  12
ENDBRANCH   2  11
BRANCH   3  15
ATOM     15  O   UNL     1      35.381  -1.049  55.065  1.00  0.00    -0.508 OA
ATOM     16  H   UNL     1      36.173  -0.774  54.501  1.00  0.00     0.293 HD
ENDBRANCH   3  15
TORSDOF 7
ENDMDL
MODEL 6
REMARK VINA RESULT:    -3.388      1.519      3.987
REMARK INTER + INTRA:          -5.723
REMARK INTER:                  -4.668
REMARK INTRA:                  -1.055
REMARK UNBOUND:                -1.047
REMARK SMILES CCCCc1cccc(O)c1CCCC
REMARK SMILES IDX 5 1 11 2 9 3 8 4 7 5 6 6 4 7 3 8 2 9 1 10 12 11 13 12 14 13
REMARK SMILES IDX 15 14 10 15
REMARK H PARENT 10 16
REMARK Flexibility Score: inf
ROOT
ATOM      1  C   UNL     1      22.160  -2.359  41.535  1.00  0.00    -0.041 A 
ATOM      2  C   UNL     1      22.523  -3.699  41.206  1.00  0.00    -0.003 A 
ATOM      3  C   UNL     1      23.301  -4.444  42.132  1.00  0.00     0.119 A 
ATOM      4  C   UNL     1      23.634  -3.891  43.371  1.00  0.00     0.046 A 
ATOM      5  C   UNL     1      23.235  -2.600  43.704  1.00  0.00     0.004 A 
ATOM      6  C   UNL     1      22.508  -1.839  42.794  1.00  0.00     0.004 A 
ENDROOT
BRANCH   1   7
ATOM      7  C   UNL     1      21.366  -1.466  40.605  1.00  0.00     0.036 C 
BRANCH   7   8
ATOM      8  C   UNL     1      20.011  -1.101  41.224  1.00  0.00     0.004 C 
BRANCH   8   9
ATOM      9  C   UNL     1      18.856  -1.542  40.318  1.00  0.00    -0.003 C 
ATOM     10  C   UNL     1      17.662  -2.016  41.139  1.00  0.00     0.004 C 
ENDBRANCH   8   9
ENDBRANCH   7   8
ENDBRANCH   1   7
BRANCH   2  11
ATOM     11  C   UNL     1      22.124  -4.313  39.875  1.00  0.00     0.040 C 
BRANCH  11  12
ATOM     12  C   UNL     1      21.065  -5.407  40.074  1.00  0.00     0.005 C 
BRANCH  12  13
ATOM     13  C   UNL     1      19.928  -4.964  41.008  1.00  0.00    -0.003 C 
ATOM     14  C   UNL     1      18.623  -5.717  40.747  1.00  0.00     0.004 C 
ENDBRANCH  12  13
ENDBRANCH  11  12
ENDBRANCH   2  11
BRANCH   3  15
ATOM     15  O   UNL     1      23.771  -5.733  41.861  1.00  0.00    -0.508 OA
ATOM     16  H   UNL     1      23.260  -6.422  41.328  1.00  0.00     0.293 HD
ENDBRANCH   3  15
TORSDOF 7
ENDMDL
MODEL 7
REMARK VINA RESULT:    -3.362      2.387      4.408
REMARK INTER + INTRA:          -5.687
REMARK INTER:                  -4.946
REMARK INTRA:                  -0.741
REMARK UNBOUND:                -1.047
REMARK SMILES CCCCc1cccc(O)c1CCCC
REMARK SMILES IDX 5 1 11 2 9 3 8 4 7 5 6 6 4 7 3 8 2 9 1 10 12 11 13 12 14 13
REMARK SMILES IDX 15 14 10 15
REMARK H PARENT 10 16
REMARK Flexibility Score: inf
ROOT
ATOM      1  C   UNL     1      19.891  -4.363  40.192  1.00  0.00    -0.041 A 
ATOM      2  C   UNL     1      21.244  -3.915  40.238  1.00  0.00    -0.003 A 
ATOM      3  C   UNL     1      21.500  -2.518  40.299  1.00  0.00     0.119 A 
ATOM      4  C   UNL     1      20.438  -1.615  40.388  1.00  0.00     0.046 A 
ATOM      5  C   UNL     1      19.122  -2.064  40.390  1.00  0.00     0.004 A 
ATOM      6  C   UNL     1      18.849  -3.425  40.290  1.00  0.00     0.004 A 
ENDROOT
BRANCH   1   7
ATOM      7  C   UNL     1      19.509  -5.825  40.089  1.00  0.00     0.036 C 
BRANCH   7   8
ATOM      8  C   UNL     1      17.996  -5.981  39.887  1.00  0.00     0.004 C 
BRANCH   8   9
ATOM      9  C   UNL     1      17.448  -7.147  40.717  1.00  0.00    -0.003 C 
ATOM     10  C   UNL     1      17.608  -8.472  39.978  1.00  0.00     0.004 C 
ENDBRANCH   8   9
ENDBRANCH   7   8
ENDBRANCH   1   7
BRANCH   2  11
ATOM     11  C   UNL     1      22.398  -4.901  40.183  1.00  0.00     0.040 C 
BRANCH  11  12
ATOM     12  C   UNL     1      22.781  -5.372  41.595  1.00  0.00     0.005 C 
BRANCH  12  13
ATOM     13  C   UNL     1      23.995  -4.619  42.158  1.00  0.00    -0.003 C 
ATOM     14  C   UNL     1      23.655  -3.796  43.401  1.00  0.00     0.004 C 
ENDBRANCH  12  13
ENDBRANCH  11  12
ENDBRANCH   2  11
BRANCH   3  15
ATOM     15  O   UNL     1      22.792  -1.984  40.266  1.00  0.00    -0.508 OA
ATOM     16  H   UNL     1      23.592  -2.457  39.869  1.00  0.00     0.293 HD
ENDBRANCH   3  15
TORSDOF 7
ENDMDL
MODEL 8
REMARK VINA RESULT:    -3.327     14.910     18.403
REMARK INTER + INTRA:          -5.638
REMARK INTER:                  -4.929
REMARK INTRA:                  -0.709
REMARK UNBOUND:                -1.047
REMARK SMILES CCCCc1cccc(O)c1CCCC
REMARK SMILES IDX 5 1 11 2 9 3 8 4 7 5 6 6 4 7 3 8 2 9 1 10 12 11 13 12 14 13
REMARK SMILES IDX 15 14 10 15
REMARK H PARENT 10 16
REMARK Flexibility Score: inf
ROOT
ATOM      1  C   UNL     1      36.575  -7.065  53.141  1.00  0.00    -0.041 A 
ATOM      2  C   UNL     1      36.528  -5.741  52.612  1.00  0.00    -0.003 A 
ATOM      3  C   UNL     1      36.722  -4.645  53.495  1.00  0.00     0.119 A 
ATOM      4  C   UNL     1      37.027  -4.874  54.840  1.00  0.00     0.046 A 
ATOM      5  C   UNL     1      37.117  -6.170  55.336  1.00  0.00     0.004 A 
ATOM      6  C   UNL     1      36.890  -7.256  54.498  1.00  0.00     0.004 A 
ENDROOT
BRANCH   1   7
ATOM      7  C   UNL     1      36.345  -8.301  52.296  1.00  0.00     0.036 C 
BRANCH   7   8
ATOM      8  C   UNL     1      36.909  -9.548  52.987  1.00  0.00     0.004 C 
BRANCH   8   9
ATOM      9  C   UNL     1      35.781 -10.471  53.461  1.00  0.00    -0.003 C 
ATOM     10  C   UNL     1      35.908 -10.777  54.950  1.00  0.00     0.004 C 
ENDBRANCH   8   9
ENDBRANCH   7   8
ENDBRANCH   1   7
BRANCH   2  11
ATOM     11  C   UNL     1      36.238  -5.496  51.142  1.00  0.00     0.040 C 
BRANCH  11  12
ATOM     12  C   UNL     1      34.753  -5.165  50.926  1.00  0.00     0.005 C 
BRANCH  12  13
ATOM     13  C   UNL     1      34.547  -3.976  49.976  1.00  0.00    -0.003 C 
ATOM     14  C   UNL     1      35.852  -3.494  49.342  1.00  0.00     0.004 C 
ENDBRANCH  12  13
ENDBRANCH  11  12
ENDBRANCH   2  11
BRANCH   3  15
ATOM     15  O   UNL     1      36.614  -3.313  53.083  1.00  0.00    -0.508 OA
ATOM     16  H   UNL     1      35.738  -2.817  52.993  1.00  0.00     0.293 HD
ENDBRANCH   3  15
TORSDOF 7
ENDMDL
MODEL 9
REMARK VINA RESULT:    -3.314     16.507     19.223
REMARK INTER + INTRA:          -5.620
REMARK INTER:                  -5.116
REMARK INTRA:                  -0.504
REMARK UNBOUND:                -1.047
REMARK SMILES CCCCc1cccc(O)c1CCCC
REMARK SMILES IDX 5 1 11 2 9 3 8 4 7 5 6 6 4 7 3 8 2 9 1 10 12 11 13 12 14 13
REMARK SMILES IDX 15 14 10 15
REMARK H PARENT 10 16
REMARK Flexibility Score: inf
ROOT
ATOM      1  C   UNL     1      36.478  -5.080  54.312  1.00  0.00    -0.041 A 
ATOM      2  C   UNL     1      36.474  -6.385  53.737  1.00  0.00    -0.003 A 
ATOM      3  C   UNL     1      35.813  -6.582  52.494  1.00  0.00     0.119 A 
ATOM      4  C   UNL     1      35.248  -5.496  51.821  1.00  0.00     0.046 A 
ATOM      5  C   UNL     1      35.299  -4.218  52.367  1.00  0.00     0.004 A 
ATOM      6  C   UNL     1      35.904  -4.010  53.602  1.00  0.00     0.004 A 
ENDROOT
BRANCH   1   7
ATOM      7  C   UNL     1      37.120  -4.769  55.648  1.00  0.00     0.036 C 
BRANCH   7   8
ATOM      8  C   UNL     1      36.544  -3.477  56.242  1.00  0.00     0.004 C 
BRANCH   8   9
ATOM      9  C   UNL     1      36.462  -3.564  57.770  1.00  0.00    -0.003 C 
ATOM     10  C   UNL     1      35.303  -2.729  58.307  1.00  0.00     0.004 C 
ENDBRANCH   8   9
ENDBRANCH   7   8
ENDBRANCH   1   7
BRANCH   2  11
ATOM     11  C   UNL     1      37.125  -7.557  54.450  1.00  0.00     0.040 C 
BRANCH  11  12
ATOM     12  C   UNL     1      36.063  -8.469  55.082  1.00  0.00     0.005 C 
BRANCH  12  13
ATOM     13  C   UNL     1      36.602  -9.874  55.391  1.00  0.00    -0.003 C 
ATOM     14  C   UNL     1      36.106 -10.928  54.400  1.00  0.00     0.004 C 
ENDBRANCH  12  13
ENDBRANCH  11  12
ENDBRANCH   2  11
BRANCH   3  15
ATOM     15  O   UNL     1      35.688  -7.840  51.895  1.00  0.00    -0.508 OA
ATOM     16  H   UNL     1      36.301  -8.185  51.169  1.00  0.00     0.293 HD
ENDBRANCH   3  15
TORSDOF 7
ENDMDL
