MODEL 1
REMARK VINA RESULT:    -4.212      0.000      0.000
REMARK INTER + INTRA:          -8.324
REMARK INTER:                  -7.290
REMARK INTRA:                  -1.034
REMARK UNBOUND:                -1.034
REMARK SMILES CCCCCCCCCCCCCCO
REMARK SMILES IDX 8 1 7 2 6 3 5 4 4 5 3 6 2 7 1 8 9 9 10 10 11 11 12 12 13 13
REMARK SMILES IDX 14 14 15 15
REMARK H PARENT 15 16
REMARK Flexibility Score: inf
ROOT
ATOM      1  C   UNL     1       2.647  27.761  13.407  1.00  0.00     0.000 C 
ENDROOT
BRANCH   1   2
ATOM      2  C   UNL     1       2.752  29.245  13.026  1.00  0.00    -0.000 C 
BRANCH   2   3
ATOM      3  C   UNL     1       1.408  29.774  12.510  1.00  0.00    -0.000 C 
BRANCH   3   4
ATOM      4  C   UNL     1       1.603  31.030  11.651  1.00  0.00    -0.000 C 
BRANCH   4   5
ATOM      5  C   UNL     1       2.876  30.922  10.798  1.00  0.00    -0.000 C 
BRANCH   5   6
ATOM      6  C   UNL     1       3.820  32.125  11.005  1.00  0.00    -0.000 C 
BRANCH   6   7
ATOM      7  C   UNL     1       5.265  31.721  11.348  1.00  0.00    -0.003 C 
ATOM      8  C   UNL     1       5.647  32.036  12.791  1.00  0.00     0.004 C 
ENDBRANCH   6   7
ENDBRANCH   5   6
ENDBRANCH   4   5
ENDBRANCH   3   4
ENDBRANCH   2   3
ENDBRANCH   1   2
BRANCH   1   9
ATOM      9  C   UNL     1       2.462  26.845  12.186  1.00  0.00     0.000 C 
BRANCH   9  10
ATOM     10  C   UNL     1       3.546  27.061  11.117  1.00  0.00     0.000 C 
BRANCH  10  11
ATOM     11  C   UNL     1       3.370  26.135   9.902  1.00  0.00     0.000 C 
BRANCH  11  12
ATOM     12  C   UNL     1       3.716  24.671  10.213  1.00  0.00     0.002 C 
BRANCH  12  13
ATOM     13  C   UNL     1       4.902  24.196   9.364  1.00  0.00     0.028 C 
BRANCH  13  14
ATOM     14  C   UNL     1       6.172  24.029  10.205  1.00  0.00     0.156 C 
BRANCH  14  15
ATOM     15  O   UNL     1       5.904  24.232  11.566  1.00  0.00    -0.396 OA
ATOM     16  H   UNL     1       6.696  23.898  12.064  1.00  0.00     0.210 HD
ENDBRANCH  14  15
ENDBRANCH  13  14
ENDBRANCH  12  13
ENDBRANCH  11  12
ENDBRANCH  10  11
ENDBRANCH   9  10
ENDBRANCH   1   9
TORSDOF 13
ENDMDL
MODEL 2
REMARK VINA RESULT:    -4.092      2.248      3.825
REMARK INTER + INTRA:          -8.116
REMARK INTER:                  -6.854
REMARK INTRA:                  -1.262
REMARK UNBOUND:                -1.034
REMARK SMILES CCCCCCCCCCCCCCO
REMARK SMILES IDX 8 1 7 2 6 3 5 4 4 5 3 6 2 7 1 8 9 9 10 10 11 11 12 12 13 13
REMARK SMILES IDX 14 14 15 15
REMARK H PARENT 15 16
REMARK Flexibility Score: inf
ROOT
ATOM      1  C   UNL     1       5.173  29.360  11.053  1.00  0.00     0.000 C 
ENDROOT
BRANCH   1   2
ATOM      2  C   UNL     1       4.997  30.885  10.976  1.00  0.00    -0.000 C 
BRANCH   2   3
ATOM      3  C   UNL     1       3.772  31.337  11.780  1.00  0.00    -0.000 C 
BRANCH   3   4
ATOM      4  C   UNL     1       2.484  30.727  11.214  1.00  0.00    -0.000 C 
BRANCH   4   5
ATOM      5  C   UNL     1       1.544  30.278  12.343  1.00  0.00    -0.000 C 
BRANCH   5   6
ATOM      6  C   UNL     1       1.754  28.798  12.724  1.00  0.00    -0.000 C 
BRANCH   6   7
ATOM      7  C   UNL     1       2.531  28.606  14.038  1.00  0.00    -0.003 C 
ATOM      8  C   UNL     1       1.630  28.603  15.271  1.00  0.00     0.004 C 
ENDBRANCH   6   7
ENDBRANCH   5   6
ENDBRANCH   4   5
ENDBRANCH   3   4
ENDBRANCH   2   3
ENDBRANCH   1   2
BRANCH   1   9
ATOM      9  C   UNL     1       5.267  28.702   9.667  1.00  0.00     0.000 C 
BRANCH   9  10
ATOM     10  C   UNL     1       5.040  27.181   9.719  1.00  0.00     0.000 C 
BRANCH  10  11
ATOM     11  C   UNL     1       3.587  26.813  10.060  1.00  0.00     0.000 C 
BRANCH  11  12
ATOM     12  C   UNL     1       3.472  25.478  10.812  1.00  0.00     0.002 C 
BRANCH  12  13
ATOM     13  C   UNL     1       2.216  25.451  11.693  1.00  0.00     0.028 C 
BRANCH  13  14
ATOM     14  C   UNL     1       1.026  24.814  10.967  1.00  0.00     0.156 C 
BRANCH  14  15
ATOM     15  O   UNL     1      -0.120  24.827  11.775  1.00  0.00    -0.396 OA
ATOM     16  H   UNL     1      -0.168  25.731  12.185  1.00  0.00     0.210 HD
ENDBRANCH  14  15
ENDBRANCH  13  14
ENDBRANCH  12  13
ENDBRANCH  11  12
ENDBRANCH  10  11
ENDBRANCH   9  10
ENDBRANCH   1   9
TORSDOF 13
ENDMDL
MODEL 3
REMARK VINA RESULT:    -4.037      2.434      4.015
REMARK INTER + INTRA:          -8.021
REMARK INTER:                  -6.896
REMARK INTRA:                  -1.125
REMARK UNBOUND:                -1.034
REMARK SMILES CCCCCCCCCCCCCCO
REMARK SMILES IDX 8 1 7 2 6 3 5 4 4 5 3 6 2 7 1 8 9 9 10 10 11 11 12 12 13 13
REMARK SMILES IDX 14 14 15 15
REMARK H PARENT 15 16
REMARK Flexibility Score: inf
ROOT
ATOM      1  C   UNL     1       3.910  28.921   9.756  1.00  0.00     0.000 C 
ENDROOT
BRANCH   1   2
ATOM      2  C   UNL     1       4.788  29.094  11.005  1.00  0.00    -0.000 C 
BRANCH   2   3
ATOM      3  C   UNL     1       4.009  29.785  12.131  1.00  0.00    -0.000 C 
BRANCH   3   4
ATOM      4  C   UNL     1       2.497  29.699  11.889  1.00  0.00    -0.000 C 
BRANCH   4   5
ATOM      5  C   UNL     1       1.833  28.736  12.885  1.00  0.00    -0.000 C 
BRANCH   5   6
ATOM      6  C   UNL     1       2.746  28.419  14.087  1.00  0.00    -0.000 C 
BRANCH   6   7
ATOM      7  C   UNL     1       2.012  28.440  15.439  1.00  0.00    -0.003 C 
ATOM      8  C   UNL     1       0.562  28.904  15.326  1.00  0.00     0.004 C 
ENDBRANCH   6   7
ENDBRANCH   5   6
ENDBRANCH   4   5
ENDBRANCH   3   4
ENDBRANCH   2   3
ENDBRANCH   1   2
BRANCH   1   9
ATOM      9  C   UNL     1       3.675  27.445   9.396  1.00  0.00     0.000 C 
BRANCH   9  10
ATOM     10  C   UNL     1       4.153  26.485  10.500  1.00  0.00     0.000 C 
BRANCH  10  11
ATOM     11  C   UNL     1       3.574  25.069  10.343  1.00  0.00     0.000 C 
BRANCH  11  12
ATOM     12  C   UNL     1       2.526  24.975   9.224  1.00  0.00     0.002 C 
BRANCH  12  13
ATOM     13  C   UNL     1       1.156  24.574   9.789  1.00  0.00     0.028 C 
BRANCH  13  14
ATOM     14  C   UNL     1       1.138  24.618  11.320  1.00  0.00     0.156 C 
BRANCH  14  15
ATOM     15  O   UNL     1      -0.145  24.923  11.798  1.00  0.00    -0.396 OA
ATOM     16  H   UNL     1      -0.251  25.907  11.718  1.00  0.00     0.210 HD
ENDBRANCH  14  15
ENDBRANCH  13  14
ENDBRANCH  12  13
ENDBRANCH  11  12
ENDBRANCH  10  11
ENDBRANCH   9  10
ENDBRANCH   1   9
TORSDOF 13
ENDMDL
MODEL 4
REMARK VINA RESULT:    -3.984      2.415      4.406
REMARK INTER + INTRA:          -7.929
REMARK INTER:                  -6.197
REMARK INTRA:                  -1.731
REMARK UNBOUND:                -1.034
REMARK SMILES CCCCCCCCCCCCCCO
REMARK SMILES IDX 8 1 7 2 6 3 5 4 4 5 3 6 2 7 1 8 9 9 10 10 11 11 12 12 13 13
REMARK SMILES IDX 14 14 15 15
REMARK H PARENT 15 16
REMARK Flexibility Score: inf
ROOT
ATOM      1  C   UNL     1       5.298  28.689  10.256  1.00  0.00     0.000 C 
ENDROOT
BRANCH   1   2
ATOM      2  C   UNL     1       5.503  30.207  10.380  1.00  0.00    -0.000 C 
BRANCH   2   3
ATOM      3  C   UNL     1       5.771  30.607  11.836  1.00  0.00    -0.000 C 
BRANCH   3   4
ATOM      4  C   UNL     1       4.591  31.395  12.418  1.00  0.00    -0.000 C 
BRANCH   4   5
ATOM      5  C   UNL     1       3.678  31.925  11.302  1.00  0.00    -0.000 C 
BRANCH   5   6
ATOM      6  C   UNL     1       2.217  31.463  11.475  1.00  0.00    -0.000 C 
BRANCH   6   7
ATOM      7  C   UNL     1       1.335  31.736  10.244  1.00  0.00    -0.003 C 
ATOM      8  C   UNL     1       1.965  31.256   8.939  1.00  0.00     0.004 C 
ENDBRANCH   6   7
ENDBRANCH   5   6
ENDBRANCH   4   5
ENDBRANCH   3   4
ENDBRANCH   2   3
ENDBRANCH   1   2
BRANCH   1   9
ATOM      9  C   UNL     1       3.814  28.293  10.192  1.00  0.00     0.000 C 
BRANCH   9  10
ATOM     10  C   UNL     1       3.585  26.809  10.526  1.00  0.00     0.000 C 
BRANCH  10  11
ATOM     11  C   UNL     1       2.945  26.608  11.910  1.00  0.00     0.000 C 
BRANCH  11  12
ATOM     12  C   UNL     1       2.228  27.865  12.424  1.00  0.00     0.002 C 
BRANCH  12  13
ATOM     13  C   UNL     1       2.873  28.374  13.719  1.00  0.00     0.028 C 
BRANCH  13  14
ATOM     14  C   UNL     1       1.829  28.642  14.808  1.00  0.00     0.156 C 
BRANCH  14  15
ATOM     15  O   UNL     1       1.619  27.500  15.594  1.00  0.00    -0.396 OA
ATOM     16  H   UNL     1       0.709  27.168  15.376  1.00  0.00     0.210 HD
ENDBRANCH  14  15
ENDBRANCH  13  14
ENDBRANCH  12  13
ENDBRANCH  11  12
ENDBRANCH  10  11
ENDBRANCH   9  10
ENDBRANCH   1   9
TORSDOF 13
ENDMDL
MODEL 5
REMARK VINA RESULT:    -3.964      1.308      3.149
REMARK INTER + INTRA:          -7.895
REMARK INTER:                  -6.122
REMARK INTRA:                  -1.773
REMARK UNBOUND:                -1.034
REMARK SMILES CCCCCCCCCCCCCCO
REMARK SMILES IDX 8 1 7 2 6 3 5 4 4 5 3 6 2 7 1 8 9 9 10 10 11 11 12 12 13 13
REMARK SMILES IDX 14 14 15 15
REMARK H PARENT 15 16
REMARK Flexibility Score: inf
ROOT
ATOM      1  C   UNL     1       5.519  30.055  11.728  1.00  0.00     0.000 C 
ENDROOT
BRANCH   1   2
ATOM      2  C   UNL     1       5.417  31.587  11.774  1.00  0.00    -0.000 C 
BRANCH   2   3
ATOM      3  C   UNL     1       3.951  32.039  11.798  1.00  0.00    -0.000 C 
BRANCH   3   4
ATOM      4  C   UNL     1       3.242  31.678  10.487  1.00  0.00    -0.000 C 
BRANCH   4   5
ATOM      5  C   UNL     1       1.966  30.866  10.756  1.00  0.00    -0.000 C 
BRANCH   5   6
ATOM      6  C   UNL     1       1.716  30.652  12.263  1.00  0.00    -0.000 C 
BRANCH   6   7
ATOM      7  C   UNL     1       1.620  29.171  12.667  1.00  0.00    -0.003 C 
ATOM      8  C   UNL     1       2.687  28.755  13.677  1.00  0.00     0.004 C 
ENDBRANCH   6   7
ENDBRANCH   5   6
ENDBRANCH   4   5
ENDBRANCH   3   4
ENDBRANCH   2   3
ENDBRANCH   1   2
BRANCH   1   9
ATOM      9  C   UNL     1       6.307  29.548  10.509  1.00  0.00     0.000 C 
BRANCH   9  10
ATOM     10  C   UNL     1       5.626  28.354   9.820  1.00  0.00     0.000 C 
BRANCH  10  11
ATOM     11  C   UNL     1       4.273  27.997  10.458  1.00  0.00     0.000 C 
BRANCH  11  12
ATOM     12  C   UNL     1       3.619  26.763   9.817  1.00  0.00     0.002 C 
BRANCH  12  13
ATOM     13  C   UNL     1       3.547  25.600  10.814  1.00  0.00     0.028 C 
BRANCH  13  14
ATOM     14  C   UNL     1       4.517  24.473  10.445  1.00  0.00     0.156 C 
BRANCH  14  15
ATOM     15  O   UNL     1       5.556  24.377  11.383  1.00  0.00    -0.396 OA
ATOM     16  H   UNL     1       5.204  24.745  12.235  1.00  0.00     0.210 HD
ENDBRANCH  14  15
ENDBRANCH  13  14
ENDBRANCH  12  13
ENDBRANCH  11  12
ENDBRANCH  10  11
ENDBRANCH   9  10
ENDBRANCH   1   9
TORSDOF 13
ENDMDL
MODEL 6
REMARK VINA RESULT:    -3.879      1.931      5.922
REMARK INTER + INTRA:          -7.747
REMARK INTER:                  -6.334
REMARK INTRA:                  -1.413
REMARK UNBOUND:                -1.034
REMARK SMILES CCCCCCCCCCCCCCO
REMARK SMILES IDX 8 1 7 2 6 3 5 4 4 5 3 6 2 7 1 8 9 9 10 10 11 11 12 12 13 13
REMARK SMILES IDX 14 14 15 15
REMARK H PARENT 15 16
REMARK Flexibility Score: inf
ROOT
ATOM      1  C   UNL     1       5.234  29.080  10.582  1.00  0.00     0.000 C 
ENDROOT
BRANCH   1   2
ATOM      2  C   UNL     1       5.692  28.061   9.527  1.00  0.00    -0.000 C 
BRANCH   2   3
ATOM      3  C   UNL     1       4.535  27.144   9.112  1.00  0.00    -0.000 C 
BRANCH   3   4
ATOM      4  C   UNL     1       3.590  26.881  10.291  1.00  0.00    -0.000 C 
BRANCH   4   5
ATOM      5  C   UNL     1       3.870  25.511  10.928  1.00  0.00    -0.000 C 
BRANCH   5   6
ATOM      6  C   UNL     1       4.578  24.548   9.953  1.00  0.00    -0.000 C 
BRANCH   6   7
ATOM      7  C   UNL     1       5.922  24.016  10.480  1.00  0.00    -0.003 C 
ATOM      8  C   UNL     1       7.116  24.480   9.650  1.00  0.00     0.004 C 
ENDBRANCH   6   7
ENDBRANCH   5   6
ENDBRANCH   4   5
ENDBRANCH   3   4
ENDBRANCH   2   3
ENDBRANCH   1   2
BRANCH   1   9
ATOM      9  C   UNL     1       4.887  30.449   9.973  1.00  0.00     0.000 C 
BRANCH   9  10
ATOM     10  C   UNL     1       3.868  31.230  10.820  1.00  0.00     0.000 C 
BRANCH  10  11
ATOM     11  C   UNL     1       3.421  30.454  12.071  1.00  0.00     0.000 C 
BRANCH  11  12
ATOM     12  C   UNL     1       1.985  29.920  11.959  1.00  0.00     0.002 C 
BRANCH  12  13
ATOM     13  C   UNL     1       1.601  29.114  13.206  1.00  0.00     0.028 C 
BRANCH  13  14
ATOM     14  C   UNL     1       2.826  28.476  13.870  1.00  0.00     0.156 C 
BRANCH  14  15
ATOM     15  O   UNL     1       2.667  27.088  13.989  1.00  0.00    -0.396 OA
ATOM     16  H   UNL     1       3.560  26.684  13.829  1.00  0.00     0.210 HD
ENDBRANCH  14  15
ENDBRANCH  13  14
ENDBRANCH  12  13
ENDBRANCH  11  12
ENDBRANCH  10  11
ENDBRANCH   9  10
ENDBRANCH   1   9
TORSDOF 13
ENDMDL
MODEL 7
REMARK VINA RESULT:    -3.867      2.421      4.378
REMARK INTER + INTRA:          -7.727
REMARK INTER:                  -6.501
REMARK INTRA:                  -1.226
REMARK UNBOUND:                -1.034
REMARK SMILES CCCCCCCCCCCCCCO
REMARK SMILES IDX 8 1 7 2 6 3 5 4 4 5 3 6 2 7 1 8 9 9 10 10 11 11 12 12 13 13
REMARK SMILES IDX 14 14 15 15
REMARK H PARENT 15 16
REMARK Flexibility Score: inf
ROOT
ATOM      1  C   UNL     1       6.835  26.315   9.320  1.00  0.00     0.000 C 
ENDROOT
BRANCH   1   2
ATOM      2  C   UNL     1       6.157  27.623   8.884  1.00  0.00    -0.000 C 
BRANCH   2   3
ATOM      3  C   UNL     1       6.281  28.695   9.974  1.00  0.00    -0.000 C 
BRANCH   3   4
ATOM      4  C   UNL     1       4.905  29.254  10.356  1.00  0.00    -0.000 C 
BRANCH   4   5
ATOM      5  C   UNL     1       4.951  29.942  11.728  1.00  0.00    -0.000 C 
BRANCH   5   6
ATOM      6  C   UNL     1       3.772  29.524  12.632  1.00  0.00    -0.000 C 
BRANCH   6   7
ATOM      7  C   UNL     1       2.393  29.837  12.026  1.00  0.00    -0.003 C 
ATOM      8  C   UNL     1       1.236  29.467  12.951  1.00  0.00     0.004 C 
ENDBRANCH   6   7
ENDBRANCH   5   6
ENDBRANCH   4   5
ENDBRANCH   3   4
ENDBRANCH   2   3
ENDBRANCH   1   2
BRANCH   1   9
ATOM      9  C   UNL     1       5.979  25.074   9.019  1.00  0.00     0.000 C 
BRANCH   9  10
ATOM     10  C   UNL     1       5.409  24.428  10.294  1.00  0.00     0.000 C 
BRANCH  10  11
ATOM     11  C   UNL     1       3.904  24.692  10.468  1.00  0.00     0.000 C 
BRANCH  11  12
ATOM     12  C   UNL     1       3.609  26.070  11.079  1.00  0.00     0.002 C 
BRANCH  12  13
ATOM     13  C   UNL     1       2.214  26.098  11.718  1.00  0.00     0.028 C 
BRANCH  13  14
ATOM     14  C   UNL     1       1.344  24.932  11.236  1.00  0.00     0.156 C 
BRANCH  14  15
ATOM     15  O   UNL     1       0.034  25.050  11.721  1.00  0.00    -0.396 OA
ATOM     16  H   UNL     1      -0.450  24.231  11.434  1.00  0.00     0.210 HD
ENDBRANCH  14  15
ENDBRANCH  13  14
ENDBRANCH  12  13
ENDBRANCH  11  12
ENDBRANCH  10  11
ENDBRANCH   9  10
ENDBRANCH   1   9
TORSDOF 13
ENDMDL
MODEL 8
REMARK VINA RESULT:    -3.845      2.276      3.455
REMARK INTER + INTRA:          -7.689
REMARK INTER:                  -6.657
REMARK INTRA:                  -1.032
REMARK UNBOUND:                -1.034
REMARK SMILES CCCCCCCCCCCCCCO
REMARK SMILES IDX 8 1 7 2 6 3 5 4 4 5 3 6 2 7 1 8 9 9 10 10 11 11 12 12 13 13
REMARK SMILES IDX 14 14 15 15
REMARK H PARENT 15 16
REMARK Flexibility Score: inf
ROOT
ATOM      1  C   UNL     1       4.001  27.968  10.105  1.00  0.00     0.000 C 
ENDROOT
BRANCH   1   2
ATOM      2  C   UNL     1       3.397  27.732  11.498  1.00  0.00    -0.000 C 
BRANCH   2   3
ATOM      3  C   UNL     1       3.366  29.033  12.310  1.00  0.00    -0.000 C 
BRANCH   3   4
ATOM      4  C   UNL     1       1.931  29.398  12.710  1.00  0.00    -0.000 C 
BRANCH   4   5
ATOM      5  C   UNL     1       1.427  30.610  11.912  1.00  0.00    -0.000 C 
BRANCH   5   6
ATOM      6  C   UNL     1       2.577  31.543  11.478  1.00  0.00    -0.000 C 
BRANCH   6   7
ATOM      7  C   UNL     1       2.531  31.923   9.988  1.00  0.00    -0.003 C 
ATOM      8  C   UNL     1       1.112  31.981   9.428  1.00  0.00     0.004 C 
ENDBRANCH   6   7
ENDBRANCH   5   6
ENDBRANCH   4   5
ENDBRANCH   3   4
ENDBRANCH   2   3
ENDBRANCH   1   2
BRANCH   1   9
ATOM      9  C   UNL     1       4.597  26.691   9.491  1.00  0.00     0.000 C 
BRANCH   9  10
ATOM     10  C   UNL     1       4.033  25.410  10.131  1.00  0.00     0.000 C 
BRANCH  10  11
ATOM     11  C   UNL     1       3.670  24.340   9.089  1.00  0.00     0.000 C 
BRANCH  11  12
ATOM     12  C   UNL     1       2.194  23.920   9.156  1.00  0.00     0.002 C 
BRANCH  12  13
ATOM     13  C   UNL     1       1.395  24.867  10.062  1.00  0.00     0.028 C 
BRANCH  13  14
ATOM     14  C   UNL     1       0.738  24.119  11.227  1.00  0.00     0.156 C 
BRANCH  14  15
ATOM     15  O   UNL     1      -0.269  24.896  11.818  1.00  0.00    -0.396 OA
ATOM     16  H   UNL     1      -0.925  25.104  11.102  1.00  0.00     0.210 HD
ENDBRANCH  14  15
ENDBRANCH  13  14
ENDBRANCH  12  13
ENDBRANCH  11  12
ENDBRANCH  10  11
ENDBRANCH   9  10
ENDBRANCH   1   9
TORSDOF 13
ENDMDL
MODEL 9
REMARK VINA RESULT:    -3.765      1.659      3.303
REMARK INTER + INTRA:          -7.550
REMARK INTER:                  -5.981
REMARK INTRA:                  -1.569
REMARK UNBOUND:                -1.034
REMARK SMILES CCCCCCCCCCCCCCO
REMARK SMILES IDX 8 1 7 2 6 3 5 4 4 5 3 6 2 7 1 8 9 9 10 10 11 11 12 12 13 13
REMARK SMILES IDX 14 14 15 15
REMARK H PARENT 15 16
REMARK Flexibility Score: inf
ROOT
ATOM      1  C   UNL     1       6.170  28.050   9.572  1.00  0.00     0.000 C 
ENDROOT
BRANCH   1   2
ATOM      2  C   UNL     1       6.946  29.340   9.876  1.00  0.00    -0.000 C 
BRANCH   2   3
ATOM      3  C   UNL     1       6.613  29.863  11.279  1.00  0.00    -0.000 C 
BRANCH   3   4
ATOM      4  C   UNL     1       5.966  31.252  11.210  1.00  0.00    -0.000 C 
BRANCH   4   5
ATOM      5  C   UNL     1       4.726  31.328  12.113  1.00  0.00    -0.000 C 
BRANCH   5   6
ATOM      6  C   UNL     1       4.253  29.934  12.574  1.00  0.00    -0.000 C 
BRANCH   6   7
ATOM      7  C   UNL     1       2.771  29.654  12.269  1.00  0.00    -0.003 C 
ATOM      8  C   UNL     1       2.172  30.634  11.263  1.00  0.00     0.004 C 
ENDBRANCH   6   7
ENDBRANCH   5   6
ENDBRANCH   4   5
ENDBRANCH   3   4
ENDBRANCH   2   3
ENDBRANCH   1   2
BRANCH   1   9
ATOM      9  C   UNL     1       4.676  28.304   9.310  1.00  0.00     0.000 C 
BRANCH   9  10
ATOM     10  C   UNL     1       3.860  27.002   9.234  1.00  0.00     0.000 C 
BRANCH  10  11
ATOM     11  C   UNL     1       3.423  26.498  10.620  1.00  0.00     0.000 C 
BRANCH  11  12
ATOM     12  C   UNL     1       3.797  25.028  10.863  1.00  0.00     0.002 C 
BRANCH  12  13
ATOM     13  C   UNL     1       4.687  24.494   9.734  1.00  0.00     0.028 C 
BRANCH  13  14
ATOM     14  C   UNL     1       5.998  23.908  10.271  1.00  0.00     0.156 C 
BRANCH  14  15
ATOM     15  O   UNL     1       6.156  24.197  11.634  1.00  0.00    -0.396 OA
ATOM     16  H   UNL     1       7.066  23.889  11.886  1.00  0.00     0.210 HD
ENDBRANCH  14  15
ENDBRANCH  13  14
ENDBRANCH  12  13
ENDBRANCH  11  12
ENDBRANCH  10  11
ENDBRANCH   9  10
ENDBRANCH   1   9
TORSDOF 13
ENDMDL
