MODEL 1
REMARK VINA RESULT:    -4.406      0.000      0.000
REMARK INTER + INTRA:          -6.602
REMARK INTER:                  -5.951
REMARK INTRA:                  -0.651
REMARK UNBOUND:                -0.651
REMARK SMILES CCCCCCC=CC(=O)[O-]
REMARK SMILES IDX 5 1 6 2 7 3 8 4 9 5 10 6 11 7 4 8 3 9 2 10 1 11
REMARK H PARENT
REMARK Flexibility Score: inf
ROOT
ATOM      1  C   UNL     1      -5.599 -23.833  48.603  1.00  0.00     0.004 C 
ENDROOT
BRANCH   1   2
ATOM      2  C   UNL     1      -4.766 -24.341  49.791  1.00  0.00     0.027 C 
BRANCH   2   3
ATOM      3  C   UNL     1      -3.296 -24.185  49.528  1.00  0.00    -0.025 C 
ATOM      4  C   UNL     1      -2.462 -23.735  50.471  1.00  0.00     0.020 C 
BRANCH   4   5
ATOM      5  C   UNL     1      -1.017 -23.592  50.231  1.00  0.00     0.064 C 
ATOM      6  O   UNL     1      -0.213 -23.730  51.189  1.00  0.00    -0.545 OA
ATOM      7  O   UNL     1      -0.526 -23.307  48.963  1.00  0.00    -0.545 OA
ENDBRANCH   4   5
ENDBRANCH   2   3
ENDBRANCH   1   2
BRANCH   1   8
ATOM      8  C   UNL     1      -5.247 -22.389  48.211  1.00  0.00     0.000 C 
BRANCH   8   9
ATOM      9  C   UNL     1      -5.723 -21.360  49.252  1.00  0.00    -0.000 C 
BRANCH   9  10
ATOM     10  C   UNL     1      -4.604 -20.399  49.682  1.00  0.00    -0.003 C 
ATOM     11  C   UNL     1      -4.405 -20.366  51.197  1.00  0.00     0.004 C 
ENDBRANCH   9  10
ENDBRANCH   8   9
ENDBRANCH   1   8
TORSDOF 6
ENDMDL
MODEL 2
REMARK VINA RESULT:    -4.401      2.693      4.315
REMARK INTER + INTRA:          -6.596
REMARK INTER:                  -5.927
REMARK INTRA:                  -0.668
REMARK UNBOUND:                -0.651
REMARK SMILES CCCCCCC=CC(=O)[O-]
REMARK SMILES IDX 5 1 6 2 7 3 8 4 9 5 10 6 11 7 4 8 3 9 2 10 1 11
REMARK H PARENT
REMARK Flexibility Score: inf
ROOT
ATOM      1  C   UNL     1      -4.404 -24.619  49.357  1.00  0.00     0.004 C 
ENDROOT
BRANCH   1   2
ATOM      2  C   UNL     1      -5.604 -24.000  48.622  1.00  0.00     0.027 C 
BRANCH   2   3
ATOM      3  C   UNL     1      -5.476 -22.506  48.535  1.00  0.00    -0.025 C 
ATOM      4  C   UNL     1      -5.325 -21.753  49.630  1.00  0.00     0.020 C 
BRANCH   4   5
ATOM      5  C   UNL     1      -5.182 -20.291  49.558  1.00  0.00     0.064 C 
ATOM      6  O   UNL     1      -5.598 -19.677  48.541  1.00  0.00    -0.545 OA
ATOM      7  O   UNL     1      -4.595 -19.576  50.594  1.00  0.00    -0.545 OA
ENDBRANCH   4   5
ENDBRANCH   2   3
ENDBRANCH   1   2
BRANCH   1   8
ATOM      8  C   UNL     1      -3.133 -24.643  48.492  1.00  0.00     0.000 C 
BRANCH   8   9
ATOM      9  C   UNL     1      -1.846 -24.518  49.328  1.00  0.00    -0.000 C 
BRANCH   9  10
ATOM     10  C   UNL     1      -2.073 -23.767  50.648  1.00  0.00    -0.003 C 
ATOM     11  C   UNL     1      -1.763 -22.275  50.539  1.00  0.00     0.004 C 
ENDBRANCH   9  10
ENDBRANCH   8   9
ENDBRANCH   1   8
TORSDOF 6
ENDMDL
MODEL 3
REMARK VINA RESULT:    -4.284     12.487     13.963
REMARK INTER + INTRA:          -6.438
REMARK INTER:                  -5.806
REMARK INTRA:                  -0.632
REMARK UNBOUND:                -0.651
REMARK SMILES CCCCCCC=CC(=O)[O-]
REMARK SMILES IDX 5 1 6 2 7 3 8 4 9 5 10 6 11 7 4 8 3 9 2 10 1 11
REMARK H PARENT
REMARK Flexibility Score: inf
ROOT
ATOM      1  C   UNL     1      -5.568 -11.661  53.329  1.00  0.00     0.004 C 
ENDROOT
BRANCH   1   2
ATOM      2  C   UNL     1      -5.444 -10.367  54.149  1.00  0.00     0.027 C 
BRANCH   2   3
ATOM      3  C   UNL     1      -6.768  -9.968  54.736  1.00  0.00    -0.025 C 
ATOM      4  C   UNL     1      -7.498 -10.825  55.457  1.00  0.00     0.020 C 
BRANCH   4   5
ATOM      5  C   UNL     1      -8.789 -10.442  56.050  1.00  0.00     0.064 C 
ATOM      6  O   UNL     1      -9.656  -9.875  55.336  1.00  0.00    -0.545 OA
ATOM      7  O   UNL     1      -9.067 -10.697  57.388  1.00  0.00    -0.545 OA
ENDBRANCH   4   5
ENDBRANCH   2   3
ENDBRANCH   1   2
BRANCH   1   8
ATOM      8  C   UNL     1      -5.975 -11.398  51.870  1.00  0.00     0.000 C 
BRANCH   8   9
ATOM      9  C   UNL     1      -7.125 -12.307  51.402  1.00  0.00    -0.000 C 
BRANCH   9  10
ATOM     10  C   UNL     1      -8.286 -11.515  50.784  1.00  0.00    -0.003 C 
ATOM     11  C   UNL     1      -9.043 -10.678  51.814  1.00  0.00     0.004 C 
ENDBRANCH   9  10
ENDBRANCH   8   9
ENDBRANCH   1   8
TORSDOF 6
ENDMDL
MODEL 4
REMARK VINA RESULT:    -4.259      1.879      3.162
REMARK INTER + INTRA:          -6.404
REMARK INTER:                  -5.788
REMARK INTRA:                  -0.616
REMARK UNBOUND:                -0.651
REMARK SMILES CCCCCCC=CC(=O)[O-]
REMARK SMILES IDX 5 1 6 2 7 3 8 4 9 5 10 6 11 7 4 8 3 9 2 10 1 11
REMARK H PARENT
REMARK Flexibility Score: inf
ROOT
ATOM      1  C   UNL     1      -4.771 -24.519  49.623  1.00  0.00     0.004 C 
ENDROOT
BRANCH   1   2
ATOM      2  C   UNL     1      -4.100 -23.227  50.118  1.00  0.00     0.027 C 
BRANCH   2   3
ATOM      3  C   UNL     1      -2.662 -23.467  50.476  1.00  0.00    -0.025 C 
ATOM      4  C   UNL     1      -1.776 -22.466  50.517  1.00  0.00     0.020 C 
BRANCH   4   5
ATOM      5  C   UNL     1      -0.368 -22.684  50.881  1.00  0.00     0.064 C 
ATOM      6  O   UNL     1       0.003 -23.822  51.271  1.00  0.00    -0.545 OA
ATOM      7  O   UNL     1       0.561 -21.653  50.803  1.00  0.00    -0.545 OA
ENDBRANCH   4   5
ENDBRANCH   2   3
ENDBRANCH   1   2
BRANCH   1   8
ATOM      8  C   UNL     1      -5.350 -24.377  48.206  1.00  0.00     0.000 C 
BRANCH   8   9
ATOM      9  C   UNL     1      -4.261 -24.154  47.141  1.00  0.00    -0.000 C 
BRANCH   9  10
ATOM     10  C   UNL     1      -3.211 -25.276  47.130  1.00  0.00    -0.003 C 
ATOM     11  C   UNL     1      -1.779 -24.744  47.143  1.00  0.00     0.004 C 
ENDBRANCH   9  10
ENDBRANCH   8   9
ENDBRANCH   1   8
TORSDOF 6
ENDMDL
MODEL 5
REMARK VINA RESULT:    -4.243      4.921      6.703
REMARK INTER + INTRA:          -6.383
REMARK INTER:                  -6.016
REMARK INTRA:                  -0.366
REMARK UNBOUND:                -0.651
REMARK SMILES CCCCCCC=CC(=O)[O-]
REMARK SMILES IDX 5 1 6 2 7 3 8 4 9 5 10 6 11 7 4 8 3 9 2 10 1 11
REMARK H PARENT
REMARK Flexibility Score: inf
ROOT
ATOM      1  C   UNL     1      -4.123 -25.976  45.223  1.00  0.00     0.004 C 
ENDROOT
BRANCH   1   2
ATOM      2  C   UNL     1      -2.955 -25.632  46.162  1.00  0.00     0.027 C 
BRANCH   2   3
ATOM      3  C   UNL     1      -3.438 -24.905  47.385  1.00  0.00    -0.025 C 
ATOM      4  C   UNL     1      -4.729 -24.602  47.552  1.00  0.00     0.020 C 
BRANCH   4   5
ATOM      5  C   UNL     1      -5.218 -23.905  48.752  1.00  0.00     0.064 C 
ATOM      6  O   UNL     1      -5.170 -24.484  49.869  1.00  0.00    -0.545 OA
ATOM      7  O   UNL     1      -5.732 -22.616  48.673  1.00  0.00    -0.545 OA
ENDBRANCH   4   5
ENDBRANCH   2   3
ENDBRANCH   1   2
BRANCH   1   8
ATOM      8  C   UNL     1      -4.169 -27.469  44.862  1.00  0.00     0.000 C 
BRANCH   8   9
ATOM      9  C   UNL     1      -2.901 -28.224  45.301  1.00  0.00    -0.000 C 
BRANCH   9  10
ATOM     10  C   UNL     1      -2.941 -29.711  44.920  1.00  0.00    -0.003 C 
ATOM     11  C   UNL     1      -4.273 -30.125  44.296  1.00  0.00     0.004 C 
ENDBRANCH   9  10
ENDBRANCH   8   9
ENDBRANCH   1   8
TORSDOF 6
ENDMDL
MODEL 6
REMARK VINA RESULT:    -4.209      1.510      2.159
REMARK INTER + INTRA:          -6.337
REMARK INTER:                  -5.583
REMARK INTRA:                  -0.754
REMARK UNBOUND:                -0.651
REMARK SMILES CCCCCCC=CC(=O)[O-]
REMARK SMILES IDX 5 1 6 2 7 3 8 4 9 5 10 6 11 7 4 8 3 9 2 10 1 11
REMARK H PARENT
REMARK Flexibility Score: inf
ROOT
ATOM      1  C   UNL     1      -5.372 -24.059  48.436  1.00  0.00     0.004 C 
ENDROOT
BRANCH   1   2
ATOM      2  C   UNL     1      -4.677 -24.542  49.720  1.00  0.00     0.027 C 
BRANCH   2   3
ATOM      3  C   UNL     1      -3.191 -24.342  49.639  1.00  0.00    -0.025 C 
ATOM      4  C   UNL     1      -2.562 -23.455  50.419  1.00  0.00     0.020 C 
BRANCH   4   5
ATOM      5  C   UNL     1      -1.105 -23.261  50.361  1.00  0.00     0.064 C 
ATOM      6  O   UNL     1      -0.632 -22.326  49.663  1.00  0.00    -0.545 OA
ATOM      7  O   UNL     1      -0.242 -24.093  51.064  1.00  0.00    -0.545 OA
ENDBRANCH   4   5
ENDBRANCH   2   3
ENDBRANCH   1   2
BRANCH   1   8
ATOM      8  C   UNL     1      -5.618 -22.541  48.434  1.00  0.00     0.000 C 
BRANCH   8   9
ATOM      9  C   UNL     1      -5.001 -21.843  47.209  1.00  0.00    -0.000 C 
BRANCH   9  10
ATOM     10  C   UNL     1      -3.522 -21.485  47.419  1.00  0.00    -0.003 C 
ATOM     11  C   UNL     1      -2.582 -22.342  46.572  1.00  0.00     0.004 C 
ENDBRANCH   9  10
ENDBRANCH   8   9
ENDBRANCH   1   8
TORSDOF 6
ENDMDL
MODEL 7
REMARK VINA RESULT:    -4.162     10.175     12.320
REMARK INTER + INTRA:          -6.274
REMARK INTER:                  -5.729
REMARK INTRA:                  -0.545
REMARK UNBOUND:                -0.651
REMARK SMILES CCCCCCC=CC(=O)[O-]
REMARK SMILES IDX 5 1 6 2 7 3 8 4 9 5 10 6 11 7 4 8 3 9 2 10 1 11
REMARK H PARENT
REMARK Flexibility Score: inf
ROOT
ATOM      1  C   UNL     1      -5.745 -11.383  54.692  1.00  0.00     0.004 C 
ENDROOT
BRANCH   1   2
ATOM      2  C   UNL     1      -5.554 -11.374  53.166  1.00  0.00     0.027 C 
BRANCH   2   3
ATOM      3  C   UNL     1      -6.872 -11.271  52.455  1.00  0.00    -0.025 C 
ATOM      4  C   UNL     1      -7.067 -11.837  51.260  1.00  0.00     0.020 C 
BRANCH   4   5
ATOM      5  C   UNL     1      -8.358 -11.757  50.560  1.00  0.00     0.064 C 
ATOM      6  O   UNL     1      -9.382 -11.379  51.187  1.00  0.00    -0.545 OA
ATOM      7  O   UNL     1      -8.467 -12.092  49.215  1.00  0.00    -0.545 OA
ENDBRANCH   4   5
ENDBRANCH   2   3
ENDBRANCH   1   2
BRANCH   1   8
ATOM      8  C   UNL     1      -5.603 -12.791  55.295  1.00  0.00     0.000 C 
BRANCH   8   9
ATOM      9  C   UNL     1      -6.833 -13.676  55.026  1.00  0.00    -0.000 C 
BRANCH   9  10
ATOM     10  C   UNL     1      -6.480 -14.950  54.244  1.00  0.00    -0.003 C 
ATOM     11  C   UNL     1      -5.004 -15.013  53.853  1.00  0.00     0.004 C 
ENDBRANCH   9  10
ENDBRANCH   8   9
ENDBRANCH   1   8
TORSDOF 6
ENDMDL
MODEL 8
REMARK VINA RESULT:    -4.138      2.785      4.622
REMARK INTER + INTRA:          -6.240
REMARK INTER:                  -5.522
REMARK INTRA:                  -0.718
REMARK UNBOUND:                -0.651
REMARK SMILES CCCCCCC=CC(=O)[O-]
REMARK SMILES IDX 5 1 6 2 7 3 8 4 9 5 10 6 11 7 4 8 3 9 2 10 1 11
REMARK H PARENT
REMARK Flexibility Score: inf
ROOT
ATOM      1  C   UNL     1       0.023 -23.145  50.657  1.00  0.00     0.004 C 
ENDROOT
BRANCH   1   2
ATOM      2  C   UNL     1      -1.076 -24.219  50.685  1.00  0.00     0.027 C 
BRANCH   2   3
ATOM      3  C   UNL     1      -2.428 -23.619  50.424  1.00  0.00    -0.025 C 
ATOM      4  C   UNL     1      -3.335 -24.244  49.666  1.00  0.00     0.020 C 
BRANCH   4   5
ATOM      5  C   UNL     1      -4.668 -23.674  49.415  1.00  0.00     0.064 C 
ATOM      6  O   UNL     1      -4.905 -22.483  49.744  1.00  0.00    -0.545 OA
ATOM      7  O   UNL     1      -5.671 -24.431  48.821  1.00  0.00    -0.545 OA
ENDBRANCH   4   5
ENDBRANCH   2   3
ENDBRANCH   1   2
BRANCH   1   8
ATOM      8  C   UNL     1      -0.351 -21.941  49.777  1.00  0.00     0.000 C 
BRANCH   8   9
ATOM      9  C   UNL     1       0.375 -21.952  48.419  1.00  0.00    -0.000 C 
BRANCH   9  10
ATOM     10  C   UNL     1      -0.560 -22.314  47.256  1.00  0.00    -0.003 C 
ATOM     11  C   UNL     1      -1.916 -21.615  47.349  1.00  0.00     0.004 C 
ENDBRANCH   9  10
ENDBRANCH   8   9
ENDBRANCH   1   8
TORSDOF 6
ENDMDL
MODEL 9
REMARK VINA RESULT:    -4.117      2.860      4.473
REMARK INTER + INTRA:          -6.212
REMARK INTER:                  -5.453
REMARK INTRA:                  -0.759
REMARK UNBOUND:                -0.651
REMARK SMILES CCCCCCC=CC(=O)[O-]
REMARK SMILES IDX 5 1 6 2 7 3 8 4 9 5 10 6 11 7 4 8 3 9 2 10 1 11
REMARK H PARENT
REMARK Flexibility Score: inf
ROOT
ATOM      1  C   UNL     1      -1.726 -23.151  48.985  1.00  0.00     0.004 C 
ENDROOT
BRANCH   1   2
ATOM      2  C   UNL     1      -1.633 -22.630  50.428  1.00  0.00     0.027 C 
BRANCH   2   3
ATOM      3  C   UNL     1      -2.862 -21.854  50.805  1.00  0.00    -0.025 C 
ATOM      4  C   UNL     1      -3.559 -21.164  49.896  1.00  0.00     0.020 C 
BRANCH   4   5
ATOM      5  C   UNL     1      -4.774 -20.413  50.250  1.00  0.00     0.064 C 
ATOM      6  O   UNL     1      -5.880 -20.756  49.758  1.00  0.00    -0.545 OA
ATOM      7  O   UNL     1      -4.719 -19.329  51.118  1.00  0.00    -0.545 OA
ENDBRANCH   4   5
ENDBRANCH   2   3
ENDBRANCH   1   2
BRANCH   1   8
ATOM      8  C   UNL     1      -2.368 -24.545  48.902  1.00  0.00     0.000 C 
BRANCH   8   9
ATOM      9  C   UNL     1      -3.314 -24.691  47.696  1.00  0.00    -0.000 C 
BRANCH   9  10
ATOM     10  C   UNL     1      -4.717 -24.134  47.979  1.00  0.00    -0.003 C 
ATOM     11  C   UNL     1      -5.226 -24.498  49.373  1.00  0.00     0.004 C 
ENDBRANCH   9  10
ENDBRANCH   8   9
ENDBRANCH   1   8
TORSDOF 6
ENDMDL
