MODEL 1
REMARK VINA RESULT:    -4.512      0.000      0.000
REMARK INTER + INTRA:         -15.313
REMARK INTER:                 -11.370
REMARK INTRA:                  -3.943
REMARK UNBOUND:                -3.943
REMARK SMILES CCCCCCCCCCCCCCCCCCCCCCCCCCCC(=O)[O-]
REMARK SMILES IDX 15 1 16 2 17 3 18 4 19 5 20 6 21 7 22 8 23 9 24 10 25 11
REMARK SMILES IDX 26 12 27 13 28 14 29 15 30 16 14 17 13 18 12 19 11 20 10 21
REMARK SMILES IDX 9 22 8 23 7 24 6 25 5 26 4 27 3 28 2 29 1 30
REMARK H PARENT
REMARK Flexibility Score: inf
ROOT
ATOM      1  C   UNL     1      60.622  -2.350  28.635  1.00  0.00     0.000 C 
ENDROOT
BRANCH   1   2
ATOM      2  C   UNL     1      61.288  -3.344  29.603  1.00  0.00     0.000 C 
BRANCH   2   3
ATOM      3  C   UNL     1      62.345  -2.677  30.497  1.00  0.00     0.000 C 
BRANCH   3   4
ATOM      4  C   UNL     1      63.765  -2.801  29.924  1.00  0.00     0.000 C 
BRANCH   4   5
ATOM      5  C   UNL     1      64.071  -1.650  28.954  1.00  0.00     0.000 C 
BRANCH   5   6
ATOM      6  C   UNL     1      65.302  -1.928  28.076  1.00  0.00     0.000 C 
BRANCH   6   7
ATOM      7  C   UNL     1      64.955  -2.050  26.586  1.00  0.00     0.000 C 
BRANCH   7   8
ATOM      8  C   UNL     1      63.465  -2.372  26.396  1.00  0.00     0.000 C 
BRANCH   8   9
ATOM      9  C   UNL     1      63.229  -3.773  25.808  1.00  0.00     0.000 C 
BRANCH   9  10
ATOM     10  C   UNL     1      63.105  -4.899  26.852  1.00  0.00     0.000 C 
BRANCH  10  11
ATOM     11  C   UNL     1      64.458  -5.523  27.252  1.00  0.00     0.000 C 
BRANCH  11  12
ATOM     12  C   UNL     1      64.670  -6.909  26.619  1.00  0.00     0.006 C 
BRANCH  12  13
ATOM     13  C   UNL     1      63.435  -7.806  26.760  1.00  0.00     0.053 C 
BRANCH  13  14
ATOM     14  C   UNL     1      63.415  -8.885  25.720  1.00  0.00     0.041 C 
ATOM     15  O   UNL     1      62.323  -9.387  25.344  1.00  0.00    -0.550 OA
ATOM     16  O   UNL     1      64.602  -9.305  25.133  1.00  0.00    -0.550 OA
ENDBRANCH  13  14
ENDBRANCH  12  13
ENDBRANCH  11  12
ENDBRANCH  10  11
ENDBRANCH   9  10
ENDBRANCH   8   9
ENDBRANCH   7   8
ENDBRANCH   6   7
ENDBRANCH   5   6
ENDBRANCH   4   5
ENDBRANCH   3   4
ENDBRANCH   2   3
ENDBRANCH   1   2
BRANCH   1  17
ATOM     17  C   UNL     1      59.612  -1.426  29.335  1.00  0.00     0.000 C 
BRANCH  17  18
ATOM     18  C   UNL     1      58.742  -2.173  30.358  1.00  0.00     0.000 C 
BRANCH  18  19
ATOM     19  C   UNL     1      58.117  -1.205  31.369  1.00  0.00     0.000 C 
BRANCH  19  20
ATOM     20  C   UNL     1      58.286   0.248  30.905  1.00  0.00     0.000 C 
BRANCH  20  21
ATOM     21  C   UNL     1      56.995   0.849  30.319  1.00  0.00     0.000 C 
BRANCH  21  22
ATOM     22  C   UNL     1      56.940   0.913  28.778  1.00  0.00    -0.000 C 
BRANCH  22  23
ATOM     23  C   UNL     1      55.783   0.133  28.129  1.00  0.00    -0.000 C 
BRANCH  23  24
ATOM     24  C   UNL     1      55.601  -1.273  28.722  1.00  0.00    -0.000 C 
BRANCH  24  25
ATOM     25  C   UNL     1      54.111  -1.609  28.884  1.00  0.00    -0.000 C 
BRANCH  25  26
ATOM     26  C   UNL     1      53.570  -1.273  30.284  1.00  0.00    -0.000 C 
BRANCH  26  27
ATOM     27  C   UNL     1      54.478  -1.705  31.449  1.00  0.00    -0.000 C 
BRANCH  27  28
ATOM     28  C   UNL     1      54.293  -3.183  31.833  1.00  0.00    -0.000 C 
BRANCH  28  29
ATOM     29  C   UNL     1      55.627  -3.938  31.929  1.00  0.00    -0.003 C 
ATOM     30  C   UNL     1      55.990  -4.662  30.632  1.00  0.00     0.004 C 
ENDBRANCH  28  29
ENDBRANCH  27  28
ENDBRANCH  26  27
ENDBRANCH  25  26
ENDBRANCH  24  25
ENDBRANCH  23  24
ENDBRANCH  22  23
ENDBRANCH  21  22
ENDBRANCH  20  21
ENDBRANCH  19  20
ENDBRANCH  18  19
ENDBRANCH  17  18
ENDBRANCH   1  17
TORSDOF 26
ENDMDL
MODEL 2
REMARK VINA RESULT:    -4.447      2.293      3.150
REMARK INTER + INTRA:         -15.149
REMARK INTER:                 -10.733
REMARK INTRA:                  -4.416
REMARK UNBOUND:                -3.943
REMARK SMILES CCCCCCCCCCCCCCCCCCCCCCCCCCCC(=O)[O-]
REMARK SMILES IDX 15 1 16 2 17 3 18 4 19 5 20 6 21 7 22 8 23 9 24 10 25 11
REMARK SMILES IDX 26 12 27 13 28 14 29 15 30 16 14 17 13 18 12 19 11 20 10 21
REMARK SMILES IDX 9 22 8 23 7 24 6 25 5 26 4 27 3 28 2 29 1 30
REMARK H PARENT
REMARK Flexibility Score: inf
ROOT
ATOM      1  C   UNL     1      60.534  -4.044  29.118  1.00  0.00     0.000 C 
ENDROOT
BRANCH   1   2
ATOM      2  C   UNL     1      60.855  -2.655  28.537  1.00  0.00     0.000 C 
BRANCH   2   3
ATOM      3  C   UNL     1      62.001  -1.956  29.283  1.00  0.00     0.000 C 
BRANCH   3   4
ATOM      4  C   UNL     1      62.658  -2.861  30.337  1.00  0.00     0.000 C 
BRANCH   4   5
ATOM      5  C   UNL     1      64.139  -2.502  30.527  1.00  0.00     0.000 C 
BRANCH   5   6
ATOM      6  C   UNL     1      65.027  -3.743  30.719  1.00  0.00     0.000 C 
BRANCH   6   7
ATOM      7  C   UNL     1      65.970  -3.989  29.532  1.00  0.00     0.000 C 
BRANCH   7   8
ATOM      8  C   UNL     1      65.859  -5.439  29.037  1.00  0.00     0.000 C 
BRANCH   8   9
ATOM      9  C   UNL     1      64.528  -6.102  29.429  1.00  0.00     0.000 C 
BRANCH   9  10
ATOM     10  C   UNL     1      63.387  -5.909  28.413  1.00  0.00     0.000 C 
BRANCH  10  11
ATOM     11  C   UNL     1      63.863  -5.885  26.945  1.00  0.00     0.000 C 
BRANCH  11  12
ATOM     12  C   UNL     1      63.374  -4.635  26.194  1.00  0.00     0.006 C 
BRANCH  12  13
ATOM     13  C   UNL     1      64.033  -3.351  26.715  1.00  0.00     0.053 C 
BRANCH  13  14
ATOM     14  C   UNL     1      63.825  -2.204  25.774  1.00  0.00     0.041 C 
ATOM     15  O   UNL     1      62.715  -2.045  25.200  1.00  0.00    -0.550 OA
ATOM     16  O   UNL     1      64.844  -1.284  25.564  1.00  0.00    -0.550 OA
ENDBRANCH  13  14
ENDBRANCH  12  13
ENDBRANCH  11  12
ENDBRANCH  10  11
ENDBRANCH   9  10
ENDBRANCH   8   9
ENDBRANCH   7   8
ENDBRANCH   6   7
ENDBRANCH   5   6
ENDBRANCH   4   5
ENDBRANCH   3   4
ENDBRANCH   2   3
ENDBRANCH   1   2
BRANCH   1  17
ATOM     17  C   UNL     1      59.170  -4.091  29.825  1.00  0.00     0.000 C 
BRANCH  17  18
ATOM     18  C   UNL     1      58.451  -2.734  29.806  1.00  0.00     0.000 C 
BRANCH  18  19
ATOM     19  C   UNL     1      58.672  -1.968  31.117  1.00  0.00     0.000 C 
BRANCH  19  20
ATOM     20  C   UNL     1      58.823  -0.465  30.848  1.00  0.00     0.000 C 
BRANCH  20  21
ATOM     21  C   UNL     1      57.509   0.316  31.030  1.00  0.00     0.000 C 
BRANCH  21  22
ATOM     22  C   UNL     1      57.138   1.261  29.868  1.00  0.00    -0.000 C 
BRANCH  22  23
ATOM     23  C   UNL     1      57.015   0.590  28.489  1.00  0.00    -0.000 C 
BRANCH  23  24
ATOM     24  C   UNL     1      55.577   0.162  28.157  1.00  0.00    -0.000 C 
BRANCH  24  25
ATOM     25  C   UNL     1      55.350  -1.314  28.515  1.00  0.00    -0.000 C 
BRANCH  25  26
ATOM     26  C   UNL     1      53.974  -1.571  29.154  1.00  0.00    -0.000 C 
BRANCH  26  27
ATOM     27  C   UNL     1      53.918  -1.352  30.676  1.00  0.00    -0.000 C 
BRANCH  27  28
ATOM     28  C   UNL     1      54.991  -2.152  31.433  1.00  0.00    -0.000 C 
BRANCH  28  29
ATOM     29  C   UNL     1      54.503  -3.549  31.844  1.00  0.00    -0.003 C 
ATOM     30  C   UNL     1      55.524  -4.645  31.539  1.00  0.00     0.004 C 
ENDBRANCH  28  29
ENDBRANCH  27  28
ENDBRANCH  26  27
ENDBRANCH  25  26
ENDBRANCH  24  25
ENDBRANCH  23  24
ENDBRANCH  22  23
ENDBRANCH  21  22
ENDBRANCH  20  21
ENDBRANCH  19  20
ENDBRANCH  18  19
ENDBRANCH  17  18
ENDBRANCH   1  17
TORSDOF 26
ENDMDL
MODEL 3
REMARK VINA RESULT:    -4.381      3.242     10.094
REMARK INTER + INTRA:         -14.984
REMARK INTER:                 -12.317
REMARK INTRA:                  -2.667
REMARK UNBOUND:                -3.943
REMARK SMILES CCCCCCCCCCCCCCCCCCCCCCCCCCCC(=O)[O-]
REMARK SMILES IDX 15 1 16 2 17 3 18 4 19 5 20 6 21 7 22 8 23 9 24 10 25 11
REMARK SMILES IDX 26 12 27 13 28 14 29 15 30 16 14 17 13 18 12 19 11 20 10 21
REMARK SMILES IDX 9 22 8 23 7 24 6 25 5 26 4 27 3 28 2 29 1 30
REMARK H PARENT
REMARK Flexibility Score: inf
ROOT
ATOM      1  C   UNL     1      59.586  -3.230  30.882  1.00  0.00     0.000 C 
ENDROOT
BRANCH   1   2
ATOM      2  C   UNL     1      58.145  -3.479  31.362  1.00  0.00     0.000 C 
BRANCH   2   3
ATOM      3  C   UNL     1      57.204  -3.885  30.217  1.00  0.00     0.000 C 
BRANCH   3   4
ATOM      4  C   UNL     1      55.953  -4.626  30.717  1.00  0.00     0.000 C 
BRANCH   4   5
ATOM      5  C   UNL     1      55.438  -4.015  32.028  1.00  0.00     0.000 C 
BRANCH   5   6
ATOM      6  C   UNL     1      54.184  -3.149  31.824  1.00  0.00     0.000 C 
BRANCH   6   7
ATOM      7  C   UNL     1      54.518  -1.701  31.439  1.00  0.00     0.000 C 
BRANCH   7   8
ATOM      8  C   UNL     1      53.623  -1.222  30.286  1.00  0.00     0.000 C 
BRANCH   8   9
ATOM      9  C   UNL     1      54.140  -1.662  28.907  1.00  0.00     0.000 C 
BRANCH   9  10
ATOM     10  C   UNL     1      55.571  -1.198  28.575  1.00  0.00     0.000 C 
BRANCH  10  11
ATOM     11  C   UNL     1      55.647   0.261  28.077  1.00  0.00     0.000 C 
BRANCH  11  12
ATOM     12  C   UNL     1      56.891   0.994  28.609  1.00  0.00     0.006 C 
BRANCH  12  13
ATOM     13  C   UNL     1      57.044   0.850  30.128  1.00  0.00     0.053 C 
BRANCH  13  14
ATOM     14  C   UNL     1      58.347   0.209  30.492  1.00  0.00     0.041 C 
ATOM     15  O   UNL     1      59.148  -0.163  29.593  1.00  0.00    -0.550 OA
ATOM     16  O   UNL     1      58.700   0.060  31.828  1.00  0.00    -0.550 OA
ENDBRANCH  13  14
ENDBRANCH  12  13
ENDBRANCH  11  12
ENDBRANCH  10  11
ENDBRANCH   9  10
ENDBRANCH   8   9
ENDBRANCH   7   8
ENDBRANCH   6   7
ENDBRANCH   5   6
ENDBRANCH   4   5
ENDBRANCH   3   4
ENDBRANCH   2   3
ENDBRANCH   1   2
BRANCH   1  17
ATOM     17  C   UNL     1      59.878  -3.878  29.519  1.00  0.00     0.000 C 
BRANCH  17  18
ATOM     18  C   UNL     1      61.356  -3.764  29.118  1.00  0.00     0.000 C 
BRANCH  18  19
ATOM     19  C   UNL     1      61.547  -2.752  27.981  1.00  0.00     0.000 C 
BRANCH  19  20
ATOM     20  C   UNL     1      62.362  -3.371  26.836  1.00  0.00     0.000 C 
BRANCH  20  21
ATOM     21  C   UNL     1      63.444  -4.350  27.325  1.00  0.00     0.000 C 
BRANCH  21  22
ATOM     22  C   UNL     1      63.664  -5.589  26.431  1.00  0.00    -0.000 C 
BRANCH  22  23
ATOM     23  C   UNL     1      64.884  -6.453  26.795  1.00  0.00    -0.000 C 
BRANCH  23  24
ATOM     24  C   UNL     1      64.515  -7.915  27.090  1.00  0.00    -0.000 C 
BRANCH  24  25
ATOM     25  C   UNL     1      64.070  -8.636  25.809  1.00  0.00    -0.000 C 
BRANCH  25  26
ATOM     26  C   UNL     1      62.621  -9.147  25.881  1.00  0.00    -0.000 C 
BRANCH  26  27
ATOM     27  C   UNL     1      62.146  -9.920  24.638  1.00  0.00    -0.000 C 
BRANCH  27  28
ATOM     28  C   UNL     1      63.266 -10.750  23.988  1.00  0.00    -0.000 C 
BRANCH  28  29
ATOM     29  C   UNL     1      63.383 -12.156  24.595  1.00  0.00    -0.003 C 
ATOM     30  C   UNL     1      62.034 -12.722  25.037  1.00  0.00     0.004 C 
ENDBRANCH  28  29
ENDBRANCH  27  28
ENDBRANCH  26  27
ENDBRANCH  25  26
ENDBRANCH  24  25
ENDBRANCH  23  24
ENDBRANCH  22  23
ENDBRANCH  21  22
ENDBRANCH  20  21
ENDBRANCH  19  20
ENDBRANCH  18  19
ENDBRANCH  17  18
ENDBRANCH   1  17
TORSDOF 26
ENDMDL
MODEL 4
REMARK VINA RESULT:    -4.338     10.436     16.939
REMARK INTER + INTRA:         -14.875
REMARK INTER:                  -9.654
REMARK INTRA:                  -5.222
REMARK UNBOUND:                -3.943
REMARK SMILES CCCCCCCCCCCCCCCCCCCCCCCCCCCC(=O)[O-]
REMARK SMILES IDX 15 1 16 2 17 3 18 4 19 5 20 6 21 7 22 8 23 9 24 10 25 11
REMARK SMILES IDX 26 12 27 13 28 14 29 15 30 16 14 17 13 18 12 19 11 20 10 21
REMARK SMILES IDX 9 22 8 23 7 24 6 25 5 26 4 27 3 28 2 29 1 30
REMARK H PARENT
REMARK Flexibility Score: inf
ROOT
ATOM      1  C   UNL     1      62.090 -11.451  14.863  1.00  0.00     0.000 C 
ENDROOT
BRANCH   1   2
ATOM      2  C   UNL     1      61.511 -11.833  16.236  1.00  0.00     0.000 C 
BRANCH   2   3
ATOM      3  C   UNL     1      61.746 -13.312  16.584  1.00  0.00     0.000 C 
BRANCH   3   4
ATOM      4  C   UNL     1      60.441 -14.054  16.915  1.00  0.00     0.000 C 
BRANCH   4   5
ATOM      5  C   UNL     1      60.533 -15.535  16.518  1.00  0.00     0.000 C 
BRANCH   5   6
ATOM      6  C   UNL     1      59.731 -15.856  15.247  1.00  0.00     0.000 C 
BRANCH   6   7
ATOM      7  C   UNL     1      60.534 -16.676  14.228  1.00  0.00     0.000 C 
BRANCH   7   8
ATOM      8  C   UNL     1      61.814 -17.237  14.864  1.00  0.00     0.000 C 
BRANCH   8   9
ATOM      9  C   UNL     1      63.091 -16.772  14.145  1.00  0.00     0.000 C 
BRANCH   9  10
ATOM     10  C   UNL     1      63.966 -15.792  14.949  1.00  0.00     0.000 C 
BRANCH  10  11
ATOM     11  C   UNL     1      64.744 -16.462  16.102  1.00  0.00     0.000 C 
BRANCH  11  12
ATOM     12  C   UNL     1      64.430 -15.823  17.466  1.00  0.00     0.006 C 
BRANCH  12  13
ATOM     13  C   UNL     1      63.519 -16.709  18.325  1.00  0.00     0.053 C 
BRANCH  13  14
ATOM     14  C   UNL     1      63.154 -16.038  19.613  1.00  0.00     0.041 C 
ATOM     15  O   UNL     1      62.331 -15.084  19.623  1.00  0.00    -0.550 OA
ATOM     16  O   UNL     1      63.689 -16.494  20.811  1.00  0.00    -0.550 OA
ENDBRANCH  13  14
ENDBRANCH  12  13
ENDBRANCH  11  12
ENDBRANCH  10  11
ENDBRANCH   9  10
ENDBRANCH   8   9
ENDBRANCH   7   8
ENDBRANCH   6   7
ENDBRANCH   5   6
ENDBRANCH   4   5
ENDBRANCH   3   4
ENDBRANCH   2   3
ENDBRANCH   1   2
BRANCH   1  17
ATOM     17  C   UNL     1      62.355 -12.674  13.969  1.00  0.00     0.000 C 
BRANCH  17  18
ATOM     18  C   UNL     1      63.697 -12.580  13.228  1.00  0.00     0.000 C 
BRANCH  18  19
ATOM     19  C   UNL     1      64.729 -11.790  14.042  1.00  0.00     0.000 C 
BRANCH  19  20
ATOM     20  C   UNL     1      65.663 -12.741  14.803  1.00  0.00     0.000 C 
BRANCH  20  21
ATOM     21  C   UNL     1      65.641 -12.518  16.326  1.00  0.00     0.000 C 
BRANCH  21  22
ATOM     22  C   UNL     1      65.162 -11.122  16.780  1.00  0.00    -0.000 C 
BRANCH  22  23
ATOM     23  C   UNL     1      64.564 -11.061  18.196  1.00  0.00    -0.000 C 
BRANCH  23  24
ATOM     24  C   UNL     1      64.449 -12.443  18.858  1.00  0.00    -0.000 C 
BRANCH  24  25
ATOM     25  C   UNL     1      65.272 -12.498  20.154  1.00  0.00    -0.000 C 
BRANCH  25  26
ATOM     26  C   UNL     1      65.431 -11.121  20.822  1.00  0.00    -0.000 C 
BRANCH  26  27
ATOM     27  C   UNL     1      65.104 -11.092  22.326  1.00  0.00    -0.000 C 
BRANCH  27  28
ATOM     28  C   UNL     1      63.867 -11.934  22.683  1.00  0.00    -0.000 C 
BRANCH  28  29
ATOM     29  C   UNL     1      63.126 -11.397  23.916  1.00  0.00    -0.003 C 
ATOM     30  C   UNL     1      63.583  -9.994  24.315  1.00  0.00     0.004 C 
ENDBRANCH  28  29
ENDBRANCH  27  28
ENDBRANCH  26  27
ENDBRANCH  25  26
ENDBRANCH  24  25
ENDBRANCH  23  24
ENDBRANCH  22  23
ENDBRANCH  21  22
ENDBRANCH  20  21
ENDBRANCH  19  20
ENDBRANCH  18  19
ENDBRANCH  17  18
ENDBRANCH   1  17
TORSDOF 26
ENDMDL
MODEL 5
REMARK VINA RESULT:    -4.304      2.351      4.221
REMARK INTER + INTRA:         -14.788
REMARK INTER:                 -10.463
REMARK INTRA:                  -4.325
REMARK UNBOUND:                -3.943
REMARK SMILES CCCCCCCCCCCCCCCCCCCCCCCCCCCC(=O)[O-]
REMARK SMILES IDX 15 1 16 2 17 3 18 4 19 5 20 6 21 7 22 8 23 9 24 10 25 11
REMARK SMILES IDX 26 12 27 13 28 14 29 15 30 16 14 17 13 18 12 19 11 20 10 21
REMARK SMILES IDX 9 22 8 23 7 24 6 25 5 26 4 27 3 28 2 29 1 30
REMARK H PARENT
REMARK Flexibility Score: inf
ROOT
ATOM      1  C   UNL     1      60.175  -3.238  28.647  1.00  0.00     0.000 C 
ENDROOT
BRANCH   1   2
ATOM      2  C   UNL     1      61.387  -2.307  28.828  1.00  0.00     0.000 C 
BRANCH   2   3
ATOM      3  C   UNL     1      62.443  -2.892  29.778  1.00  0.00     0.000 C 
BRANCH   3   4
ATOM      4  C   UNL     1      63.707  -2.021  29.863  1.00  0.00     0.000 C 
BRANCH   4   5
ATOM      5  C   UNL     1      64.967  -2.889  29.998  1.00  0.00     0.000 C 
BRANCH   5   6
ATOM      6  C   UNL     1      64.676  -4.255  30.641  1.00  0.00     0.000 C 
BRANCH   6   7
ATOM      7  C   UNL     1      65.575  -5.373  30.094  1.00  0.00     0.000 C 
BRANCH   7   8
ATOM      8  C   UNL     1      64.746  -6.614  29.732  1.00  0.00     0.000 C 
BRANCH   8   9
ATOM      9  C   UNL     1      65.118  -7.199  28.359  1.00  0.00     0.000 C 
BRANCH   9  10
ATOM     10  C   UNL     1      64.107  -6.904  27.236  1.00  0.00     0.000 C 
BRANCH  10  11
ATOM     11  C   UNL     1      63.132  -5.754  27.568  1.00  0.00     0.000 C 
BRANCH  11  12
ATOM     12  C   UNL     1      63.141  -4.653  26.493  1.00  0.00     0.006 C 
BRANCH  12  13
ATOM     13  C   UNL     1      64.374  -3.748  26.600  1.00  0.00     0.053 C 
BRANCH  13  14
ATOM     14  C   UNL     1      64.081  -2.359  26.123  1.00  0.00     0.041 C 
ATOM     15  O   UNL     1      64.898  -1.425  26.342  1.00  0.00    -0.550 OA
ATOM     16  O   UNL     1      62.925  -2.103  25.396  1.00  0.00    -0.550 OA
ENDBRANCH  13  14
ENDBRANCH  12  13
ENDBRANCH  11  12
ENDBRANCH  10  11
ENDBRANCH   9  10
ENDBRANCH   8   9
ENDBRANCH   7   8
ENDBRANCH   6   7
ENDBRANCH   5   6
ENDBRANCH   4   5
ENDBRANCH   3   4
ENDBRANCH   2   3
ENDBRANCH   1   2
BRANCH   1  17
ATOM     17  C   UNL     1      59.688  -3.843  29.973  1.00  0.00     0.000 C 
BRANCH  17  18
ATOM     18  C   UNL     1      58.156  -3.900  30.066  1.00  0.00     0.000 C 
BRANCH  18  19
ATOM     19  C   UNL     1      57.674  -3.619  31.494  1.00  0.00     0.000 C 
BRANCH  19  20
ATOM     20  C   UNL     1      56.558  -4.595  31.892  1.00  0.00     0.000 C 
BRANCH  20  21
ATOM     21  C   UNL     1      55.176  -4.185  31.352  1.00  0.00     0.000 C 
BRANCH  21  22
ATOM     22  C   UNL     1      54.530  -2.970  32.051  1.00  0.00    -0.000 C 
BRANCH  22  23
ATOM     23  C   UNL     1      54.669  -1.632  31.304  1.00  0.00    -0.000 C 
BRANCH  23  24
ATOM     24  C   UNL     1      53.739  -1.525  30.086  1.00  0.00    -0.000 C 
BRANCH  24  25
ATOM     25  C   UNL     1      54.546  -1.519  28.780  1.00  0.00    -0.000 C 
BRANCH  25  26
ATOM     26  C   UNL     1      56.018  -1.120  28.986  1.00  0.00    -0.000 C 
BRANCH  26  27
ATOM     27  C   UNL     1      56.378   0.294  28.496  1.00  0.00    -0.000 C 
BRANCH  27  28
ATOM     28  C   UNL     1      57.526   0.928  29.299  1.00  0.00    -0.000 C 
BRANCH  28  29
ATOM     29  C   UNL     1      58.519  -0.116  29.831  1.00  0.00    -0.003 C 
ATOM     30  C   UNL     1      58.609  -0.122  31.356  1.00  0.00     0.004 C 
ENDBRANCH  28  29
ENDBRANCH  27  28
ENDBRANCH  26  27
ENDBRANCH  25  26
ENDBRANCH  24  25
ENDBRANCH  23  24
ENDBRANCH  22  23
ENDBRANCH  21  22
ENDBRANCH  20  21
ENDBRANCH  19  20
ENDBRANCH  18  19
ENDBRANCH  17  18
ENDBRANCH   1  17
TORSDOF 26
ENDMDL
MODEL 6
REMARK VINA RESULT:    -4.226      1.252      2.196
REMARK INTER + INTRA:         -14.592
REMARK INTER:                 -10.874
REMARK INTRA:                  -3.718
REMARK UNBOUND:                -3.943
REMARK SMILES CCCCCCCCCCCCCCCCCCCCCCCCCCCC(=O)[O-]
REMARK SMILES IDX 15 1 16 2 17 3 18 4 19 5 20 6 21 7 22 8 23 9 24 10 25 11
REMARK SMILES IDX 26 12 27 13 28 14 29 15 30 16 14 17 13 18 12 19 11 20 10 21
REMARK SMILES IDX 9 22 8 23 7 24 6 25 5 26 4 27 3 28 2 29 1 30
REMARK H PARENT
REMARK Flexibility Score: inf
ROOT
ATOM      1  C   UNL     1      60.160  -1.614  29.718  1.00  0.00     0.000 C 
ENDROOT
BRANCH   1   2
ATOM      2  C   UNL     1      61.480  -2.201  29.185  1.00  0.00     0.000 C 
BRANCH   2   3
ATOM      3  C   UNL     1      61.267  -3.134  27.983  1.00  0.00     0.000 C 
BRANCH   3   4
ATOM      4  C   UNL     1      62.327  -2.936  26.888  1.00  0.00     0.000 C 
BRANCH   4   5
ATOM      5  C   UNL     1      63.297  -4.126  26.838  1.00  0.00     0.000 C 
BRANCH   5   6
ATOM      6  C   UNL     1      64.733  -3.733  27.225  1.00  0.00     0.000 C 
BRANCH   6   7
ATOM      7  C   UNL     1      65.049  -4.017  28.700  1.00  0.00     0.000 C 
BRANCH   7   8
ATOM      8  C   UNL     1      64.216  -5.198  29.221  1.00  0.00     0.000 C 
BRANCH   8   9
ATOM      9  C   UNL     1      64.959  -6.541  29.123  1.00  0.00     0.000 C 
BRANCH   9  10
ATOM     10  C   UNL     1      64.046  -7.777  29.018  1.00  0.00     0.000 C 
BRANCH  10  11
ATOM     11  C   UNL     1      62.923  -7.629  27.969  1.00  0.00     0.000 C 
BRANCH  11  12
ATOM     12  C   UNL     1      63.422  -7.899  26.539  1.00  0.00     0.006 C 
BRANCH  12  13
ATOM     13  C   UNL     1      63.576  -9.398  26.252  1.00  0.00     0.053 C 
BRANCH  13  14
ATOM     14  C   UNL     1      63.050  -9.756  24.896  1.00  0.00     0.041 C 
ATOM     15  O   UNL     1      61.816  -9.943  24.721  1.00  0.00    -0.550 OA
ATOM     16  O   UNL     1      63.917  -9.840  23.814  1.00  0.00    -0.550 OA
ENDBRANCH  13  14
ENDBRANCH  12  13
ENDBRANCH  11  12
ENDBRANCH  10  11
ENDBRANCH   9  10
ENDBRANCH   8   9
ENDBRANCH   7   8
ENDBRANCH   6   7
ENDBRANCH   5   6
ENDBRANCH   4   5
ENDBRANCH   3   4
ENDBRANCH   2   3
ENDBRANCH   1   2
BRANCH   1  17
ATOM     17  C   UNL     1      60.066  -1.661  31.251  1.00  0.00     0.000 C 
BRANCH  17  18
ATOM     18  C   UNL     1      59.250  -0.493  31.826  1.00  0.00     0.000 C 
BRANCH  18  19
ATOM     19  C   UNL     1      57.763  -0.627  31.476  1.00  0.00     0.000 C 
BRANCH  19  20
ATOM     20  C   UNL     1      57.206   0.705  30.954  1.00  0.00     0.000 C 
BRANCH  20  21
ATOM     21  C   UNL     1      57.126   0.765  29.418  1.00  0.00     0.000 C 
BRANCH  21  22
ATOM     22  C   UNL     1      56.720  -0.555  28.728  1.00  0.00    -0.000 C 
BRANCH  22  23
ATOM     23  C   UNL     1      55.271  -0.609  28.213  1.00  0.00    -0.000 C 
BRANCH  23  24
ATOM     24  C   UNL     1      54.456  -1.752  28.837  1.00  0.00    -0.000 C 
BRANCH  24  25
ATOM     25  C   UNL     1      53.600  -1.238  30.004  1.00  0.00    -0.000 C 
BRANCH  25  26
ATOM     26  C   UNL     1      54.182  -1.601  31.381  1.00  0.00    -0.000 C 
BRANCH  26  27
ATOM     27  C   UNL     1      54.220  -3.108  31.689  1.00  0.00    -0.000 C 
BRANCH  27  28
ATOM     28  C   UNL     1      55.650  -3.639  31.890  1.00  0.00    -0.000 C 
BRANCH  28  29
ATOM     29  C   UNL     1      56.114  -4.531  30.728  1.00  0.00    -0.003 C 
ATOM     30  C   UNL     1      57.516  -4.174  30.234  1.00  0.00     0.004 C 
ENDBRANCH  28  29
ENDBRANCH  27  28
ENDBRANCH  26  27
ENDBRANCH  25  26
ENDBRANCH  24  25
ENDBRANCH  23  24
ENDBRANCH  22  23
ENDBRANCH  21  22
ENDBRANCH  20  21
ENDBRANCH  19  20
ENDBRANCH  18  19
ENDBRANCH  17  18
ENDBRANCH   1  17
TORSDOF 26
ENDMDL
MODEL 7
REMARK VINA RESULT:    -4.098      1.598      2.700
REMARK INTER + INTRA:         -14.270
REMARK INTER:                  -9.491
REMARK INTRA:                  -4.779
REMARK UNBOUND:                -3.943
REMARK SMILES CCCCCCCCCCCCCCCCCCCCCCCCCCCC(=O)[O-]
REMARK SMILES IDX 15 1 16 2 17 3 18 4 19 5 20 6 21 7 22 8 23 9 24 10 25 11
REMARK SMILES IDX 26 12 27 13 28 14 29 15 30 16 14 17 13 18 12 19 11 20 10 21
REMARK SMILES IDX 9 22 8 23 7 24 6 25 5 26 4 27 3 28 2 29 1 30
REMARK H PARENT
REMARK Flexibility Score: inf
ROOT
ATOM      1  C   UNL     1      61.197  -3.124  28.038  1.00  0.00     0.000 C 
ENDROOT
BRANCH   1   2
ATOM      2  C   UNL     1      62.436  -4.035  28.092  1.00  0.00     0.000 C 
BRANCH   2   3
ATOM      3  C   UNL     1      63.127  -4.170  26.726  1.00  0.00     0.000 C 
BRANCH   3   4
ATOM      4  C   UNL     1      63.866  -2.887  26.310  1.00  0.00     0.000 C 
BRANCH   4   5
ATOM      5  C   UNL     1      65.106  -2.657  27.187  1.00  0.00     0.000 C 
BRANCH   5   6
ATOM      6  C   UNL     1      65.145  -1.244  27.793  1.00  0.00     0.000 C 
BRANCH   6   7
ATOM      7  C   UNL     1      64.920  -1.243  29.312  1.00  0.00     0.000 C 
BRANCH   7   8
ATOM      8  C   UNL     1      65.631  -2.435  29.971  1.00  0.00     0.000 C 
BRANCH   8   9
ATOM      9  C   UNL     1      64.799  -3.080  31.091  1.00  0.00     0.000 C 
BRANCH   9  10
ATOM     10  C   UNL     1      64.805  -4.621  31.094  1.00  0.00     0.000 C 
BRANCH  10  11
ATOM     11  C   UNL     1      65.436  -5.239  29.829  1.00  0.00     0.000 C 
BRANCH  11  12
ATOM     12  C   UNL     1      65.024  -6.708  29.630  1.00  0.00     0.006 C 
BRANCH  12  13
ATOM     13  C   UNL     1      64.867  -7.071  28.149  1.00  0.00     0.053 C 
BRANCH  13  14
ATOM     14  C   UNL     1      63.517  -7.653  27.864  1.00  0.00     0.041 C 
ATOM     15  O   UNL     1      62.748  -7.972  28.810  1.00  0.00    -0.550 OA
ATOM     16  O   UNL     1      63.087  -7.803  26.551  1.00  0.00    -0.550 OA
ENDBRANCH  13  14
ENDBRANCH  12  13
ENDBRANCH  11  12
ENDBRANCH  10  11
ENDBRANCH   9  10
ENDBRANCH   8   9
ENDBRANCH   7   8
ENDBRANCH   6   7
ENDBRANCH   5   6
ENDBRANCH   4   5
ENDBRANCH   3   4
ENDBRANCH   2   3
ENDBRANCH   1   2
BRANCH   1  17
ATOM     17  C   UNL     1      61.280  -1.949  29.026  1.00  0.00     0.000 C 
BRANCH  17  18
ATOM     18  C   UNL     1      61.364  -2.415  30.487  1.00  0.00     0.000 C 
BRANCH  18  19
ATOM     19  C   UNL     1      60.382  -1.641  31.375  1.00  0.00     0.000 C 
BRANCH  19  20
ATOM     20  C   UNL     1      59.415  -0.811  30.519  1.00  0.00     0.000 C 
BRANCH  20  21
ATOM     21  C   UNL     1      58.325  -0.109  31.349  1.00  0.00     0.000 C 
BRANCH  21  22
ATOM     22  C   UNL     1      57.256   0.645  30.529  1.00  0.00    -0.000 C 
BRANCH  22  23
ATOM     23  C   UNL     1      56.982   0.076  29.126  1.00  0.00    -0.000 C 
BRANCH  23  24
ATOM     24  C   UNL     1      55.764  -0.859  29.086  1.00  0.00    -0.000 C 
BRANCH  24  25
ATOM     25  C   UNL     1      55.047  -0.881  30.444  1.00  0.00    -0.000 C 
BRANCH  25  26
ATOM     26  C   UNL     1      54.495  -2.270  30.809  1.00  0.00    -0.000 C 
BRANCH  26  27
ATOM     27  C   UNL     1      55.374  -3.080  31.779  1.00  0.00    -0.000 C 
BRANCH  27  28
ATOM     28  C   UNL     1      56.025  -4.304  31.112  1.00  0.00    -0.000 C 
BRANCH  28  29
ATOM     29  C   UNL     1      57.545  -4.148  30.953  1.00  0.00    -0.003 C 
ATOM     30  C   UNL     1      57.957  -3.817  29.519  1.00  0.00     0.004 C 
ENDBRANCH  28  29
ENDBRANCH  27  28
ENDBRANCH  26  27
ENDBRANCH  25  26
ENDBRANCH  24  25
ENDBRANCH  23  24
ENDBRANCH  22  23
ENDBRANCH  21  22
ENDBRANCH  20  21
ENDBRANCH  19  20
ENDBRANCH  18  19
ENDBRANCH  17  18
ENDBRANCH   1  17
TORSDOF 26
ENDMDL
MODEL 8
REMARK VINA RESULT:    -4.084      1.505      3.390
REMARK INTER + INTRA:         -14.234
REMARK INTER:                  -9.751
REMARK INTRA:                  -4.483
REMARK UNBOUND:                -3.943
REMARK SMILES CCCCCCCCCCCCCCCCCCCCCCCCCCCC(=O)[O-]
REMARK SMILES IDX 15 1 16 2 17 3 18 4 19 5 20 6 21 7 22 8 23 9 24 10 25 11
REMARK SMILES IDX 26 12 27 13 28 14 29 15 30 16 14 17 13 18 12 19 11 20 10 21
REMARK SMILES IDX 9 22 8 23 7 24 6 25 5 26 4 27 3 28 2 29 1 30
REMARK H PARENT
REMARK Flexibility Score: inf
ROOT
ATOM      1  C   UNL     1      60.692  -2.949  28.373  1.00  0.00     0.000 C 
ENDROOT
BRANCH   1   2
ATOM      2  C   UNL     1      61.833  -3.970  28.530  1.00  0.00     0.000 C 
BRANCH   2   3
ATOM      3  C   UNL     1      62.766  -4.002  27.309  1.00  0.00     0.000 C 
BRANCH   3   4
ATOM      4  C   UNL     1      63.255  -2.603  26.903  1.00  0.00     0.000 C 
BRANCH   4   5
ATOM      5  C   UNL     1      64.580  -2.258  27.598  1.00  0.00     0.000 C 
BRANCH   5   6
ATOM      6  C   UNL     1      64.394  -1.287  28.775  1.00  0.00     0.000 C 
BRANCH   6   7
ATOM      7  C   UNL     1      64.935  -1.846  30.099  1.00  0.00     0.000 C 
BRANCH   7   8
ATOM      8  C   UNL     1      65.480  -3.269  29.910  1.00  0.00     0.000 C 
BRANCH   8   9
ATOM      9  C   UNL     1      64.703  -4.318  30.723  1.00  0.00     0.000 C 
BRANCH   9  10
ATOM     10  C   UNL     1      65.347  -5.717  30.754  1.00  0.00     0.000 C 
BRANCH  10  11
ATOM     11  C   UNL     1      65.513  -6.352  29.357  1.00  0.00     0.000 C 
BRANCH  11  12
ATOM     12  C   UNL     1      64.204  -6.974  28.840  1.00  0.00     0.006 C 
BRANCH  12  13
ATOM     13  C   UNL     1      64.272  -7.308  27.345  1.00  0.00     0.053 C 
BRANCH  13  14
ATOM     14  C   UNL     1      63.588  -8.605  27.038  1.00  0.00     0.041 C 
ATOM     15  O   UNL     1      62.776  -8.685  26.078  1.00  0.00    -0.550 OA
ATOM     16  O   UNL     1      63.881  -9.739  27.786  1.00  0.00    -0.550 OA
ENDBRANCH  13  14
ENDBRANCH  12  13
ENDBRANCH  11  12
ENDBRANCH  10  11
ENDBRANCH   9  10
ENDBRANCH   8   9
ENDBRANCH   7   8
ENDBRANCH   6   7
ENDBRANCH   5   6
ENDBRANCH   4   5
ENDBRANCH   3   4
ENDBRANCH   2   3
ENDBRANCH   1   2
BRANCH   1  17
ATOM     17  C   UNL     1      60.580  -1.994  29.572  1.00  0.00     0.000 C 
BRANCH  17  18
ATOM     18  C   UNL     1      61.418  -2.458  30.773  1.00  0.00     0.000 C 
BRANCH  18  19
ATOM     19  C   UNL     1      60.526  -2.809  31.971  1.00  0.00     0.000 C 
BRANCH  19  20
ATOM     20  C   UNL     1      59.060  -2.467  31.675  1.00  0.00     0.000 C 
BRANCH  20  21
ATOM     21  C   UNL     1      58.101  -3.642  31.937  1.00  0.00     0.000 C 
BRANCH  21  22
ATOM     22  C   UNL     1      57.492  -4.290  30.675  1.00  0.00    -0.000 C 
BRANCH  22  23
ATOM     23  C   UNL     1      55.985  -4.587  30.751  1.00  0.00    -0.000 C 
BRANCH  23  24
ATOM     24  C   UNL     1      55.319  -3.991  32.001  1.00  0.00    -0.000 C 
BRANCH  24  25
ATOM     25  C   UNL     1      54.218  -2.993  31.610  1.00  0.00    -0.000 C 
BRANCH  25  26
ATOM     26  C   UNL     1      54.764  -1.592  31.290  1.00  0.00    -0.000 C 
BRANCH  26  27
ATOM     27  C   UNL     1      54.850  -1.259  29.790  1.00  0.00    -0.000 C 
BRANCH  27  28
ATOM     28  C   UNL     1      56.299  -1.124  29.292  1.00  0.00    -0.000 C 
BRANCH  28  29
ATOM     29  C   UNL     1      56.781   0.334  29.271  1.00  0.00    -0.003 C 
ATOM     30  C   UNL     1      57.768   0.646  30.396  1.00  0.00     0.004 C 
ENDBRANCH  28  29
ENDBRANCH  27  28
ENDBRANCH  26  27
ENDBRANCH  25  26
ENDBRANCH  24  25
ENDBRANCH  23  24
ENDBRANCH  22  23
ENDBRANCH  21  22
ENDBRANCH  20  21
ENDBRANCH  19  20
ENDBRANCH  18  19
ENDBRANCH  17  18
ENDBRANCH   1  17
TORSDOF 26
ENDMDL
MODEL 9
REMARK VINA RESULT:    -4.069      1.300      2.924
REMARK INTER + INTRA:         -14.196
REMARK INTER:                  -9.843
REMARK INTRA:                  -4.353
REMARK UNBOUND:                -3.943
REMARK SMILES CCCCCCCCCCCCCCCCCCCCCCCCCCCC(=O)[O-]
REMARK SMILES IDX 15 1 16 2 17 3 18 4 19 5 20 6 21 7 22 8 23 9 24 10 25 11
REMARK SMILES IDX 26 12 27 13 28 14 29 15 30 16 14 17 13 18 12 19 11 20 10 21
REMARK SMILES IDX 9 22 8 23 7 24 6 25 5 26 4 27 3 28 2 29 1 30
REMARK H PARENT
REMARK Flexibility Score: inf
ROOT
ATOM      1  C   UNL     1      61.198  -2.822  27.994  1.00  0.00     0.000 C 
ENDROOT
BRANCH   1   2
ATOM      2  C   UNL     1      62.256  -3.896  27.686  1.00  0.00     0.000 C 
BRANCH   2   3
ATOM      3  C   UNL     1      62.895  -3.713  26.300  1.00  0.00     0.000 C 
BRANCH   3   4
ATOM      4  C   UNL     1      63.645  -2.378  26.168  1.00  0.00     0.000 C 
BRANCH   4   5
ATOM      5  C   UNL     1      65.030  -2.456  26.826  1.00  0.00     0.000 C 
BRANCH   5   6
ATOM      6  C   UNL     1      65.108  -1.653  28.135  1.00  0.00     0.000 C 
BRANCH   6   7
ATOM      7  C   UNL     1      65.218  -2.550  29.377  1.00  0.00     0.000 C 
BRANCH   7   8
ATOM      8  C   UNL     1      66.054  -3.802  29.075  1.00  0.00     0.000 C 
BRANCH   8   9
ATOM      9  C   UNL     1      65.286  -5.109  29.336  1.00  0.00     0.000 C 
BRANCH   9  10
ATOM     10  C   UNL     1      65.255  -6.088  28.148  1.00  0.00     0.000 C 
BRANCH  10  11
ATOM     11  C   UNL     1      64.011  -7.002  28.132  1.00  0.00     0.000 C 
BRANCH  11  12
ATOM     12  C   UNL     1      64.197  -8.224  27.217  1.00  0.00     0.006 C 
BRANCH  12  13
ATOM     13  C   UNL     1      63.024  -8.405  26.246  1.00  0.00     0.053 C 
BRANCH  13  14
ATOM     14  C   UNL     1      63.265  -9.538  25.296  1.00  0.00     0.041 C 
ATOM     15  O   UNL     1      64.347  -9.611  24.654  1.00  0.00    -0.550 OA
ATOM     16  O   UNL     1      62.313 -10.539  25.152  1.00  0.00    -0.550 OA
ENDBRANCH  13  14
ENDBRANCH  12  13
ENDBRANCH  11  12
ENDBRANCH  10  11
ENDBRANCH   9  10
ENDBRANCH   8   9
ENDBRANCH   7   8
ENDBRANCH   6   7
ENDBRANCH   5   6
ENDBRANCH   4   5
ENDBRANCH   3   4
ENDBRANCH   2   3
ENDBRANCH   1   2
BRANCH   1  17
ATOM     17  C   UNL     1      61.529  -2.007  29.255  1.00  0.00     0.000 C 
BRANCH  17  18
ATOM     18  C   UNL     1      61.727  -2.895  30.493  1.00  0.00     0.000 C 
BRANCH  18  19
ATOM     19  C   UNL     1      60.792  -2.475  31.634  1.00  0.00     0.000 C 
BRANCH  19  20
ATOM     20  C   UNL     1      59.976  -1.237  31.240  1.00  0.00     0.000 C 
BRANCH  20  21
ATOM     21  C   UNL     1      58.457  -1.481  31.265  1.00  0.00     0.000 C 
BRANCH  21  22
ATOM     22  C   UNL     1      57.821  -1.818  29.900  1.00  0.00    -0.000 C 
BRANCH  22  23
ATOM     23  C   UNL     1      57.837  -3.308  29.517  1.00  0.00    -0.000 C 
BRANCH  23  24
ATOM     24  C   UNL     1      57.523  -4.235  30.702  1.00  0.00    -0.000 C 
BRANCH  24  25
ATOM     25  C   UNL     1      56.019  -4.540  30.773  1.00  0.00    -0.000 C 
BRANCH  25  26
ATOM     26  C   UNL     1      55.354  -3.986  32.045  1.00  0.00    -0.000 C 
BRANCH  26  27
ATOM     27  C   UNL     1      54.120  -3.101  31.796  1.00  0.00    -0.000 C 
BRANCH  27  28
ATOM     28  C   UNL     1      54.490  -1.661  31.402  1.00  0.00    -0.000 C 
BRANCH  28  29
ATOM     29  C   UNL     1      53.740  -1.183  30.149  1.00  0.00    -0.003 C 
ATOM     30  C   UNL     1      54.321  -1.758  28.858  1.00  0.00     0.004 C 
ENDBRANCH  28  29
ENDBRANCH  27  28
ENDBRANCH  26  27
ENDBRANCH  25  26
ENDBRANCH  24  25
ENDBRANCH  23  24
ENDBRANCH  22  23
ENDBRANCH  21  22
ENDBRANCH  20  21
ENDBRANCH  19  20
ENDBRANCH  18  19
ENDBRANCH  17  18
ENDBRANCH   1  17
TORSDOF 26
ENDMDL
