MODEL 1
REMARK VINA RESULT:    -4.647      0.000      0.000
REMARK INTER + INTRA:          -5.929
REMARK INTER:                  -5.597
REMARK INTRA:                  -0.331
REMARK UNBOUND:                -0.331
REMARK SMILES NC(=O)C[C@@H]([NH3+])C(=O)[O-]
REMARK SMILES IDX 4 1 5 2 6 3 7 7 8 8 9 9 2 10 3 11 1 12
REMARK H PARENT 6 4 6 5 6 6 1 13 1 14
REMARK Flexibility Score: inf
ROOT
ATOM      1  C   UNL     1      31.020  49.405  -5.888  1.00  0.00     0.171 C 
ENDROOT
BRANCH   1   2
ATOM      2  C   UNL     1      29.765  49.107  -6.734  1.00  0.00     0.237 C 
BRANCH   2   3
ATOM      3  N   UNL     1      28.632  49.953  -6.332  1.00  0.00    -0.350 N 
ATOM      4  H   UNL     1      28.724  50.913  -6.737  1.00  0.00     0.345 HD
ATOM      5  H   UNL     1      28.587  50.022  -5.290  1.00  0.00     0.345 HD
ATOM      6  H   UNL     1      27.735  49.527  -6.664  1.00  0.00     0.345 HD
ENDBRANCH   2   3
BRANCH   2   7
ATOM      7  C   UNL     1      30.073  49.307  -8.193  1.00  0.00     0.100 C 
ATOM      8  O   UNL     1      30.079  50.464  -8.693  1.00  0.00    -0.544 OA
ATOM      9  O   UNL     1      30.372  48.212  -8.996  1.00  0.00    -0.544 OA
ENDBRANCH   2   7
ENDBRANCH   1   2
BRANCH   1  10
ATOM     10  C   UNL     1      30.920  50.734  -5.197  1.00  0.00     0.223 C 
ATOM     11  O   UNL     1      30.910  51.794  -5.877  1.00  0.00    -0.275 OA
ATOM     12  N   UNL     1      30.872  50.808  -3.772  1.00  0.00    -0.369 N 
ATOM     13  H   UNL     1      30.905  49.940  -3.191  1.00  0.00     0.159 HD
ATOM     14  H   UNL     1      30.814  51.735  -3.294  1.00  0.00     0.159 HD
ENDBRANCH   1  10
TORSDOF 4
ENDMDL
MODEL 2
REMARK VINA RESULT:    -3.991      1.802      3.911
REMARK INTER + INTRA:          -5.139
REMARK INTER:                  -5.057
REMARK INTRA:                  -0.082
REMARK UNBOUND:                -0.331
REMARK SMILES NC(=O)C[C@@H]([NH3+])C(=O)[O-]
REMARK SMILES IDX 4 1 5 2 6 3 7 7 8 8 9 9 2 10 3 11 1 12
REMARK H PARENT 6 4 6 5 6 6 1 13 1 14
REMARK Flexibility Score: inf
ROOT
ATOM      1  C   UNL     1      30.474  48.677  -7.386  1.00  0.00     0.171 C 
ENDROOT
BRANCH   1   2
ATOM      2  C   UNL     1      29.795  49.985  -6.930  1.00  0.00     0.237 C 
BRANCH   2   3
ATOM      3  N   UNL     1      28.458  49.731  -6.373  1.00  0.00    -0.350 N 
ATOM      4  H   UNL     1      28.454  49.873  -5.337  1.00  0.00     0.345 HD
ATOM      5  H   UNL     1      28.161  48.751  -6.587  1.00  0.00     0.345 HD
ATOM      6  H   UNL     1      27.763  50.380  -6.811  1.00  0.00     0.345 HD
ENDBRANCH   2   3
BRANCH   2   7
ATOM      7  C   UNL     1      30.659  50.681  -5.913  1.00  0.00     0.100 C 
ATOM      8  O   UNL     1      31.098  50.056  -4.911  1.00  0.00    -0.544 OA
ATOM      9  O   UNL     1      30.993  52.019  -6.086  1.00  0.00    -0.544 OA
ENDBRANCH   2   7
ENDBRANCH   1   2
BRANCH   1  10
ATOM     10  C   UNL     1      30.420  48.513  -8.877  1.00  0.00     0.223 C 
ATOM     11  O   UNL     1      31.030  47.557  -9.424  1.00  0.00    -0.275 OA
ATOM     12  N   UNL     1      29.711  49.453  -9.684  1.00  0.00    -0.369 N 
ATOM     13  H   UNL     1      29.219  50.266  -9.250  1.00  0.00     0.159 HD
ATOM     14  H   UNL     1      29.684  49.342 -10.722  1.00  0.00     0.159 HD
ENDBRANCH   1  10
TORSDOF 4
ENDMDL
MODEL 3
REMARK VINA RESULT:    -3.655     16.249     16.652
REMARK INTER + INTRA:          -4.734
REMARK INTER:                  -4.607
REMARK INTRA:                  -0.126
REMARK UNBOUND:                -0.331
REMARK SMILES NC(=O)C[C@@H]([NH3+])C(=O)[O-]
REMARK SMILES IDX 4 1 5 2 6 3 7 7 8 8 9 9 2 10 3 11 1 12
REMARK H PARENT 6 4 6 5 6 6 1 13 1 14
REMARK Flexibility Score: inf
ROOT
ATOM      1  C   UNL     1      23.937  38.279   2.236  1.00  0.00     0.171 C 
ENDROOT
BRANCH   1   2
ATOM      2  C   UNL     1      22.425  38.549   2.095  1.00  0.00     0.237 C 
BRANCH   2   3
ATOM      3  N   UNL     1      22.164  39.708   1.229  1.00  0.00    -0.350 N 
ATOM      4  H   UNL     1      21.916  39.399   0.260  1.00  0.00     0.345 HD
ATOM      5  H   UNL     1      23.008  40.323   1.187  1.00  0.00     0.345 HD
ATOM      6  H   UNL     1      21.375  40.273   1.621  1.00  0.00     0.345 HD
ENDBRANCH   2   3
BRANCH   2   7
ATOM      7  C   UNL     1      21.737  37.326   1.550  1.00  0.00     0.100 C 
ATOM      8  O   UNL     1      21.904  36.979   0.351  1.00  0.00    -0.544 OA
ATOM      9  O   UNL     1      20.925  36.561   2.378  1.00  0.00    -0.544 OA
ENDBRANCH   2   7
ENDBRANCH   1   2
BRANCH   1  10
ATOM     10  C   UNL     1      24.453  38.697   3.582  1.00  0.00     0.223 C 
ATOM     11  O   UNL     1      23.940  39.686   4.170  1.00  0.00    -0.275 OA
ATOM     12  N   UNL     1      25.544  38.003   4.188  1.00  0.00    -0.369 N 
ATOM     13  H   UNL     1      25.998  37.196   3.704  1.00  0.00     0.159 HD
ATOM     14  H   UNL     1      25.907  38.304   5.120  1.00  0.00     0.159 HD
ENDBRANCH   1  10
TORSDOF 4
ENDMDL
MODEL 4
REMARK VINA RESULT:    -3.564     16.565     17.254
REMARK INTER + INTRA:          -4.624
REMARK INTER:                  -4.359
REMARK INTRA:                  -0.266
REMARK UNBOUND:                -0.331
REMARK SMILES NC(=O)C[C@@H]([NH3+])C(=O)[O-]
REMARK SMILES IDX 4 1 5 2 6 3 7 7 8 8 9 9 2 10 3 11 1 12
REMARK H PARENT 6 4 6 5 6 6 1 13 1 14
REMARK Flexibility Score: inf
ROOT
ATOM      1  C   UNL     1      22.182  37.318   2.784  1.00  0.00     0.171 C 
ENDROOT
BRANCH   1   2
ATOM      2  C   UNL     1      23.209  38.331   2.238  1.00  0.00     0.237 C 
BRANCH   2   3
ATOM      3  N   UNL     1      22.547  39.458   1.565  1.00  0.00    -0.350 N 
ATOM      4  H   UNL     1      21.595  39.183   1.229  1.00  0.00     0.345 HD
ATOM      5  H   UNL     1      23.120  39.777   0.751  1.00  0.00     0.345 HD
ATOM      6  H   UNL     1      22.456  40.264   2.228  1.00  0.00     0.345 HD
ENDBRANCH   2   3
BRANCH   2   7
ATOM      7  C   UNL     1      24.077  38.832   3.361  1.00  0.00     0.100 C 
ATOM      8  O   UNL     1      23.675  39.758   4.116  1.00  0.00    -0.544 OA
ATOM      9  O   UNL     1      25.325  38.261   3.581  1.00  0.00    -0.544 OA
ENDBRANCH   2   7
ENDBRANCH   1   2
BRANCH   1  10
ATOM     10  C   UNL     1      21.337  36.739   1.687  1.00  0.00     0.223 C 
ATOM     11  O   UNL     1      21.738  36.788   0.495  1.00  0.00    -0.275 OA
ATOM     12  N   UNL     1      20.063  36.163   1.980  1.00  0.00    -0.369 N 
ATOM     13  H   UNL     1      19.703  36.136   2.961  1.00  0.00     0.159 HD
ATOM     14  H   UNL     1      19.473  35.771   1.213  1.00  0.00     0.159 HD
ENDBRANCH   1  10
TORSDOF 4
ENDMDL
MODEL 5
REMARK VINA RESULT:    -3.458     16.767     17.402
REMARK INTER + INTRA:          -4.497
REMARK INTER:                  -4.250
REMARK INTRA:                  -0.248
REMARK UNBOUND:                -0.331
REMARK SMILES NC(=O)C[C@@H]([NH3+])C(=O)[O-]
REMARK SMILES IDX 4 1 5 2 6 3 7 7 8 8 9 9 2 10 3 11 1 12
REMARK H PARENT 6 4 6 5 6 6 1 13 1 14
REMARK Flexibility Score: inf
ROOT
ATOM      1  C   UNL     1      22.336  37.966   2.069  1.00  0.00     0.171 C 
ENDROOT
BRANCH   1   2
ATOM      2  C   UNL     1      23.087  38.389   3.348  1.00  0.00     0.237 C 
BRANCH   2   3
ATOM      3  N   UNL     1      24.433  37.801   3.400  1.00  0.00    -0.350 N 
ATOM      4  H   UNL     1      24.385  36.784   3.637  1.00  0.00     0.345 HD
ATOM      5  H   UNL     1      25.012  38.294   4.118  1.00  0.00     0.345 HD
ATOM      6  H   UNL     1      24.906  37.915   2.474  1.00  0.00     0.345 HD
ENDBRANCH   2   3
BRANCH   2   7
ATOM      7  C   UNL     1      23.170  39.890   3.417  1.00  0.00     0.100 C 
ATOM      8  O   UNL     1      22.773  40.598   2.453  1.00  0.00    -0.544 OA
ATOM      9  O   UNL     1      23.673  40.505   4.558  1.00  0.00    -0.544 OA
ENDBRANCH   2   7
ENDBRANCH   1   2
BRANCH   1  10
ATOM     10  C   UNL     1      21.525  36.721   2.287  1.00  0.00     0.223 C 
ATOM     11  O   UNL     1      21.872  35.896   3.172  1.00  0.00    -0.275 OA
ATOM     12  N   UNL     1      20.383  36.448   1.474  1.00  0.00    -0.369 N 
ATOM     13  H   UNL     1      20.095  37.110   0.719  1.00  0.00     0.159 HD
ATOM     14  H   UNL     1      19.828  35.576   1.622  1.00  0.00     0.159 HD
ENDBRANCH   1  10
TORSDOF 4
ENDMDL
MODEL 6
REMARK VINA RESULT:    -3.434     14.042     14.614
REMARK INTER + INTRA:          -4.468
REMARK INTER:                  -4.189
REMARK INTRA:                  -0.279
REMARK UNBOUND:                -0.331
REMARK SMILES NC(=O)C[C@@H]([NH3+])C(=O)[O-]
REMARK SMILES IDX 4 1 5 2 6 3 7 7 8 8 9 9 2 10 3 11 1 12
REMARK H PARENT 6 4 6 5 6 6 1 13 1 14
REMARK Flexibility Score: inf
ROOT
ATOM      1  C   UNL     1      21.987  41.213   0.532  1.00  0.00     0.171 C 
ENDROOT
BRANCH   1   2
ATOM      2  C   UNL     1      22.951  40.818   1.669  1.00  0.00     0.237 C 
BRANCH   2   3
ATOM      3  N   UNL     1      22.891  41.777   2.782  1.00  0.00    -0.350 N 
ATOM      4  H   UNL     1      23.456  41.439   3.594  1.00  0.00     0.345 HD
ATOM      5  H   UNL     1      21.900  41.913   3.086  1.00  0.00     0.345 HD
ATOM      6  H   UNL     1      23.261  42.705   2.470  1.00  0.00     0.345 HD
ENDBRANCH   2   3
BRANCH   2   7
ATOM      7  C   UNL     1      22.623  39.433   2.157  1.00  0.00     0.100 C 
ATOM      8  O   UNL     1      21.977  38.634   1.427  1.00  0.00    -0.544 OA
ATOM      9  O   UNL     1      23.050  39.021   3.414  1.00  0.00    -0.544 OA
ENDBRANCH   2   7
ENDBRANCH   1   2
BRANCH   1  10
ATOM     10  C   UNL     1      22.140  42.657   0.150  1.00  0.00     0.223 C 
ATOM     11  O   UNL     1      23.289  43.136  -0.037  1.00  0.00    -0.275 OA
ATOM     12  N   UNL     1      20.994  43.501   0.032  1.00  0.00    -0.369 N 
ATOM     13  H   UNL     1      20.035  43.126   0.207  1.00  0.00     0.159 HD
ATOM     14  H   UNL     1      21.105  44.508  -0.223  1.00  0.00     0.159 HD
ENDBRANCH   1  10
TORSDOF 4
ENDMDL
MODEL 7
REMARK VINA RESULT:    -3.301     19.371     19.832
REMARK INTER + INTRA:          -4.308
REMARK INTER:                  -3.824
REMARK INTRA:                  -0.485
REMARK UNBOUND:                -0.331
REMARK SMILES NC(=O)C[C@@H]([NH3+])C(=O)[O-]
REMARK SMILES IDX 4 1 5 2 6 3 7 7 8 8 9 9 2 10 3 11 1 12
REMARK H PARENT 6 4 6 5 6 6 1 13 1 14
REMARK Flexibility Score: inf
ROOT
ATOM      1  C   UNL     1      16.156  38.130  -3.379  1.00  0.00     0.171 C 
ENDROOT
BRANCH   1   2
ATOM      2  C   UNL     1      15.741  36.928  -4.252  1.00  0.00     0.237 C 
BRANCH   2   3
ATOM      3  N   UNL     1      14.935  35.963  -3.491  1.00  0.00    -0.350 N 
ATOM      4  H   UNL     1      14.148  35.595  -4.073  1.00  0.00     0.345 HD
ATOM      5  H   UNL     1      14.546  36.417  -2.633  1.00  0.00     0.345 HD
ATOM      6  H   UNL     1      15.537  35.162  -3.185  1.00  0.00     0.345 HD
ENDBRANCH   2   3
BRANCH   2   7
ATOM      7  C   UNL     1      14.975  37.412  -5.455  1.00  0.00     0.100 C 
ATOM      8  O   UNL     1      14.014  38.215  -5.320  1.00  0.00    -0.544 OA
ATOM      9  O   UNL     1      15.339  36.985  -6.726  1.00  0.00    -0.544 OA
ENDBRANCH   2   7
ENDBRANCH   1   2
BRANCH   1  10
ATOM     10  C   UNL     1      15.235  38.310  -2.207  1.00  0.00     0.223 C 
ATOM     11  O   UNL     1      15.450  37.678  -1.140  1.00  0.00    -0.275 OA
ATOM     12  N   UNL     1      14.096  39.165  -2.305  1.00  0.00    -0.369 N 
ATOM     13  H   UNL     1      13.888  39.678  -3.191  1.00  0.00     0.159 HD
ATOM     14  H   UNL     1      13.451  39.279  -1.491  1.00  0.00     0.159 HD
ENDBRANCH   1  10
TORSDOF 4
ENDMDL
MODEL 8
REMARK VINA RESULT:    -3.160     19.006     19.577
REMARK INTER + INTRA:          -4.138
REMARK INTER:                  -3.848
REMARK INTRA:                  -0.289
REMARK UNBOUND:                -0.331
REMARK SMILES NC(=O)C[C@@H]([NH3+])C(=O)[O-]
REMARK SMILES IDX 4 1 5 2 6 3 7 7 8 8 9 9 2 10 3 11 1 12
REMARK H PARENT 6 4 6 5 6 6 1 13 1 14
REMARK Flexibility Score: inf
ROOT
ATOM      1  C   UNL     1      15.005  37.414  -3.897  1.00  0.00     0.171 C 
ENDROOT
BRANCH   1   2
ATOM      2  C   UNL     1      13.996  38.074  -4.859  1.00  0.00     0.237 C 
BRANCH   2   3
ATOM      3  N   UNL     1      13.888  39.520  -4.617  1.00  0.00    -0.350 N 
ATOM      4  H   UNL     1      14.668  39.854  -4.005  1.00  0.00     0.345 HD
ATOM      5  H   UNL     1      12.974  39.740  -4.159  1.00  0.00     0.345 HD
ATOM      6  H   UNL     1      13.923  40.036  -5.527  1.00  0.00     0.345 HD
ENDBRANCH   2   3
BRANCH   2   7
ATOM      7  C   UNL     1      14.404  37.814  -6.284  1.00  0.00     0.100 C 
ATOM      8  O   UNL     1      13.878  38.462  -7.228  1.00  0.00    -0.544 OA
ATOM      9  O   UNL     1      15.380  36.865  -6.564  1.00  0.00    -0.544 OA
ENDBRANCH   2   7
ENDBRANCH   1   2
BRANCH   1  10
ATOM     10  C   UNL     1      15.456  38.366  -2.827  1.00  0.00     0.223 C 
ATOM     11  O   UNL     1      16.383  39.184  -3.068  1.00  0.00    -0.275 OA
ATOM     12  N   UNL     1      14.867  38.328  -1.527  1.00  0.00    -0.369 N 
ATOM     13  H   UNL     1      14.114  37.639  -1.302  1.00  0.00     0.159 HD
ATOM     14  H   UNL     1      15.192  38.984  -0.783  1.00  0.00     0.159 HD
ENDBRANCH   1  10
TORSDOF 4
ENDMDL
MODEL 9
REMARK VINA RESULT:    -3.078     18.988     19.907
REMARK INTER + INTRA:          -4.039
REMARK INTER:                  -3.781
REMARK INTRA:                  -0.258
REMARK UNBOUND:                -0.331
REMARK SMILES NC(=O)C[C@@H]([NH3+])C(=O)[O-]
REMARK SMILES IDX 4 1 5 2 6 3 7 7 8 8 9 9 2 10 3 11 1 12
REMARK H PARENT 6 4 6 5 6 6 1 13 1 14
REMARK Flexibility Score: inf
ROOT
ATOM      1  C   UNL     1      14.943  36.923  -4.589  1.00  0.00     0.171 C 
ENDROOT
BRANCH   1   2
ATOM      2  C   UNL     1      15.955  37.729  -3.750  1.00  0.00     0.237 C 
BRANCH   2   3
ATOM      3  N   UNL     1      15.380  39.000  -3.288  1.00  0.00    -0.350 N 
ATOM      4  H   UNL     1      16.108  39.751  -3.267  1.00  0.00     0.345 HD
ATOM      5  H   UNL     1      14.977  38.885  -2.330  1.00  0.00     0.345 HD
ATOM      6  H   UNL     1      14.606  39.293  -3.929  1.00  0.00     0.345 HD
ENDBRANCH   2   3
BRANCH   2   7
ATOM      7  C   UNL     1      16.412  36.907  -2.575  1.00  0.00     0.100 C 
ATOM      8  O   UNL     1      15.708  35.952  -2.150  1.00  0.00    -0.544 OA
ATOM      9  O   UNL     1      17.627  37.189  -1.961  1.00  0.00    -0.544 OA
ENDBRANCH   2   7
ENDBRANCH   1   2
BRANCH   1  10
ATOM     10  C   UNL     1      14.582  37.637  -5.859  1.00  0.00     0.223 C 
ATOM     11  O   UNL     1      13.875  38.678  -5.813  1.00  0.00    -0.275 OA
ATOM     12  N   UNL     1      15.004  37.126  -7.124  1.00  0.00    -0.369 N 
ATOM     13  H   UNL     1      15.570  36.249  -7.183  1.00  0.00     0.159 HD
ATOM     14  H   UNL     1      14.742  37.619  -8.006  1.00  0.00     0.159 HD
ENDBRANCH   1  10
TORSDOF 4
ENDMDL
