MODEL 1
REMARK VINA RESULT:    -5.032      0.000      0.000
REMARK INTER + INTRA:          -5.493
REMARK INTER:                  -5.326
REMARK INTRA:                  -0.167
REMARK UNBOUND:                -0.167
REMARK SMILES Cc1ccc(C(C)C)cc1
REMARK SMILES IDX 1 1 2 2 3 3 4 4 5 5 9 6 10 7 6 8 7 9 8 10
REMARK H PARENT
REMARK Flexibility Score: inf
ROOT
ATOM      1  C   UNL     1       2.385  20.855  40.899  1.00  0.00     0.044 C 
ATOM      2  C   UNL     1       2.390  21.776  42.083  1.00  0.00    -0.051 A 
ATOM      3  C   UNL     1       3.134  22.963  42.051  1.00  0.00     0.004 A 
ATOM      4  C   UNL     1       3.169  23.804  43.168  1.00  0.00     0.004 A 
ATOM      5  C   UNL     1       2.469  23.464  44.341  1.00  0.00    -0.045 A 
ATOM      6  C   UNL     1       1.741  22.262  44.373  1.00  0.00     0.004 A 
ATOM      7  C   UNL     1       1.707  21.423  43.255  1.00  0.00     0.004 A 
ENDROOT
BRANCH   5   8
ATOM      8  C   UNL     1       2.500  24.366  45.560  1.00  0.00     0.013 C 
ATOM      9  C   UNL     1       1.202  24.251  46.367  1.00  0.00     0.012 C 
ATOM     10  C   UNL     1       2.776  25.821  45.164  1.00  0.00     0.012 C 
ENDBRANCH   5   8
TORSDOF 1
ENDMDL
MODEL 2
REMARK VINA RESULT:    -4.701      0.927      4.298
REMARK INTER + INTRA:          -5.143
REMARK INTER:                  -4.976
REMARK INTRA:                  -0.167
REMARK UNBOUND:                -0.167
REMARK SMILES Cc1ccc(C(C)C)cc1
REMARK SMILES IDX 1 1 2 2 3 3 4 4 5 5 9 6 10 7 6 8 7 9 8 10
REMARK H PARENT
REMARK Flexibility Score: inf
ROOT
ATOM      1  C   UNL     1       3.245  26.757  45.766  1.00  0.00     0.044 C 
ATOM      2  C   UNL     1       3.106  25.489  44.977  1.00  0.00    -0.051 A 
ATOM      3  C   UNL     1       3.810  25.323  43.776  1.00  0.00     0.004 A 
ATOM      4  C   UNL     1       3.652  24.157  43.021  1.00  0.00     0.004 A 
ATOM      5  C   UNL     1       2.777  23.140  43.450  1.00  0.00    -0.045 A 
ATOM      6  C   UNL     1       2.060  23.322  44.646  1.00  0.00     0.004 A 
ATOM      7  C   UNL     1       2.219  24.488  45.399  1.00  0.00     0.004 A 
ENDROOT
BRANCH   5   8
ATOM      8  C   UNL     1       2.596  21.871  42.641  1.00  0.00     0.013 C 
ATOM      9  C   UNL     1       2.563  22.171  41.138  1.00  0.00     0.012 C 
ATOM     10  C   UNL     1       1.338  21.111  43.079  1.00  0.00     0.012 C 
ENDBRANCH   5   8
TORSDOF 1
ENDMDL
MODEL 3
REMARK VINA RESULT:    -4.674      1.856      3.564
REMARK INTER + INTRA:          -5.115
REMARK INTER:                  -4.949
REMARK INTRA:                  -0.166
REMARK UNBOUND:                -0.167
REMARK SMILES Cc1ccc(C(C)C)cc1
REMARK SMILES IDX 1 1 2 2 3 3 4 4 5 5 9 6 10 7 6 8 7 9 8 10
REMARK H PARENT
REMARK Flexibility Score: inf
ROOT
ATOM      1  C   UNL     1       5.400  26.248  41.019  1.00  0.00     0.044 C 
ATOM      2  C   UNL     1       4.520  25.370  41.860  1.00  0.00    -0.051 A 
ATOM      3  C   UNL     1       4.334  25.652  43.220  1.00  0.00     0.004 A 
ATOM      4  C   UNL     1       3.544  24.814  44.013  1.00  0.00     0.004 A 
ATOM      5  C   UNL     1       2.938  23.670  43.459  1.00  0.00    -0.045 A 
ATOM      6  C   UNL     1       3.145  23.383  42.099  1.00  0.00     0.004 A 
ATOM      7  C   UNL     1       3.934  24.223  41.308  1.00  0.00     0.004 A 
ENDROOT
BRANCH   5   8
ATOM      8  C   UNL     1       2.080  22.751  44.307  1.00  0.00     0.013 C 
ATOM      9  C   UNL     1       2.773  22.412  45.632  1.00  0.00     0.012 C 
ATOM     10  C   UNL     1       1.706  21.479  43.538  1.00  0.00     0.012 C 
ENDBRANCH   5   8
TORSDOF 1
ENDMDL
MODEL 4
REMARK VINA RESULT:    -4.674      1.195      4.361
REMARK INTER + INTRA:          -5.115
REMARK INTER:                  -4.949
REMARK INTRA:                  -0.165
REMARK UNBOUND:                -0.167
REMARK SMILES Cc1ccc(C(C)C)cc1
REMARK SMILES IDX 1 1 2 2 3 3 4 4 5 5 9 6 10 7 6 8 7 9 8 10
REMARK H PARENT
REMARK Flexibility Score: inf
ROOT
ATOM      1  C   UNL     1       1.629  24.121  47.183  1.00  0.00     0.044 C 
ATOM      2  C   UNL     1       2.096  24.001  45.762  1.00  0.00    -0.051 A 
ATOM      3  C   UNL     1       2.413  22.745  45.227  1.00  0.00     0.004 A 
ATOM      4  C   UNL     1       2.883  22.635  43.915  1.00  0.00     0.004 A 
ATOM      5  C   UNL     1       3.057  23.784  43.120  1.00  0.00    -0.045 A 
ATOM      6  C   UNL     1       2.756  25.042  43.670  1.00  0.00     0.004 A 
ATOM      7  C   UNL     1       2.285  25.150  44.981  1.00  0.00     0.004 A 
ENDROOT
BRANCH   5   8
ATOM      8  C   UNL     1       3.568  23.680  41.695  1.00  0.00     0.013 C 
ATOM      9  C   UNL     1       3.563  25.049  41.004  1.00  0.00     0.012 C 
ATOM     10  C   UNL     1       2.761  22.653  40.893  1.00  0.00     0.012 C 
ENDBRANCH   5   8
TORSDOF 1
ENDMDL
MODEL 5
REMARK VINA RESULT:    -4.664      1.238      4.677
REMARK INTER + INTRA:          -5.104
REMARK INTER:                  -4.937
REMARK INTRA:                  -0.167
REMARK UNBOUND:                -0.167
REMARK SMILES Cc1ccc(C(C)C)cc1
REMARK SMILES IDX 1 1 2 2 3 3 4 4 5 5 9 6 10 7 6 8 7 9 8 10
REMARK H PARENT
REMARK Flexibility Score: inf
ROOT
ATOM      1  C   UNL     1       1.545  26.428  47.984  1.00  0.00     0.044 C 
ATOM      2  C   UNL     1       1.970  25.504  46.881  1.00  0.00    -0.051 A 
ATOM      3  C   UNL     1       2.699  25.995  45.790  1.00  0.00     0.004 A 
ATOM      4  C   UNL     1       3.064  25.142  44.744  1.00  0.00     0.004 A 
ATOM      5  C   UNL     1       2.693  23.784  44.767  1.00  0.00    -0.045 A 
ATOM      6  C   UNL     1       1.945  23.303  45.855  1.00  0.00     0.004 A 
ATOM      7  C   UNL     1       1.582  24.157  46.900  1.00  0.00     0.004 A 
ENDROOT
BRANCH   5   8
ATOM      8  C   UNL     1       3.081  22.848  43.638  1.00  0.00     0.013 C 
ATOM      9  C   UNL     1       3.381  23.625  42.351  1.00  0.00     0.012 C 
ATOM     10  C   UNL     1       1.998  21.788  43.403  1.00  0.00     0.012 C 
ENDBRANCH   5   8
TORSDOF 1
ENDMDL
MODEL 6
REMARK VINA RESULT:    -4.528      1.714      3.056
REMARK INTER + INTRA:          -4.960
REMARK INTER:                  -4.796
REMARK INTRA:                  -0.165
REMARK UNBOUND:                -0.167
REMARK SMILES Cc1ccc(C(C)C)cc1
REMARK SMILES IDX 1 1 2 2 3 3 4 4 5 5 9 6 10 7 6 8 7 9 8 10
REMARK H PARENT
REMARK Flexibility Score: inf
ROOT
ATOM      1  C   UNL     1       3.774  23.757  42.344  1.00  0.00     0.044 C 
ATOM      2  C   UNL     1       3.182  23.902  43.715  1.00  0.00    -0.051 A 
ATOM      3  C   UNL     1       2.959  22.771  44.511  1.00  0.00     0.004 A 
ATOM      4  C   UNL     1       2.374  22.902  45.774  1.00  0.00     0.004 A 
ATOM      5  C   UNL     1       1.990  24.168  46.256  1.00  0.00    -0.045 A 
ATOM      6  C   UNL     1       2.199  25.295  45.444  1.00  0.00     0.004 A 
ATOM      7  C   UNL     1       2.784  25.163  44.182  1.00  0.00     0.004 A 
ENDROOT
BRANCH   5   8
ATOM      8  C   UNL     1       1.353  24.324  47.624  1.00  0.00     0.013 C 
ATOM      9  C   UNL     1       1.046  25.795  47.927  1.00  0.00     0.012 C 
ATOM     10  C   UNL     1       2.233  23.707  48.717  1.00  0.00     0.012 C 
ENDBRANCH   5   8
TORSDOF 1
ENDMDL
MODEL 7
REMARK VINA RESULT:    -4.520      1.428      4.405
REMARK INTER + INTRA:          -4.952
REMARK INTER:                  -4.785
REMARK INTRA:                  -0.167
REMARK UNBOUND:                -0.167
REMARK SMILES Cc1ccc(C(C)C)cc1
REMARK SMILES IDX 1 1 2 2 3 3 4 4 5 5 9 6 10 7 6 8 7 9 8 10
REMARK H PARENT
REMARK Flexibility Score: inf
ROOT
ATOM      1  C   UNL     1       4.516  26.844  43.485  1.00  0.00     0.044 C 
ATOM      2  C   UNL     1       3.949  25.486  43.191  1.00  0.00    -0.051 A 
ATOM      3  C   UNL     1       3.491  24.671  44.235  1.00  0.00     0.004 A 
ATOM      4  C   UNL     1       2.997  23.391  43.966  1.00  0.00     0.004 A 
ATOM      5  C   UNL     1       2.967  22.899  42.647  1.00  0.00    -0.045 A 
ATOM      6  C   UNL     1       3.446  23.715  41.608  1.00  0.00     0.004 A 
ATOM      7  C   UNL     1       3.939  24.994  41.878  1.00  0.00     0.004 A 
ENDROOT
BRANCH   5   8
ATOM      8  C   UNL     1       2.435  21.512  42.341  1.00  0.00     0.013 C 
ATOM      9  C   UNL     1       2.001  21.396  40.875  1.00  0.00     0.012 C 
ATOM     10  C   UNL     1       1.288  21.139  43.287  1.00  0.00     0.012 C 
ENDBRANCH   5   8
TORSDOF 1
ENDMDL
MODEL 8
REMARK VINA RESULT:    -4.434      1.950      3.685
REMARK INTER + INTRA:          -4.860
REMARK INTER:                  -4.693
REMARK INTRA:                  -0.167
REMARK UNBOUND:                -0.167
REMARK SMILES Cc1ccc(C(C)C)cc1
REMARK SMILES IDX 1 1 2 2 3 3 4 4 5 5 9 6 10 7 6 8 7 9 8 10
REMARK H PARENT
REMARK Flexibility Score: inf
ROOT
ATOM      1  C   UNL     1       5.096  26.983  41.251  1.00  0.00     0.044 C 
ATOM      2  C   UNL     1       4.496  25.965  42.175  1.00  0.00    -0.051 A 
ATOM      3  C   UNL     1       4.187  24.681  41.706  1.00  0.00     0.004 A 
ATOM      4  C   UNL     1       3.594  23.743  42.557  1.00  0.00     0.004 A 
ATOM      5  C   UNL     1       3.288  24.079  43.889  1.00  0.00    -0.045 A 
ATOM      6  C   UNL     1       3.583  25.375  44.347  1.00  0.00     0.004 A 
ATOM      7  C   UNL     1       4.177  26.311  43.495  1.00  0.00     0.004 A 
ENDROOT
BRANCH   5   8
ATOM      8  C   UNL     1       2.643  23.072  44.823  1.00  0.00     0.013 C 
ATOM      9  C   UNL     1       1.997  21.924  44.038  1.00  0.00     0.012 C 
ATOM     10  C   UNL     1       1.626  23.749  45.748  1.00  0.00     0.012 C 
ENDBRANCH   5   8
TORSDOF 1
ENDMDL
MODEL 9
REMARK VINA RESULT:    -4.433      1.580      2.984
REMARK INTER + INTRA:          -4.859
REMARK INTER:                  -4.692
REMARK INTRA:                  -0.167
REMARK UNBOUND:                -0.167
REMARK SMILES Cc1ccc(C(C)C)cc1
REMARK SMILES IDX 1 1 2 2 3 3 4 4 5 5 9 6 10 7 6 8 7 9 8 10
REMARK H PARENT
REMARK Flexibility Score: inf
ROOT
ATOM      1  C   UNL     1       1.606  21.166  43.482  1.00  0.00     0.044 C 
ATOM      2  C   UNL     1       2.294  22.493  43.604  1.00  0.00    -0.051 A 
ATOM      3  C   UNL     1       2.052  23.315  44.712  1.00  0.00     0.004 A 
ATOM      4  C   UNL     1       2.665  24.568  44.809  1.00  0.00     0.004 A 
ATOM      5  C   UNL     1       3.522  25.025  43.789  1.00  0.00    -0.045 A 
ATOM      6  C   UNL     1       3.744  24.203  42.670  1.00  0.00     0.004 A 
ATOM      7  C   UNL     1       3.131  22.951  42.576  1.00  0.00     0.004 A 
ENDROOT
BRANCH   5   8
ATOM      8  C   UNL     1       4.192  26.383  43.879  1.00  0.00     0.013 C 
ATOM      9  C   UNL     1       5.479  26.422  43.048  1.00  0.00     0.012 C 
ATOM     10  C   UNL     1       4.465  26.767  45.338  1.00  0.00     0.012 C 
ENDBRANCH   5   8
TORSDOF 1
ENDMDL
