MODEL 1
REMARK VINA RESULT:    -4.421      0.000      0.000
REMARK INTER + INTRA:          -6.467
REMARK INTER:                  -5.972
REMARK INTRA:                  -0.495
REMARK UNBOUND:                -0.495
REMARK SMILES O=C[C@H](O)[C@H](O)[C@@H](O)CO
REMARK SMILES IDX 7 1 9 2 10 3 5 5 3 6 2 7 1 8 4 9 6 11 8 13
REMARK H PARENT 10 4 4 10 6 12 8 14
REMARK Flexibility Score: inf
ROOT
ATOM      1  C   UNL     1      21.696  -6.516   4.357  1.00  0.00     0.171 C 
ENDROOT
BRANCH   1   2
ATOM      2  C   UNL     1      23.109  -6.158   3.854  1.00  0.00     0.190 C 
BRANCH   2   3
ATOM      3  O   UNL     1      23.591  -5.020   4.517  1.00  0.00    -0.394 OA
ATOM      4  H   UNL     1      23.877  -4.378   3.816  1.00  0.00     0.210 HD
ENDBRANCH   2   3
ENDBRANCH   1   2
BRANCH   1   5
ATOM      5  C   UNL     1      21.697  -7.277   5.715  1.00  0.00     0.181 C 
BRANCH   5   6
ATOM      6  C   UNL     1      20.289  -7.763   6.151  1.00  0.00     0.209 C 
BRANCH   6   7
ATOM      7  C   UNL     1      19.475  -8.203   4.963  1.00  0.00     0.258 C 
ATOM      8  O   UNL     1      18.507  -7.555   4.597  1.00  0.00    -0.300 OA
ENDBRANCH   6   7
BRANCH   6   9
ATOM      9  O   UNL     1      19.604  -6.727   6.807  1.00  0.00    -0.383 OA
ATOM     10  H   UNL     1      18.667  -7.033   6.928  1.00  0.00     0.211 HD
ENDBRANCH   6   9
ENDBRANCH   5   6
BRANCH   5  11
ATOM     11  O   UNL     1      22.259  -6.452   6.708  1.00  0.00    -0.387 OA
ATOM     12  H   UNL     1      23.232  -6.648   6.745  1.00  0.00     0.211 HD
ENDBRANCH   5  11
ENDBRANCH   1   5
BRANCH   1  13
ATOM     13  O   UNL     1      20.915  -5.350   4.463  1.00  0.00    -0.388 OA
ATOM     14  H   UNL     1      20.308  -5.468   5.240  1.00  0.00     0.211 HD
ENDBRANCH   1  13
TORSDOF 8
ENDMDL
MODEL 2
REMARK VINA RESULT:    -4.415      2.390      4.538
REMARK INTER + INTRA:          -6.459
REMARK INTER:                  -5.747
REMARK INTRA:                  -0.712
REMARK UNBOUND:                -0.495
REMARK SMILES O=C[C@H](O)[C@H](O)[C@@H](O)CO
REMARK SMILES IDX 7 1 9 2 10 3 5 5 3 6 2 7 1 8 4 9 6 11 8 13
REMARK H PARENT 10 4 4 10 6 12 8 14
REMARK Flexibility Score: inf
ROOT
ATOM      1  C   UNL     1      17.825  -6.962   7.496  1.00  0.00     0.171 C 
ENDROOT
BRANCH   1   2
ATOM      2  C   UNL     1      17.435  -8.305   8.146  1.00  0.00     0.190 C 
BRANCH   2   3
ATOM      3  O   UNL     1      18.148  -8.497   9.339  1.00  0.00    -0.394 OA
ATOM      4  H   UNL     1      18.773  -7.731   9.428  1.00  0.00     0.210 HD
ENDBRANCH   2   3
ENDBRANCH   1   2
BRANCH   1   5
ATOM      5  C   UNL     1      19.163  -7.025   6.703  1.00  0.00     0.181 C 
BRANCH   5   6
ATOM      6  C   UNL     1      19.014  -6.636   5.208  1.00  0.00     0.209 C 
BRANCH   6   7
ATOM      7  C   UNL     1      20.204  -7.094   4.406  1.00  0.00     0.258 C 
ATOM      8  O   UNL     1      21.339  -6.866   4.793  1.00  0.00    -0.300 OA
ENDBRANCH   6   7
BRANCH   6   9
ATOM      9  O   UNL     1      18.896  -5.242   5.083  1.00  0.00    -0.383 OA
ATOM     10  H   UNL     1      18.696  -5.055   4.128  1.00  0.00     0.211 HD
ENDBRANCH   6   9
ENDBRANCH   5   6
BRANCH   5  11
ATOM     11  O   UNL     1      19.711  -8.317   6.819  1.00  0.00    -0.387 OA
ATOM     12  H   UNL     1      19.525  -8.639   7.741  1.00  0.00     0.211 HD
ENDBRANCH   5  11
ENDBRANCH   1   5
BRANCH   1  13
ATOM     13  O   UNL     1      16.790  -6.520   6.652  1.00  0.00    -0.388 OA
ATOM     14  H   UNL     1      16.210  -7.302   6.456  1.00  0.00     0.211 HD
ENDBRANCH   1  13
TORSDOF 8
ENDMDL
MODEL 3
REMARK VINA RESULT:    -4.359      0.816      0.816
REMARK INTER + INTRA:          -6.383
REMARK INTER:                  -5.872
REMARK INTRA:                  -0.511
REMARK UNBOUND:                -0.495
REMARK SMILES O=C[C@H](O)[C@H](O)[C@@H](O)CO
REMARK SMILES IDX 7 1 9 2 10 3 5 5 3 6 2 7 1 8 4 9 6 11 8 13
REMARK H PARENT 10 4 4 10 6 12 8 14
REMARK Flexibility Score: inf
ROOT
ATOM      1  C   UNL     1      21.748  -6.425   4.279  1.00  0.00     0.171 C 
ENDROOT
BRANCH   1   2
ATOM      2  C   UNL     1      22.999  -5.787   3.643  1.00  0.00     0.190 C 
BRANCH   2   3
ATOM      3  O   UNL     1      23.707  -5.041   4.597  1.00  0.00    -0.394 OA
ATOM      4  H   UNL     1      23.268  -4.152   4.652  1.00  0.00     0.210 HD
ENDBRANCH   2   3
ENDBRANCH   1   2
BRANCH   1   5
ATOM      5  C   UNL     1      22.053  -7.221   5.581  1.00  0.00     0.181 C 
BRANCH   5   6
ATOM      6  C   UNL     1      20.988  -8.303   5.907  1.00  0.00     0.209 C 
BRANCH   6   7
ATOM      7  C   UNL     1      20.468  -8.949   4.649  1.00  0.00     0.258 C 
ATOM      8  O   UNL     1      19.272  -8.965   4.407  1.00  0.00    -0.300 OA
ENDBRANCH   6   7
BRANCH   6   9
ATOM      9  O   UNL     1      19.910  -7.725   6.595  1.00  0.00    -0.383 OA
ATOM     10  H   UNL     1      20.059  -7.899   7.562  1.00  0.00     0.211 HD
ENDBRANCH   6   9
ENDBRANCH   5   6
BRANCH   5  11
ATOM     11  O   UNL     1      22.180  -6.322   6.657  1.00  0.00    -0.387 OA
ATOM     12  H   UNL     1      21.752  -5.467   6.384  1.00  0.00     0.211 HD
ENDBRANCH   5  11
ENDBRANCH   1   5
BRANCH   1  13
ATOM     13  O   UNL     1      20.785  -5.433   4.541  1.00  0.00    -0.388 OA
ATOM     14  H   UNL     1      20.440  -5.587   5.460  1.00  0.00     0.211 HD
ENDBRANCH   1  13
TORSDOF 8
ENDMDL
MODEL 4
REMARK VINA RESULT:    -4.337      2.954      4.164
REMARK INTER + INTRA:          -6.354
REMARK INTER:                  -5.451
REMARK INTRA:                  -0.903
REMARK UNBOUND:                -0.495
REMARK SMILES O=C[C@H](O)[C@H](O)[C@@H](O)CO
REMARK SMILES IDX 7 1 9 2 10 3 5 5 3 6 2 7 1 8 4 9 6 11 8 13
REMARK H PARENT 10 4 4 10 6 12 8 14
REMARK Flexibility Score: inf
ROOT
ATOM      1  C   UNL     1      17.673  -7.427   5.407  1.00  0.00     0.171 C 
ENDROOT
BRANCH   1   2
ATOM      2  C   UNL     1      18.911  -6.726   4.813  1.00  0.00     0.190 C 
BRANCH   2   3
ATOM      3  O   UNL     1      19.040  -5.432   5.338  1.00  0.00    -0.394 OA
ATOM      4  H   UNL     1      18.184  -4.962   5.160  1.00  0.00     0.210 HD
ENDBRANCH   2   3
ENDBRANCH   1   2
BRANCH   1   5
ATOM      5  C   UNL     1      17.965  -8.173   6.741  1.00  0.00     0.181 C 
BRANCH   5   6
ATOM      6  C   UNL     1      17.077  -7.696   7.923  1.00  0.00     0.209 C 
BRANCH   6   7
ATOM      7  C   UNL     1      17.808  -6.695   8.779  1.00  0.00     0.258 C 
ATOM      8  O   UNL     1      18.187  -5.634   8.310  1.00  0.00    -0.300 OA
ENDBRANCH   6   7
BRANCH   6   9
ATOM      9  O   UNL     1      16.711  -8.790   8.722  1.00  0.00    -0.383 OA
ATOM     10  H   UNL     1      15.736  -8.708   8.893  1.00  0.00     0.211 HD
ENDBRANCH   6   9
ENDBRANCH   5   6
BRANCH   5  11
ATOM     11  O   UNL     1      19.327  -8.029   7.065  1.00  0.00    -0.387 OA
ATOM     12  H   UNL     1      19.567  -7.075   6.929  1.00  0.00     0.211 HD
ENDBRANCH   5  11
ENDBRANCH   1   5
BRANCH   1  13
ATOM     13  O   UNL     1      16.639  -6.492   5.599  1.00  0.00    -0.388 OA
ATOM     14  H   UNL     1      16.642  -5.878   4.819  1.00  0.00     0.211 HD
ENDBRANCH   1  13
TORSDOF 8
ENDMDL
MODEL 5
REMARK VINA RESULT:    -4.325      1.279      2.332
REMARK INTER + INTRA:          -6.337
REMARK INTER:                  -5.871
REMARK INTRA:                  -0.466
REMARK UNBOUND:                -0.495
REMARK SMILES O=C[C@H](O)[C@H](O)[C@@H](O)CO
REMARK SMILES IDX 7 1 9 2 10 3 5 5 3 6 2 7 1 8 4 9 6 11 8 13
REMARK H PARENT 10 4 4 10 6 12 8 14
REMARK Flexibility Score: inf
ROOT
ATOM      1  C   UNL     1      22.643  -5.701   3.556  1.00  0.00     0.171 C 
ENDROOT
BRANCH   1   2
ATOM      2  C   UNL     1      23.110  -6.981   2.833  1.00  0.00     0.190 C 
BRANCH   2   3
ATOM      3  O   UNL     1      23.714  -6.660   1.609  1.00  0.00    -0.394 OA
ATOM      4  H   UNL     1      24.673  -6.903   1.689  1.00  0.00     0.210 HD
ENDBRANCH   2   3
ENDBRANCH   1   2
BRANCH   1   5
ATOM      5  C   UNL     1      21.390  -5.920   4.453  1.00  0.00     0.181 C 
BRANCH   5   6
ATOM      6  C   UNL     1      21.573  -7.045   5.506  1.00  0.00     0.209 C 
BRANCH   6   7
ATOM      7  C   UNL     1      20.264  -7.728   5.804  1.00  0.00     0.258 C 
ATOM      8  O   UNL     1      19.381  -7.143   6.411  1.00  0.00    -0.300 OA
ENDBRANCH   6   7
BRANCH   6   9
ATOM      9  O   UNL     1      22.083  -6.509   6.700  1.00  0.00    -0.383 OA
ATOM     10  H   UNL     1      22.526  -7.255   7.184  1.00  0.00     0.211 HD
ENDBRANCH   6   9
ENDBRANCH   5   6
BRANCH   5  11
ATOM     11  O   UNL     1      20.276  -6.193   3.636  1.00  0.00    -0.387 OA
ATOM     12  H   UNL     1      20.028  -5.347   3.177  1.00  0.00     0.211 HD
ENDBRANCH   5  11
ENDBRANCH   1   5
BRANCH   1  13
ATOM     13  O   UNL     1      23.696  -5.175   4.327  1.00  0.00    -0.388 OA
ATOM     14  H   UNL     1      24.117  -5.932   4.813  1.00  0.00     0.211 HD
ENDBRANCH   1  13
TORSDOF 8
ENDMDL
MODEL 6
REMARK VINA RESULT:    -4.315      1.937      3.700
REMARK INTER + INTRA:          -6.323
REMARK INTER:                  -5.909
REMARK INTRA:                  -0.415
REMARK UNBOUND:                -0.495
REMARK SMILES O=C[C@H](O)[C@H](O)[C@@H](O)CO
REMARK SMILES IDX 7 1 9 2 10 3 5 5 3 6 2 7 1 8 4 9 6 11 8 13
REMARK H PARENT 10 4 4 10 6 12 8 14
REMARK Flexibility Score: inf
ROOT
ATOM      1  C   UNL     1      22.567  -7.273   5.008  1.00  0.00     0.171 C 
ENDROOT
BRANCH   1   2
ATOM      2  C   UNL     1      21.538  -7.072   6.138  1.00  0.00     0.190 C 
BRANCH   2   3
ATOM      3  O   UNL     1      22.079  -6.276   7.158  1.00  0.00    -0.394 OA
ATOM      4  H   UNL     1      22.443  -5.460   6.725  1.00  0.00     0.210 HD
ENDBRANCH   2   3
ENDBRANCH   1   2
BRANCH   1   5
ATOM      5  C   UNL     1      22.663  -6.061   4.035  1.00  0.00     0.181 C 
BRANCH   5   6
ATOM      6  C   UNL     1      22.919  -6.473   2.560  1.00  0.00     0.209 C 
BRANCH   6   7
ATOM      7  C   UNL     1      21.636  -6.869   1.877  1.00  0.00     0.258 C 
ATOM      8  O   UNL     1      20.633  -6.183   1.991  1.00  0.00    -0.300 OA
ENDBRANCH   6   7
BRANCH   6   9
ATOM      9  O   UNL     1      23.809  -7.558   2.511  1.00  0.00    -0.383 OA
ATOM     10  H   UNL     1      24.429  -7.387   1.753  1.00  0.00     0.211 HD
ENDBRANCH   6   9
ENDBRANCH   5   6
BRANCH   5  11
ATOM     11  O   UNL     1      23.672  -5.187   4.480  1.00  0.00    -0.387 OA
ATOM     12  H   UNL     1      23.666  -5.205   5.474  1.00  0.00     0.211 HD
ENDBRANCH   5  11
ENDBRANCH   1   5
BRANCH   1  13
ATOM     13  O   UNL     1      23.834  -7.545   5.556  1.00  0.00    -0.388 OA
ATOM     14  H   UNL     1      23.695  -7.853   6.490  1.00  0.00     0.211 HD
ENDBRANCH   1  13
TORSDOF 8
ENDMDL
MODEL 7
REMARK VINA RESULT:    -4.303      2.106      2.770
REMARK INTER + INTRA:          -6.308
REMARK INTER:                  -5.655
REMARK INTRA:                  -0.653
REMARK UNBOUND:                -0.495
REMARK SMILES O=C[C@H](O)[C@H](O)[C@@H](O)CO
REMARK SMILES IDX 7 1 9 2 10 3 5 5 3 6 2 7 1 8 4 9 6 11 8 13
REMARK H PARENT 10 4 4 10 6 12 8 14
REMARK Flexibility Score: inf
ROOT
ATOM      1  C   UNL     1      19.162  -6.511   4.816  1.00  0.00     0.171 C 
ENDROOT
BRANCH   1   2
ATOM      2  C   UNL     1      20.487  -6.644   4.039  1.00  0.00     0.190 C 
BRANCH   2   3
ATOM      3  O   UNL     1      21.307  -5.531   4.276  1.00  0.00    -0.394 OA
ATOM      4  H   UNL     1      20.917  -4.772   3.770  1.00  0.00     0.210 HD
ENDBRANCH   2   3
ENDBRANCH   1   2
BRANCH   1   5
ATOM      5  C   UNL     1      19.175  -7.242   6.190  1.00  0.00     0.181 C 
BRANCH   5   6
ATOM      6  C   UNL     1      17.983  -6.855   7.107  1.00  0.00     0.209 C 
BRANCH   6   7
ATOM      7  C   UNL     1      17.641  -7.975   8.054  1.00  0.00     0.258 C 
ATOM      8  O   UNL     1      18.365  -8.954   8.147  1.00  0.00    -0.300 OA
ENDBRANCH   6   7
BRANCH   6   9
ATOM      9  O   UNL     1      16.852  -6.563   6.328  1.00  0.00    -0.383 OA
ATOM     10  H   UNL     1      16.088  -6.464   6.955  1.00  0.00     0.211 HD
ENDBRANCH   6   9
ENDBRANCH   5   6
BRANCH   5  11
ATOM     11  O   UNL     1      20.396  -6.983   6.842  1.00  0.00    -0.387 OA
ATOM     12  H   UNL     1      21.113  -7.436   6.324  1.00  0.00     0.211 HD
ENDBRANCH   5  11
ENDBRANCH   1   5
BRANCH   1  13
ATOM     13  O   UNL     1      18.848  -5.152   5.001  1.00  0.00    -0.388 OA
ATOM     14  H   UNL     1      18.472  -5.054   5.915  1.00  0.00     0.211 HD
ENDBRANCH   1  13
TORSDOF 8
ENDMDL
MODEL 8
REMARK VINA RESULT:    -4.249      3.090      5.571
REMARK INTER + INTRA:          -6.235
REMARK INTER:                  -5.709
REMARK INTRA:                  -0.525
REMARK UNBOUND:                -0.495
REMARK SMILES O=C[C@H](O)[C@H](O)[C@@H](O)CO
REMARK SMILES IDX 7 1 9 2 10 3 5 5 3 6 2 7 1 8 4 9 6 11 8 13
REMARK H PARENT 10 4 4 10 6 12 8 14
REMARK Flexibility Score: inf
ROOT
ATOM      1  C   UNL     1      18.111  -8.931   8.095  1.00  0.00     0.171 C 
ENDROOT
BRANCH   1   2
ATOM      2  C   UNL     1      17.406 -10.275   7.820  1.00  0.00     0.190 C 
BRANCH   2   3
ATOM      3  O   UNL     1      16.035 -10.073   7.605  1.00  0.00    -0.394 OA
ATOM      4  H   UNL     1      15.568 -10.354   8.434  1.00  0.00     0.210 HD
ENDBRANCH   2   3
ENDBRANCH   1   2
BRANCH   1   5
ATOM      5  C   UNL     1      17.365  -7.706   7.488  1.00  0.00     0.181 C 
BRANCH   5   6
ATOM      6  C   UNL     1      18.318  -6.578   7.009  1.00  0.00     0.209 C 
BRANCH   6   7
ATOM      7  C   UNL     1      19.278  -7.087   5.966  1.00  0.00     0.258 C 
ATOM      8  O   UNL     1      20.483  -7.048   6.158  1.00  0.00    -0.300 OA
ENDBRANCH   6   7
BRANCH   6   9
ATOM      9  O   UNL     1      19.056  -6.078   8.095  1.00  0.00    -0.383 OA
ATOM     10  H   UNL     1      18.540  -5.314   8.465  1.00  0.00     0.211 HD
ENDBRANCH   6   9
ENDBRANCH   5   6
BRANCH   5  11
ATOM     11  O   UNL     1      16.451  -7.204   8.435  1.00  0.00    -0.387 OA
ATOM     12  H   UNL     1      16.901  -7.217   9.320  1.00  0.00     0.211 HD
ENDBRANCH   5  11
ENDBRANCH   1   5
BRANCH   1  13
ATOM     13  O   UNL     1      18.276  -8.750   9.480  1.00  0.00    -0.388 OA
ATOM     14  H   UNL     1      17.773  -7.934   9.737  1.00  0.00     0.211 HD
ENDBRANCH   1  13
TORSDOF 8
ENDMDL
MODEL 9
REMARK VINA RESULT:    -4.195      4.274      5.552
REMARK INTER + INTRA:          -6.162
REMARK INTER:                  -5.245
REMARK INTRA:                  -0.917
REMARK UNBOUND:                -0.495
REMARK SMILES O=C[C@H](O)[C@H](O)[C@@H](O)CO
REMARK SMILES IDX 7 1 9 2 10 3 5 5 3 6 2 7 1 8 4 9 6 11 8 13
REMARK H PARENT 10 4 4 10 6 12 8 14
REMARK Flexibility Score: inf
ROOT
ATOM      1  C   UNL     1      18.395  -9.612   7.065  1.00  0.00     0.171 C 
ENDROOT
BRANCH   1   2
ATOM      2  C   UNL     1      18.453 -10.538   8.296  1.00  0.00     0.190 C 
BRANCH   2   3
ATOM      3  O   UNL     1      18.570  -9.783   9.473  1.00  0.00    -0.394 OA
ATOM      4  H   UNL     1      17.725  -9.273   9.573  1.00  0.00     0.210 HD
ENDBRANCH   2   3
ENDBRANCH   1   2
BRANCH   1   5
ATOM      5  C   UNL     1      17.140  -8.690   7.044  1.00  0.00     0.181 C 
BRANCH   5   6
ATOM      6  C   UNL     1      17.486  -7.178   6.976  1.00  0.00     0.209 C 
BRANCH   6   7
ATOM      7  C   UNL     1      17.383  -6.536   8.334  1.00  0.00     0.258 C 
ATOM      8  O   UNL     1      18.141  -6.860   9.235  1.00  0.00    -0.300 OA
ENDBRANCH   6   7
BRANCH   6   9
ATOM      9  O   UNL     1      16.607  -6.522   6.099  1.00  0.00    -0.383 OA
ATOM     10  H   UNL     1      16.111  -5.851   6.638  1.00  0.00     0.211 HD
ENDBRANCH   6   9
ENDBRANCH   5   6
BRANCH   5  11
ATOM     11  O   UNL     1      16.348  -8.959   8.177  1.00  0.00    -0.387 OA
ATOM     12  H   UNL     1      16.543  -9.890   8.464  1.00  0.00     0.211 HD
ENDBRANCH   5  11
ENDBRANCH   1   5
BRANCH   1  13
ATOM     13  O   UNL     1      19.563  -8.830   6.997  1.00  0.00    -0.388 OA
ATOM     14  H   UNL     1      20.338  -9.444   7.089  1.00  0.00     0.211 HD
ENDBRANCH   1  13
TORSDOF 8
ENDMDL
