MODEL 1
REMARK VINA RESULT:    -4.723      0.000      0.000
REMARK INTER + INTRA:          -4.886
REMARK INTER:                  -6.655
REMARK INTRA:                   1.769
REMARK UNBOUND:                 1.769
REMARK SMILES CC1=CCC(=C(C)C)C(=O)CC(C)=CCC1
REMARK SMILES IDX 12 1 14 2 13 3 15 4 16 5 2 6 1 7 3 8 11 10 9 11 10 12 5 13
REMARK SMILES IDX 6 14 7 15 8 16 4 17
REMARK H PARENT
REMARK Flexibility Score: 60.00
ROOT
ATOM      1  C   UNL     1      10.605 -32.748 -31.853  1.00  0.00    -0.070 C 
ATOM      2  C   UNL     1       9.950 -32.373 -30.729  1.00  0.00    -0.027 C 
ATOM      3  C   UNL     1       9.928 -32.479 -33.174  1.00  0.00     0.039 C 
ENDROOT
BRANCH   2   4
ATOM      4  C   UNL     1      10.481 -32.449 -29.317  1.00  0.00     0.032 C 
BRANCH   4   5
ATOM      5  C   UNL     1      10.385 -33.867 -28.724  1.00  0.00     0.034 C 
BRANCH   5   6
ATOM      6  C   UNL     1      11.453 -34.123 -27.678  1.00  0.00    -0.077 C 
ATOM      7  C   UNL     1      11.035 -34.181 -26.230  1.00  0.00     0.039 C 
ATOM      8  C   UNL     1      12.765 -34.277 -27.965  1.00  0.00    -0.023 CG0
ATOM      9  G   UNL     1      13.379 -34.216 -29.343  1.00  0.00     0.000 G0
ENDBRANCH   5   6
ENDBRANCH   4   5
ENDBRANCH   2   4
BRANCH   1  10
ATOM     10  C   UNL     1      11.996 -33.359 -31.856  1.00  0.00     0.111 C 
BRANCH  10  11
ATOM     11  C   UNL     1      11.973 -34.796 -31.397  1.00  0.00     0.163 C 
ATOM     12  O   UNL     1      11.188 -35.593 -31.980  1.00  0.00    -0.294 OA
BRANCH  11  13
ATOM     13  C   UNL     1      12.807 -35.274 -30.250  1.00  0.00    -0.002 C 
ATOM     14  C   UNL     1      13.085 -36.600 -30.067  1.00  0.00    -0.069 C 
ATOM     15  C   UNL     1      12.627 -37.650 -31.055  1.00  0.00     0.039 C 
ATOM     16  C   UNL     1      13.897 -37.080 -28.884  1.00  0.00     0.039 C 
BRANCH  13  17
ATOM     17  C   UNL     1      13.397 -34.214 -29.337  1.00  0.00     0.066 CG0
ATOM     18  G   UNL     1      12.749 -34.295 -27.975  1.00  0.00     0.000 G0
ENDBRANCH  13  17
ENDBRANCH  11  13
ENDBRANCH  10  11
ENDBRANCH   1  10
TORSDOF 0
ENDMDL
MODEL 2
REMARK VINA RESULT:    -4.658      1.993      3.786
REMARK INTER + INTRA:          -4.795
REMARK INTER:                  -5.804
REMARK INTRA:                   1.009
REMARK UNBOUND:                 1.769
REMARK SMILES CC1=CCC(=C(C)C)C(=O)CC(C)=CCC1
REMARK SMILES IDX 12 1 14 2 13 3 15 4 16 5 2 6 1 7 3 8 11 10 9 11 10 12 5 13
REMARK SMILES IDX 6 14 7 15 8 16 4 17
REMARK H PARENT
REMARK Flexibility Score: 60.00
ROOT
ATOM      1  C   UNL     1      12.845 -36.132 -30.631  1.00  0.00    -0.070 C 
ATOM      2  C   UNL     1      12.829 -36.140 -29.277  1.00  0.00    -0.027 C 
ATOM      3  C   UNL     1      11.931 -37.099 -31.342  1.00  0.00     0.039 C 
ENDROOT
BRANCH   2   4
ATOM      4  C   UNL     1      13.577 -35.195 -28.368  1.00  0.00     0.032 C 
BRANCH   4   5
ATOM      5  C   UNL     1      12.636 -34.279 -27.562  1.00  0.00     0.034 C 
BRANCH   5   6
ATOM      6  C   UNL     1      11.566 -33.650 -28.433  1.00  0.00    -0.077 C 
ATOM      7  C   UNL     1      10.148 -34.144 -28.292  1.00  0.00     0.039 C 
ATOM      8  C   UNL     1      11.813 -32.687 -29.349  1.00  0.00    -0.023 CG0
ATOM      9  G   UNL     1      13.166 -32.092 -29.660  1.00  0.00     0.000 G0
ENDBRANCH   5   6
ENDBRANCH   4   5
ENDBRANCH   2   4
BRANCH   1  10
ATOM     10  C   UNL     1      13.677 -35.168 -31.459  1.00  0.00     0.111 C 
BRANCH  10  11
ATOM     11  C   UNL     1      13.012 -33.818 -31.573  1.00  0.00     0.163 C 
ATOM     12  O   UNL     1      11.912 -33.747 -32.184  1.00  0.00    -0.294 OA
BRANCH  11  13
ATOM     13  C   UNL     1      13.647 -32.575 -31.031  1.00  0.00    -0.002 C 
ATOM     14  C   UNL     1      14.555 -31.856 -31.757  1.00  0.00    -0.069 C 
ATOM     15  C   UNL     1      14.913 -32.235 -33.177  1.00  0.00     0.039 C 
ATOM     16  C   UNL     1      15.221 -30.623 -31.188  1.00  0.00     0.039 C 
BRANCH  13  17
ATOM     17  C   UNL     1      13.182 -32.104 -29.665  1.00  0.00     0.066 CG0
ATOM     18  G   UNL     1      11.813 -32.666 -29.368  1.00  0.00     0.000 G0
ENDBRANCH  13  17
ENDBRANCH  11  13
ENDBRANCH  10  11
ENDBRANCH   1  10
TORSDOF 0
ENDMDL
MODEL 3
REMARK VINA RESULT:    -4.653      2.451      4.454
REMARK INTER + INTRA:          -4.788
REMARK INTER:                  -6.173
REMARK INTRA:                   1.385
REMARK UNBOUND:                 1.769
REMARK SMILES CC1=CCC(=C(C)C)C(=O)CC(C)=CCC1
REMARK SMILES IDX 12 1 14 2 13 3 15 4 16 5 2 6 1 7 3 8 11 10 9 11 10 12 5 13
REMARK SMILES IDX 6 14 7 15 8 16 4 17
REMARK H PARENT
REMARK Flexibility Score: 60.00
ROOT
ATOM      1  C   UNL     1      11.191 -33.756 -28.826  1.00  0.00    -0.070 C 
ATOM      2  C   UNL     1      10.637 -34.814 -29.463  1.00  0.00    -0.027 C 
ATOM      3  C   UNL     1      11.603 -33.949 -27.387  1.00  0.00     0.039 C 
ENDROOT
BRANCH   2   4
ATOM      4  C   UNL     1      10.251 -34.878 -30.922  1.00  0.00     0.032 C 
BRANCH   4   5
ATOM      5  C   UNL     1      11.151 -35.830 -31.731  1.00  0.00     0.034 C 
BRANCH   5   6
ATOM      6  C   UNL     1      12.575 -35.854 -31.210  1.00  0.00    -0.077 C 
ATOM      7  C   UNL     1      13.065 -37.105 -30.525  1.00  0.00     0.039 C 
ATOM      8  C   UNL     1      13.426 -34.807 -31.300  1.00  0.00    -0.023 CG0
ATOM      9  G   UNL     1      13.109 -33.464 -31.915  1.00  0.00     0.000 G0
ENDBRANCH   5   6
ENDBRANCH   4   5
ENDBRANCH   2   4
BRANCH   1  10
ATOM     10  C   UNL     1      11.475 -32.421 -29.494  1.00  0.00     0.111 C 
BRANCH  10  11
ATOM     11  C   UNL     1      12.956 -32.192 -29.669  1.00  0.00     0.163 C 
ATOM     12  O   UNL     1      13.623 -31.829 -28.663  1.00  0.00    -0.294 OA
BRANCH  11  13
ATOM     13  C   UNL     1      13.627 -32.334 -30.999  1.00  0.00    -0.002 C 
ATOM     14  C   UNL     1      14.691 -31.552 -31.355  1.00  0.00    -0.069 C 
ATOM     15  C   UNL     1      15.295 -30.551 -30.395  1.00  0.00     0.039 C 
ATOM     16  C   UNL     1      15.340 -31.675 -32.716  1.00  0.00     0.039 C 
BRANCH  13  17
ATOM     17  C   UNL     1      13.123 -33.437 -31.912  1.00  0.00     0.066 CG0
ATOM     18  G   UNL     1      13.425 -34.785 -31.301  1.00  0.00     0.000 G0
ENDBRANCH  13  17
ENDBRANCH  11  13
ENDBRANCH  10  11
ENDBRANCH   1  10
TORSDOF 0
ENDMDL
MODEL 4
REMARK VINA RESULT:    -4.458      1.806      3.787
REMARK INTER + INTRA:          -4.513
REMARK INTER:                  -5.264
REMARK INTRA:                   0.752
REMARK UNBOUND:                 1.769
REMARK SMILES CC1=CCC(=C(C)C)C(=O)CC(C)=CCC1
REMARK SMILES IDX 12 1 14 2 13 3 15 4 16 5 2 6 1 7 3 8 11 10 9 11 10 12 5 13
REMARK SMILES IDX 6 14 7 15 8 16 4 17
REMARK H PARENT
REMARK Flexibility Score: 60.00
ROOT
ATOM      1  C   UNL     1      13.080 -33.719 -31.535  1.00  0.00    -0.070 C 
ATOM      2  C   UNL     1      13.629 -34.946 -31.700  1.00  0.00    -0.027 C 
ATOM      3  C   UNL     1      13.982 -32.524 -31.720  1.00  0.00     0.039 C 
ENDROOT
BRANCH   2   4
ATOM      4  C   UNL     1      12.895 -36.266 -31.667  1.00  0.00     0.032 C 
BRANCH   4   5
ATOM      5  C   UNL     1      12.061 -36.447 -30.385  1.00  0.00     0.034 C 
BRANCH   5   6
ATOM      6  C   UNL     1      12.922 -36.436 -29.136  1.00  0.00    -0.077 C 
ATOM      7  C   UNL     1      14.034 -37.448 -29.026  1.00  0.00     0.039 C 
ATOM      8  C   UNL     1      12.733 -35.586 -28.102  1.00  0.00    -0.023 CG0
ATOM      9  G   UNL     1      11.656 -34.532 -28.012  1.00  0.00     0.000 G0
ENDBRANCH   5   6
ENDBRANCH   4   5
ENDBRANCH   2   4
BRANCH   1  10
ATOM     10  C   UNL     1      11.608 -33.485 -31.239  1.00  0.00     0.111 C 
BRANCH  10  11
ATOM     11  C   UNL     1      11.411 -32.806 -29.907  1.00  0.00     0.163 C 
ATOM     12  O   UNL     1      10.634 -31.814 -29.855  1.00  0.00    -0.294 OA
BRANCH  11  13
ATOM     13  C   UNL     1      12.144 -33.244 -28.678  1.00  0.00    -0.002 C 
ATOM     14  C   UNL     1      13.158 -32.499 -28.142  1.00  0.00    -0.069 C 
ATOM     15  C   UNL     1      13.544 -31.155 -28.717  1.00  0.00     0.039 C 
ATOM     16  C   UNL     1      13.921 -32.968 -26.922  1.00  0.00     0.039 C 
BRANCH  13  17
ATOM     17  C   UNL     1      11.665 -34.518 -28.007  1.00  0.00     0.066 CG0
ATOM     18  G   UNL     1      12.736 -35.580 -28.100  1.00  0.00     0.000 G0
ENDBRANCH  13  17
ENDBRANCH  11  13
ENDBRANCH  10  11
ENDBRANCH   1  10
TORSDOF 0
ENDMDL
MODEL 5
REMARK VINA RESULT:    -4.447      1.294      3.403
REMARK INTER + INTRA:          -4.498
REMARK INTER:                  -5.377
REMARK INTRA:                   0.879
REMARK UNBOUND:                 1.769
REMARK SMILES CC1=CCC(=C(C)C)C(=O)CC(C)=CCC1
REMARK SMILES IDX 12 1 14 2 13 3 15 4 16 5 2 6 1 7 3 8 11 10 9 11 10 12 5 13
REMARK SMILES IDX 6 14 7 15 8 16 4 17
REMARK H PARENT
REMARK Flexibility Score: 60.00
ROOT
ATOM      1  C   UNL     1      10.458 -33.122 -29.098  1.00  0.00    -0.070 C 
ATOM      2  C   UNL     1      11.322 -33.150 -28.056  1.00  0.00    -0.027 C 
ATOM      3  C   UNL     1      10.071 -31.770 -29.643  1.00  0.00     0.039 C 
ENDROOT
BRANCH   2   4
ATOM      4  C   UNL     1      11.922 -34.384 -27.425  1.00  0.00     0.032 C 
BRANCH   4   5
ATOM      5  C   UNL     1      13.405 -34.576 -27.796  1.00  0.00     0.034 C 
BRANCH   5   6
ATOM      6  C   UNL     1      13.594 -35.622 -28.877  1.00  0.00    -0.077 C 
ATOM      7  C   UNL     1      13.897 -37.038 -28.457  1.00  0.00     0.039 C 
ATOM      8  C   UNL     1      13.531 -35.354 -30.201  1.00  0.00    -0.023 CG0
ATOM      9  G   UNL     1      13.275 -33.998 -30.815  1.00  0.00     0.000 G0
ENDBRANCH   5   6
ENDBRANCH   4   5
ENDBRANCH   2   4
BRANCH   1  10
ATOM     10  C   UNL     1       9.916 -34.367 -29.780  1.00  0.00     0.111 C 
BRANCH  10  11
ATOM     11  C   UNL     1      10.847 -34.857 -30.861  1.00  0.00     0.163 C 
ATOM     12  O   UNL     1      10.757 -36.062 -31.221  1.00  0.00    -0.294 OA
BRANCH  11  13
ATOM     13  C   UNL     1      11.892 -33.973 -31.467  1.00  0.00    -0.002 C 
ATOM     14  C   UNL     1      11.607 -33.132 -32.506  1.00  0.00    -0.069 C 
ATOM     15  C   UNL     1      10.204 -32.992 -33.052  1.00  0.00     0.039 C 
ATOM     16  C   UNL     1      12.678 -32.270 -33.139  1.00  0.00     0.039 C 
BRANCH  13  17
ATOM     17  C   UNL     1      13.269 -33.997 -30.829  1.00  0.00     0.066 CG0
ATOM     18  G   UNL     1      13.521 -35.349 -30.205  1.00  0.00     0.000 G0
ENDBRANCH  13  17
ENDBRANCH  11  13
ENDBRANCH  10  11
ENDBRANCH   1  10
TORSDOF 0
ENDMDL
MODEL 6
REMARK VINA RESULT:    -4.376      2.195      4.043
REMARK INTER + INTRA:          -4.397
REMARK INTER:                  -6.053
REMARK INTRA:                   1.656
REMARK UNBOUND:                 1.769
REMARK SMILES CC1=CCC(=C(C)C)C(=O)CC(C)=CCC1
REMARK SMILES IDX 12 1 14 2 13 3 15 4 16 5 2 6 1 7 3 8 11 10 9 11 10 12 5 13
REMARK SMILES IDX 6 14 7 15 8 16 4 17
REMARK H PARENT
REMARK Flexibility Score: 60.00
ROOT
ATOM      1  C   UNL     1      12.948 -32.254 -29.526  1.00  0.00    -0.070 C 
ATOM      2  C   UNL     1      13.642 -32.269 -30.688  1.00  0.00    -0.027 C 
ATOM      3  C   UNL     1      13.700 -31.877 -28.273  1.00  0.00     0.039 C 
ENDROOT
BRANCH   2   4
ATOM      4  C   UNL     1      13.073 -32.512 -32.066  1.00  0.00     0.032 C 
BRANCH   4   5
ATOM      5  C   UNL     1      12.311 -33.847 -32.165  1.00  0.00     0.034 C 
BRANCH   5   6
ATOM      6  C   UNL     1      10.820 -33.642 -32.349  1.00  0.00    -0.077 C 
ATOM      7  C   UNL     1      10.358 -32.561 -33.294  1.00  0.00     0.039 C 
ATOM      8  C   UNL     1       9.877 -34.357 -31.696  1.00  0.00    -0.023 CG0
ATOM      9  G   UNL     1      10.141 -35.452 -30.689  1.00  0.00     0.000 G0
ENDBRANCH   5   6
ENDBRANCH   4   5
ENDBRANCH   2   4
BRANCH   1  10
ATOM     10  C   UNL     1      11.457 -32.530 -29.428  1.00  0.00     0.111 C 
BRANCH  10  11
ATOM     11  C   UNL     1      11.183 -33.926 -28.924  1.00  0.00     0.163 C 
ATOM     12  O   UNL     1      10.881 -34.070 -27.709  1.00  0.00    -0.294 OA
BRANCH  11  13
ATOM     13  C   UNL     1      11.312 -35.127 -29.809  1.00  0.00    -0.002 C 
ATOM     14  C   UNL     1      12.421 -35.926 -29.780  1.00  0.00    -0.069 C 
ATOM     15  C   UNL     1      13.547 -35.684 -28.800  1.00  0.00     0.039 C 
ATOM     16  C   UNL     1      12.560 -37.115 -30.705  1.00  0.00     0.039 C 
BRANCH  13  17
ATOM     17  C   UNL     1      10.123 -35.464 -30.691  1.00  0.00     0.066 CG0
ATOM     18  G   UNL     1       9.894 -34.353 -31.688  1.00  0.00     0.000 G0
ENDBRANCH  13  17
ENDBRANCH  11  13
ENDBRANCH  10  11
ENDBRANCH   1  10
TORSDOF 0
ENDMDL
MODEL 7
REMARK VINA RESULT:    -4.312      2.162      4.747
REMARK INTER + INTRA:          -4.307
REMARK INTER:                  -5.211
REMARK INTRA:                   0.904
REMARK UNBOUND:                 1.769
REMARK SMILES CC1=CCC(=C(C)C)C(=O)CC(C)=CCC1
REMARK SMILES IDX 12 1 14 2 13 3 15 4 16 5 2 6 1 7 3 8 11 10 9 11 10 12 5 13
REMARK SMILES IDX 6 14 7 15 8 16 4 17
REMARK H PARENT
REMARK Flexibility Score: 60.00
ROOT
ATOM      1  C   UNL     1      12.905 -35.918 -29.397  1.00  0.00    -0.070 C 
ATOM      2  C   UNL     1      13.205 -36.163 -30.694  1.00  0.00    -0.027 C 
ATOM      3  C   UNL     1      13.978 -36.191 -28.372  1.00  0.00     0.039 C 
ENDROOT
BRANCH   2   4
ATOM      4  C   UNL     1      12.327 -35.864 -31.887  1.00  0.00     0.032 C 
BRANCH   4   5
ATOM      5  C   UNL     1      12.015 -34.363 -32.031  1.00  0.00     0.034 C 
BRANCH   5   6
ATOM      6  C   UNL     1      13.225 -33.496 -31.743  1.00  0.00    -0.077 C 
ATOM      7  C   UNL     1      14.440 -33.651 -32.622  1.00  0.00     0.039 C 
ATOM      8  C   UNL     1      13.287 -32.608 -30.726  1.00  0.00    -0.023 CG0
ATOM      9  G   UNL     1      12.192 -32.338 -29.722  1.00  0.00     0.000 G0
ENDBRANCH   5   6
ENDBRANCH   4   5
ENDBRANCH   2   4
BRANCH   1  10
ATOM     10  C   UNL     1      11.584 -35.327 -28.932  1.00  0.00     0.111 C 
BRANCH  10  11
ATOM     11  C   UNL     1      11.795 -34.176 -27.980  1.00  0.00     0.163 C 
ATOM     12  O   UNL     1      11.280 -34.254 -26.831  1.00  0.00    -0.294 OA
BRANCH  11  13
ATOM     13  C   UNL     1      12.546 -32.945 -28.380  1.00  0.00    -0.002 C 
ATOM     14  C   UNL     1      13.551 -32.433 -27.608  1.00  0.00    -0.069 C 
ATOM     15  C   UNL     1      14.012 -33.125 -26.345  1.00  0.00     0.039 C 
ATOM     16  C   UNL     1      14.279 -31.165 -28.000  1.00  0.00     0.039 C 
BRANCH  13  17
ATOM     17  C   UNL     1      12.191 -32.327 -29.720  1.00  0.00     0.066 CG0
ATOM     18  G   UNL     1      13.294 -32.597 -30.716  1.00  0.00     0.000 G0
ENDBRANCH  13  17
ENDBRANCH  11  13
ENDBRANCH  10  11
ENDBRANCH   1  10
TORSDOF 0
ENDMDL
MODEL 8
REMARK VINA RESULT:    -4.112      1.588      2.302
REMARK INTER + INTRA:          -4.025
REMARK INTER:                  -4.889
REMARK INTRA:                   0.864
REMARK UNBOUND:                 1.769
REMARK SMILES CC1=CCC(=C(C)C)C(=O)CC(C)=CCC1
REMARK SMILES IDX 12 1 14 2 13 3 15 4 16 5 2 6 1 7 3 8 11 10 9 11 10 12 5 13
REMARK SMILES IDX 6 14 7 15 8 16 4 17
REMARK H PARENT
REMARK Flexibility Score: 60.00
ROOT
ATOM      1  C   UNL     1      12.793 -32.591 -30.926  1.00  0.00    -0.070 C 
ATOM      2  C   UNL     1      13.571 -32.154 -29.909  1.00  0.00    -0.027 C 
ATOM      3  C   UNL     1      13.478 -32.943 -32.224  1.00  0.00     0.039 C 
ENDROOT
BRANCH   2   4
ATOM      4  C   UNL     1      13.116 -31.849 -28.502  1.00  0.00     0.032 C 
BRANCH   4   5
ATOM      5  C   UNL     1      13.612 -32.890 -27.481  1.00  0.00     0.034 C 
BRANCH   5   6
ATOM      6  C   UNL     1      12.514 -33.849 -27.062  1.00  0.00    -0.077 C 
ATOM      7  C   UNL     1      11.756 -33.557 -25.792  1.00  0.00     0.039 C 
ATOM      8  C   UNL     1      12.190 -34.967 -27.749  1.00  0.00    -0.023 CG0
ATOM      9  G   UNL     1      12.856 -35.446 -29.018  1.00  0.00     0.000 G0
ENDBRANCH   5   6
ENDBRANCH   4   5
ENDBRANCH   2   4
BRANCH   1  10
ATOM     10  C   UNL     1      11.293 -32.806 -30.810  1.00  0.00     0.111 C 
BRANCH  10  11
ATOM     11  C   UNL     1      10.971 -34.118 -30.140  1.00  0.00     0.163 C 
ATOM     12  O   UNL     1       9.897 -34.202 -29.483  1.00  0.00    -0.294 OA
BRANCH  11  13
ATOM     13  C   UNL     1      11.906 -35.286 -30.192  1.00  0.00    -0.002 C 
ATOM     14  C   UNL     1      11.955 -36.120 -31.274  1.00  0.00    -0.069 C 
ATOM     15  C   UNL     1      11.119 -35.867 -32.509  1.00  0.00     0.039 C 
ATOM     16  C   UNL     1      12.876 -37.321 -31.303  1.00  0.00     0.039 C 
BRANCH  13  17
ATOM     17  C   UNL     1      12.855 -35.462 -29.021  1.00  0.00     0.066 CG0
ATOM     18  G   UNL     1      12.203 -34.961 -27.754  1.00  0.00     0.000 G0
ENDBRANCH  13  17
ENDBRANCH  11  13
ENDBRANCH  10  11
ENDBRANCH   1  10
TORSDOF 0
ENDMDL
MODEL 9
REMARK VINA RESULT:    -3.918      1.654      4.567
REMARK INTER + INTRA:          -3.751
REMARK INTER:                  -4.565
REMARK INTRA:                   0.813
REMARK UNBOUND:                 1.769
REMARK SMILES CC1=CCC(=C(C)C)C(=O)CC(C)=CCC1
REMARK SMILES IDX 12 1 14 2 13 3 15 4 16 5 2 6 1 7 3 8 11 10 9 11 10 12 5 13
REMARK SMILES IDX 6 14 7 15 8 16 4 17
REMARK H PARENT
REMARK Flexibility Score: 60.00
ROOT
ATOM      1  C   UNL     1      12.466 -34.040 -28.397  1.00  0.00    -0.070 C 
ATOM      2  C   UNL     1      13.380 -35.039 -28.402  1.00  0.00    -0.027 C 
ATOM      3  C   UNL     1      12.976 -32.632 -28.210  1.00  0.00     0.039 C 
ENDROOT
BRANCH   2   4
ATOM      4  C   UNL     1      13.109 -36.499 -28.676  1.00  0.00     0.032 C 
BRANCH   4   5
ATOM      5  C   UNL     1      13.822 -37.006 -29.943  1.00  0.00     0.034 C 
BRANCH   5   6
ATOM      6  C   UNL     1      12.851 -37.274 -31.077  1.00  0.00    -0.077 C 
ATOM      7  C   UNL     1      12.457 -38.702 -31.359  1.00  0.00     0.039 C 
ATOM      8  C   UNL     1      12.336 -36.307 -31.870  1.00  0.00    -0.023 CG0
ATOM      9  G   UNL     1      12.637 -34.831 -31.768  1.00  0.00     0.000 G0
ENDBRANCH   5   6
ENDBRANCH   4   5
ENDBRANCH   2   4
BRANCH   1  10
ATOM     10  C   UNL     1      10.981 -34.254 -28.632  1.00  0.00     0.111 C 
BRANCH  10  11
ATOM     11  C   UNL     1      10.700 -34.694 -30.047  1.00  0.00     0.163 C 
ATOM     12  O   UNL     1       9.878 -35.634 -30.225  1.00  0.00    -0.294 OA
BRANCH  11  13
ATOM     13  C   UNL     1      11.404 -34.086 -31.220  1.00  0.00    -0.002 C 
ATOM     14  C   UNL     1      11.012 -32.890 -31.753  1.00  0.00    -0.069 C 
ATOM     15  C   UNL     1       9.892 -32.078 -31.141  1.00  0.00     0.039 C 
ATOM     16  C   UNL     1      11.704 -32.300 -32.962  1.00  0.00     0.039 C 
BRANCH  13  17
ATOM     17  C   UNL     1      12.623 -34.820 -31.749  1.00  0.00     0.066 CG0
ATOM     18  G   UNL     1      12.317 -36.293 -31.879  1.00  0.00     0.000 G0
ENDBRANCH  13  17
ENDBRANCH  11  13
ENDBRANCH  10  11
ENDBRANCH   1  10
TORSDOF 0
ENDMDL
