MODEL 1
REMARK VINA RESULT:    -7.459      0.000      0.000
REMARK INTER + INTRA:         -12.153
REMARK INTER:                 -11.819
REMARK INTRA:                  -0.334
REMARK UNBOUND:                -0.334
REMARK SMILES C[C@H]1O[C@H](O[C@@H]2[C@@H](Oc3cc(O)c4c(c3)O[C@@H](c3ccc(O)cc3)CC4=O)O[C@@H](CO)[C@H](O)[C@H]2O)[C@@H](O)[C@@H](O)[C@H]1O
REMARK SMILES IDX 6 1 34 2 32 3 29 4 28 5 7 6 5 7 4 8 1 9 2 10 40 11 3 12
REMARK SMILES IDX 38 13 36 14 41 15 39 17 37 19 35 21 8 23 9 24 10 25 15 26
REMARK SMILES IDX 11 27 14 28 13 29 16 30 26 31 17 32 27 33 25 34 12 35 18 37
REMARK SMILES IDX 19 38 24 39 20 40 23 41 21 42 22 43 33 45 30 47 31 48
REMARK H PARENT 41 16 39 18 37 20 35 22 12 36 22 44 33 46 31 49
REMARK Flexibility Score: inf
ROOT
ATOM      1  C   UNL     1     144.402 145.462 148.823  1.00  0.00     0.221 C 
ATOM      2  C   UNL     1     142.888 145.760 148.783  1.00  0.00     0.181 C 
ATOM      3  C   UNL     1     142.233 145.780 150.191  1.00  0.00     0.177 C 
ATOM      4  C   UNL     1     143.193 146.375 151.265  1.00  0.00     0.179 C 
ATOM      5  O   UNL     1     144.251 147.095 150.654  1.00  0.00    -0.332 OA
ATOM      6  C   UNL     1     145.124 146.210 149.973  1.00  0.00     0.339 C 
ENDROOT
BRANCH   1   7
ATOM      7  O   UNL     1     144.586 144.064 148.977  1.00  0.00    -0.337 OA
BRANCH   7   8
ATOM      8  C   UNL     1     143.621 143.308 148.243  1.00  0.00     0.282 C 
ATOM      9  C   UNL     1     145.854 141.734 145.759  1.00  0.00     0.041 C 
ATOM     10  C   UNL     1     145.259 142.031 147.137  1.00  0.00     0.150 C 
ATOM     11  C   UNL     1     144.840 140.716 147.837  1.00  0.00     0.174 C 
ATOM     12  O   UNL     1     144.144 142.890 146.980  1.00  0.00    -0.344 OA
ATOM     13  C   UNL     1     144.262 141.050 149.219  1.00  0.00     0.179 C 
ATOM     14  C   UNL     1     143.147 142.105 149.092  1.00  0.00     0.202 C 
BRANCH  11  15
ATOM     15  O   UNL     1     143.862 140.033 147.086  1.00  0.00    -0.388 OA
ATOM     16  H   UNL     1     144.133 139.081 147.046  1.00  0.00     0.211 HD
ENDBRANCH  11  15
BRANCH  13  17
ATOM     17  O   UNL     1     143.783 139.875 149.839  1.00  0.00    -0.387 OA
ATOM     18  H   UNL     1     144.297 139.120 149.452  1.00  0.00     0.211 HD
ENDBRANCH  13  17
BRANCH  14  19
ATOM     19  O   UNL     1     142.002 141.536 148.505  1.00  0.00    -0.385 OA
ATOM     20  H   UNL     1     141.646 142.193 147.852  1.00  0.00     0.211 HD
ENDBRANCH  14  19
ENDBRANCH   7   8
ENDBRANCH   1   7
BRANCH   2  21
ATOM     21  O   UNL     1     142.649 146.966 148.086  1.00  0.00    -0.387 OA
ATOM     22  H   UNL     1     143.108 147.691 148.556  1.00  0.00     0.211 HD
ENDBRANCH   2  21
BRANCH   6  23
ATOM     23  O   UNL     1     146.200 146.976 149.424  1.00  0.00    -0.462 OA
BRANCH  23  24
ATOM     24  C   UNL     1     146.995 147.876 150.147  1.00  0.00     0.130 A 
ATOM     25  C   UNL     1     146.488 148.651 151.207  1.00  0.00     0.093 A 
ATOM     26  C   UNL     1     148.338 147.998 149.803  1.00  0.00     0.094 A 
ATOM     27  C   UNL     1     147.323 149.505 151.941  1.00  0.00     0.133 A 
ATOM     28  C   UNL     1     149.190 148.838 150.516  1.00  0.00     0.138 A 
ATOM     29  C   UNL     1     148.703 149.588 151.608  1.00  0.00     0.102 A 
ATOM     30  O   UNL     1     150.530 148.939 150.122  1.00  0.00    -0.484 OA
ATOM     31  C   UNL     1     149.690 150.428 152.334  1.00  0.00     0.174 C 
ATOM     32  C   UNL     1     151.544 149.522 150.954  1.00  0.00     0.211 C 
ATOM     33  O   UNL     1     149.497 150.802 153.519  1.00  0.00    -0.294 OA
ATOM     34  C   UNL     1     150.988 150.777 151.649  1.00  0.00     0.131 C 
BRANCH  27  35
ATOM     35  O   UNL     1     146.729 150.249 152.961  1.00  0.00    -0.507 OA
ATOM     36  H   UNL     1     145.902 150.843 152.847  1.00  0.00     0.293 HD
ENDBRANCH  27  35
BRANCH  32  37
ATOM     37  C   UNL     1     152.798 149.731 150.120  1.00  0.00    -0.007 A 
ATOM     38  C   UNL     1     152.975 148.913 148.982  1.00  0.00     0.011 A 
ATOM     39  C   UNL     1     153.798 150.676 150.438  1.00  0.00     0.011 A 
ATOM     40  C   UNL     1     154.129 149.026 148.201  1.00  0.00     0.046 A 
ATOM     41  C   UNL     1     154.950 150.791 149.646  1.00  0.00     0.046 A 
ATOM     42  C   UNL     1     155.119 149.962 148.530  1.00  0.00     0.115 A 
BRANCH  42  43
ATOM     43  O   UNL     1     156.261 150.050 147.734  1.00  0.00    -0.508 OA
ATOM     44  H   UNL     1     157.190 149.923 148.122  1.00  0.00     0.293 HD
ENDBRANCH  42  43
ENDBRANCH  32  37
ENDBRANCH  23  24
ENDBRANCH   6  23
BRANCH   3  45
ATOM     45  O   UNL     1     141.875 144.464 150.563  1.00  0.00    -0.387 OA
ATOM     46  H   UNL     1     140.985 144.273 150.178  1.00  0.00     0.211 HD
ENDBRANCH   3  45
BRANCH   4  47
ATOM     47  C   UNL     1     142.463 147.320 152.227  1.00  0.00     0.191 C 
BRANCH  47  48
ATOM     48  O   UNL     1     142.264 146.706 153.473  1.00  0.00    -0.394 OA
ATOM     49  H   UNL     1     141.788 145.867 153.294  1.00  0.00     0.210 HD
ENDBRANCH  47  48
ENDBRANCH   4  47
TORSDOF 14
ENDMDL
MODEL 2
REMARK VINA RESULT:    -6.750      2.142      8.888
REMARK INTER + INTRA:         -11.031
REMARK INTER:                  -9.186
REMARK INTRA:                  -1.845
REMARK UNBOUND:                -0.334
REMARK SMILES C[C@H]1O[C@H](O[C@@H]2[C@@H](Oc3cc(O)c4c(c3)O[C@@H](c3ccc(O)cc3)CC4=O)O[C@@H](CO)[C@H](O)[C@H]2O)[C@@H](O)[C@@H](O)[C@H]1O
REMARK SMILES IDX 6 1 34 2 32 3 29 4 28 5 7 6 5 7 4 8 1 9 2 10 40 11 3 12
REMARK SMILES IDX 38 13 36 14 41 15 39 17 37 19 35 21 8 23 9 24 10 25 15 26
REMARK SMILES IDX 11 27 14 28 13 29 16 30 26 31 17 32 27 33 25 34 12 35 18 37
REMARK SMILES IDX 19 38 24 39 20 40 23 41 21 42 22 43 33 45 30 47 31 48
REMARK H PARENT 41 16 39 18 37 20 35 22 12 36 22 44 33 46 31 49
REMARK Flexibility Score: inf
ROOT
ATOM      1  C   UNL     1     148.801 149.302 150.949  1.00  0.00     0.221 C 
ATOM      2  C   UNL     1     149.333 149.057 152.378  1.00  0.00     0.181 C 
ATOM      3  C   UNL     1     150.176 150.242 152.926  1.00  0.00     0.177 C 
ATOM      4  C   UNL     1     149.620 151.616 152.444  1.00  0.00     0.179 C 
ATOM      5  O   UNL     1     148.293 151.484 151.962  1.00  0.00    -0.332 OA
ATOM      6  C   UNL     1     148.277 150.747 150.751  1.00  0.00     0.339 C 
ENDROOT
BRANCH   1   7
ATOM      7  O   UNL     1     149.845 149.044 150.026  1.00  0.00    -0.337 OA
BRANCH   7   8
ATOM      8  C   UNL     1     149.914 147.665 149.659  1.00  0.00     0.282 C 
ATOM      9  C   UNL     1     148.612 147.893 146.211  1.00  0.00     0.041 C 
ATOM     10  C   UNL     1     149.583 148.113 147.373  1.00  0.00     0.150 C 
ATOM     11  C   UNL     1     151.006 147.648 146.980  1.00  0.00     0.174 C 
ATOM     12  O   UNL     1     149.117 147.397 148.503  1.00  0.00    -0.344 OA
ATOM     13  C   UNL     1     151.955 147.895 148.161  1.00  0.00     0.179 C 
ATOM     14  C   UNL     1     151.391 147.256 149.443  1.00  0.00     0.202 C 
BRANCH  11  15
ATOM     15  O   UNL     1     151.018 146.273 146.665  1.00  0.00    -0.388 OA
ATOM     16  H   UNL     1     150.323 146.124 145.974  1.00  0.00     0.211 HD
ENDBRANCH  11  15
BRANCH  13  17
ATOM     17  O   UNL     1     153.239 147.389 147.862  1.00  0.00    -0.387 OA
ATOM     18  H   UNL     1     153.250 146.446 148.166  1.00  0.00     0.211 HD
ENDBRANCH  13  17
BRANCH  14  19
ATOM     19  O   UNL     1     151.487 145.854 149.373  1.00  0.00    -0.385 OA
ATOM     20  H   UNL     1     150.890 145.553 148.640  1.00  0.00     0.211 HD
ENDBRANCH  14  19
ENDBRANCH   7   8
ENDBRANCH   1   7
BRANCH   2  21
ATOM     21  O   UNL     1     148.264 148.741 153.247  1.00  0.00    -0.387 OA
ATOM     22  H   UNL     1     147.577 148.270 152.734  1.00  0.00     0.211 HD
ENDBRANCH   2  21
BRANCH   6  23
ATOM     23  O   UNL     1     146.929 150.690 150.278  1.00  0.00    -0.462 OA
BRANCH  23  24
ATOM     24  C   UNL     1     145.945 149.817 150.764  1.00  0.00     0.130 A 
ATOM     25  C   UNL     1     145.248 150.053 151.962  1.00  0.00     0.093 A 
ATOM     26  C   UNL     1     145.647 148.677 150.021  1.00  0.00     0.094 A 
ATOM     27  C   UNL     1     144.235 149.183 152.392  1.00  0.00     0.133 A 
ATOM     28  C   UNL     1     144.646 147.798 150.424  1.00  0.00     0.138 A 
ATOM     29  C   UNL     1     143.909 148.045 151.602  1.00  0.00     0.102 A 
ATOM     30  O   UNL     1     144.393 146.656 149.653  1.00  0.00    -0.484 OA
ATOM     31  C   UNL     1     142.835 147.075 151.936  1.00  0.00     0.174 C 
ATOM     32  C   UNL     1     143.206 145.864 149.802  1.00  0.00     0.211 C 
ATOM     33  O   UNL     1     141.875 147.383 152.687  1.00  0.00    -0.294 OA
ATOM     34  C   UNL     1     142.867 145.710 151.294  1.00  0.00     0.131 C 
BRANCH  27  35
ATOM     35  O   UNL     1     143.611 149.486 153.603  1.00  0.00    -0.507 OA
ATOM     36  H   UNL     1     143.247 150.408 153.859  1.00  0.00     0.293 HD
ENDBRANCH  27  35
BRANCH  32  37
ATOM     37  C   UNL     1     143.388 144.566 149.030  1.00  0.00    -0.007 A 
ATOM     38  C   UNL     1     142.511 143.498 149.322  1.00  0.00     0.011 A 
ATOM     39  C   UNL     1     144.400 144.368 148.063  1.00  0.00     0.011 A 
ATOM     40  C   UNL     1     142.657 142.265 148.678  1.00  0.00     0.046 A 
ATOM     41  C   UNL     1     144.536 143.131 147.414  1.00  0.00     0.046 A 
ATOM     42  C   UNL     1     143.668 142.077 147.727  1.00  0.00     0.115 A 
BRANCH  42  43
ATOM     43  O   UNL     1     143.792 140.836 147.104  1.00  0.00    -0.508 OA
ATOM     44  H   UNL     1     143.122 140.520 146.410  1.00  0.00     0.293 HD
ENDBRANCH  42  43
ENDBRANCH  32  37
ENDBRANCH  23  24
ENDBRANCH   6  23
BRANCH   3  45
ATOM     45  O   UNL     1     151.515 150.104 152.497  1.00  0.00    -0.387 OA
ATOM     46  H   UNL     1     151.889 149.297 152.928  1.00  0.00     0.211 HD
ENDBRANCH   3  45
BRANCH   4  47
ATOM     47  C   UNL     1     149.620 152.660 153.566  1.00  0.00     0.191 C 
BRANCH  47  48
ATOM     48  O   UNL     1     150.902 152.796 154.121  1.00  0.00    -0.394 OA
ATOM     49  H   UNL     1     150.804 152.638 155.085  1.00  0.00     0.210 HD
ENDBRANCH  47  48
ENDBRANCH   4  47
TORSDOF 14
ENDMDL
MODEL 3
REMARK VINA RESULT:    -6.467      5.934     12.654
REMARK INTER + INTRA:         -10.582
REMARK INTER:                 -10.122
REMARK INTRA:                  -0.460
REMARK UNBOUND:                -0.334
REMARK SMILES C[C@H]1O[C@H](O[C@@H]2[C@@H](Oc3cc(O)c4c(c3)O[C@@H](c3ccc(O)cc3)CC4=O)O[C@@H](CO)[C@H](O)[C@H]2O)[C@@H](O)[C@@H](O)[C@H]1O
REMARK SMILES IDX 6 1 34 2 32 3 29 4 28 5 7 6 5 7 4 8 1 9 2 10 40 11 3 12
REMARK SMILES IDX 38 13 36 14 41 15 39 17 37 19 35 21 8 23 9 24 10 25 15 26
REMARK SMILES IDX 11 27 14 28 13 29 16 30 26 31 17 32 27 33 25 34 12 35 18 37
REMARK SMILES IDX 19 38 24 39 20 40 23 41 21 42 22 43 33 45 30 47 31 48
REMARK H PARENT 41 16 39 18 37 20 35 22 12 36 22 44 33 46 31 49
REMARK Flexibility Score: inf
ROOT
ATOM      1  C   UNL     1     150.321 154.874 156.758  1.00  0.00     0.221 C 
ATOM      2  C   UNL     1     149.318 154.886 157.931  1.00  0.00     0.181 C 
ATOM      3  C   UNL     1     147.954 155.533 157.561  1.00  0.00     0.177 C 
ATOM      4  C   UNL     1     147.547 155.216 156.090  1.00  0.00     0.179 C 
ATOM      5  O   UNL     1     148.297 154.125 155.582  1.00  0.00    -0.332 OA
ATOM      6  C   UNL     1     149.654 154.494 155.411  1.00  0.00     0.339 C 
ENDROOT
BRANCH   1   7
ATOM      7  O   UNL     1     150.910 156.160 156.651  1.00  0.00    -0.337 OA
BRANCH   7   8
ATOM      8  C   UNL     1     151.857 156.408 157.691  1.00  0.00     0.282 C 
ATOM      9  C   UNL     1     154.247 158.525 155.835  1.00  0.00     0.041 C 
ATOM     10  C   UNL     1     152.924 158.132 156.497  1.00  0.00     0.150 C 
ATOM     11  C   UNL     1     152.474 159.228 157.493  1.00  0.00     0.174 C 
ATOM     12  O   UNL     1     153.093 156.892 157.160  1.00  0.00    -0.344 OA
ATOM     13  C   UNL     1     151.140 158.809 158.126  1.00  0.00     0.179 C 
ATOM     14  C   UNL     1     151.252 157.393 158.721  1.00  0.00     0.202 C 
BRANCH  11  15
ATOM     15  O   UNL     1     153.429 159.404 158.515  1.00  0.00    -0.388 OA
ATOM     16  H   UNL     1     153.035 159.045 159.351  1.00  0.00     0.211 HD
ENDBRANCH  11  15
BRANCH  13  17
ATOM     17  O   UNL     1     150.757 159.746 159.110  1.00  0.00    -0.387 OA
ATOM     18  H   UNL     1     150.613 160.608 158.641  1.00  0.00     0.211 HD
ENDBRANCH  13  17
BRANCH  14  19
ATOM     19  O   UNL     1     152.050 157.412 159.879  1.00  0.00    -0.385 OA
ATOM     20  H   UNL     1     152.433 156.503 159.990  1.00  0.00     0.211 HD
ENDBRANCH  14  19
ENDBRANCH   7   8
ENDBRANCH   1   7
BRANCH   2  21
ATOM     21  O   UNL     1     149.146 153.578 158.437  1.00  0.00    -0.387 OA
ATOM     22  H   UNL     1     148.350 153.568 159.005  1.00  0.00     0.211 HD
ENDBRANCH   2  21
BRANCH   6  23
ATOM     23  O   UNL     1     150.354 153.382 154.846  1.00  0.00    -0.462 OA
BRANCH  23  24
ATOM     24  C   UNL     1     149.791 152.442 153.970  1.00  0.00     0.130 A 
ATOM     25  C   UNL     1     148.433 152.079 154.021  1.00  0.00     0.093 A 
ATOM     26  C   UNL     1     150.614 151.854 153.013  1.00  0.00     0.094 A 
ATOM     27  C   UNL     1     147.894 151.172 153.098  1.00  0.00     0.133 A 
ATOM     28  C   UNL     1     150.103 150.951 152.084  1.00  0.00     0.138 A 
ATOM     29  C   UNL     1     148.734 150.611 152.096  1.00  0.00     0.102 A 
ATOM     30  O   UNL     1     150.973 150.374 151.149  1.00  0.00    -0.484 OA
ATOM     31  C   UNL     1     148.270 149.669 151.045  1.00  0.00     0.174 C 
ATOM     32  C   UNL     1     150.511 149.685 149.978  1.00  0.00     0.211 C 
ATOM     33  O   UNL     1     147.063 149.609 150.696  1.00  0.00    -0.294 OA
ATOM     34  C   UNL     1     149.291 148.817 150.333  1.00  0.00     0.131 C 
BRANCH  27  35
ATOM     35  O   UNL     1     146.541 150.855 153.236  1.00  0.00    -0.507 OA
ATOM     36  H   UNL     1     145.916 151.257 153.941  1.00  0.00     0.293 HD
ENDBRANCH  27  35
BRANCH  32  37
ATOM     37  C   UNL     1     151.684 148.948 149.353  1.00  0.00    -0.007 A 
ATOM     38  C   UNL     1     152.940 149.594 149.349  1.00  0.00     0.011 A 
ATOM     39  C   UNL     1     151.576 147.671 148.756  1.00  0.00     0.011 A 
ATOM     40  C   UNL     1     154.048 148.986 148.747  1.00  0.00     0.046 A 
ATOM     41  C   UNL     1     152.692 147.063 148.162  1.00  0.00     0.046 A 
ATOM     42  C   UNL     1     153.927 147.723 148.153  1.00  0.00     0.115 A 
BRANCH  42  43
ATOM     43  O   UNL     1     155.047 147.143 147.557  1.00  0.00    -0.508 OA
ATOM     44  H   UNL     1     154.959 146.442 146.830  1.00  0.00     0.293 HD
ENDBRANCH  42  43
ENDBRANCH  32  37
ENDBRANCH  23  24
ENDBRANCH   6  23
BRANCH   3  45
ATOM     45  O   UNL     1     148.036 156.933 157.731  1.00  0.00    -0.387 OA
ATOM     46  H   UNL     1     147.482 157.175 158.513  1.00  0.00     0.211 HD
ENDBRANCH   3  45
BRANCH   4  47
ATOM     47  C   UNL     1     146.058 154.871 155.969  1.00  0.00     0.191 C 
BRANCH  47  48
ATOM     48  O   UNL     1     145.364 155.244 157.131  1.00  0.00    -0.394 OA
ATOM     49  H   UNL     1     145.203 154.417 157.634  1.00  0.00     0.210 HD
ENDBRANCH  47  48
ENDBRANCH   4  47
TORSDOF 14
ENDMDL
MODEL 4
REMARK VINA RESULT:    -5.848      1.693      2.966
REMARK INTER + INTRA:          -9.600
REMARK INTER:                  -9.292
REMARK INTRA:                  -0.309
REMARK UNBOUND:                -0.334
REMARK SMILES C[C@H]1O[C@H](O[C@@H]2[C@@H](Oc3cc(O)c4c(c3)O[C@@H](c3ccc(O)cc3)CC4=O)O[C@@H](CO)[C@H](O)[C@H]2O)[C@@H](O)[C@@H](O)[C@H]1O
REMARK SMILES IDX 6 1 34 2 32 3 29 4 28 5 7 6 5 7 4 8 1 9 2 10 40 11 3 12
REMARK SMILES IDX 38 13 36 14 41 15 39 17 37 19 35 21 8 23 9 24 10 25 15 26
REMARK SMILES IDX 11 27 14 28 13 29 16 30 26 31 17 32 27 33 25 34 12 35 18 37
REMARK SMILES IDX 19 38 24 39 20 40 23 41 21 42 22 43 33 45 30 47 31 48
REMARK H PARENT 41 16 39 18 37 20 35 22 12 36 22 44 33 46 31 49
REMARK Flexibility Score: inf
ROOT
ATOM      1  C   UNL     1     144.227 145.866 148.949  1.00  0.00     0.221 C 
ATOM      2  C   UNL     1     142.686 145.952 148.989  1.00  0.00     0.181 C 
ATOM      3  C   UNL     1     142.100 145.748 150.414  1.00  0.00     0.177 C 
ATOM      4  C   UNL     1     143.019 146.369 151.508  1.00  0.00     0.179 C 
ATOM      5  O   UNL     1     143.940 147.284 150.937  1.00  0.00    -0.332 OA
ATOM      6  C   UNL     1     144.892 146.598 150.143  1.00  0.00     0.339 C 
ENDROOT
BRANCH   1   7
ATOM      7  O   UNL     1     144.606 144.500 148.958  1.00  0.00    -0.337 OA
BRANCH   7   8
ATOM      8  C   UNL     1     143.793 143.708 148.091  1.00  0.00     0.282 C 
ATOM      9  C   UNL     1     146.445 141.916 146.249  1.00  0.00     0.041 C 
ATOM     10  C   UNL     1     145.584 142.325 147.446  1.00  0.00     0.150 C 
ATOM     11  C   UNL     1     144.987 141.073 148.132  1.00  0.00     0.174 C 
ATOM     12  O   UNL     1     144.555 143.189 146.999  1.00  0.00    -0.344 OA
ATOM     13  C   UNL     1     144.143 141.518 149.334  1.00  0.00     0.179 C 
ATOM     14  C   UNL     1     143.114 142.579 148.902  1.00  0.00     0.202 C 
BRANCH  11  15
ATOM     15  O   UNL     1     144.166 140.352 147.240  1.00  0.00    -0.388 OA
ATOM     16  H   UNL     1     143.702 139.653 147.767  1.00  0.00     0.211 HD
ENDBRANCH  11  15
BRANCH  13  17
ATOM     17  O   UNL     1     143.508 140.400 149.919  1.00  0.00    -0.387 OA
ATOM     18  H   UNL     1     143.594 140.506 150.901  1.00  0.00     0.211 HD
ENDBRANCH  13  17
BRANCH  14  19
ATOM     19  O   UNL     1     142.099 141.987 148.128  1.00  0.00    -0.385 OA
ATOM     20  H   UNL     1     141.556 141.420 148.734  1.00  0.00     0.211 HD
ENDBRANCH  14  19
ENDBRANCH   7   8
ENDBRANCH   1   7
BRANCH   2  21
ATOM     21  O   UNL     1     142.252 147.172 148.423  1.00  0.00    -0.387 OA
ATOM     22  H   UNL     1     141.467 147.480 148.918  1.00  0.00     0.211 HD
ENDBRANCH   2  21
BRANCH   6  23
ATOM     23  O   UNL     1     145.827 147.554 149.637  1.00  0.00    -0.462 OA
BRANCH  23  24
ATOM     24  C   UNL     1     147.055 147.237 149.039  1.00  0.00     0.130 A 
ATOM     25  C   UNL     1     147.212 146.144 148.168  1.00  0.00     0.093 A 
ATOM     26  C   UNL     1     148.155 148.045 149.316  1.00  0.00     0.094 A 
ATOM     27  C   UNL     1     148.443 145.885 147.549  1.00  0.00     0.133 A 
ATOM     28  C   UNL     1     149.388 147.811 148.714  1.00  0.00     0.138 A 
ATOM     29  C   UNL     1     149.549 146.743 147.806  1.00  0.00     0.102 A 
ATOM     30  O   UNL     1     150.470 148.641 149.036  1.00  0.00    -0.484 OA
ATOM     31  C   UNL     1     150.889 146.591 147.183  1.00  0.00     0.174 C 
ATOM     32  C   UNL     1     151.677 148.683 148.261  1.00  0.00     0.211 C 
ATOM     33  O   UNL     1     151.048 145.975 146.098  1.00  0.00    -0.294 OA
ATOM     34  C   UNL     1     152.073 147.258 147.838  1.00  0.00     0.131 C 
BRANCH  27  35
ATOM     35  O   UNL     1     148.512 144.767 146.717  1.00  0.00    -0.507 OA
ATOM     36  H   UNL     1     148.455 143.795 147.036  1.00  0.00     0.293 HD
ENDBRANCH  27  35
BRANCH  32  37
ATOM     37  C   UNL     1     152.729 149.455 149.041  1.00  0.00    -0.007 A 
ATOM     38  C   UNL     1     152.350 150.016 150.281  1.00  0.00     0.011 A 
ATOM     39  C   UNL     1     154.048 149.661 148.578  1.00  0.00     0.011 A 
ATOM     40  C   UNL     1     153.261 150.775 151.023  1.00  0.00     0.046 A 
ATOM     41  C   UNL     1     154.960 150.416 149.331  1.00  0.00     0.046 A 
ATOM     42  C   UNL     1     154.564 150.979 150.551  1.00  0.00     0.115 A 
BRANCH  42  43
ATOM     43  O   UNL     1     155.449 151.744 151.311  1.00  0.00    -0.508 OA
ATOM     44  H   UNL     1     155.348 151.831 152.316  1.00  0.00     0.293 HD
ENDBRANCH  42  43
ENDBRANCH  32  37
ENDBRANCH  23  24
ENDBRANCH   6  23
BRANCH   3  45
ATOM     45  O   UNL     1     141.943 144.367 150.665  1.00  0.00    -0.387 OA
ATOM     46  H   UNL     1     141.205 144.260 151.314  1.00  0.00     0.211 HD
ENDBRANCH   3  45
BRANCH   4  47
ATOM     47  C   UNL     1     142.213 147.109 152.582  1.00  0.00     0.191 C 
BRANCH  47  48
ATOM     48  O   UNL     1     141.910 146.255 153.655  1.00  0.00    -0.394 OA
ATOM     49  H   UNL     1     141.325 145.555 153.293  1.00  0.00     0.210 HD
ENDBRANCH  47  48
ENDBRANCH   4  47
TORSDOF 14
ENDMDL
MODEL 5
REMARK VINA RESULT:    -5.743      5.342      8.480
REMARK INTER + INTRA:          -9.435
REMARK INTER:                  -8.971
REMARK INTRA:                  -0.463
REMARK UNBOUND:                -0.334
REMARK SMILES C[C@H]1O[C@H](O[C@@H]2[C@@H](Oc3cc(O)c4c(c3)O[C@@H](c3ccc(O)cc3)CC4=O)O[C@@H](CO)[C@H](O)[C@H]2O)[C@@H](O)[C@@H](O)[C@H]1O
REMARK SMILES IDX 6 1 34 2 32 3 29 4 28 5 7 6 5 7 4 8 1 9 2 10 40 11 3 12
REMARK SMILES IDX 38 13 36 14 41 15 39 17 37 19 35 21 8 23 9 24 10 25 15 26
REMARK SMILES IDX 11 27 14 28 13 29 16 30 26 31 17 32 27 33 25 34 12 35 18 37
REMARK SMILES IDX 19 38 24 39 20 40 23 41 21 42 22 43 33 45 30 47 31 48
REMARK H PARENT 41 16 39 18 37 20 35 22 12 36 22 44 33 46 31 49
REMARK Flexibility Score: inf
ROOT
ATOM      1  C   UNL     1     149.104 150.482 151.199  1.00  0.00     0.221 C 
ATOM      2  C   UNL     1     147.775 150.566 150.418  1.00  0.00     0.181 C 
ATOM      3  C   UNL     1     146.586 149.898 151.164  1.00  0.00     0.177 C 
ATOM      4  C   UNL     1     146.686 150.100 152.706  1.00  0.00     0.179 C 
ATOM      5  O   UNL     1     147.593 151.144 153.021  1.00  0.00    -0.332 OA
ATOM      6  C   UNL     1     148.921 150.757 152.714  1.00  0.00     0.339 C 
ENDROOT
BRANCH   1   7
ATOM      7  O   UNL     1     149.657 149.189 151.015  1.00  0.00    -0.337 OA
BRANCH   7   8
ATOM      8  C   UNL     1     149.655 148.791 149.642  1.00  0.00     0.282 C 
ATOM      9  C   UNL     1     153.126 149.684 148.752  1.00  0.00     0.041 C 
ATOM     10  C   UNL     1     151.996 148.928 149.455  1.00  0.00     0.150 C 
ATOM     11  C   UNL     1     152.163 147.402 149.254  1.00  0.00     0.174 C 
ATOM     12  O   UNL     1     150.755 149.368 148.935  1.00  0.00    -0.344 OA
ATOM     13  C   UNL     1     151.024 146.676 149.983  1.00  0.00     0.179 C 
ATOM     14  C   UNL     1     149.661 147.247 149.548  1.00  0.00     0.202 C 
BRANCH  11  15
ATOM     15  O   UNL     1     152.116 147.066 147.885  1.00  0.00    -0.388 OA
ATOM     16  H   UNL     1     152.142 146.078 147.824  1.00  0.00     0.211 HD
ENDBRANCH  11  15
BRANCH  13  17
ATOM     17  O   UNL     1     151.099 145.289 149.733  1.00  0.00    -0.387 OA
ATOM     18  H   UNL     1     150.371 144.866 150.257  1.00  0.00     0.211 HD
ENDBRANCH  13  17
BRANCH  14  19
ATOM     19  O   UNL     1     149.365 146.854 148.230  1.00  0.00    -0.385 OA
ATOM     20  H   UNL     1     149.005 145.930 148.271  1.00  0.00     0.211 HD
ENDBRANCH  14  19
ENDBRANCH   7   8
ENDBRANCH   1   7
BRANCH   2  21
ATOM     21  O   UNL     1     147.487 151.911 150.093  1.00  0.00    -0.387 OA
ATOM     22  H   UNL     1     147.978 152.144 149.280  1.00  0.00     0.211 HD
ENDBRANCH   2  21
BRANCH   6  23
ATOM     23  O   UNL     1     149.798 151.818 153.101  1.00  0.00    -0.462 OA
BRANCH  23  24
ATOM     24  C   UNL     1     149.451 152.876 153.953  1.00  0.00     0.130 A 
ATOM     25  C   UNL     1     148.140 153.066 154.427  1.00  0.00     0.093 A 
ATOM     26  C   UNL     1     150.448 153.764 154.346  1.00  0.00     0.094 A 
ATOM     27  C   UNL     1     147.838 154.106 155.317  1.00  0.00     0.133 A 
ATOM     28  C   UNL     1     150.176 154.805 155.230  1.00  0.00     0.138 A 
ATOM     29  C   UNL     1     148.875 154.982 155.747  1.00  0.00     0.102 A 
ATOM     30  O   UNL     1     151.208 155.683 155.585  1.00  0.00    -0.484 OA
ATOM     31  C   UNL     1     148.684 156.094 156.712  1.00  0.00     0.174 C 
ATOM     32  C   UNL     1     151.117 156.581 156.700  1.00  0.00     0.211 C 
ATOM     33  O   UNL     1     147.727 156.106 157.528  1.00  0.00    -0.294 OA
ATOM     34  C   UNL     1     149.710 157.199 156.756  1.00  0.00     0.131 C 
BRANCH  27  35
ATOM     35  O   UNL     1     146.507 154.232 155.719  1.00  0.00    -0.507 OA
ATOM     36  H   UNL     1     146.202 154.446 156.673  1.00  0.00     0.293 HD
ENDBRANCH  27  35
BRANCH  32  37
ATOM     37  C   UNL     1     152.269 157.571 156.622  1.00  0.00    -0.007 A 
ATOM     38  C   UNL     1     153.239 157.375 155.614  1.00  0.00     0.011 A 
ATOM     39  C   UNL     1     152.431 158.652 157.518  1.00  0.00     0.011 A 
ATOM     40  C   UNL     1     154.346 158.225 155.521  1.00  0.00     0.046 A 
ATOM     41  C   UNL     1     153.539 159.507 157.414  1.00  0.00     0.046 A 
ATOM     42  C   UNL     1     154.500 159.290 156.418  1.00  0.00     0.115 A 
BRANCH  42  43
ATOM     43  O   UNL     1     155.615 160.119 156.303  1.00  0.00    -0.508 OA
ATOM     44  H   UNL     1     156.305 159.983 155.572  1.00  0.00     0.293 HD
ENDBRANCH  42  43
ENDBRANCH  32  37
ENDBRANCH  23  24
ENDBRANCH   6  23
BRANCH   3  45
ATOM     45  O   UNL     1     146.567 148.515 150.875  1.00  0.00    -0.387 OA
ATOM     46  H   UNL     1     146.958 148.040 151.648  1.00  0.00     0.211 HD
ENDBRANCH   3  45
BRANCH   4  47
ATOM     47  C   UNL     1     145.328 150.441 153.329  1.00  0.00     0.191 C 
BRANCH  47  48
ATOM     48  O   UNL     1     144.279 149.924 152.552  1.00  0.00    -0.394 OA
ATOM     49  H   UNL     1     143.509 150.514 152.701  1.00  0.00     0.210 HD
ENDBRANCH  47  48
ENDBRANCH   4  47
TORSDOF 14
ENDMDL
MODEL 6
REMARK VINA RESULT:    -5.539      5.886     12.812
REMARK INTER + INTRA:          -9.112
REMARK INTER:                  -9.027
REMARK INTRA:                  -0.085
REMARK UNBOUND:                -0.334
REMARK SMILES C[C@H]1O[C@H](O[C@@H]2[C@@H](Oc3cc(O)c4c(c3)O[C@@H](c3ccc(O)cc3)CC4=O)O[C@@H](CO)[C@H](O)[C@H]2O)[C@@H](O)[C@@H](O)[C@H]1O
REMARK SMILES IDX 6 1 34 2 32 3 29 4 28 5 7 6 5 7 4 8 1 9 2 10 40 11 3 12
REMARK SMILES IDX 38 13 36 14 41 15 39 17 37 19 35 21 8 23 9 24 10 25 15 26
REMARK SMILES IDX 11 27 14 28 13 29 16 30 26 31 17 32 27 33 25 34 12 35 18 37
REMARK SMILES IDX 19 38 24 39 20 40 23 41 21 42 22 43 33 45 30 47 31 48
REMARK H PARENT 41 16 39 18 37 20 35 22 12 36 22 44 33 46 31 49
REMARK Flexibility Score: inf
ROOT
ATOM      1  C   UNL     1     149.974 155.131 156.580  1.00  0.00     0.221 C 
ATOM      2  C   UNL     1     148.605 155.814 156.785  1.00  0.00     0.181 C 
ATOM      3  C   UNL     1     148.417 157.079 155.904  1.00  0.00     0.177 C 
ATOM      4  C   UNL     1     149.090 156.915 154.508  1.00  0.00     0.179 C 
ATOM      5  O   UNL     1     149.364 155.551 154.236  1.00  0.00    -0.332 OA
ATOM      6  C   UNL     1     150.391 155.073 155.088  1.00  0.00     0.339 C 
ENDROOT
BRANCH   1   7
ATOM      7  O   UNL     1     150.952 155.845 157.318  1.00  0.00    -0.337 OA
BRANCH   7   8
ATOM      8  C   UNL     1     151.644 156.802 156.515  1.00  0.00     0.282 C 
ATOM      9  C   UNL     1     152.273 159.392 159.071  1.00  0.00     0.041 C 
ATOM     10  C   UNL     1     152.389 158.033 158.376  1.00  0.00     0.150 C 
ATOM     11  C   UNL     1     153.876 157.678 158.135  1.00  0.00     0.174 C 
ATOM     12  O   UNL     1     151.681 158.081 157.151  1.00  0.00    -0.344 OA
ATOM     13  C   UNL     1     153.955 156.306 157.451  1.00  0.00     0.179 C 
ATOM     14  C   UNL     1     153.066 156.282 156.194  1.00  0.00     0.202 C 
BRANCH  11  15
ATOM     15  O   UNL     1     154.495 158.636 157.307  1.00  0.00    -0.388 OA
ATOM     16  H   UNL     1     153.966 158.689 156.471  1.00  0.00     0.211 HD
ENDBRANCH  11  15
BRANCH  13  17
ATOM     17  O   UNL     1     155.297 156.002 157.132  1.00  0.00    -0.387 OA
ATOM     18  H   UNL     1     155.730 155.711 157.975  1.00  0.00     0.211 HD
ENDBRANCH  13  17
BRANCH  14  19
ATOM     19  O   UNL     1     153.637 157.068 155.177  1.00  0.00    -0.385 OA
ATOM     20  H   UNL     1     152.892 157.453 154.647  1.00  0.00     0.211 HD
ENDBRANCH  14  19
ENDBRANCH   7   8
ENDBRANCH   1   7
BRANCH   2  21
ATOM     21  O   UNL     1     147.562 154.883 156.577  1.00  0.00    -0.387 OA
ATOM     22  H   UNL     1     147.924 154.117 156.088  1.00  0.00     0.211 HD
ENDBRANCH   2  21
BRANCH   6  23
ATOM     23  O   UNL     1     150.668 153.714 154.737  1.00  0.00    -0.462 OA
BRANCH  23  24
ATOM     24  C   UNL     1     149.755 152.840 154.129  1.00  0.00     0.130 A 
ATOM     25  C   UNL     1     148.386 152.832 154.452  1.00  0.00     0.093 A 
ATOM     26  C   UNL     1     150.229 151.956 153.164  1.00  0.00     0.094 A 
ATOM     27  C   UNL     1     147.493 151.979 153.788  1.00  0.00     0.133 A 
ATOM     28  C   UNL     1     149.363 151.098 152.489  1.00  0.00     0.138 A 
ATOM     29  C   UNL     1     147.981 151.109 152.773  1.00  0.00     0.102 A 
ATOM     30  O   UNL     1     149.888 150.214 151.537  1.00  0.00    -0.484 OA
ATOM     31  C   UNL     1     147.128 150.189 151.978  1.00  0.00     0.174 C 
ATOM     32  C   UNL     1     149.070 149.522 150.584  1.00  0.00     0.211 C 
ATOM     33  O   UNL     1     145.894 150.385 151.838  1.00  0.00    -0.294 OA
ATOM     34  C   UNL     1     147.780 149.031 151.264  1.00  0.00     0.131 C 
BRANCH  27  35
ATOM     35  O   UNL     1     146.157 152.024 154.187  1.00  0.00    -0.507 OA
ATOM     36  H   UNL     1     145.819 151.793 155.127  1.00  0.00     0.293 HD
ENDBRANCH  27  35
BRANCH  32  37
ATOM     37  C   UNL     1     149.910 148.447 149.911  1.00  0.00    -0.007 A 
ATOM     38  C   UNL     1     151.193 148.810 149.446  1.00  0.00     0.011 A 
ATOM     39  C   UNL     1     149.464 147.122 149.707  1.00  0.00     0.011 A 
ATOM     40  C   UNL     1     151.995 147.878 148.779  1.00  0.00     0.046 A 
ATOM     41  C   UNL     1     150.276 146.189 149.044  1.00  0.00     0.046 A 
ATOM     42  C   UNL     1     151.540 146.569 148.575  1.00  0.00     0.115 A 
BRANCH  42  43
ATOM     43  O   UNL     1     152.360 145.662 147.903  1.00  0.00    -0.508 OA
ATOM     44  H   UNL     1     152.826 145.909 147.037  1.00  0.00     0.293 HD
ENDBRANCH  42  43
ENDBRANCH  32  37
ENDBRANCH  23  24
ENDBRANCH   6  23
BRANCH   3  45
ATOM     45  O   UNL     1     148.975 158.198 156.562  1.00  0.00    -0.387 OA
ATOM     46  H   UNL     1     148.674 159.010 156.085  1.00  0.00     0.211 HD
ENDBRANCH   3  45
BRANCH   4  47
ATOM     47  C   UNL     1     148.209 157.461 153.378  1.00  0.00     0.191 C 
BRANCH  47  48
ATOM     48  O   UNL     1     148.971 158.213 152.470  1.00  0.00    -0.394 OA
ATOM     49  H   UNL     1     148.348 158.836 152.037  1.00  0.00     0.210 HD
ENDBRANCH  47  48
ENDBRANCH   4  47
TORSDOF 14
ENDMDL
MODEL 7
REMARK VINA RESULT:    -5.266      2.437      8.676
REMARK INTER + INTRA:          -8.678
REMARK INTER:                  -7.649
REMARK INTRA:                  -1.029
REMARK UNBOUND:                -0.334
REMARK SMILES C[C@H]1O[C@H](O[C@@H]2[C@@H](Oc3cc(O)c4c(c3)O[C@@H](c3ccc(O)cc3)CC4=O)O[C@@H](CO)[C@H](O)[C@H]2O)[C@@H](O)[C@@H](O)[C@H]1O
REMARK SMILES IDX 6 1 34 2 32 3 29 4 28 5 7 6 5 7 4 8 1 9 2 10 40 11 3 12
REMARK SMILES IDX 38 13 36 14 41 15 39 17 37 19 35 21 8 23 9 24 10 25 15 26
REMARK SMILES IDX 11 27 14 28 13 29 16 30 26 31 17 32 27 33 25 34 12 35 18 37
REMARK SMILES IDX 19 38 24 39 20 40 23 41 21 42 22 43 33 45 30 47 31 48
REMARK H PARENT 41 16 39 18 37 20 35 22 12 36 22 44 33 46 31 49
REMARK Flexibility Score: inf
ROOT
ATOM      1  C   UNL     1     150.874 148.870 149.635  1.00  0.00     0.221 C 
ATOM      2  C   UNL     1     152.198 148.321 149.061  1.00  0.00     0.181 C 
ATOM      3  C   UNL     1     153.200 149.439 148.660  1.00  0.00     0.177 C 
ATOM      4  C   UNL     1     153.128 150.653 149.634  1.00  0.00     0.179 C 
ATOM      5  O   UNL     1     152.473 150.296 150.840  1.00  0.00    -0.332 OA
ATOM      6  C   UNL     1     151.095 150.059 150.604  1.00  0.00     0.339 C 
ENDROOT
BRANCH   1   7
ATOM      7  O   UNL     1     150.050 149.282 148.557  1.00  0.00    -0.337 OA
BRANCH   7   8
ATOM      8  C   UNL     1     148.805 148.582 148.531  1.00  0.00     0.282 C 
ATOM      9  C   UNL     1     148.085 148.770 144.914  1.00  0.00     0.041 C 
ATOM     10  C   UNL     1     148.823 148.356 146.189  1.00  0.00     0.150 C 
ATOM     11  C   UNL     1     148.978 146.817 146.245  1.00  0.00     0.174 C 
ATOM     12  O   UNL     1     148.099 148.827 147.312  1.00  0.00    -0.344 OA
ATOM     13  C   UNL     1     149.732 146.439 147.527  1.00  0.00     0.179 C 
ATOM     14  C   UNL     1     149.052 147.072 148.755  1.00  0.00     0.202 C 
BRANCH  11  15
ATOM     15  O   UNL     1     147.718 146.183 146.253  1.00  0.00    -0.388 OA
ATOM     16  H   UNL     1     147.032 146.891 146.144  1.00  0.00     0.211 HD
ENDBRANCH  11  15
BRANCH  13  17
ATOM     17  O   UNL     1     149.801 145.034 147.649  1.00  0.00    -0.387 OA
ATOM     18  H   UNL     1     149.160 144.660 146.992  1.00  0.00     0.211 HD
ENDBRANCH  13  17
BRANCH  14  19
ATOM     19  O   UNL     1     147.830 146.428 149.021  1.00  0.00    -0.385 OA
ATOM     20  H   UNL     1     147.261 146.527 148.214  1.00  0.00     0.211 HD
ENDBRANCH  14  19
ENDBRANCH   7   8
ENDBRANCH   1   7
BRANCH   2  21
ATOM     21  O   UNL     1     152.782 147.410 149.972  1.00  0.00    -0.387 OA
ATOM     22  H   UNL     1     153.282 147.920 150.641  1.00  0.00     0.211 HD
ENDBRANCH   2  21
BRANCH   6  23
ATOM     23  O   UNL     1     150.471 149.759 151.855  1.00  0.00    -0.462 OA
BRANCH  23  24
ATOM     24  C   UNL     1     149.099 149.885 152.118  1.00  0.00     0.130 A 
ATOM     25  C   UNL     1     148.584 150.851 153.000  1.00  0.00     0.093 A 
ATOM     26  C   UNL     1     148.220 149.021 151.471  1.00  0.00     0.094 A 
ATOM     27  C   UNL     1     147.202 150.982 153.201  1.00  0.00     0.133 A 
ATOM     28  C   UNL     1     146.843 149.129 151.652  1.00  0.00     0.138 A 
ATOM     29  C   UNL     1     146.310 150.122 152.501  1.00  0.00     0.102 A 
ATOM     30  O   UNL     1     145.998 148.227 150.992  1.00  0.00    -0.484 OA
ATOM     31  C   UNL     1     144.830 150.188 152.605  1.00  0.00     0.174 C 
ATOM     32  C   UNL     1     144.585 148.436 150.864  1.00  0.00     0.211 C 
ATOM     33  O   UNL     1     144.238 151.235 152.975  1.00  0.00    -0.294 OA
ATOM     34  C   UNL     1     144.019 148.988 152.185  1.00  0.00     0.131 C 
BRANCH  27  35
ATOM     35  O   UNL     1     146.782 151.954 154.109  1.00  0.00    -0.507 OA
ATOM     36  H   UNL     1     146.895 152.964 153.979  1.00  0.00     0.293 HD
ENDBRANCH  27  35
BRANCH  32  37
ATOM     37  C   UNL     1     143.946 147.152 150.360  1.00  0.00    -0.007 A 
ATOM     38  C   UNL     1     142.594 146.914 150.691  1.00  0.00     0.011 A 
ATOM     39  C   UNL     1     144.641 146.180 149.605  1.00  0.00     0.011 A 
ATOM     40  C   UNL     1     141.965 145.729 150.294  1.00  0.00     0.046 A 
ATOM     41  C   UNL     1     144.002 144.997 149.203  1.00  0.00     0.046 A 
ATOM     42  C   UNL     1     142.665 144.769 149.553  1.00  0.00     0.115 A 
BRANCH  42  43
ATOM     43  O   UNL     1     142.013 143.595 149.174  1.00  0.00    -0.508 OA
ATOM     44  H   UNL     1     142.523 142.801 148.803  1.00  0.00     0.293 HD
ENDBRANCH  42  43
ENDBRANCH  32  37
ENDBRANCH  23  24
ENDBRANCH   6  23
BRANCH   3  45
ATOM     45  O   UNL     1     152.915 149.877 147.347  1.00  0.00    -0.387 OA
ATOM     46  H   UNL     1     152.184 150.541 147.402  1.00  0.00     0.211 HD
ENDBRANCH   3  45
BRANCH   4  47
ATOM     47  C   UNL     1     154.521 151.189 149.987  1.00  0.00     0.191 C 
BRANCH  47  48
ATOM     48  O   UNL     1     154.461 152.032 151.108  1.00  0.00    -0.394 OA
ATOM     49  H   UNL     1     154.875 152.880 150.838  1.00  0.00     0.210 HD
ENDBRANCH  47  48
ENDBRANCH   4  47
TORSDOF 14
ENDMDL
MODEL 8
REMARK VINA RESULT:    -5.016      5.098      8.964
REMARK INTER + INTRA:          -8.282
REMARK INTER:                  -8.207
REMARK INTRA:                  -0.075
REMARK UNBOUND:                -0.334
REMARK SMILES C[C@H]1O[C@H](O[C@@H]2[C@@H](Oc3cc(O)c4c(c3)O[C@@H](c3ccc(O)cc3)CC4=O)O[C@@H](CO)[C@H](O)[C@H]2O)[C@@H](O)[C@@H](O)[C@H]1O
REMARK SMILES IDX 6 1 34 2 32 3 29 4 28 5 7 6 5 7 4 8 1 9 2 10 40 11 3 12
REMARK SMILES IDX 38 13 36 14 41 15 39 17 37 19 35 21 8 23 9 24 10 25 15 26
REMARK SMILES IDX 11 27 14 28 13 29 16 30 26 31 17 32 27 33 25 34 12 35 18 37
REMARK SMILES IDX 19 38 24 39 20 40 23 41 21 42 22 43 33 45 30 47 31 48
REMARK H PARENT 41 16 39 18 37 20 35 22 12 36 22 44 33 46 31 49
REMARK Flexibility Score: inf
ROOT
ATOM      1  C   UNL     1     149.169 150.340 150.827  1.00  0.00     0.221 C 
ATOM      2  C   UNL     1     147.873 150.613 150.034  1.00  0.00     0.181 C 
ATOM      3  C   UNL     1     146.643 149.847 150.593  1.00  0.00     0.177 C 
ATOM      4  C   UNL     1     146.688 149.740 152.147  1.00  0.00     0.179 C 
ATOM      5  O   UNL     1     147.603 150.675 152.692  1.00  0.00    -0.332 OA
ATOM      6  C   UNL     1     148.934 150.318 152.359  1.00  0.00     0.339 C 
ENDROOT
BRANCH   1   7
ATOM      7  O   UNL     1     149.701 149.093 150.411  1.00  0.00    -0.337 OA
BRANCH   7   8
ATOM      8  C   UNL     1     151.043 148.900 150.861  1.00  0.00     0.282 C 
ATOM      9  C   UNL     1     152.272 146.696 148.165  1.00  0.00     0.041 C 
ATOM     10  C   UNL     1     151.745 147.978 148.813  1.00  0.00     0.150 C 
ATOM     11  C   UNL     1     152.681 149.168 148.491  1.00  0.00     0.174 C 
ATOM     12  O   UNL     1     151.651 147.781 150.212  1.00  0.00    -0.344 OA
ATOM     13  C   UNL     1     152.116 150.437 149.143  1.00  0.00     0.179 C 
ATOM     14  C   UNL     1     151.856 150.198 150.642  1.00  0.00     0.202 C 
BRANCH  11  15
ATOM     15  O   UNL     1     153.980 148.937 148.991  1.00  0.00    -0.388 OA
ATOM     16  H   UNL     1     153.920 148.946 149.980  1.00  0.00     0.211 HD
ENDBRANCH  11  15
BRANCH  13  17
ATOM     17  O   UNL     1     153.004 151.517 148.946  1.00  0.00    -0.387 OA
ATOM     18  H   UNL     1     153.699 151.201 148.314  1.00  0.00     0.211 HD
ENDBRANCH  13  17
BRANCH  14  19
ATOM     19  O   UNL     1     153.074 150.115 151.341  1.00  0.00    -0.385 OA
ATOM     20  H   UNL     1     152.915 149.561 152.149  1.00  0.00     0.211 HD
ENDBRANCH  14  19
ENDBRANCH   7   8
ENDBRANCH   1   7
BRANCH   2  21
ATOM     21  O   UNL     1     147.628 152.004 149.970  1.00  0.00    -0.387 OA
ATOM     22  H   UNL     1     148.347 152.467 150.443  1.00  0.00     0.211 HD
ENDBRANCH   2  21
BRANCH   6  23
ATOM     23  O   UNL     1     149.818 151.257 152.977  1.00  0.00    -0.462 OA
BRANCH  23  24
ATOM     24  C   UNL     1     149.412 152.349 153.756  1.00  0.00     0.130 A 
ATOM     25  C   UNL     1     148.065 152.580 154.092  1.00  0.00     0.093 A 
ATOM     26  C   UNL     1     150.385 153.232 154.218  1.00  0.00     0.094 A 
ATOM     27  C   UNL     1     147.700 153.655 154.915  1.00  0.00     0.133 A 
ATOM     28  C   UNL     1     150.049 154.307 155.036  1.00  0.00     0.138 A 
ATOM     29  C   UNL     1     148.708 154.525 155.416  1.00  0.00     0.102 A 
ATOM     30  O   UNL     1     151.061 155.178 155.463  1.00  0.00    -0.484 OA
ATOM     31  C   UNL     1     148.448 155.673 156.322  1.00  0.00     0.174 C 
ATOM     32  C   UNL     1     150.880 156.115 156.534  1.00  0.00     0.211 C 
ATOM     33  O   UNL     1     147.416 155.730 157.039  1.00  0.00    -0.294 OA
ATOM     34  C   UNL     1     149.488 156.760 156.432  1.00  0.00     0.131 C 
BRANCH  27  35
ATOM     35  O   UNL     1     146.339 153.818 155.179  1.00  0.00    -0.507 OA
ATOM     36  H   UNL     1     145.731 153.098 155.580  1.00  0.00     0.293 HD
ENDBRANCH  27  35
BRANCH  32  37
ATOM     37  C   UNL     1     152.055 157.080 156.539  1.00  0.00    -0.007 A 
ATOM     38  C   UNL     1     152.049 158.119 157.495  1.00  0.00     0.011 A 
ATOM     39  C   UNL     1     153.130 157.005 155.625  1.00  0.00     0.011 A 
ATOM     40  C   UNL     1     153.080 159.065 157.520  1.00  0.00     0.046 A 
ATOM     41  C   UNL     1     154.165 157.952 155.660  1.00  0.00     0.046 A 
ATOM     42  C   UNL     1     154.137 158.986 156.604  1.00  0.00     0.115 A 
BRANCH  42  43
ATOM     43  O   UNL     1     155.148 159.946 156.650  1.00  0.00    -0.508 OA
ATOM     44  H   UNL     1     156.084 159.748 156.313  1.00  0.00     0.293 HD
ENDBRANCH  42  43
ENDBRANCH  32  37
ENDBRANCH  23  24
ENDBRANCH   6  23
BRANCH   3  45
ATOM     45  O   UNL     1     146.605 148.548 150.037  1.00  0.00    -0.387 OA
ATOM     46  H   UNL     1     145.676 148.217 150.108  1.00  0.00     0.211 HD
ENDBRANCH   3  45
BRANCH   4  47
ATOM     47  C   UNL     1     145.314 149.990 152.780  1.00  0.00     0.191 C 
BRANCH  47  48
ATOM     48  O   UNL     1     145.446 150.370 154.125  1.00  0.00    -0.394 OA
ATOM     49  H   UNL     1     145.640 151.332 154.122  1.00  0.00     0.210 HD
ENDBRANCH  47  48
ENDBRANCH   4  47
TORSDOF 14
ENDMDL
MODEL 9
REMARK VINA RESULT:    -4.823      2.106      9.828
REMARK INTER + INTRA:          -7.977
REMARK INTER:                  -7.521
REMARK INTRA:                  -0.456
REMARK UNBOUND:                -0.334
REMARK SMILES C[C@H]1O[C@H](O[C@@H]2[C@@H](Oc3cc(O)c4c(c3)O[C@@H](c3ccc(O)cc3)CC4=O)O[C@@H](CO)[C@H](O)[C@H]2O)[C@@H](O)[C@@H](O)[C@H]1O
REMARK SMILES IDX 6 1 34 2 32 3 29 4 28 5 7 6 5 7 4 8 1 9 2 10 40 11 3 12
REMARK SMILES IDX 38 13 36 14 41 15 39 17 37 19 35 21 8 23 9 24 10 25 15 26
REMARK SMILES IDX 11 27 14 28 13 29 16 30 26 31 17 32 27 33 25 34 12 35 18 37
REMARK SMILES IDX 19 38 24 39 20 40 23 41 21 42 22 43 33 45 30 47 31 48
REMARK H PARENT 41 16 39 18 37 20 35 22 12 36 22 44 33 46 31 49
REMARK Flexibility Score: inf
ROOT
ATOM      1  C   UNL     1     149.856 148.528 148.538  1.00  0.00     0.221 C 
ATOM      2  C   UNL     1     149.853 147.207 147.740  1.00  0.00     0.181 C 
ATOM      3  C   UNL     1     150.577 146.047 148.478  1.00  0.00     0.177 C 
ATOM      4  C   UNL     1     150.353 146.115 150.018  1.00  0.00     0.179 C 
ATOM      5  O   UNL     1     149.257 146.959 150.333  1.00  0.00    -0.332 OA
ATOM      6  C   UNL     1     149.574 148.310 150.047  1.00  0.00     0.339 C 
ENDROOT
BRANCH   1   7
ATOM      7  O   UNL     1     151.119 149.154 148.376  1.00  0.00    -0.337 OA
BRANCH   7   8
ATOM      8  C   UNL     1     151.934 149.034 149.543  1.00  0.00     0.282 C 
ATOM      9  C   UNL     1     155.047 147.811 147.978  1.00  0.00     0.041 C 
ATOM     10  C   UNL     1     153.918 148.791 148.301  1.00  0.00     0.150 C 
ATOM     11  C   UNL     1     154.500 150.140 148.789  1.00  0.00     0.174 C 
ATOM     12  O   UNL     1     153.082 148.219 149.291  1.00  0.00    -0.344 OA
ATOM     13  C   UNL     1     153.342 151.102 149.089  1.00  0.00     0.179 C 
ATOM     14  C   UNL     1     152.332 150.442 150.046  1.00  0.00     0.202 C 
BRANCH  11  15
ATOM     15  O   UNL     1     155.263 149.965 149.962  1.00  0.00    -0.388 OA
ATOM     16  H   UNL     1     156.174 150.307 149.773  1.00  0.00     0.211 HD
ENDBRANCH  11  15
BRANCH  13  17
ATOM     17  O   UNL     1     153.843 152.306 149.629  1.00  0.00    -0.387 OA
ATOM     18  H   UNL     1     153.404 153.044 149.133  1.00  0.00     0.211 HD
ENDBRANCH  13  17
BRANCH  14  19
ATOM     19  O   UNL     1     152.878 150.344 151.339  1.00  0.00    -0.385 OA
ATOM     20  H   UNL     1     152.269 150.828 151.955  1.00  0.00     0.211 HD
ENDBRANCH  14  19
ENDBRANCH   7   8
ENDBRANCH   1   7
BRANCH   2  21
ATOM     21  O   UNL     1     148.530 146.851 147.394  1.00  0.00    -0.387 OA
ATOM     22  H   UNL     1     147.936 147.125 148.121  1.00  0.00     0.211 HD
ENDBRANCH   2  21
BRANCH   6  23
ATOM     23  O   UNL     1     148.463 149.123 150.432  1.00  0.00    -0.462 OA
BRANCH  23  24
ATOM     24  C   UNL     1     147.152 148.658 150.610  1.00  0.00     0.130 A 
ATOM     25  C   UNL     1     146.220 149.317 151.432  1.00  0.00     0.093 A 
ATOM     26  C   UNL     1     146.763 147.502 149.938  1.00  0.00     0.094 A 
ATOM     27  C   UNL     1     144.903 148.851 151.549  1.00  0.00     0.133 A 
ATOM     28  C   UNL     1     145.461 147.018 150.036  1.00  0.00     0.138 A 
ATOM     29  C   UNL     1     144.505 147.694 150.823  1.00  0.00     0.102 A 
ATOM     30  O   UNL     1     145.120 145.842 149.354  1.00  0.00    -0.484 OA
ATOM     31  C   UNL     1     143.131 147.128 150.838  1.00  0.00     0.174 C 
ATOM     32  C   UNL     1     143.762 145.433 149.138  1.00  0.00     0.211 C 
ATOM     33  O   UNL     1     142.131 147.826 151.143  1.00  0.00    -0.294 OA
ATOM     34  C   UNL     1     142.932 145.696 150.407  1.00  0.00     0.131 C 
BRANCH  27  35
ATOM     35  O   UNL     1     144.053 149.556 152.402  1.00  0.00    -0.507 OA
ATOM     36  H   UNL     1     143.218 149.167 152.848  1.00  0.00     0.293 HD
ENDBRANCH  27  35
BRANCH  32  37
ATOM     37  C   UNL     1     143.761 143.998 148.635  1.00  0.00    -0.007 A 
ATOM     38  C   UNL     1     142.754 143.133 149.116  1.00  0.00     0.011 A 
ATOM     39  C   UNL     1     144.724 143.485 147.738  1.00  0.00     0.011 A 
ATOM     40  C   UNL     1     142.727 141.790 148.725  1.00  0.00     0.046 A 
ATOM     41  C   UNL     1     144.687 142.139 147.342  1.00  0.00     0.046 A 
ATOM     42  C   UNL     1     143.691 141.290 147.841  1.00  0.00     0.115 A 
BRANCH  42  43
ATOM     43  O   UNL     1     143.641 139.946 147.471  1.00  0.00    -0.508 OA
ATOM     44  H   UNL     1     144.044 139.220 148.053  1.00  0.00     0.293 HD
ENDBRANCH  42  43
ENDBRANCH  32  37
ENDBRANCH  23  24
ENDBRANCH   6  23
BRANCH   3  45
ATOM     45  O   UNL     1     151.962 146.107 148.205  1.00  0.00    -0.387 OA
ATOM     46  H   UNL     1     152.189 145.341 147.622  1.00  0.00     0.211 HD
ENDBRANCH   3  45
BRANCH   4  47
ATOM     47  C   UNL     1     150.080 144.732 150.621  1.00  0.00     0.191 C 
BRANCH  47  48
ATOM     48  O   UNL     1     151.242 144.205 151.205  1.00  0.00    -0.394 OA
ATOM     49  H   UNL     1     151.544 143.482 150.615  1.00  0.00     0.210 HD
ENDBRANCH  47  48
ENDBRANCH   4  47
TORSDOF 14
ENDMDL
