MODEL 1
REMARK VINA RESULT:    -3.291      0.000      0.000
REMARK INTER + INTRA:          -4.265
REMARK INTER:                  -4.060
REMARK INTRA:                  -0.204
REMARK UNBOUND:                -0.204
REMARK SMILES CCCCCC(=O)[O-]
REMARK SMILES IDX 4 1 5 2 6 3 7 4 8 5 3 6 2 7 1 8
REMARK H PARENT
REMARK Flexibility Score: inf
ROOT
ATOM      1  C   UNL     1       8.673  -4.266 -24.299  1.00  0.00     0.006 C 
ENDROOT
BRANCH   1   2
ATOM      2  C   UNL     1       8.042  -4.186 -22.900  1.00  0.00     0.053 C 
BRANCH   2   3
ATOM      3  C   UNL     1       7.405  -5.481 -22.498  1.00  0.00     0.041 C 
ATOM      4  O   UNL     1       7.037  -5.665 -21.308  1.00  0.00    -0.550 OA
ATOM      5  O   UNL     1       7.187  -6.473 -23.446  1.00  0.00    -0.550 OA
ENDBRANCH   2   3
ENDBRANCH   1   2
BRANCH   1   6
ATOM      6  C   UNL     1       8.020  -3.341 -25.343  1.00  0.00     0.000 C 
BRANCH   6   7
ATOM      7  C   UNL     1       6.691  -3.897 -25.877  1.00  0.00    -0.003 C 
ATOM      8  C   UNL     1       5.517  -3.024 -25.442  1.00  0.00     0.004 C 
ENDBRANCH   6   7
ENDBRANCH   1   6
TORSDOF 4
ENDMDL
MODEL 2
REMARK VINA RESULT:    -3.230     17.316     18.177
REMARK INTER + INTRA:          -4.190
REMARK INTER:                  -4.072
REMARK INTRA:                  -0.118
REMARK UNBOUND:                -0.204
REMARK SMILES CCCCCC(=O)[O-]
REMARK SMILES IDX 4 1 5 2 6 3 7 4 8 5 3 6 2 7 1 8
REMARK H PARENT
REMARK Flexibility Score: inf
ROOT
ATOM      1  C   UNL     1      21.360   5.612 -20.022  1.00  0.00     0.006 C 
ENDROOT
BRANCH   1   2
ATOM      2  C   UNL     1      19.996   5.931 -19.390  1.00  0.00     0.053 C 
BRANCH   2   3
ATOM      3  C   UNL     1      19.435   7.226 -19.894  1.00  0.00     0.041 C 
ATOM      4  O   UNL     1      19.732   7.641 -21.045  1.00  0.00    -0.550 OA
ATOM      5  O   UNL     1      18.557   7.957 -19.104  1.00  0.00    -0.550 OA
ENDBRANCH   2   3
ENDBRANCH   1   2
BRANCH   1   6
ATOM      6  C   UNL     1      22.370   4.966 -19.055  1.00  0.00     0.000 C 
BRANCH   6   7
ATOM      7  C   UNL     1      21.921   5.044 -17.589  1.00  0.00    -0.003 C 
ATOM      8  C   UNL     1      22.388   3.820 -16.806  1.00  0.00     0.004 C 
ENDBRANCH   6   7
ENDBRANCH   1   6
TORSDOF 4
ENDMDL
MODEL 3
REMARK VINA RESULT:    -3.203      2.521      4.011
REMARK INTER + INTRA:          -4.157
REMARK INTER:                  -4.022
REMARK INTRA:                  -0.135
REMARK UNBOUND:                -0.204
REMARK SMILES CCCCCC(=O)[O-]
REMARK SMILES IDX 4 1 5 2 6 3 7 4 8 5 3 6 2 7 1 8
REMARK H PARENT
REMARK Flexibility Score: inf
ROOT
ATOM      1  C   UNL     1       8.869  -4.361 -22.607  1.00  0.00     0.006 C 
ENDROOT
BRANCH   1   2
ATOM      2  C   UNL     1       7.704  -3.992 -23.538  1.00  0.00     0.053 C 
BRANCH   2   3
ATOM      3  C   UNL     1       8.155  -3.808 -24.955  1.00  0.00     0.041 C 
ATOM      4  O   UNL     1       7.442  -3.165 -25.770  1.00  0.00    -0.550 OA
ATOM      5  O   UNL     1       9.379  -4.319 -25.367  1.00  0.00    -0.550 OA
ENDBRANCH   2   3
ENDBRANCH   1   2
BRANCH   1   6
ATOM      6  C   UNL     1       8.645  -5.649 -21.793  1.00  0.00     0.000 C 
BRANCH   6   7
ATOM      7  C   UNL     1       7.162  -5.911 -21.493  1.00  0.00    -0.003 C 
ATOM      8  C   UNL     1       6.809  -7.380 -21.708  1.00  0.00     0.004 C 
ENDBRANCH   6   7
ENDBRANCH   1   6
TORSDOF 4
ENDMDL
MODEL 4
REMARK VINA RESULT:    -3.194      3.214      4.198
REMARK INTER + INTRA:          -4.145
REMARK INTER:                  -4.012
REMARK INTRA:                  -0.133
REMARK UNBOUND:                -0.204
REMARK SMILES CCCCCC(=O)[O-]
REMARK SMILES IDX 4 1 5 2 6 3 7 4 8 5 3 6 2 7 1 8
REMARK H PARENT
REMARK Flexibility Score: inf
ROOT
ATOM      1  C   UNL     1       8.495  -3.799 -25.069  1.00  0.00     0.006 C 
ENDROOT
BRANCH   1   2
ATOM      2  C   UNL     1       9.637  -4.827 -25.075  1.00  0.00     0.053 C 
BRANCH   2   3
ATOM      3  C   UNL     1      10.920  -4.235 -25.573  1.00  0.00     0.041 C 
ATOM      4  O   UNL     1      11.400  -3.208 -25.024  1.00  0.00    -0.550 OA
ATOM      5  O   UNL     1      11.604  -4.838 -26.621  1.00  0.00    -0.550 OA
ENDBRANCH   2   3
ENDBRANCH   1   2
BRANCH   1   6
ATOM      6  C   UNL     1       7.474  -3.993 -23.933  1.00  0.00     0.000 C 
BRANCH   6   7
ATOM      7  C   UNL     1       8.138  -4.324 -22.589  1.00  0.00    -0.003 C 
ATOM      8  C   UNL     1       7.386  -5.437 -21.863  1.00  0.00     0.004 C 
ENDBRANCH   6   7
ENDBRANCH   1   6
TORSDOF 4
ENDMDL
MODEL 5
REMARK VINA RESULT:    -3.192      2.025      2.360
REMARK INTER + INTRA:          -4.143
REMARK INTER:                  -3.973
REMARK INTRA:                  -0.170
REMARK UNBOUND:                -0.204
REMARK SMILES CCCCCC(=O)[O-]
REMARK SMILES IDX 4 1 5 2 6 3 7 4 8 5 3 6 2 7 1 8
REMARK H PARENT
REMARK Flexibility Score: inf
ROOT
ATOM      1  C   UNL     1       6.973  -5.204 -24.688  1.00  0.00     0.006 C 
ENDROOT
BRANCH   1   2
ATOM      2  C   UNL     1       7.424  -4.300 -23.530  1.00  0.00     0.053 C 
BRANCH   2   3
ATOM      3  C   UNL     1       8.891  -4.003 -23.590  1.00  0.00     0.041 C 
ATOM      4  O   UNL     1       9.617  -4.184 -22.578  1.00  0.00    -0.550 OA
ATOM      5  O   UNL     1       9.463  -3.557 -24.775  1.00  0.00    -0.550 OA
ENDBRANCH   2   3
ENDBRANCH   1   2
BRANCH   1   6
ATOM      6  C   UNL     1       6.143  -4.484 -25.767  1.00  0.00     0.000 C 
BRANCH   6   7
ATOM      7  C   UNL     1       5.795  -3.039 -25.382  1.00  0.00    -0.003 C 
ATOM      8  C   UNL     1       4.386  -2.673 -25.840  1.00  0.00     0.004 C 
ENDBRANCH   6   7
ENDBRANCH   1   6
TORSDOF 4
ENDMDL
MODEL 6
REMARK VINA RESULT:    -3.170      2.169      3.118
REMARK INTER + INTRA:          -4.115
REMARK INTER:                  -4.038
REMARK INTRA:                  -0.077
REMARK UNBOUND:                -0.204
REMARK SMILES CCCCCC(=O)[O-]
REMARK SMILES IDX 4 1 5 2 6 3 7 4 8 5 3 6 2 7 1 8
REMARK H PARENT
REMARK Flexibility Score: inf
ROOT
ATOM      1  C   UNL     1       6.711  -4.461 -25.662  1.00  0.00     0.006 C 
ENDROOT
BRANCH   1   2
ATOM      2  C   UNL     1       7.782  -3.383 -25.437  1.00  0.00     0.053 C 
BRANCH   2   3
ATOM      3  C   UNL     1       8.991  -3.930 -24.742  1.00  0.00     0.041 C 
ATOM      4  O   UNL     1       9.940  -4.419 -25.411  1.00  0.00    -0.550 OA
ATOM      5  O   UNL     1       9.085  -3.870 -23.358  1.00  0.00    -0.550 OA
ENDBRANCH   2   3
ENDBRANCH   1   2
BRANCH   1   6
ATOM      6  C   UNL     1       5.362  -3.918 -26.168  1.00  0.00     0.000 C 
BRANCH   6   7
ATOM      7  C   UNL     1       4.942  -2.621 -25.461  1.00  0.00    -0.003 C 
ATOM      8  C   UNL     1       3.528  -2.210 -25.862  1.00  0.00     0.004 C 
ENDBRANCH   6   7
ENDBRANCH   1   6
TORSDOF 4
ENDMDL
MODEL 7
REMARK VINA RESULT:    -3.158     11.827     12.825
REMARK INTER + INTRA:          -4.101
REMARK INTER:                  -3.861
REMARK INTRA:                  -0.240
REMARK UNBOUND:                -0.204
REMARK SMILES CCCCCC(=O)[O-]
REMARK SMILES IDX 4 1 5 2 6 3 7 4 8 5 3 6 2 7 1 8
REMARK H PARENT
REMARK Flexibility Score: inf
ROOT
ATOM      1  C   UNL     1      20.856  -3.343 -20.465  1.00  0.00     0.006 C 
ENDROOT
BRANCH   1   2
ATOM      2  C   UNL     1      19.813  -2.262 -20.141  1.00  0.00     0.053 C 
BRANCH   2   3
ATOM      3  C   UNL     1      18.652  -2.816 -19.374  1.00  0.00     0.041 C 
ATOM      4  O   UNL     1      17.687  -2.071 -19.058  1.00  0.00    -0.550 OA
ATOM      5  O   UNL     1      18.619  -4.163 -19.038  1.00  0.00    -0.550 OA
ENDBRANCH   2   3
ENDBRANCH   1   2
BRANCH   1   6
ATOM      6  C   UNL     1      20.952  -3.705 -21.958  1.00  0.00     0.000 C 
BRANCH   6   7
ATOM      7  C   UNL     1      20.381  -5.096 -22.270  1.00  0.00    -0.003 C 
ATOM      8  C   UNL     1      18.875  -5.030 -22.510  1.00  0.00     0.004 C 
ENDBRANCH   6   7
ENDBRANCH   1   6
TORSDOF 4
ENDMDL
MODEL 8
REMARK VINA RESULT:    -3.117      3.211      4.332
REMARK INTER + INTRA:          -4.050
REMARK INTER:                  -3.936
REMARK INTRA:                  -0.113
REMARK UNBOUND:                -0.204
REMARK SMILES CCCCCC(=O)[O-]
REMARK SMILES IDX 4 1 5 2 6 3 7 4 8 5 3 6 2 7 1 8
REMARK H PARENT
REMARK Flexibility Score: inf
ROOT
ATOM      1  C   UNL     1       8.148  -4.186 -22.748  1.00  0.00     0.006 C 
ENDROOT
BRANCH   1   2
ATOM      2  C   UNL     1       9.675  -4.186 -22.582  1.00  0.00     0.053 C 
BRANCH   2   3
ATOM      3  C   UNL     1      10.359  -3.434 -23.682  1.00  0.00     0.041 C 
ATOM      4  O   UNL     1      11.492  -2.918 -23.491  1.00  0.00    -0.550 OA
ATOM      5  O   UNL     1       9.760  -3.332 -24.931  1.00  0.00    -0.550 OA
ENDBRANCH   2   3
ENDBRANCH   1   2
BRANCH   1   6
ATOM      6  C   UNL     1       7.515  -5.589 -22.791  1.00  0.00     0.000 C 
BRANCH   6   7
ATOM      7  C   UNL     1       7.044  -6.070 -21.411  1.00  0.00    -0.003 C 
ATOM      8  C   UNL     1       7.601  -7.455 -21.092  1.00  0.00     0.004 C 
ENDBRANCH   6   7
ENDBRANCH   1   6
TORSDOF 4
ENDMDL
MODEL 9
REMARK VINA RESULT:    -3.112      1.769      2.540
REMARK INTER + INTRA:          -4.044
REMARK INTER:                  -3.961
REMARK INTRA:                  -0.084
REMARK UNBOUND:                -0.204
REMARK SMILES CCCCCC(=O)[O-]
REMARK SMILES IDX 4 1 5 2 6 3 7 4 8 5 3 6 2 7 1 8
REMARK H PARENT
REMARK Flexibility Score: inf
ROOT
ATOM      1  C   UNL     1       8.599  -5.339 -22.047  1.00  0.00     0.006 C 
ENDROOT
BRANCH   1   2
ATOM      2  C   UNL     1       7.287  -5.949 -21.529  1.00  0.00     0.053 C 
BRANCH   2   3
ATOM      3  C   UNL     1       7.444  -7.395 -21.171  1.00  0.00     0.041 C 
ATOM      4  O   UNL     1       6.545  -8.224 -21.470  1.00  0.00    -0.550 OA
ATOM      5  O   UNL     1       8.599  -7.833 -20.535  1.00  0.00    -0.550 OA
ENDBRANCH   2   3
ENDBRANCH   1   2
BRANCH   1   6
ATOM      6  C   UNL     1       8.411  -4.133 -22.984  1.00  0.00     0.000 C 
BRANCH   6   7
ATOM      7  C   UNL     1       7.293  -4.351 -24.015  1.00  0.00    -0.003 C 
ATOM      8  C   UNL     1       7.626  -3.668 -25.338  1.00  0.00     0.004 C 
ENDBRANCH   6   7
ENDBRANCH   1   6
TORSDOF 4
ENDMDL
