MODEL 1
REMARK VINA RESULT:    -5.829      0.000      0.000
REMARK INTER + INTRA:         -12.556
REMARK INTER:                 -10.599
REMARK INTRA:                  -1.957
REMARK UNBOUND:                -1.957
REMARK SMILES CCCCCCCCCCCCCC[C@H](C)C(=O)[O-]
REMARK SMILES IDX 9 1 10 2 11 3 12 4 13 5 14 6 15 7 16 8 17 9 18 10 19 11 8 12
REMARK SMILES IDX 7 13 6 14 5 15 4 16 3 17 2 18 1 19
REMARK H PARENT
REMARK Flexibility Score: inf
ROOT
ATOM      1  C   UNL     1      -0.021 -32.538 -52.049  1.00  0.00     0.000 C 
ENDROOT
BRANCH   1   2
ATOM      2  C   UNL     1       0.663 -31.169 -51.932  1.00  0.00     0.000 C 
BRANCH   2   3
ATOM      3  C   UNL     1      -0.275 -30.074 -51.398  1.00  0.00     0.000 C 
BRANCH   3   4
ATOM      4  C   UNL     1      -0.991 -29.278 -52.511  1.00  0.00     0.000 C 
BRANCH   4   5
ATOM      5  C   UNL     1      -2.377 -28.778 -52.069  1.00  0.00     0.001 C 
BRANCH   5   6
ATOM      6  C   UNL     1      -3.534 -29.397 -52.875  1.00  0.00     0.009 C 
BRANCH   6   7
ATOM      7  C   UNL     1      -4.554 -28.361 -53.408  1.00  0.00     0.032 C 
ATOM      8  C   UNL     1      -5.441 -27.841 -52.270  1.00  0.00     0.014 C 
BRANCH   7   9
ATOM      9  C   UNL     1      -5.425 -28.930 -54.495  1.00  0.00     0.044 C 
ATOM     10  O   UNL     1      -6.397 -28.271 -54.950  1.00  0.00    -0.550 OA
ATOM     11  O   UNL     1      -5.136 -30.179 -55.029  1.00  0.00    -0.550 OA
ENDBRANCH   7   9
ENDBRANCH   6   7
ENDBRANCH   5   6
ENDBRANCH   4   5
ENDBRANCH   3   4
ENDBRANCH   2   3
ENDBRANCH   1   2
BRANCH   1  12
ATOM     12  C   UNL     1      -0.669 -32.714 -53.428  1.00  0.00     0.000 C 
BRANCH  12  13
ATOM     13  C   UNL     1      -2.192 -32.870 -53.303  1.00  0.00    -0.000 C 
BRANCH  13  14
ATOM     14  C   UNL     1      -2.668 -32.904 -51.841  1.00  0.00    -0.000 C 
BRANCH  14  15
ATOM     15  C   UNL     1      -4.202 -32.870 -51.720  1.00  0.00    -0.000 C 
BRANCH  15  16
ATOM     16  C   UNL     1      -4.690 -31.944 -50.590  1.00  0.00    -0.000 C 
BRANCH  16  17
ATOM     17  C   UNL     1      -6.050 -31.261 -50.841  1.00  0.00    -0.000 C 
BRANCH  17  18
ATOM     18  C   UNL     1      -6.578 -30.414 -49.671  1.00  0.00    -0.003 C 
ATOM     19  C   UNL     1      -7.771 -31.055 -48.963  1.00  0.00     0.004 C 
ENDBRANCH  17  18
ENDBRANCH  16  17
ENDBRANCH  15  16
ENDBRANCH  14  15
ENDBRANCH  13  14
ENDBRANCH  12  13
ENDBRANCH   1  12
TORSDOF 14
ENDMDL
MODEL 2
REMARK VINA RESULT:    -5.683      2.354      5.385
REMARK INTER + INTRA:         -12.290
REMARK INTER:                 -10.958
REMARK INTRA:                  -1.332
REMARK UNBOUND:                -1.957
REMARK SMILES CCCCCCCCCCCCCC[C@H](C)C(=O)[O-]
REMARK SMILES IDX 9 1 10 2 11 3 12 4 13 5 14 6 15 7 16 8 17 9 18 10 19 11 8 12
REMARK SMILES IDX 7 13 6 14 5 15 4 16 3 17 2 18 1 19
REMARK H PARENT
REMARK Flexibility Score: inf
ROOT
ATOM      1  C   UNL     1      -5.302 -28.888 -54.262  1.00  0.00     0.000 C 
ENDROOT
BRANCH   1   2
ATOM      2  C   UNL     1      -5.346 -30.411 -54.082  1.00  0.00     0.000 C 
BRANCH   2   3
ATOM      3  C   UNL     1      -5.268 -30.843 -52.607  1.00  0.00     0.000 C 
BRANCH   3   4
ATOM      4  C   UNL     1      -5.003 -32.352 -52.420  1.00  0.00     0.000 C 
BRANCH   4   5
ATOM      5  C   UNL     1      -4.410 -32.671 -51.037  1.00  0.00     0.001 C 
BRANCH   5   6
ATOM      6  C   UNL     1      -2.903 -32.988 -51.077  1.00  0.00     0.009 C 
BRANCH   6   7
ATOM      7  C   UNL     1      -2.132 -32.240 -52.192  1.00  0.00     0.032 C 
ATOM      8  C   UNL     1      -1.598 -33.229 -53.236  1.00  0.00     0.014 C 
BRANCH   7   9
ATOM      9  C   UNL     1      -0.988 -31.430 -51.645  1.00  0.00     0.044 C 
ATOM     10  O   UNL     1      -1.117 -30.195 -51.436  1.00  0.00    -0.550 OA
ATOM     11  O   UNL     1       0.212 -32.055 -51.330  1.00  0.00    -0.550 OA
ENDBRANCH   7   9
ENDBRANCH   6   7
ENDBRANCH   5   6
ENDBRANCH   4   5
ENDBRANCH   3   4
ENDBRANCH   2   3
ENDBRANCH   1   2
BRANCH   1  12
ATOM     12  C   UNL     1      -4.927 -28.187 -52.951  1.00  0.00     0.000 C 
BRANCH  12  13
ATOM     13  C   UNL     1      -5.938 -27.082 -52.610  1.00  0.00    -0.000 C 
BRANCH  13  14
ATOM     14  C   UNL     1      -6.406 -27.135 -51.147  1.00  0.00    -0.000 C 
BRANCH  14  15
ATOM     15  C   UNL     1      -5.765 -28.296 -50.365  1.00  0.00    -0.000 C 
BRANCH  15  16
ATOM     16  C   UNL     1      -6.754 -28.987 -49.408  1.00  0.00    -0.000 C 
BRANCH  16  17
ATOM     17  C   UNL     1      -7.077 -30.457 -49.746  1.00  0.00    -0.000 C 
BRANCH  17  18
ATOM     18  C   UNL     1      -7.876 -31.211 -48.670  1.00  0.00    -0.003 C 
ATOM     19  C   UNL     1      -9.096 -30.432 -48.179  1.00  0.00     0.004 C 
ENDBRANCH  17  18
ENDBRANCH  16  17
ENDBRANCH  15  16
ENDBRANCH  14  15
ENDBRANCH  13  14
ENDBRANCH  12  13
ENDBRANCH   1  12
TORSDOF 14
ENDMDL
MODEL 3
REMARK VINA RESULT:    -5.632      2.329      4.856
REMARK INTER + INTRA:         -12.197
REMARK INTER:                  -9.820
REMARK INTRA:                  -2.378
REMARK UNBOUND:                -1.957
REMARK SMILES CCCCCCCCCCCCCC[C@H](C)C(=O)[O-]
REMARK SMILES IDX 9 1 10 2 11 3 12 4 13 5 14 6 15 7 16 8 17 9 18 10 19 11 8 12
REMARK SMILES IDX 7 13 6 14 5 15 4 16 3 17 2 18 1 19
REMARK H PARENT
REMARK Flexibility Score: inf
ROOT
ATOM      1  C   UNL     1      -4.172 -32.262 -50.882  1.00  0.00     0.000 C 
ENDROOT
BRANCH   1   2
ATOM      2  C   UNL     1      -4.888 -32.258 -52.240  1.00  0.00     0.000 C 
BRANCH   2   3
ATOM      3  C   UNL     1      -4.813 -30.897 -52.953  1.00  0.00     0.000 C 
BRANCH   3   4
ATOM      4  C   UNL     1      -3.779 -29.932 -52.332  1.00  0.00     0.000 C 
BRANCH   4   5
ATOM      5  C   UNL     1      -4.344 -28.512 -52.153  1.00  0.00     0.001 C 
BRANCH   5   6
ATOM      6  C   UNL     1      -5.783 -28.492 -51.604  1.00  0.00     0.009 C 
BRANCH   6   7
ATOM      7  C   UNL     1      -5.871 -28.633 -50.065  1.00  0.00     0.032 C 
ATOM      8  C   UNL     1      -6.703 -29.864 -49.682  1.00  0.00     0.014 C 
BRANCH   7   9
ATOM      9  C   UNL     1      -6.467 -27.412 -49.418  1.00  0.00     0.044 C 
ATOM     10  O   UNL     1      -6.713 -27.395 -48.183  1.00  0.00    -0.550 OA
ATOM     11  O   UNL     1      -6.713 -26.276 -50.179  1.00  0.00    -0.550 OA
ENDBRANCH   7   9
ENDBRANCH   6   7
ENDBRANCH   5   6
ENDBRANCH   4   5
ENDBRANCH   3   4
ENDBRANCH   2   3
ENDBRANCH   1   2
BRANCH   1  12
ATOM     12  C   UNL     1      -3.005 -33.257 -50.877  1.00  0.00     0.000 C 
BRANCH  12  13
ATOM     13  C   UNL     1      -2.549 -33.576 -52.310  1.00  0.00    -0.000 C 
BRANCH  13  14
ATOM     14  C   UNL     1      -1.065 -33.254 -52.547  1.00  0.00    -0.000 C 
BRANCH  14  15
ATOM     15  C   UNL     1      -0.866 -32.039 -53.469  1.00  0.00    -0.000 C 
BRANCH  15  16
ATOM     16  C   UNL     1       0.057 -30.969 -52.856  1.00  0.00    -0.000 C 
BRANCH  16  17
ATOM     17  C   UNL     1      -0.290 -30.551 -51.413  1.00  0.00    -0.000 C 
BRANCH  17  18
ATOM     18  C   UNL     1      -0.337 -29.033 -51.169  1.00  0.00    -0.003 C 
ATOM     19  C   UNL     1      -0.448 -28.225 -52.462  1.00  0.00     0.004 C 
ENDBRANCH  17  18
ENDBRANCH  16  17
ENDBRANCH  15  16
ENDBRANCH  14  15
ENDBRANCH  13  14
ENDBRANCH  12  13
ENDBRANCH   1  12
TORSDOF 14
ENDMDL
MODEL 4
REMARK VINA RESULT:    -5.624      2.426      4.488
REMARK INTER + INTRA:         -12.184
REMARK INTER:                 -10.376
REMARK INTRA:                  -1.808
REMARK UNBOUND:                -1.957
REMARK SMILES CCCCCCCCCCCCCC[C@H](C)C(=O)[O-]
REMARK SMILES IDX 9 1 10 2 11 3 12 4 13 5 14 6 15 7 16 8 17 9 18 10 19 11 8 12
REMARK SMILES IDX 7 13 6 14 5 15 4 16 3 17 2 18 1 19
REMARK H PARENT
REMARK Flexibility Score: inf
ROOT
ATOM      1  C   UNL     1      -3.073 -27.988 -52.703  1.00  0.00     0.000 C 
ENDROOT
BRANCH   1   2
ATOM      2  C   UNL     1      -1.711 -27.548 -53.259  1.00  0.00     0.000 C 
BRANCH   2   3
ATOM      3  C   UNL     1      -0.594 -28.568 -52.985  1.00  0.00     0.000 C 
BRANCH   3   4
ATOM      4  C   UNL     1      -0.445 -28.932 -51.491  1.00  0.00     0.000 C 
BRANCH   4   5
ATOM      5  C   UNL     1      -0.403 -30.453 -51.265  1.00  0.00     0.001 C 
BRANCH   5   6
ATOM      6  C   UNL     1      -1.692 -31.172 -51.707  1.00  0.00     0.009 C 
BRANCH   6   7
ATOM      7  C   UNL     1      -1.530 -32.701 -51.885  1.00  0.00     0.032 C 
ATOM      8  C   UNL     1      -2.005 -33.136 -53.276  1.00  0.00     0.014 C 
BRANCH   7   9
ATOM      9  C   UNL     1      -2.285 -33.476 -50.839  1.00  0.00     0.044 C 
ATOM     10  O   UNL     1      -3.497 -33.775 -51.011  1.00  0.00    -0.550 OA
ATOM     11  O   UNL     1      -1.633 -33.901 -49.688  1.00  0.00    -0.550 OA
ENDBRANCH   7   9
ENDBRANCH   6   7
ENDBRANCH   5   6
ENDBRANCH   4   5
ENDBRANCH   3   4
ENDBRANCH   2   3
ENDBRANCH   1   2
BRANCH   1  12
ATOM     12  C   UNL     1      -4.128 -28.050 -53.814  1.00  0.00     0.000 C 
BRANCH  12  13
ATOM     13  C   UNL     1      -5.278 -28.991 -53.426  1.00  0.00    -0.000 C 
BRANCH  13  14
ATOM     14  C   UNL     1      -5.016 -30.450 -53.832  1.00  0.00    -0.000 C 
BRANCH  14  15
ATOM     15  C   UNL     1      -5.293 -31.440 -52.686  1.00  0.00    -0.000 C 
BRANCH  15  16
ATOM     16  C   UNL     1      -5.459 -30.743 -51.323  1.00  0.00    -0.000 C 
BRANCH  16  17
ATOM     17  C   UNL     1      -6.403 -31.454 -50.332  1.00  0.00    -0.000 C 
BRANCH  17  18
ATOM     18  C   UNL     1      -7.321 -30.521 -49.524  1.00  0.00    -0.003 C 
ATOM     19  C   UNL     1      -6.610 -29.255 -49.045  1.00  0.00     0.004 C 
ENDBRANCH  17  18
ENDBRANCH  16  17
ENDBRANCH  15  16
ENDBRANCH  14  15
ENDBRANCH  13  14
ENDBRANCH  12  13
ENDBRANCH   1  12
TORSDOF 14
ENDMDL
MODEL 5
REMARK VINA RESULT:    -5.605      2.278      4.607
REMARK INTER + INTRA:         -12.149
REMARK INTER:                 -10.118
REMARK INTRA:                  -2.031
REMARK UNBOUND:                -1.957
REMARK SMILES CCCCCCCCCCCCCC[C@H](C)C(=O)[O-]
REMARK SMILES IDX 9 1 10 2 11 3 12 4 13 5 14 6 15 7 16 8 17 9 18 10 19 11 8 12
REMARK SMILES IDX 7 13 6 14 5 15 4 16 3 17 2 18 1 19
REMARK H PARENT
REMARK Flexibility Score: inf
ROOT
ATOM      1  C   UNL     1      -5.210 -27.722 -54.440  1.00  0.00     0.000 C 
ENDROOT
BRANCH   1   2
ATOM      2  C   UNL     1      -4.218 -27.504 -53.289  1.00  0.00     0.000 C 
BRANCH   2   3
ATOM      3  C   UNL     1      -2.825 -27.066 -53.773  1.00  0.00     0.000 C 
BRANCH   3   4
ATOM      4  C   UNL     1      -1.667 -27.800 -53.063  1.00  0.00     0.000 C 
BRANCH   4   5
ATOM      5  C   UNL     1      -2.171 -28.898 -52.111  1.00  0.00     0.001 C 
BRANCH   5   6
ATOM      6  C   UNL     1      -1.819 -30.322 -52.581  1.00  0.00     0.009 C 
BRANCH   6   7
ATOM      7  C   UNL     1      -1.134 -31.190 -51.498  1.00  0.00     0.032 C 
ATOM      8  C   UNL     1       0.385 -30.980 -51.517  1.00  0.00     0.014 C 
BRANCH   7   9
ATOM      9  C   UNL     1      -1.434 -32.655 -51.673  1.00  0.00     0.044 C 
ATOM     10  O   UNL     1      -1.236 -33.468 -50.732  1.00  0.00    -0.550 OA
ATOM     11  O   UNL     1      -1.968 -33.113 -52.871  1.00  0.00    -0.550 OA
ENDBRANCH   7   9
ENDBRANCH   6   7
ENDBRANCH   5   6
ENDBRANCH   4   5
ENDBRANCH   3   4
ENDBRANCH   2   3
ENDBRANCH   1   2
BRANCH   1  12
ATOM     12  C   UNL     1      -5.568 -29.207 -54.585  1.00  0.00     0.000 C 
BRANCH  12  13
ATOM     13  C   UNL     1      -5.333 -29.960 -53.267  1.00  0.00    -0.000 C 
BRANCH  13  14
ATOM     14  C   UNL     1      -5.265 -31.483 -53.457  1.00  0.00    -0.000 C 
BRANCH  14  15
ATOM     15  C   UNL     1      -5.350 -32.247 -52.124  1.00  0.00    -0.000 C 
BRANCH  15  16
ATOM     16  C   UNL     1      -5.357 -31.312 -50.900  1.00  0.00    -0.000 C 
BRANCH  16  17
ATOM     17  C   UNL     1      -6.690 -31.252 -50.126  1.00  0.00    -0.000 C 
BRANCH  17  18
ATOM     18  C   UNL     1      -6.906 -29.971 -49.302  1.00  0.00    -0.003 C 
ATOM     19  C   UNL     1      -6.334 -28.725 -49.977  1.00  0.00     0.004 C 
ENDBRANCH  17  18
ENDBRANCH  16  17
ENDBRANCH  15  16
ENDBRANCH  14  15
ENDBRANCH  13  14
ENDBRANCH  12  13
ENDBRANCH   1  12
TORSDOF 14
ENDMDL
MODEL 6
REMARK VINA RESULT:    -5.592      2.335      6.095
REMARK INTER + INTRA:         -12.126
REMARK INTER:                 -10.262
REMARK INTRA:                  -1.864
REMARK UNBOUND:                -1.957
REMARK SMILES CCCCCCCCCCCCCC[C@H](C)C(=O)[O-]
REMARK SMILES IDX 9 1 10 2 11 3 12 4 13 5 14 6 15 7 16 8 17 9 18 10 19 11 8 12
REMARK SMILES IDX 7 13 6 14 5 15 4 16 3 17 2 18 1 19
REMARK H PARENT
REMARK Flexibility Score: inf
ROOT
ATOM      1  C   UNL     1      -7.563 -30.016 -48.986  1.00  0.00     0.000 C 
ENDROOT
BRANCH   1   2
ATOM      2  C   UNL     1      -7.368 -31.364 -49.696  1.00  0.00     0.000 C 
BRANCH   2   3
ATOM      3  C   UNL     1      -5.945 -31.548 -50.250  1.00  0.00     0.000 C 
BRANCH   3   4
ATOM      4  C   UNL     1      -5.912 -32.128 -51.681  1.00  0.00     0.000 C 
BRANCH   4   5
ATOM      5  C   UNL     1      -4.542 -31.936 -52.354  1.00  0.00     0.001 C 
BRANCH   5   6
ATOM      6  C   UNL     1      -3.395 -32.659 -51.622  1.00  0.00     0.009 C 
BRANCH   6   7
ATOM      7  C   UNL     1      -1.992 -32.082 -51.927  1.00  0.00     0.032 C 
ATOM      8  C   UNL     1      -2.054 -30.557 -52.069  1.00  0.00     0.014 C 
BRANCH   7   9
ATOM      9  C   UNL     1      -1.396 -32.673 -53.177  1.00  0.00     0.044 C 
ATOM     10  O   UNL     1      -0.748 -31.952 -53.981  1.00  0.00    -0.550 OA
ATOM     11  O   UNL     1      -1.528 -34.032 -53.430  1.00  0.00    -0.550 OA
ENDBRANCH   7   9
ENDBRANCH   6   7
ENDBRANCH   5   6
ENDBRANCH   4   5
ENDBRANCH   3   4
ENDBRANCH   2   3
ENDBRANCH   1   2
BRANCH   1  12
ATOM     12  C   UNL     1      -6.233 -29.263 -48.856  1.00  0.00     0.000 C 
BRANCH  12  13
ATOM     13  C   UNL     1      -6.380 -27.807 -49.323  1.00  0.00    -0.000 C 
BRANCH  13  14
ATOM     14  C   UNL     1      -6.236 -27.653 -50.845  1.00  0.00    -0.000 C 
BRANCH  14  15
ATOM     15  C   UNL     1      -5.019 -28.414 -51.402  1.00  0.00    -0.000 C 
BRANCH  15  16
ATOM     16  C   UNL     1      -4.565 -27.888 -52.776  1.00  0.00    -0.000 C 
BRANCH  16  17
ATOM     17  C   UNL     1      -5.206 -28.588 -53.992  1.00  0.00    -0.000 C 
BRANCH  17  18
ATOM     18  C   UNL     1      -6.345 -27.807 -54.668  1.00  0.00    -0.003 C 
ATOM     19  C   UNL     1      -5.945 -26.381 -55.048  1.00  0.00     0.004 C 
ENDBRANCH  17  18
ENDBRANCH  16  17
ENDBRANCH  15  16
ENDBRANCH  14  15
ENDBRANCH  13  14
ENDBRANCH  12  13
ENDBRANCH   1  12
TORSDOF 14
ENDMDL
MODEL 7
REMARK VINA RESULT:    -5.571      2.085      4.672
REMARK INTER + INTRA:         -12.087
REMARK INTER:                 -10.259
REMARK INTRA:                  -1.828
REMARK UNBOUND:                -1.957
REMARK SMILES CCCCCCCCCCCCCC[C@H](C)C(=O)[O-]
REMARK SMILES IDX 9 1 10 2 11 3 12 4 13 5 14 6 15 7 16 8 17 9 18 10 19 11 8 12
REMARK SMILES IDX 7 13 6 14 5 15 4 16 3 17 2 18 1 19
REMARK H PARENT
REMARK Flexibility Score: inf
ROOT
ATOM      1  C   UNL     1      -0.917 -32.829 -52.865  1.00  0.00     0.000 C 
ENDROOT
BRANCH   1   2
ATOM      2  C   UNL     1      -2.428 -32.743 -53.121  1.00  0.00     0.000 C 
BRANCH   2   3
ATOM      3  C   UNL     1      -3.266 -33.023 -51.863  1.00  0.00     0.000 C 
BRANCH   3   4
ATOM      4  C   UNL     1      -4.675 -32.394 -51.908  1.00  0.00     0.000 C 
BRANCH   4   5
ATOM      5  C   UNL     1      -5.181 -32.000 -50.510  1.00  0.00     0.001 C 
BRANCH   5   6
ATOM      6  C   UNL     1      -6.311 -30.953 -50.542  1.00  0.00     0.009 C 
BRANCH   6   7
ATOM      7  C   UNL     1      -6.620 -30.319 -49.164  1.00  0.00     0.032 C 
ATOM      8  C   UNL     1      -8.064 -30.619 -48.743  1.00  0.00     0.014 C 
BRANCH   7   9
ATOM      9  C   UNL     1      -6.403 -28.830 -49.165  1.00  0.00     0.044 C 
ATOM     10  O   UNL     1      -5.825 -28.265 -50.130  1.00  0.00    -0.550 OA
ATOM     11  O   UNL     1      -6.878 -28.062 -48.109  1.00  0.00    -0.550 OA
ENDBRANCH   7   9
ENDBRANCH   6   7
ENDBRANCH   5   6
ENDBRANCH   4   5
ENDBRANCH   3   4
ENDBRANCH   2   3
ENDBRANCH   1   2
BRANCH   1  12
ATOM     12  C   UNL     1      -0.286 -31.433 -52.803  1.00  0.00     0.000 C 
BRANCH  12  13
ATOM     13  C   UNL     1      -0.345 -30.867 -51.376  1.00  0.00    -0.000 C 
BRANCH  13  14
ATOM     14  C   UNL     1      -0.424 -29.333 -51.347  1.00  0.00    -0.000 C 
BRANCH  14  15
ATOM     15  C   UNL     1      -0.680 -28.730 -52.740  1.00  0.00    -0.000 C 
BRANCH  15  16
ATOM     16  C   UNL     1      -2.074 -28.087 -52.864  1.00  0.00    -0.000 C 
BRANCH  16  17
ATOM     17  C   UNL     1      -3.247 -28.961 -52.376  1.00  0.00    -0.000 C 
BRANCH  17  18
ATOM     18  C   UNL     1      -4.259 -29.358 -53.463  1.00  0.00    -0.003 C 
ATOM     19  C   UNL     1      -5.368 -28.323 -53.652  1.00  0.00     0.004 C 
ENDBRANCH  17  18
ENDBRANCH  16  17
ENDBRANCH  15  16
ENDBRANCH  14  15
ENDBRANCH  13  14
ENDBRANCH  12  13
ENDBRANCH   1  12
TORSDOF 14
ENDMDL
MODEL 8
REMARK VINA RESULT:    -5.524      0.953      4.836
REMARK INTER + INTRA:         -12.001
REMARK INTER:                 -10.305
REMARK INTRA:                  -1.696
REMARK UNBOUND:                -1.957
REMARK SMILES CCCCCCCCCCCCCC[C@H](C)C(=O)[O-]
REMARK SMILES IDX 9 1 10 2 11 3 12 4 13 5 14 6 15 7 16 8 17 9 18 10 19 11 8 12
REMARK SMILES IDX 7 13 6 14 5 15 4 16 3 17 2 18 1 19
REMARK H PARENT
REMARK Flexibility Score: inf
ROOT
ATOM      1  C   UNL     1      -6.155 -31.269 -50.801  1.00  0.00     0.000 C 
ENDROOT
BRANCH   1   2
ATOM      2  C   UNL     1      -7.164 -30.750 -49.768  1.00  0.00     0.000 C 
BRANCH   2   3
ATOM      3  C   UNL     1      -6.838 -29.331 -49.272  1.00  0.00     0.000 C 
BRANCH   3   4
ATOM      4  C   UNL     1      -5.786 -28.602 -50.137  1.00  0.00     0.000 C 
BRANCH   4   5
ATOM      5  C   UNL     1      -6.403 -27.463 -50.966  1.00  0.00     0.001 C 
BRANCH   5   6
ATOM      6  C   UNL     1      -5.684 -27.227 -52.308  1.00  0.00     0.009 C 
BRANCH   6   7
ATOM      7  C   UNL     1      -5.070 -28.506 -52.927  1.00  0.00     0.032 C 
ATOM      8  C   UNL     1      -3.548 -28.517 -52.743  1.00  0.00     0.014 C 
BRANCH   7   9
ATOM      9  C   UNL     1      -5.394 -28.639 -54.390  1.00  0.00     0.044 C 
ATOM     10  O   UNL     1      -5.780 -27.642 -55.056  1.00  0.00    -0.550 OA
ATOM     11  O   UNL     1      -5.231 -29.864 -55.026  1.00  0.00    -0.550 OA
ENDBRANCH   7   9
ENDBRANCH   6   7
ENDBRANCH   5   6
ENDBRANCH   4   5
ENDBRANCH   3   4
ENDBRANCH   2   3
ENDBRANCH   1   2
BRANCH   1  12
ATOM     12  C   UNL     1      -5.013 -32.035 -50.121  1.00  0.00     0.000 C 
BRANCH  12  13
ATOM     13  C   UNL     1      -4.118 -32.724 -51.162  1.00  0.00    -0.000 C 
BRANCH  13  14
ATOM     14  C   UNL     1      -4.281 -32.132 -52.571  1.00  0.00    -0.000 C 
BRANCH  14  15
ATOM     15  C   UNL     1      -3.028 -32.331 -53.442  1.00  0.00    -0.000 C 
BRANCH  15  16
ATOM     16  C   UNL     1      -1.951 -33.188 -52.751  1.00  0.00    -0.000 C 
BRANCH  16  17
ATOM     17  C   UNL     1      -0.497 -32.866 -53.152  1.00  0.00    -0.000 C 
BRANCH  17  18
ATOM     18  C   UNL     1      -0.105 -31.384 -53.041  1.00  0.00    -0.003 C 
ATOM     19  C   UNL     1       0.290 -30.977 -51.621  1.00  0.00     0.004 C 
ENDBRANCH  17  18
ENDBRANCH  16  17
ENDBRANCH  15  16
ENDBRANCH  14  15
ENDBRANCH  13  14
ENDBRANCH  12  13
ENDBRANCH   1  12
TORSDOF 14
ENDMDL
MODEL 9
REMARK VINA RESULT:    -5.469      2.587      4.956
REMARK INTER + INTRA:         -11.902
REMARK INTER:                 -10.202
REMARK INTRA:                  -1.700
REMARK UNBOUND:                -1.957
REMARK SMILES CCCCCCCCCCCCCC[C@H](C)C(=O)[O-]
REMARK SMILES IDX 9 1 10 2 11 3 12 4 13 5 14 6 15 7 16 8 17 9 18 10 19 11 8 12
REMARK SMILES IDX 7 13 6 14 5 15 4 16 3 17 2 18 1 19
REMARK H PARENT
REMARK Flexibility Score: inf
ROOT
ATOM      1  C   UNL     1      -5.061 -32.164 -51.990  1.00  0.00     0.000 C 
ENDROOT
BRANCH   1   2
ATOM      2  C   UNL     1      -3.582 -32.067 -51.590  1.00  0.00     0.000 C 
BRANCH   2   3
ATOM      3  C   UNL     1      -2.762 -33.294 -52.025  1.00  0.00     0.000 C 
BRANCH   3   4
ATOM      4  C   UNL     1      -1.988 -33.081 -53.345  1.00  0.00     0.000 C 
BRANCH   4   5
ATOM      5  C   UNL     1      -0.464 -33.106 -53.136  1.00  0.00     0.001 C 
BRANCH   5   6
ATOM      6  C   UNL     1      -0.002 -32.288 -51.915  1.00  0.00     0.009 C 
BRANCH   6   7
ATOM      7  C   UNL     1       0.533 -30.879 -52.269  1.00  0.00     0.032 C 
ATOM      8  C   UNL     1      -0.627 -29.907 -52.517  1.00  0.00     0.014 C 
BRANCH   7   9
ATOM      9  C   UNL     1       1.429 -30.900 -53.477  1.00  0.00     0.044 C 
ATOM     10  O   UNL     1       1.133 -30.240 -54.508  1.00  0.00    -0.550 OA
ATOM     11  O   UNL     1       2.615 -31.624 -53.447  1.00  0.00    -0.550 OA
ENDBRANCH   7   9
ENDBRANCH   6   7
ENDBRANCH   5   6
ENDBRANCH   4   5
ENDBRANCH   3   4
ENDBRANCH   2   3
ENDBRANCH   1   2
BRANCH   1  12
ATOM     12  C   UNL     1      -5.305 -31.519 -53.360  1.00  0.00     0.000 C 
BRANCH  12  13
ATOM     13  C   UNL     1      -4.461 -30.247 -53.525  1.00  0.00    -0.000 C 
BRANCH  13  14
ATOM     14  C   UNL     1      -5.202 -28.978 -53.074  1.00  0.00    -0.000 C 
BRANCH  14  15
ATOM     15  C   UNL     1      -4.830 -28.556 -51.642  1.00  0.00    -0.000 C 
BRANCH  15  16
ATOM     16  C   UNL     1      -5.990 -27.862 -50.904  1.00  0.00    -0.000 C 
BRANCH  16  17
ATOM     17  C   UNL     1      -6.403 -28.514 -49.569  1.00  0.00    -0.000 C 
BRANCH  17  18
ATOM     18  C   UNL     1      -6.456 -30.051 -49.584  1.00  0.00    -0.003 C 
ATOM     19  C   UNL     1      -7.765 -30.608 -49.026  1.00  0.00     0.004 C 
ENDBRANCH  17  18
ENDBRANCH  16  17
ENDBRANCH  15  16
ENDBRANCH  14  15
ENDBRANCH  13  14
ENDBRANCH  12  13
ENDBRANCH   1  12
TORSDOF 14
ENDMDL
