MODEL 1
REMARK VINA RESULT:    -4.250      0.000      0.000
REMARK INTER + INTRA:          -6.393
REMARK INTER:                  -6.485
REMARK INTRA:                   0.092
REMARK UNBOUND:                 0.092
REMARK SMILES CC1=CCC[C@H](C)C(=O)C[C@H](C(C)C)C(=O)C1
REMARK SMILES IDX 8 1 9 2 6 3 7 4 5 5 4 6 3 7 2 8 1 9 10 11 11 12 15 13 16 14
REMARK SMILES IDX 17 15 12 17 13 18 14 19
REMARK H PARENT
REMARK Flexibility Score: 70.00
ROOT
ATOM      1  C   UNL     1      22.977  28.274  39.947  1.00  0.00     0.136 C 
ATOM      2  O   UNL     1      22.151  27.873  40.754  1.00  0.00    -0.299 OA
ENDROOT
BRANCH   1   3
ATOM      3  C   UNL     1      24.403  28.510  40.417  1.00  0.00     0.053 C 
ATOM      4  C   UNL     1      24.725  27.541  41.561  1.00  0.00     0.016 C 
BRANCH   3   5
ATOM      5  C   UNL     1      25.453  28.380  39.282  1.00  0.00     0.015 C 
BRANCH   5   6
ATOM      6  C   UNL     1      26.205  29.674  38.901  1.00  0.00     0.028 C 
BRANCH   6   7
ATOM      7  C   UNL     1      25.594  30.975  39.365  1.00  0.00    -0.028 C 
ATOM      8  C   UNL     1      24.588  31.643  38.755  1.00  0.00    -0.070 CG0
ATOM      9  C   UNL     1      24.300  33.046  39.237  1.00  0.00     0.039 C 
ATOM     10  G   UNL     1      23.791  31.077  37.590  1.00  0.00     0.000 G0
ENDBRANCH   6   7
ENDBRANCH   5   6
ENDBRANCH   3   5
ENDBRANCH   1   3
BRANCH   1  11
ATOM     11  C   UNL     1      22.593  28.380  38.486  1.00  0.00     0.087 C 
BRANCH  11  12
ATOM     12  C   UNL     1      21.642  29.561  38.155  1.00  0.00     0.066 C 
BRANCH  12  13
ATOM     13  C   UNL     1      22.317  30.913  37.927  1.00  0.00     0.140 C 
ATOM     14  O   UNL     1      21.626  31.917  38.016  1.00  0.00    -0.299 OA
BRANCH  13  15
ATOM     15  C   UNL     1      23.784  31.089  37.588  1.00  0.00     0.106 CG0
ATOM     16  G   UNL     1      24.562  31.629  38.778  1.00  0.00     0.000 G0
ENDBRANCH  13  15
ENDBRANCH  12  13
BRANCH  12  17
ATOM     17  C   UNL     1      20.684  29.181  36.980  1.00  0.00    -0.006 C 
ATOM     18  C   UNL     1      20.747  27.683  36.643  1.00  0.00     0.008 C 
ATOM     19  C   UNL     1      19.225  29.603  37.227  1.00  0.00     0.008 C 
ENDBRANCH  12  17
ENDBRANCH  11  12
ENDBRANCH   1  11
TORSDOF 1
ENDMDL
MODEL 2
REMARK VINA RESULT:    -4.177      1.913      4.422
REMARK INTER + INTRA:          -6.283
REMARK INTER:                  -6.132
REMARK INTRA:                  -0.151
REMARK UNBOUND:                 0.092
REMARK SMILES CC1=CCC[C@H](C)C(=O)C[C@H](C(C)C)C(=O)C1
REMARK SMILES IDX 8 1 9 2 6 3 7 4 5 5 4 6 3 7 2 8 1 9 10 11 11 12 15 13 16 14
REMARK SMILES IDX 17 15 12 17 13 18 14 19
REMARK H PARENT
REMARK Flexibility Score: 70.00
ROOT
ATOM      1  C   UNL     1      21.271  28.513  37.002  1.00  0.00     0.136 C 
ATOM      2  O   UNL     1      21.400  27.526  36.293  1.00  0.00    -0.299 OA
ENDROOT
BRANCH   1   3
ATOM      3  C   UNL     1      20.390  29.653  36.517  1.00  0.00     0.053 C 
ATOM      4  C   UNL     1      19.139  29.073  35.846  1.00  0.00     0.016 C 
BRANCH   3   5
ATOM      5  C   UNL     1      19.995  30.645  37.641  1.00  0.00     0.015 C 
BRANCH   5   6
ATOM      6  C   UNL     1      20.823  31.947  37.721  1.00  0.00     0.028 C 
BRANCH   6   7
ATOM      7  C   UNL     1      21.815  32.188  36.608  1.00  0.00    -0.028 C 
ATOM      8  C   UNL     1      23.146  31.947  36.664  1.00  0.00    -0.070 CG0
ATOM      9  C   UNL     1      23.993  32.494  35.539  1.00  0.00     0.039 C 
ATOM     10  G   UNL     1      23.818  31.217  37.816  1.00  0.00     0.000 G0
ENDBRANCH   6   7
ENDBRANCH   5   6
ENDBRANCH   3   5
ENDBRANCH   1   3
BRANCH   1  11
ATOM     11  C   UNL     1      21.868  28.506  38.395  1.00  0.00     0.087 C 
BRANCH  11  12
ATOM     12  C   UNL     1      23.414  28.641  38.432  1.00  0.00     0.066 C 
BRANCH  12  13
ATOM     13  C   UNL     1      24.005  29.749  37.561  1.00  0.00     0.140 C 
ATOM     14  O   UNL     1      24.664  29.416  36.587  1.00  0.00    -0.299 OA
BRANCH  13  15
ATOM     15  C   UNL     1      23.837  31.230  37.832  1.00  0.00     0.106 CG0
ATOM     16  G   UNL     1      23.164  31.930  36.661  1.00  0.00     0.000 G0
ENDBRANCH  13  15
ENDBRANCH  12  13
BRANCH  12  17
ATOM     17  C   UNL     1      23.921  28.724  39.907  1.00  0.00    -0.006 C 
ATOM     18  C   UNL     1      23.012  27.952  40.877  1.00  0.00     0.008 C 
ATOM     19  C   UNL     1      25.380  28.261  40.074  1.00  0.00     0.008 C 
ENDBRANCH  12  17
ENDBRANCH  11  12
ENDBRANCH   1  11
TORSDOF 1
ENDMDL
MODEL 3
REMARK VINA RESULT:    -4.161      2.542      4.579
REMARK INTER + INTRA:          -6.258
REMARK INTER:                  -5.845
REMARK INTRA:                  -0.413
REMARK UNBOUND:                 0.092
REMARK SMILES CC1=CCC[C@H](C)C(=O)C[C@H](C(C)C)C(=O)C1
REMARK SMILES IDX 8 1 9 2 6 3 7 4 5 5 4 6 3 7 2 8 1 9 10 11 11 12 15 13 16 14
REMARK SMILES IDX 17 15 12 17 13 18 14 19
REMARK H PARENT
REMARK Flexibility Score: 70.00
ROOT
ATOM      1  C   UNL     1      20.098  31.019  38.145  1.00  0.00     0.136 C 
ATOM      2  O   UNL     1      19.513  31.610  39.041  1.00  0.00    -0.299 OA
ENDROOT
BRANCH   1   3
ATOM      3  C   UNL     1      19.411  30.869  36.797  1.00  0.00     0.053 C 
ATOM      4  C   UNL     1      18.009  30.286  37.008  1.00  0.00     0.016 C 
BRANCH   3   5
ATOM      5  C   UNL     1      19.335  32.195  35.996  1.00  0.00     0.015 C 
BRANCH   5   6
ATOM      6  C   UNL     1      20.530  32.495  35.064  1.00  0.00     0.028 C 
BRANCH   6   7
ATOM      7  C   UNL     1      21.715  33.196  35.685  1.00  0.00    -0.028 C 
ATOM      8  C   UNL     1      22.931  32.649  35.917  1.00  0.00    -0.070 CG0
ATOM      9  C   UNL     1      23.890  33.440  36.775  1.00  0.00     0.039 C 
ATOM     10  G   UNL     1      23.341  31.275  35.411  1.00  0.00     0.000 G0
ENDBRANCH   6   7
ENDBRANCH   5   6
ENDBRANCH   3   5
ENDBRANCH   1   3
BRANCH   1  11
ATOM     11  C   UNL     1      21.536  30.590  38.359  1.00  0.00     0.087 C 
BRANCH  11  12
ATOM     12  C   UNL     1      22.120  29.713  37.219  1.00  0.00     0.066 C 
BRANCH  12  13
ATOM     13  C   UNL     1      23.372  30.262  36.535  1.00  0.00     0.140 C 
ATOM     14  O   UNL     1      24.457  29.866  36.933  1.00  0.00    -0.299 OA
BRANCH  13  15
ATOM     15  C   UNL     1      23.356  31.272  35.405  1.00  0.00     0.106 CG0
ATOM     16  G   UNL     1      22.938  32.647  35.903  1.00  0.00     0.000 G0
ENDBRANCH  13  15
ENDBRANCH  12  13
BRANCH  12  17
ATOM     17  C   UNL     1      22.318  28.242  37.705  1.00  0.00    -0.006 C 
ATOM     18  C   UNL     1      22.506  28.156  39.228  1.00  0.00     0.008 C 
ATOM     19  C   UNL     1      21.185  27.299  37.262  1.00  0.00     0.008 C 
ENDBRANCH  12  17
ENDBRANCH  11  12
ENDBRANCH   1  11
TORSDOF 1
ENDMDL
MODEL 4
REMARK VINA RESULT:    -4.154      2.508      3.927
REMARK INTER + INTRA:          -6.247
REMARK INTER:                  -5.963
REMARK INTRA:                  -0.284
REMARK UNBOUND:                 0.092
REMARK SMILES CC1=CCC[C@H](C)C(=O)C[C@H](C(C)C)C(=O)C1
REMARK SMILES IDX 8 1 9 2 6 3 7 4 5 5 4 6 3 7 2 8 1 9 10 11 11 12 15 13 16 14
REMARK SMILES IDX 17 15 12 17 13 18 14 19
REMARK H PARENT
REMARK Flexibility Score: 70.00
ROOT
ATOM      1  C   UNL     1      20.173  31.482  38.308  1.00  0.00     0.136 C 
ATOM      2  O   UNL     1      19.090  31.430  38.872  1.00  0.00    -0.299 OA
ENDROOT
BRANCH   1   3
ATOM      3  C   UNL     1      20.664  32.825  37.791  1.00  0.00     0.053 C 
ATOM      4  C   UNL     1      19.461  33.661  37.335  1.00  0.00     0.016 C 
BRANCH   3   5
ATOM      5  C   UNL     1      21.510  33.610  38.827  1.00  0.00     0.015 C 
BRANCH   5   6
ATOM      6  C   UNL     1      22.970  33.138  39.009  1.00  0.00     0.028 C 
BRANCH   6   7
ATOM      7  C   UNL     1      23.826  33.090  37.766  1.00  0.00    -0.028 C 
ATOM      8  C   UNL     1      24.386  31.981  37.228  1.00  0.00    -0.070 CG0
ATOM      9  C   UNL     1      25.410  32.186  36.136  1.00  0.00     0.039 C 
ATOM     10  G   UNL     1      24.078  30.571  37.707  1.00  0.00     0.000 G0
ENDBRANCH   6   7
ENDBRANCH   5   6
ENDBRANCH   3   5
ENDBRANCH   1   3
BRANCH   1  11
ATOM     11  C   UNL     1      21.050  30.248  38.275  1.00  0.00     0.087 C 
BRANCH  11  12
ATOM     12  C   UNL     1      21.618  29.900  36.873  1.00  0.00     0.066 C 
BRANCH  12  13
ATOM     13  C   UNL     1      23.141  29.840  36.771  1.00  0.00     0.140 C 
ATOM     14  O   UNL     1      23.625  29.159  35.878  1.00  0.00    -0.299 OA
BRANCH  13  15
ATOM     15  C   UNL     1      24.090  30.558  37.708  1.00  0.00     0.106 CG0
ATOM     16  G   UNL     1      24.397  31.962  37.210  1.00  0.00     0.000 G0
ENDBRANCH  13  15
ENDBRANCH  12  13
BRANCH  12  17
ATOM     17  C   UNL     1      20.943  28.606  36.314  1.00  0.00    -0.006 C 
ATOM     18  C   UNL     1      21.037  27.431  37.301  1.00  0.00     0.008 C 
ATOM     19  C   UNL     1      19.478  28.820  35.891  1.00  0.00     0.008 C 
ENDBRANCH  12  17
ENDBRANCH  11  12
ENDBRANCH   1  11
TORSDOF 1
ENDMDL
MODEL 5
REMARK VINA RESULT:    -4.149      2.096      4.939
REMARK INTER + INTRA:          -6.240
REMARK INTER:                  -6.069
REMARK INTRA:                  -0.172
REMARK UNBOUND:                 0.092
REMARK SMILES CC1=CCC[C@H](C)C(=O)C[C@H](C(C)C)C(=O)C1
REMARK SMILES IDX 8 1 9 2 6 3 7 4 5 5 4 6 3 7 2 8 1 9 10 11 11 12 15 13 16 14
REMARK SMILES IDX 17 15 12 17 13 18 14 19
REMARK H PARENT
REMARK Flexibility Score: 70.00
ROOT
ATOM      1  C   UNL     1      19.736  30.828  36.093  1.00  0.00     0.136 C 
ATOM      2  O   UNL     1      18.984  31.239  35.222  1.00  0.00    -0.299 OA
ENDROOT
BRANCH   1   3
ATOM      3  C   UNL     1      19.327  29.601  36.892  1.00  0.00     0.053 C 
ATOM      4  C   UNL     1      17.808  29.619  37.103  1.00  0.00     0.016 C 
BRANCH   3   5
ATOM      5  C   UNL     1      19.769  28.266  36.238  1.00  0.00     0.015 C 
BRANCH   5   6
ATOM      6  C   UNL     1      21.196  27.782  36.579  1.00  0.00     0.028 C 
BRANCH   6   7
ATOM      7  C   UNL     1      21.600  27.835  38.033  1.00  0.00    -0.028 C 
ATOM      8  C   UNL     1      22.548  28.641  38.566  1.00  0.00    -0.070 CG0
ATOM      9  C   UNL     1      22.974  28.356  39.987  1.00  0.00     0.039 C 
ATOM     10  G   UNL     1      23.230  29.758  37.792  1.00  0.00     0.000 G0
ENDBRANCH   6   7
ENDBRANCH   5   6
ENDBRANCH   3   5
ENDBRANCH   1   3
BRANCH   1  11
ATOM     11  C   UNL     1      21.106  31.456  36.246  1.00  0.00     0.087 C 
BRANCH  11  12
ATOM     12  C   UNL     1      21.492  31.809  37.707  1.00  0.00     0.066 C 
BRANCH  12  13
ATOM     13  C   UNL     1      22.748  31.124  38.245  1.00  0.00     0.140 C 
ATOM     14  O   UNL     1      23.403  31.719  39.089  1.00  0.00    -0.299 OA
BRANCH  13  15
ATOM     15  C   UNL     1      23.241  29.764  37.794  1.00  0.00     0.106 CG0
ATOM     16  G   UNL     1      22.556  28.648  38.567  1.00  0.00     0.000 G0
ENDBRANCH  13  15
ENDBRANCH  12  13
BRANCH  12  17
ATOM     17  C   UNL     1      21.542  33.358  37.903  1.00  0.00    -0.006 C 
ATOM     18  C   UNL     1      22.623  34.017  37.031  1.00  0.00     0.008 C 
ATOM     19  C   UNL     1      20.184  34.043  37.663  1.00  0.00     0.008 C 
ENDBRANCH  12  17
ENDBRANCH  11  12
ENDBRANCH   1  11
TORSDOF 1
ENDMDL
MODEL 6
REMARK VINA RESULT:    -4.131      2.786      4.569
REMARK INTER + INTRA:          -6.213
REMARK INTER:                  -5.907
REMARK INTRA:                  -0.306
REMARK UNBOUND:                 0.092
REMARK SMILES CC1=CCC[C@H](C)C(=O)C[C@H](C(C)C)C(=O)C1
REMARK SMILES IDX 8 1 9 2 6 3 7 4 5 5 4 6 3 7 2 8 1 9 10 11 11 12 15 13 16 14
REMARK SMILES IDX 17 15 12 17 13 18 14 19
REMARK H PARENT
REMARK Flexibility Score: 70.00
ROOT
ATOM      1  C   UNL     1      23.878  30.212  35.998  1.00  0.00     0.136 C 
ATOM      2  O   UNL     1      24.812  29.426  35.938  1.00  0.00    -0.299 OA
ENDROOT
BRANCH   1   3
ATOM      3  C   UNL     1      24.145  31.686  35.742  1.00  0.00     0.053 C 
ATOM      4  C   UNL     1      25.654  31.948  35.825  1.00  0.00     0.016 C 
BRANCH   3   5
ATOM      5  C   UNL     1      23.580  32.186  34.386  1.00  0.00     0.015 C 
BRANCH   5   6
ATOM      6  C   UNL     1      22.131  32.722  34.410  1.00  0.00     0.028 C 
BRANCH   6   7
ATOM      7  C   UNL     1      21.692  33.433  35.667  1.00  0.00    -0.028 C 
ATOM      8  C   UNL     1      20.735  33.012  36.526  1.00  0.00    -0.070 CG0
ATOM      9  C   UNL     1      20.274  33.993  37.579  1.00  0.00     0.039 C 
ATOM     10  G   UNL     1      20.076  31.644  36.441  1.00  0.00     0.000 G0
ENDBRANCH   6   7
ENDBRANCH   5   6
ENDBRANCH   3   5
ENDBRANCH   1   3
BRANCH   1  11
ATOM     11  C   UNL     1      22.472  29.677  36.177  1.00  0.00     0.087 C 
BRANCH  11  12
ATOM     12  C   UNL     1      21.843  29.973  37.566  1.00  0.00     0.066 C 
BRANCH  12  13
ATOM     13  C   UNL     1      20.510  30.719  37.545  1.00  0.00     0.140 C 
ATOM     14  O   UNL     1      19.745  30.543  38.482  1.00  0.00    -0.299 OA
BRANCH  13  15
ATOM     15  C   UNL     1      20.069  31.651  36.435  1.00  0.00     0.106 CG0
ATOM     16  G   UNL     1      20.738  33.012  36.562  1.00  0.00     0.000 G0
ENDBRANCH  13  15
ENDBRANCH  12  13
BRANCH  12  17
ATOM     17  C   UNL     1      21.771  28.670  38.424  1.00  0.00    -0.006 C 
ATOM     18  C   UNL     1      21.445  27.433  37.571  1.00  0.00     0.008 C 
ATOM     19  C   UNL     1      23.043  28.416  39.251  1.00  0.00     0.008 C 
ENDBRANCH  12  17
ENDBRANCH  11  12
ENDBRANCH   1  11
TORSDOF 1
ENDMDL
MODEL 7
REMARK VINA RESULT:    -4.047      2.246      3.143
REMARK INTER + INTRA:          -6.084
REMARK INTER:                  -6.007
REMARK INTRA:                  -0.077
REMARK UNBOUND:                 0.092
REMARK SMILES CC1=CCC[C@H](C)C(=O)C[C@H](C(C)C)C(=O)C1
REMARK SMILES IDX 8 1 9 2 6 3 7 4 5 5 4 6 3 7 2 8 1 9 10 11 11 12 15 13 16 14
REMARK SMILES IDX 17 15 12 17 13 18 14 19
REMARK H PARENT
REMARK Flexibility Score: 70.00
ROOT
ATOM      1  C   UNL     1      21.270  28.396  37.142  1.00  0.00     0.136 C 
ATOM      2  O   UNL     1      21.554  27.218  36.976  1.00  0.00    -0.299 OA
ENDROOT
BRANCH   1   3
ATOM      3  C   UNL     1      22.027  29.188  38.196  1.00  0.00     0.053 C 
ATOM      4  C   UNL     1      22.190  28.328  39.455  1.00  0.00     0.016 C 
BRANCH   3   5
ATOM      5  C   UNL     1      23.406  29.702  37.705  1.00  0.00     0.015 C 
BRANCH   5   6
ATOM      6  C   UNL     1      23.810  31.117  38.175  1.00  0.00     0.028 C 
BRANCH   6   7
ATOM      7  C   UNL     1      22.688  32.045  38.575  1.00  0.00    -0.028 C 
ATOM      8  C   UNL     1      21.811  32.641  37.735  1.00  0.00    -0.070 CG0
ATOM      9  C   UNL     1      20.933  33.727  38.312  1.00  0.00     0.039 C 
ATOM     10  G   UNL     1      21.717  32.315  36.252  1.00  0.00     0.000 G0
ENDBRANCH   6   7
ENDBRANCH   5   6
ENDBRANCH   3   5
ENDBRANCH   1   3
BRANCH   1  11
ATOM     11  C   UNL     1      20.288  29.060  36.199  1.00  0.00     0.087 C 
BRANCH  11  12
ATOM     12  C   UNL     1      19.801  30.460  36.660  1.00  0.00     0.066 C 
BRANCH  12  13
ATOM     13  C   UNL     1      20.383  31.649  35.897  1.00  0.00     0.140 C 
ATOM     14  O   UNL     1      19.747  32.082  34.947  1.00  0.00    -0.299 OA
BRANCH  13  15
ATOM     15  C   UNL     1      21.699  32.320  36.234  1.00  0.00     0.106 CG0
ATOM     16  G   UNL     1      21.792  32.632  37.720  1.00  0.00     0.000 G0
ENDBRANCH  13  15
ENDBRANCH  12  13
BRANCH  12  17
ATOM     17  C   UNL     1      18.241  30.507  36.713  1.00  0.00    -0.006 C 
ATOM     18  C   UNL     1      17.629  29.125  36.997  1.00  0.00     0.008 C 
ATOM     19  C   UNL     1      17.699  31.538  37.719  1.00  0.00     0.008 C 
ENDBRANCH  12  17
ENDBRANCH  11  12
ENDBRANCH   1  11
TORSDOF 1
ENDMDL
MODEL 8
REMARK VINA RESULT:    -3.934      2.863      4.826
REMARK INTER + INTRA:          -5.911
REMARK INTER:                  -5.628
REMARK INTRA:                  -0.284
REMARK UNBOUND:                 0.092
REMARK SMILES CC1=CCC[C@H](C)C(=O)C[C@H](C(C)C)C(=O)C1
REMARK SMILES IDX 8 1 9 2 6 3 7 4 5 5 4 6 3 7 2 8 1 9 10 11 11 12 15 13 16 14
REMARK SMILES IDX 17 15 12 17 13 18 14 19
REMARK H PARENT
REMARK Flexibility Score: 70.00
ROOT
ATOM      1  C   UNL     1      21.809  29.395  38.162  1.00  0.00     0.136 C 
ATOM      2  O   UNL     1      21.676  28.902  39.273  1.00  0.00    -0.299 OA
ENDROOT
BRANCH   1   3
ATOM      3  C   UNL     1      21.157  28.706  36.974  1.00  0.00     0.053 C 
ATOM      4  C   UNL     1      21.470  27.205  37.027  1.00  0.00     0.016 C 
BRANCH   3   5
ATOM      5  C   UNL     1      19.626  28.940  36.893  1.00  0.00     0.015 C 
BRANCH   5   6
ATOM      6  C   UNL     1      19.166  30.132  36.024  1.00  0.00     0.028 C 
BRANCH   6   7
ATOM      7  C   UNL     1      18.701  31.366  36.758  1.00  0.00    -0.028 C 
ATOM      8  C   UNL     1      19.288  32.585  36.717  1.00  0.00    -0.070 CG0
ATOM      9  C   UNL     1      18.816  33.611  37.720  1.00  0.00     0.039 C 
ATOM     10  G   UNL     1      20.421  32.938  35.765  1.00  0.00     0.000 G0
ENDBRANCH   6   7
ENDBRANCH   5   6
ENDBRANCH   3   5
ENDBRANCH   1   3
BRANCH   1  11
ATOM     11  C   UNL     1      22.486  30.743  38.027  1.00  0.00     0.087 C 
BRANCH  11  12
ATOM     12  C   UNL     1      22.455  31.337  36.593  1.00  0.00     0.066 C 
BRANCH  12  13
ATOM     13  C   UNL     1      21.789  32.706  36.456  1.00  0.00     0.140 C 
ATOM     14  O   UNL     1      22.370  33.671  36.931  1.00  0.00    -0.299 OA
BRANCH  13  15
ATOM     15  C   UNL     1      20.453  32.943  35.782  1.00  0.00     0.106 CG0
ATOM     16  G   UNL     1      19.299  32.595  36.710  1.00  0.00     0.000 G0
ENDBRANCH  13  15
ENDBRANCH  12  13
BRANCH  12  17
ATOM     17  C   UNL     1      23.883  31.317  35.961  1.00  0.00    -0.006 C 
ATOM     18  C   UNL     1      24.487  29.903  35.940  1.00  0.00     0.008 C 
ATOM     19  C   UNL     1      23.930  31.929  34.549  1.00  0.00     0.008 C 
ENDBRANCH  12  17
ENDBRANCH  11  12
ENDBRANCH   1  11
TORSDOF 1
ENDMDL
MODEL 9
REMARK VINA RESULT:    -3.773      2.562      5.330
REMARK INTER + INTRA:          -5.666
REMARK INTER:                  -5.800
REMARK INTRA:                   0.134
REMARK UNBOUND:                 0.092
REMARK SMILES CC1=CCC[C@H](C)C(=O)C[C@H](C(C)C)C(=O)C1
REMARK SMILES IDX 8 1 9 2 6 3 7 4 5 5 4 6 3 7 2 8 1 9 10 11 11 12 15 13 16 14
REMARK SMILES IDX 17 15 12 17 13 18 14 19
REMARK H PARENT
REMARK Flexibility Score: 70.00
ROOT
ATOM      1  C   UNL     1      19.986  29.355  36.619  1.00  0.00     0.136 C 
ATOM      2  O   UNL     1      20.290  28.311  36.061  1.00  0.00    -0.299 OA
ENDROOT
BRANCH   1   3
ATOM      3  C   UNL     1      18.768  30.120  36.125  1.00  0.00     0.053 C 
ATOM      4  C   UNL     1      17.920  29.201  35.238  1.00  0.00     0.016 C 
BRANCH   3   5
ATOM      5  C   UNL     1      17.909  30.714  37.272  1.00  0.00     0.015 C 
BRANCH   5   6
ATOM      6  C   UNL     1      18.256  32.156  37.704  1.00  0.00     0.028 C 
BRANCH   6   7
ATOM      7  C   UNL     1      19.016  32.998  36.707  1.00  0.00    -0.028 C 
ATOM      8  C   UNL     1      20.309  33.384  36.812  1.00  0.00    -0.070 CG0
ATOM      9  C   UNL     1      20.798  34.430  35.838  1.00  0.00     0.039 C 
ATOM     10  G   UNL     1      21.253  32.864  37.886  1.00  0.00     0.000 G0
ENDBRANCH   6   7
ENDBRANCH   5   6
ENDBRANCH   3   5
ENDBRANCH   1   3
BRANCH   1  11
ATOM     11  C   UNL     1      20.735  29.772  37.868  1.00  0.00     0.087 C 
BRANCH  11  12
ATOM     12  C   UNL     1      22.155  30.341  37.606  1.00  0.00     0.066 C 
BRANCH  12  13
ATOM     13  C   UNL     1      22.228  31.844  37.339  1.00  0.00     0.140 C 
ATOM     14  O   UNL     1      23.145  32.254  36.642  1.00  0.00    -0.299 OA
BRANCH  13  15
ATOM     15  C   UNL     1      21.247  32.859  37.889  1.00  0.00     0.106 CG0
ATOM     16  G   UNL     1      20.324  33.380  36.798  1.00  0.00     0.000 G0
ENDBRANCH  13  15
ENDBRANCH  12  13
BRANCH  12  17
ATOM     17  C   UNL     1      23.139  29.900  38.735  1.00  0.00    -0.006 C 
ATOM     18  C   UNL     1      22.772  28.527  39.320  1.00  0.00     0.008 C 
ATOM     19  C   UNL     1      24.613  29.904  38.291  1.00  0.00     0.008 C 
ENDBRANCH  12  17
ENDBRANCH  11  12
ENDBRANCH   1  11
TORSDOF 1
ENDMDL
