MODEL 1
REMARK VINA RESULT:    -5.123      0.000      0.000
REMARK INTER + INTRA:          -6.500
REMARK INTER:                  -6.321
REMARK INTRA:                  -0.179
REMARK UNBOUND:                -0.179
REMARK SMILES C=CC[C@H](C)C(=O)CC
REMARK SMILES IDX 4 1 5 2 6 3 7 4 8 5 9 6 3 7 2 8 1 9
REMARK H PARENT
REMARK Flexibility Score: inf
ROOT
ATOM      1  C   UNL     1     -12.978 -15.654  28.341  1.00  0.00     0.057 C 
ATOM      2  C   UNL     1     -11.580 -15.280  28.850  1.00  0.00     0.016 C 
ENDROOT
BRANCH   1   3
ATOM      3  C   UNL     1     -12.864 -16.647  27.204  1.00  0.00     0.135 C 
ATOM      4  O   UNL     1     -13.770 -16.739  26.387  1.00  0.00    -0.299 OA
BRANCH   3   5
ATOM      5  C   UNL     1     -11.651 -17.527  27.055  1.00  0.00     0.072 C 
ATOM      6  C   UNL     1     -10.915 -17.215  25.756  1.00  0.00     0.012 C 
ENDBRANCH   3   5
ENDBRANCH   1   3
BRANCH   1   7
ATOM      7  C   UNL     1     -13.769 -14.413  27.877  1.00  0.00     0.038 C 
BRANCH   7   8
ATOM      8  C   UNL     1     -14.307 -13.611  29.033  1.00  0.00    -0.034 C 
ATOM      9  C   UNL     1     -14.929 -12.443  28.849  1.00  0.00     0.004 C 
ENDBRANCH   7   8
ENDBRANCH   1   7
TORSDOF 4
ENDMDL
MODEL 2
REMARK VINA RESULT:    -4.927      1.515      4.287
REMARK INTER + INTRA:          -6.258
REMARK INTER:                  -6.004
REMARK INTRA:                  -0.255
REMARK UNBOUND:                -0.179
REMARK SMILES C=CC[C@H](C)C(=O)CC
REMARK SMILES IDX 4 1 5 2 6 3 7 4 8 5 9 6 3 7 2 8 1 9
REMARK H PARENT
REMARK Flexibility Score: inf
ROOT
ATOM      1  C   UNL     1     -12.163 -15.277  28.533  1.00  0.00     0.057 C 
ATOM      2  C   UNL     1     -10.753 -15.504  29.093  1.00  0.00     0.016 C 
ENDROOT
BRANCH   1   3
ATOM      3  C   UNL     1     -13.186 -15.407  29.641  1.00  0.00     0.135 C 
ATOM      4  O   UNL     1     -13.291 -16.464  30.248  1.00  0.00    -0.299 OA
BRANCH   3   5
ATOM      5  C   UNL     1     -14.079 -14.254  30.018  1.00  0.00     0.072 C 
ATOM      6  C   UNL     1     -14.367 -13.376  28.805  1.00  0.00     0.012 C 
ENDBRANCH   3   5
ENDBRANCH   1   3
BRANCH   1   7
ATOM      7  C   UNL     1     -12.492 -16.268  27.396  1.00  0.00     0.038 C 
BRANCH   7   8
ATOM      8  C   UNL     1     -11.320 -17.144  27.040  1.00  0.00    -0.034 C 
ATOM      9  C   UNL     1     -10.892 -17.269  25.781  1.00  0.00     0.004 C 
ENDBRANCH   7   8
ENDBRANCH   1   7
TORSDOF 4
ENDMDL
MODEL 3
REMARK VINA RESULT:    -4.885      1.579      2.095
REMARK INTER + INTRA:          -6.206
REMARK INTER:                  -6.047
REMARK INTRA:                  -0.159
REMARK UNBOUND:                -0.179
REMARK SMILES C=CC[C@H](C)C(=O)CC
REMARK SMILES IDX 4 1 5 2 6 3 7 4 8 5 9 6 3 7 2 8 1 9
REMARK H PARENT
REMARK Flexibility Score: inf
ROOT
ATOM      1  C   UNL     1     -12.948 -14.825  28.618  1.00  0.00     0.057 C 
ATOM      2  C   UNL     1     -14.013 -13.771  28.286  1.00  0.00     0.016 C 
ENDROOT
BRANCH   1   3
ATOM      3  C   UNL     1     -12.913 -15.883  27.536  1.00  0.00     0.135 C 
ATOM      4  O   UNL     1     -13.807 -15.925  26.701  1.00  0.00    -0.299 OA
BRANCH   3   5
ATOM      5  C   UNL     1     -11.794 -16.887  27.462  1.00  0.00     0.072 C 
ATOM      6  C   UNL     1     -11.344 -17.088  26.018  1.00  0.00     0.012 C 
ENDBRANCH   3   5
ENDBRANCH   1   3
BRANCH   1   7
ATOM      7  C   UNL     1     -13.204 -15.485  29.990  1.00  0.00     0.038 C 
BRANCH   7   8
ATOM      8  C   UNL     1     -14.157 -14.687  30.841  1.00  0.00    -0.034 C 
ATOM      9  C   UNL     1     -14.388 -14.999  32.119  1.00  0.00     0.004 C 
ENDBRANCH   7   8
ENDBRANCH   1   7
TORSDOF 4
ENDMDL
MODEL 4
REMARK VINA RESULT:    -4.865      2.103      3.122
REMARK INTER + INTRA:          -6.181
REMARK INTER:                  -5.781
REMARK INTRA:                  -0.400
REMARK UNBOUND:                -0.179
REMARK SMILES C=CC[C@H](C)C(=O)CC
REMARK SMILES IDX 4 1 5 2 6 3 7 4 8 5 9 6 3 7 2 8 1 9
REMARK H PARENT
REMARK Flexibility Score: inf
ROOT
ATOM      1  C   UNL     1     -12.465 -15.517  29.308  1.00  0.00     0.057 C 
ATOM      2  C   UNL     1     -10.965 -15.568  28.987  1.00  0.00     0.016 C 
ENDROOT
BRANCH   1   3
ATOM      3  C   UNL     1     -12.936 -16.872  29.791  1.00  0.00     0.135 C 
ATOM      4  O   UNL     1     -13.272 -17.721  28.978  1.00  0.00    -0.299 OA
BRANCH   3   5
ATOM      5  C   UNL     1     -12.996 -17.200  31.259  1.00  0.00     0.072 C 
ATOM      6  C   UNL     1     -13.827 -16.165  32.010  1.00  0.00     0.012 C 
ENDBRANCH   3   5
ENDBRANCH   1   3
BRANCH   1   7
ATOM      7  C   UNL     1     -13.297 -15.076  28.085  1.00  0.00     0.038 C 
BRANCH   7   8
ATOM      8  C   UNL     1     -14.057 -13.801  28.337  1.00  0.00    -0.034 C 
ATOM      9  C   UNL     1     -14.614 -13.537  29.522  1.00  0.00     0.004 C 
ENDBRANCH   7   8
ENDBRANCH   1   7
TORSDOF 4
ENDMDL
MODEL 5
REMARK VINA RESULT:    -4.858      1.907      2.426
REMARK INTER + INTRA:          -6.172
REMARK INTER:                  -5.950
REMARK INTRA:                  -0.223
REMARK UNBOUND:                -0.179
REMARK SMILES C=CC[C@H](C)C(=O)CC
REMARK SMILES IDX 4 1 5 2 6 3 7 4 8 5 9 6 3 7 2 8 1 9
REMARK H PARENT
REMARK Flexibility Score: inf
ROOT
ATOM      1  C   UNL     1     -12.651 -16.063  27.893  1.00  0.00     0.057 C 
ATOM      2  C   UNL     1     -13.611 -16.121  26.697  1.00  0.00     0.016 C 
ENDROOT
BRANCH   1   3
ATOM      3  C   UNL     1     -12.822 -17.297  28.753  1.00  0.00     0.135 C 
ATOM      4  O   UNL     1     -13.247 -17.186  29.894  1.00  0.00    -0.299 OA
BRANCH   3   5
ATOM      5  C   UNL     1     -12.482 -18.666  28.228  1.00  0.00     0.072 C 
ATOM      6  C   UNL     1     -13.601 -19.656  28.536  1.00  0.00     0.012 C 
ENDBRANCH   3   5
ENDBRANCH   1   3
BRANCH   1   7
ATOM      7  C   UNL     1     -12.874 -14.794  28.744  1.00  0.00     0.038 C 
BRANCH   7   8
ATOM      8  C   UNL     1     -13.988 -13.934  28.209  1.00  0.00    -0.034 C 
ATOM      9  C   UNL     1     -14.729 -13.164  29.011  1.00  0.00     0.004 C 
ENDBRANCH   7   8
ENDBRANCH   1   7
TORSDOF 4
ENDMDL
MODEL 6
REMARK VINA RESULT:    -4.770      0.997      2.703
REMARK INTER + INTRA:          -6.064
REMARK INTER:                  -5.634
REMARK INTRA:                  -0.430
REMARK UNBOUND:                -0.179
REMARK SMILES C=CC[C@H](C)C(=O)CC
REMARK SMILES IDX 4 1 5 2 6 3 7 4 8 5 9 6 3 7 2 8 1 9
REMARK H PARENT
REMARK Flexibility Score: inf
ROOT
ATOM      1  C   UNL     1     -12.636 -15.201  28.274  1.00  0.00     0.057 C 
ATOM      2  C   UNL     1     -13.709 -14.111  28.399  1.00  0.00     0.016 C 
ENDROOT
BRANCH   1   3
ATOM      3  C   UNL     1     -13.005 -16.164  27.166  1.00  0.00     0.135 C 
ATOM      4  O   UNL     1     -14.007 -15.959  26.495  1.00  0.00    -0.299 OA
BRANCH   3   5
ATOM      5  C   UNL     1     -12.159 -17.372  26.868  1.00  0.00     0.072 C 
ATOM      6  C   UNL     1     -11.043 -17.022  25.888  1.00  0.00     0.012 C 
ENDBRANCH   3   5
ENDBRANCH   1   3
BRANCH   1   7
ATOM      7  C   UNL     1     -12.446 -15.971  29.599  1.00  0.00     0.038 C 
BRANCH   7   8
ATOM      8  C   UNL     1     -11.014 -15.965  30.066  1.00  0.00    -0.034 C 
ATOM      9  C   UNL     1     -10.030 -15.475  29.308  1.00  0.00     0.004 C 
ENDBRANCH   7   8
ENDBRANCH   1   7
TORSDOF 4
ENDMDL
MODEL 7
REMARK VINA RESULT:    -4.670      1.576      1.933
REMARK INTER + INTRA:          -5.941
REMARK INTER:                  -5.520
REMARK INTRA:                  -0.421
REMARK UNBOUND:                -0.179
REMARK SMILES C=CC[C@H](C)C(=O)CC
REMARK SMILES IDX 4 1 5 2 6 3 7 4 8 5 9 6 3 7 2 8 1 9
REMARK H PARENT
REMARK Flexibility Score: inf
ROOT
ATOM      1  C   UNL     1     -11.479 -16.500  29.462  1.00  0.00     0.057 C 
ATOM      2  C   UNL     1     -10.314 -15.531  29.219  1.00  0.00     0.016 C 
ENDROOT
BRANCH   1   3
ATOM      3  C   UNL     1     -11.527 -17.536  28.359  1.00  0.00     0.135 C 
ATOM      4  O   UNL     1     -12.199 -18.547  28.507  1.00  0.00    -0.299 OA
BRANCH   3   5
ATOM      5  C   UNL     1     -10.764 -17.344  27.075  1.00  0.00     0.072 C 
ATOM      6  C   UNL     1     -11.706 -16.952  25.941  1.00  0.00     0.012 C 
ENDBRANCH   3   5
ENDBRANCH   1   3
BRANCH   1   7
ATOM      7  C   UNL     1     -12.831 -15.760  29.548  1.00  0.00     0.038 C 
BRANCH   7   8
ATOM      8  C   UNL     1     -12.899 -14.581  28.613  1.00  0.00    -0.034 C 
ATOM      9  C   UNL     1     -14.053 -13.965  28.342  1.00  0.00     0.004 C 
ENDBRANCH   7   8
ENDBRANCH   1   7
TORSDOF 4
ENDMDL
MODEL 8
REMARK VINA RESULT:    -4.639      2.181      2.387
REMARK INTER + INTRA:          -5.903
REMARK INTER:                  -5.612
REMARK INTRA:                  -0.291
REMARK UNBOUND:                -0.179
REMARK SMILES C=CC[C@H](C)C(=O)CC
REMARK SMILES IDX 4 1 5 2 6 3 7 4 8 5 9 6 3 7 2 8 1 9
REMARK H PARENT
REMARK Flexibility Score: inf
ROOT
ATOM      1  C   UNL     1     -12.432 -15.620  29.155  1.00  0.00     0.057 C 
ATOM      2  C   UNL     1     -10.923 -15.672  28.882  1.00  0.00     0.016 C 
ENDROOT
BRANCH   1   3
ATOM      3  C   UNL     1     -12.938 -16.999  29.520  1.00  0.00     0.135 C 
ATOM      4  O   UNL     1     -13.219 -17.254  30.683  1.00  0.00    -0.299 OA
BRANCH   3   5
ATOM      5  C   UNL     1     -13.108 -18.070  28.475  1.00  0.00     0.072 C 
ATOM      6  C   UNL     1     -12.477 -19.380  28.937  1.00  0.00     0.012 C 
ENDBRANCH   3   5
ENDBRANCH   1   3
BRANCH   1   7
ATOM      7  C   UNL     1     -13.215 -15.077  27.941  1.00  0.00     0.038 C 
BRANCH   7   8
ATOM      8  C   UNL     1     -14.044 -13.868  28.287  1.00  0.00    -0.034 C 
ATOM      9  C   UNL     1     -14.479 -13.646  29.530  1.00  0.00     0.004 C 
ENDBRANCH   7   8
ENDBRANCH   1   7
TORSDOF 4
ENDMDL
MODEL 9
REMARK VINA RESULT:    -4.556      2.515      4.259
REMARK INTER + INTRA:          -5.800
REMARK INTER:                  -5.467
REMARK INTRA:                  -0.333
REMARK UNBOUND:                -0.179
REMARK SMILES C=CC[C@H](C)C(=O)CC
REMARK SMILES IDX 4 1 5 2 6 3 7 4 8 5 9 6 3 7 2 8 1 9
REMARK H PARENT
REMARK Flexibility Score: inf
ROOT
ATOM      1  C   UNL     1     -13.090 -15.308  29.032  1.00  0.00     0.057 C 
ATOM      2  C   UNL     1     -13.700 -14.002  28.507  1.00  0.00     0.016 C 
ENDROOT
BRANCH   1   3
ATOM      3  C   UNL     1     -13.358 -15.444  30.515  1.00  0.00     0.135 C 
ATOM      4  O   UNL     1     -14.302 -14.849  31.017  1.00  0.00    -0.299 OA
BRANCH   3   5
ATOM      5  C   UNL     1     -12.486 -16.304  31.391  1.00  0.00     0.072 C 
ATOM      6  C   UNL     1     -13.117 -17.677  31.598  1.00  0.00     0.012 C 
ENDBRANCH   3   5
ENDBRANCH   1   3
BRANCH   1   7
ATOM      7  C   UNL     1     -11.571 -15.378  28.764  1.00  0.00     0.038 C 
BRANCH   7   8
ATOM      8  C   UNL     1     -11.204 -16.504  27.833  1.00  0.00    -0.034 C 
ATOM      9  C   UNL     1     -11.988 -16.854  26.810  1.00  0.00     0.004 C 
ENDBRANCH   7   8
ENDBRANCH   1   7
TORSDOF 4
ENDMDL
