MODEL 1
REMARK VINA RESULT:    10.603      0.000      0.000
REMARK INTER + INTRA:          19.754
REMARK INTER:                  20.521
REMARK INTRA:                  -0.767
REMARK UNBOUND:                -0.767
REMARK SMILES CCCCCCCCCCCCCCCCCC(=O)[O-]
REMARK SMILES IDX 10 1 11 2 12 3 13 4 14 5 15 6 16 7 17 8 18 9 19 10 20 11
REMARK SMILES IDX 9 12 8 13 7 14 6 15 5 16 4 17 3 18 2 19 1 20
REMARK H PARENT
REMARK Flexibility Score: inf
ROOT
ATOM      1  C   UNL     1       0.468   8.288  -4.109  1.00  0.00     0.000 C 
ENDROOT
BRANCH   1   2
ATOM      2  C   UNL     1       0.908   8.910  -5.449  1.00  0.00     0.000 C 
BRANCH   2   3
ATOM      3  C   UNL     1       0.190   8.352  -6.691  1.00  0.00     0.000 C 
BRANCH   3   4
ATOM      4  C   UNL     1       1.083   8.336  -7.939  1.00  0.00     0.000 C 
BRANCH   4   5
ATOM      5  C   UNL     1       2.436   9.003  -7.657  1.00  0.00     0.000 C 
BRANCH   5   6
ATOM      6  C   UNL     1       3.329   9.100  -8.905  1.00  0.00     0.000 C 
BRANCH   6   7
ATOM      7  C   UNL     1       2.670   9.851 -10.081  1.00  0.00     0.006 C 
BRANCH   7   8
ATOM      8  C   UNL     1       3.559   9.864 -11.332  1.00  0.00     0.053 C 
BRANCH   8   9
ATOM      9  C   UNL     1       2.866  10.562 -12.459  1.00  0.00     0.041 C 
ATOM     10  O   UNL     1       2.343   9.897 -13.391  1.00  0.00    -0.550 OA
ATOM     11  O   UNL     1       2.754  11.947 -12.455  1.00  0.00    -0.550 OA
ENDBRANCH   8   9
ENDBRANCH   7   8
ENDBRANCH   6   7
ENDBRANCH   5   6
ENDBRANCH   4   5
ENDBRANCH   3   4
ENDBRANCH   2   3
ENDBRANCH   1   2
BRANCH   1  12
ATOM     12  C   UNL     1       1.441   7.246  -3.523  1.00  0.00     0.000 C 
BRANCH  12  13
ATOM     13  C   UNL     1       2.932   7.628  -3.609  1.00  0.00    -0.000 C 
BRANCH  13  14
ATOM     14  C   UNL     1       3.727   7.440  -2.303  1.00  0.00    -0.000 C 
BRANCH  14  15
ATOM     15  C   UNL     1       5.249   7.652  -2.426  1.00  0.00    -0.000 C 
BRANCH  15  16
ATOM     16  C   UNL     1       6.085   6.361  -2.508  1.00  0.00    -0.000 C 
BRANCH  16  17
ATOM     17  C   UNL     1       5.345   5.215  -3.218  1.00  0.00    -0.000 C 
BRANCH  17  18
ATOM     18  C   UNL     1       6.030   4.794  -4.529  1.00  0.00    -0.000 C 
BRANCH  18  19
ATOM     19  C   UNL     1       6.809   3.478  -4.394  1.00  0.00    -0.003 C 
ATOM     20  C   UNL     1       6.927   3.057  -2.932  1.00  0.00     0.004 C 
ENDBRANCH  18  19
ENDBRANCH  17  18
ENDBRANCH  16  17
ENDBRANCH  15  16
ENDBRANCH  14  15
ENDBRANCH  13  14
ENDBRANCH  12  13
ENDBRANCH   1  12
TORSDOF 16
ENDMDL
MODEL 2
REMARK VINA RESULT:    11.182      2.113      2.627
REMARK INTER + INTRA:          20.875
REMARK INTER:                  21.527
REMARK INTRA:                  -0.652
REMARK UNBOUND:                -0.767
REMARK SMILES CCCCCCCCCCCCCCCCCC(=O)[O-]
REMARK SMILES IDX 10 1 11 2 12 3 13 4 14 5 15 6 16 7 17 8 18 9 19 10 20 11
REMARK SMILES IDX 9 12 8 13 7 14 6 15 5 16 4 17 3 18 2 19 1 20
REMARK H PARENT
REMARK Flexibility Score: inf
ROOT
ATOM      1  C   UNL     1       1.192   7.702  -3.329  1.00  0.00     0.000 C 
ENDROOT
BRANCH   1   2
ATOM      2  C   UNL     1       0.355   7.840  -4.617  1.00  0.00     0.000 C 
BRANCH   2   3
ATOM      3  C   UNL     1       0.754   9.015  -5.528  1.00  0.00     0.000 C 
BRANCH   3   4
ATOM      4  C   UNL     1       1.206   8.562  -6.923  1.00  0.00     0.000 C 
BRANCH   4   5
ATOM      5  C   UNL     1       0.002   8.373  -7.856  1.00  0.00     0.000 C 
BRANCH   5   6
ATOM      6  C   UNL     1       0.384   7.742  -9.206  1.00  0.00     0.000 C 
BRANCH   6   7
ATOM      7  C   UNL     1      -0.199   8.488 -10.425  1.00  0.00     0.006 C 
BRANCH   7   8
ATOM      8  C   UNL     1      -0.848   7.532 -11.435  1.00  0.00     0.053 C 
BRANCH   8   9
ATOM      9  C   UNL     1      -0.297   7.766 -12.805  1.00  0.00     0.041 C 
ATOM     10  O   UNL     1      -0.495   8.863 -13.390  1.00  0.00    -0.550 OA
ATOM     11  O   UNL     1       0.479   6.789 -13.418  1.00  0.00    -0.550 OA
ENDBRANCH   8   9
ENDBRANCH   7   8
ENDBRANCH   6   7
ENDBRANCH   5   6
ENDBRANCH   4   5
ENDBRANCH   3   4
ENDBRANCH   2   3
ENDBRANCH   1   2
BRANCH   1  12
ATOM     12  C   UNL     1       2.712   7.574  -3.549  1.00  0.00     0.000 C 
BRANCH  12  13
ATOM     13  C   UNL     1       3.526   7.243  -2.282  1.00  0.00    -0.000 C 
BRANCH  13  14
ATOM     14  C   UNL     1       5.006   7.668  -2.332  1.00  0.00    -0.000 C 
BRANCH  14  15
ATOM     15  C   UNL     1       6.005   6.527  -2.612  1.00  0.00    -0.000 C 
BRANCH  15  16
ATOM     16  C   UNL     1       5.388   5.247  -3.205  1.00  0.00    -0.000 C 
BRANCH  16  17
ATOM     17  C   UNL     1       6.085   4.792  -4.498  1.00  0.00    -0.000 C 
BRANCH  17  18
ATOM     18  C   UNL     1       6.813   3.448  -4.333  1.00  0.00    -0.000 C 
BRANCH  18  19
ATOM     19  C   UNL     1       7.180   3.149  -2.872  1.00  0.00    -0.003 C 
ATOM     20  C   UNL     1       7.384   1.652  -2.653  1.00  0.00     0.004 C 
ENDBRANCH  18  19
ENDBRANCH  17  18
ENDBRANCH  16  17
ENDBRANCH  15  16
ENDBRANCH  14  15
ENDBRANCH  13  14
ENDBRANCH  12  13
ENDBRANCH   1  12
TORSDOF 16
ENDMDL
MODEL 3
REMARK VINA RESULT:    11.211      3.648      8.387
REMARK INTER + INTRA:          20.930
REMARK INTER:                  21.797
REMARK INTRA:                  -0.866
REMARK UNBOUND:                -0.767
REMARK SMILES CCCCCCCCCCCCCCCCCC(=O)[O-]
REMARK SMILES IDX 10 1 11 2 12 3 13 4 14 5 15 6 16 7 17 8 18 9 19 10 20 11
REMARK SMILES IDX 9 12 8 13 7 14 6 15 5 16 4 17 3 18 2 19 1 20
REMARK H PARENT
REMARK Flexibility Score: inf
ROOT
ATOM      1  C   UNL     1       0.814   8.999  -5.543  1.00  0.00     0.000 C 
ENDROOT
BRANCH   1   2
ATOM      2  C   UNL     1       0.245   8.354  -4.263  1.00  0.00     0.000 C 
BRANCH   2   3
ATOM      3  C   UNL     1       1.130   7.260  -3.639  1.00  0.00     0.000 C 
BRANCH   3   4
ATOM      4  C   UNL     1       2.605   7.674  -3.533  1.00  0.00     0.000 C 
BRANCH   4   5
ATOM      5  C   UNL     1       3.229   7.157  -2.230  1.00  0.00     0.000 C 
BRANCH   5   6
ATOM      6  C   UNL     1       4.700   7.575  -2.063  1.00  0.00     0.000 C 
BRANCH   6   7
ATOM      7  C   UNL     1       5.685   6.708  -2.875  1.00  0.00     0.006 C 
BRANCH   7   8
ATOM      8  C   UNL     1       5.101   5.330  -3.215  1.00  0.00     0.053 C 
BRANCH   8   9
ATOM      9  C   UNL     1       6.054   4.553  -4.066  1.00  0.00     0.041 C 
ATOM     10  O   UNL     1       6.814   3.693  -3.547  1.00  0.00    -0.550 OA
ATOM     11  O   UNL     1       6.069   4.743  -5.443  1.00  0.00    -0.550 OA
ENDBRANCH   8   9
ENDBRANCH   7   8
ENDBRANCH   6   7
ENDBRANCH   5   6
ENDBRANCH   4   5
ENDBRANCH   3   4
ENDBRANCH   2   3
ENDBRANCH   1   2
BRANCH   1  12
ATOM     12  C   UNL     1       0.196   8.489  -6.860  1.00  0.00     0.000 C 
BRANCH  12  13
ATOM     13  C   UNL     1       1.178   8.398  -8.045  1.00  0.00    -0.000 C 
BRANCH  13  14
ATOM     14  C   UNL     1       2.641   8.743  -7.704  1.00  0.00    -0.000 C 
BRANCH  14  15
ATOM     15  C   UNL     1       3.440   9.407  -8.843  1.00  0.00    -0.000 C 
BRANCH  15  16
ATOM     16  C   UNL     1       2.653   9.634 -10.147  1.00  0.00    -0.000 C 
BRANCH  16  17
ATOM     17  C   UNL     1       3.557  10.025 -11.329  1.00  0.00    -0.000 C 
BRANCH  17  18
ATOM     18  C   UNL     1       3.041   9.479 -12.671  1.00  0.00    -0.000 C 
BRANCH  18  19
ATOM     19  C   UNL     1       2.268  10.530 -13.480  1.00  0.00    -0.003 C 
ATOM     20  C   UNL     1       2.662  11.944 -13.063  1.00  0.00     0.004 C 
ENDBRANCH  18  19
ENDBRANCH  17  18
ENDBRANCH  16  17
ENDBRANCH  15  16
ENDBRANCH  14  15
ENDBRANCH  13  14
ENDBRANCH  12  13
ENDBRANCH   1  12
TORSDOF 16
ENDMDL
MODEL 4
REMARK VINA RESULT:    11.378      3.647      8.281
REMARK INTER + INTRA:          21.253
REMARK INTER:                  21.762
REMARK INTRA:                  -0.509
REMARK UNBOUND:                -0.767
REMARK SMILES CCCCCCCCCCCCCCCCCC(=O)[O-]
REMARK SMILES IDX 10 1 11 2 12 3 13 4 14 5 15 6 16 7 17 8 18 9 19 10 20 11
REMARK SMILES IDX 9 12 8 13 7 14 6 15 5 16 4 17 3 18 2 19 1 20
REMARK H PARENT
REMARK Flexibility Score: inf
ROOT
ATOM      1  C   UNL     1       1.149   8.844  -5.056  1.00  0.00     0.000 C 
ENDROOT
BRANCH   1   2
ATOM      2  C   UNL     1       0.496   7.868  -4.057  1.00  0.00     0.000 C 
BRANCH   2   3
ATOM      3  C   UNL     1       1.485   7.013  -3.245  1.00  0.00     0.000 C 
BRANCH   3   4
ATOM      4  C   UNL     1       2.935   7.505  -3.362  1.00  0.00     0.000 C 
BRANCH   4   5
ATOM      5  C   UNL     1       3.686   7.322  -2.036  1.00  0.00     0.000 C 
BRANCH   5   6
ATOM      6  C   UNL     1       5.181   7.669  -2.141  1.00  0.00     0.000 C 
BRANCH   6   7
ATOM      7  C   UNL     1       6.051   6.506  -2.663  1.00  0.00     0.006 C 
BRANCH   7   8
ATOM      8  C   UNL     1       5.209   5.394  -3.304  1.00  0.00     0.053 C 
BRANCH   8   9
ATOM      9  C   UNL     1       6.055   4.548  -4.201  1.00  0.00     0.041 C 
ATOM     10  O   UNL     1       6.048   4.738  -5.446  1.00  0.00    -0.550 OA
ATOM     11  O   UNL     1       6.891   3.580  -3.657  1.00  0.00    -0.550 OA
ENDBRANCH   8   9
ENDBRANCH   7   8
ENDBRANCH   6   7
ENDBRANCH   5   6
ENDBRANCH   4   5
ENDBRANCH   3   4
ENDBRANCH   2   3
ENDBRANCH   1   2
BRANCH   1  12
ATOM     12  C   UNL     1       0.324   9.124  -6.328  1.00  0.00     0.000 C 
BRANCH  12  13
ATOM     13  C   UNL     1       0.429   8.043  -7.422  1.00  0.00    -0.000 C 
BRANCH  13  14
ATOM     14  C   UNL     1       1.308   8.424  -8.629  1.00  0.00    -0.000 C 
BRANCH  14  15
ATOM     15  C   UNL     1       2.658   9.079  -8.274  1.00  0.00    -0.000 C 
BRANCH  15  16
ATOM     16  C   UNL     1       3.591   9.343  -9.470  1.00  0.00    -0.000 C 
BRANCH  16  17
ATOM     17  C   UNL     1       2.883  10.056 -10.634  1.00  0.00    -0.000 C 
BRANCH  17  18
ATOM     18  C   UNL     1       3.349   9.548 -12.008  1.00  0.00    -0.000 C 
BRANCH  18  19
ATOM     19  C   UNL     1       2.679  10.290 -13.173  1.00  0.00    -0.003 C 
ATOM     20  C   UNL     1       2.543  11.780 -12.869  1.00  0.00     0.004 C 
ENDBRANCH  18  19
ENDBRANCH  17  18
ENDBRANCH  16  17
ENDBRANCH  15  16
ENDBRANCH  14  15
ENDBRANCH  13  14
ENDBRANCH  12  13
ENDBRANCH   1  12
TORSDOF 16
ENDMDL
MODEL 5
REMARK VINA RESULT:    11.944      4.965      6.663
REMARK INTER + INTRA:          22.349
REMARK INTER:                  23.102
REMARK INTRA:                  -0.753
REMARK UNBOUND:                -0.767
REMARK SMILES CCCCCCCCCCCCCCCCCC(=O)[O-]
REMARK SMILES IDX 10 1 11 2 12 3 13 4 14 5 15 6 16 7 17 8 18 9 19 10 20 11
REMARK SMILES IDX 9 12 8 13 7 14 6 15 5 16 4 17 3 18 2 19 1 20
REMARK H PARENT
REMARK Flexibility Score: inf
ROOT
ATOM      1  C   UNL     1      -0.941   9.784  -3.241  1.00  0.00     0.000 C 
ENDROOT
BRANCH   1   2
ATOM      2  C   UNL     1      -1.072  11.252  -2.787  1.00  0.00     0.000 C 
BRANCH   2   3
ATOM      3  C   UNL     1      -1.397  11.443  -1.295  1.00  0.00     0.000 C 
BRANCH   3   4
ATOM      4  C   UNL     1      -0.721  12.682  -0.691  1.00  0.00     0.000 C 
BRANCH   4   5
ATOM      5  C   UNL     1      -0.609  13.808  -1.728  1.00  0.00     0.000 C 
BRANCH   5   6
ATOM      6  C   UNL     1      -0.195  15.154  -1.110  1.00  0.00     0.000 C 
BRANCH   6   7
ATOM      7  C   UNL     1       0.931  15.870  -1.885  1.00  0.00     0.006 C 
BRANCH   7   8
ATOM      8  C   UNL     1       0.494  16.281  -3.297  1.00  0.00     0.053 C 
BRANCH   8   9
ATOM      9  C   UNL     1       1.575  15.988  -4.287  1.00  0.00     0.041 C 
ATOM     10  O   UNL     1       2.780  16.210  -3.994  1.00  0.00    -0.550 OA
ATOM     11  O   UNL     1       1.258  15.421  -5.515  1.00  0.00    -0.550 OA
ENDBRANCH   8   9
ENDBRANCH   7   8
ENDBRANCH   6   7
ENDBRANCH   5   6
ENDBRANCH   4   5
ENDBRANCH   3   4
ENDBRANCH   2   3
ENDBRANCH   1   2
BRANCH   1  12
ATOM     12  C   UNL     1       0.173   9.517  -4.273  1.00  0.00     0.000 C 
BRANCH  12  13
ATOM     13  C   UNL     1       0.409   8.029  -4.604  1.00  0.00    -0.000 C 
BRANCH  13  14
ATOM     14  C   UNL     1       1.205   7.247  -3.541  1.00  0.00    -0.000 C 
BRANCH  14  15
ATOM     15  C   UNL     1       2.673   7.685  -3.369  1.00  0.00    -0.000 C 
BRANCH  15  16
ATOM     16  C   UNL     1       3.425   7.014  -2.205  1.00  0.00    -0.000 C 
BRANCH  16  17
ATOM     17  C   UNL     1       4.869   7.519  -2.056  1.00  0.00    -0.000 C 
BRANCH  17  18
ATOM     18  C   UNL     1       5.873   6.680  -2.863  1.00  0.00    -0.000 C 
BRANCH  18  19
ATOM     19  C   UNL     1       5.352   5.269  -3.174  1.00  0.00    -0.003 C 
ATOM     20  C   UNL     1       6.152   4.624  -4.302  1.00  0.00     0.004 C 
ENDBRANCH  18  19
ENDBRANCH  17  18
ENDBRANCH  16  17
ENDBRANCH  15  16
ENDBRANCH  14  15
ENDBRANCH  13  14
ENDBRANCH  12  13
ENDBRANCH   1  12
TORSDOF 16
ENDMDL
MODEL 6
REMARK VINA RESULT:    11.958      4.493      8.636
REMARK INTER + INTRA:          22.376
REMARK INTER:                  23.239
REMARK INTRA:                  -0.863
REMARK UNBOUND:                -0.767
REMARK SMILES CCCCCCCCCCCCCCCCCC(=O)[O-]
REMARK SMILES IDX 10 1 11 2 12 3 13 4 14 5 15 6 16 7 17 8 18 9 19 10 20 11
REMARK SMILES IDX 9 12 8 13 7 14 6 15 5 16 4 17 3 18 2 19 1 20
REMARK H PARENT
REMARK Flexibility Score: inf
ROOT
ATOM      1  C   UNL     1       0.294   7.467  -4.034  1.00  0.00     0.000 C 
ENDROOT
BRANCH   1   2
ATOM      2  C   UNL     1       1.394   6.853  -3.144  1.00  0.00     0.000 C 
BRANCH   2   3
ATOM      3  C   UNL     1       2.771   7.530  -3.254  1.00  0.00     0.000 C 
BRANCH   3   4
ATOM      4  C   UNL     1       3.702   7.182  -2.084  1.00  0.00     0.000 C 
BRANCH   4   5
ATOM      5  C   UNL     1       5.128   7.685  -2.348  1.00  0.00     0.000 C 
BRANCH   5   6
ATOM      6  C   UNL     1       6.113   6.550  -2.676  1.00  0.00     0.000 C 
BRANCH   6   7
ATOM      7  C   UNL     1       5.425   5.249  -3.142  1.00  0.00     0.006 C 
BRANCH   7   8
ATOM      8  C   UNL     1       6.151   4.603  -4.330  1.00  0.00     0.053 C 
BRANCH   8   9
ATOM      9  C   UNL     1       6.837   3.345  -3.903  1.00  0.00     0.041 C 
ATOM     10  O   UNL     1       7.235   2.516  -4.763  1.00  0.00    -0.550 OA
ATOM     11  O   UNL     1       7.082   3.110  -2.556  1.00  0.00    -0.550 OA
ENDBRANCH   8   9
ENDBRANCH   7   8
ENDBRANCH   6   7
ENDBRANCH   5   6
ENDBRANCH   4   5
ENDBRANCH   3   4
ENDBRANCH   2   3
ENDBRANCH   1   2
BRANCH   1  12
ATOM     12  C   UNL     1       0.583   8.896  -4.536  1.00  0.00     0.000 C 
BRANCH  12  13
ATOM     13  C   UNL     1       0.465   9.085  -6.062  1.00  0.00    -0.000 C 
BRANCH  13  14
ATOM     14  C   UNL     1       1.673   8.577  -6.873  1.00  0.00    -0.000 C 
BRANCH  14  15
ATOM     15  C   UNL     1       1.469   8.547  -8.401  1.00  0.00    -0.000 C 
BRANCH  15  16
ATOM     16  C   UNL     1       0.132   7.946  -8.871  1.00  0.00    -0.000 C 
BRANCH  16  17
ATOM     17  C   UNL     1      -0.416   8.625 -10.138  1.00  0.00    -0.000 C 
BRANCH  17  18
ATOM     18  C   UNL     1      -0.802   7.613 -11.229  1.00  0.00    -0.000 C 
BRANCH  18  19
ATOM     19  C   UNL     1      -0.521   8.133 -12.646  1.00  0.00    -0.003 C 
ATOM     20  C   UNL     1       0.360   7.158 -13.424  1.00  0.00     0.004 C 
ENDBRANCH  18  19
ENDBRANCH  17  18
ENDBRANCH  16  17
ENDBRANCH  15  16
ENDBRANCH  14  15
ENDBRANCH  13  14
ENDBRANCH  12  13
ENDBRANCH   1  12
TORSDOF 16
ENDMDL
MODEL 7
REMARK VINA RESULT:    12.535      4.142      8.673
REMARK INTER + INTRA:          23.492
REMARK INTER:                  22.906
REMARK INTRA:                   0.586
REMARK UNBOUND:                -0.767
REMARK SMILES CCCCCCCCCCCCCCCCCC(=O)[O-]
REMARK SMILES IDX 10 1 11 2 12 3 13 4 14 5 15 6 16 7 17 8 18 9 19 10 20 11
REMARK SMILES IDX 9 12 8 13 7 14 6 15 5 16 4 17 3 18 2 19 1 20
REMARK H PARENT
REMARK Flexibility Score: inf
ROOT
ATOM      1  C   UNL     1       0.133   7.951  -4.828  1.00  0.00     0.000 C 
ENDROOT
BRANCH   1   2
ATOM      2  C   UNL     1       0.880   7.512  -3.552  1.00  0.00     0.000 C 
BRANCH   2   3
ATOM      3  C   UNL     1       2.406   7.705  -3.594  1.00  0.00     0.000 C 
BRANCH   3   4
ATOM      4  C   UNL     1       3.160   6.695  -2.718  1.00  0.00     0.000 C 
BRANCH   4   5
ATOM      5  C   UNL     1       4.007   7.411  -1.658  1.00  0.00     0.000 C 
BRANCH   5   6
ATOM      6  C   UNL     1       5.427   7.742  -2.148  1.00  0.00     0.000 C 
BRANCH   6   7
ATOM      7  C   UNL     1       6.227   6.505  -2.607  1.00  0.00     0.006 C 
BRANCH   7   8
ATOM      8  C   UNL     1       5.318   5.399  -3.161  1.00  0.00     0.053 C 
BRANCH   8   9
ATOM      9  C   UNL     1       6.070   4.539  -4.126  1.00  0.00     0.041 C 
ATOM     10  O   UNL     1       6.803   3.605  -3.707  1.00  0.00    -0.550 OA
ATOM     11  O   UNL     1       5.922   4.736  -5.494  1.00  0.00    -0.550 OA
ENDBRANCH   8   9
ENDBRANCH   7   8
ENDBRANCH   6   7
ENDBRANCH   5   6
ENDBRANCH   4   5
ENDBRANCH   3   4
ENDBRANCH   2   3
ENDBRANCH   1   2
BRANCH   1  12
ATOM     12  C   UNL     1       0.769   9.137  -5.581  1.00  0.00     0.000 C 
BRANCH  12  13
ATOM     13  C   UNL     1       1.405   8.778  -6.939  1.00  0.00    -0.000 C 
BRANCH  13  14
ATOM     14  C   UNL     1       0.525   7.909  -7.858  1.00  0.00    -0.000 C 
BRANCH  14  15
ATOM     15  C   UNL     1      -0.251   8.683  -8.943  1.00  0.00    -0.000 C 
BRANCH  15  16
ATOM     16  C   UNL     1       0.080   8.285 -10.393  1.00  0.00    -0.000 C 
BRANCH  16  17
ATOM     17  C   UNL     1      -1.162   7.855 -11.193  1.00  0.00    -0.000 C 
BRANCH  17  18
ATOM     18  C   UNL     1      -0.826   6.851 -12.307  1.00  0.00    -0.000 C 
BRANCH  18  19
ATOM     19  C   UNL     1       0.117   7.437 -13.368  1.00  0.00    -0.003 C 
ATOM     20  C   UNL     1      -0.245   8.886 -13.684  1.00  0.00     0.004 C 
ENDBRANCH  18  19
ENDBRANCH  17  18
ENDBRANCH  16  17
ENDBRANCH  15  16
ENDBRANCH  14  15
ENDBRANCH  13  14
ENDBRANCH  12  13
ENDBRANCH   1  12
TORSDOF 16
ENDMDL
MODEL 8
REMARK VINA RESULT:    12.667      4.105      9.118
REMARK INTER + INTRA:          23.748
REMARK INTER:                  24.745
REMARK INTRA:                  -0.996
REMARK UNBOUND:                -0.767
REMARK SMILES CCCCCCCCCCCCCCCCCC(=O)[O-]
REMARK SMILES IDX 10 1 11 2 12 3 13 4 14 5 15 6 16 7 17 8 18 9 19 10 20 11
REMARK SMILES IDX 9 12 8 13 7 14 6 15 5 16 4 17 3 18 2 19 1 20
REMARK H PARENT
REMARK Flexibility Score: inf
ROOT
ATOM      1  C   UNL     1       0.175   8.724  -8.336  1.00  0.00     0.000 C 
ENDROOT
BRANCH   1   2
ATOM      2  C   UNL     1       1.329   8.448  -7.351  1.00  0.00     0.000 C 
BRANCH   2   3
ATOM      3  C   UNL     1       1.080   8.925  -5.909  1.00  0.00     0.000 C 
BRANCH   3   4
ATOM      4  C   UNL     1       0.170   7.977  -5.116  1.00  0.00     0.000 C 
BRANCH   4   5
ATOM      5  C   UNL     1       0.493   8.031  -3.616  1.00  0.00     0.000 C 
BRANCH   5   6
ATOM      6  C   UNL     1       1.586   7.033  -3.201  1.00  0.00     0.000 C 
BRANCH   6   7
ATOM      7  C   UNL     1       3.016   7.605  -3.298  1.00  0.00     0.006 C 
BRANCH   7   8
ATOM      8  C   UNL     1       3.863   7.264  -2.065  1.00  0.00     0.053 C 
BRANCH   8   9
ATOM      9  C   UNL     1       5.305   7.137  -2.439  1.00  0.00     0.041 C 
ATOM     10  O   UNL     1       6.130   8.024  -2.097  1.00  0.00    -0.550 OA
ATOM     11  O   UNL     1       5.750   6.012  -3.124  1.00  0.00    -0.550 OA
ENDBRANCH   8   9
ENDBRANCH   7   8
ENDBRANCH   6   7
ENDBRANCH   5   6
ENDBRANCH   4   5
ENDBRANCH   3   4
ENDBRANCH   2   3
ENDBRANCH   1   2
BRANCH   1  12
ATOM     12  C   UNL     1       0.280   7.988  -9.687  1.00  0.00     0.000 C 
BRANCH  12  13
ATOM     13  C   UNL     1      -0.807   8.360 -10.715  1.00  0.00    -0.000 C 
BRANCH  13  14
ATOM     14  C   UNL     1      -0.970   7.361 -11.877  1.00  0.00    -0.000 C 
BRANCH  14  15
ATOM     15  C   UNL     1       0.073   7.492 -13.004  1.00  0.00    -0.000 C 
BRANCH  15  16
ATOM     16  C   UNL     1       0.489   8.935 -13.346  1.00  0.00    -0.000 C 
BRANCH  16  17
ATOM     17  C   UNL     1       2.014   9.135 -13.339  1.00  0.00    -0.000 C 
BRANCH  17  18
ATOM     18  C   UNL     1       2.414  10.618 -13.410  1.00  0.00    -0.000 C 
BRANCH  18  19
ATOM     19  C   UNL     1       2.847  11.181 -12.049  1.00  0.00    -0.003 C 
ATOM     20  C   UNL     1       3.262  10.061 -11.098  1.00  0.00     0.004 C 
ENDBRANCH  18  19
ENDBRANCH  17  18
ENDBRANCH  16  17
ENDBRANCH  15  16
ENDBRANCH  14  15
ENDBRANCH  13  14
ENDBRANCH  12  13
ENDBRANCH   1  12
TORSDOF 16
ENDMDL
MODEL 9
REMARK VINA RESULT:    12.839      4.045      8.823
REMARK INTER + INTRA:          24.081
REMARK INTER:                  25.113
REMARK INTRA:                  -1.032
REMARK UNBOUND:                -0.767
REMARK SMILES CCCCCCCCCCCCCCCCCC(=O)[O-]
REMARK SMILES IDX 10 1 11 2 12 3 13 4 14 5 15 6 16 7 17 8 18 9 19 10 20 11
REMARK SMILES IDX 9 12 8 13 7 14 6 15 5 16 4 17 3 18 2 19 1 20
REMARK H PARENT
REMARK Flexibility Score: inf
ROOT
ATOM      1  C   UNL     1       1.200   8.469  -8.136  1.00  0.00     0.000 C 
ENDROOT
BRANCH   1   2
ATOM      2  C   UNL     1       0.187   8.568  -6.978  1.00  0.00     0.000 C 
BRANCH   2   3
ATOM      3  C   UNL     1       0.811   8.773  -5.586  1.00  0.00     0.000 C 
BRANCH   3   4
ATOM      4  C   UNL     1      -0.061   8.216  -4.453  1.00  0.00     0.000 C 
BRANCH   4   5
ATOM      5  C   UNL     1       0.805   7.621  -3.333  1.00  0.00     0.000 C 
BRANCH   5   6
ATOM      6  C   UNL     1       2.306   7.629  -3.668  1.00  0.00     0.000 C 
BRANCH   6   7
ATOM      7  C   UNL     1       3.115   6.558  -2.907  1.00  0.00     0.006 C 
BRANCH   7   8
ATOM      8  C   UNL     1       4.009   7.171  -1.820  1.00  0.00     0.053 C 
BRANCH   8   9
ATOM      9  C   UNL     1       5.423   7.269  -2.299  1.00  0.00     0.041 C 
ATOM     10  O   UNL     1       5.930   6.335  -2.975  1.00  0.00    -0.550 OA
ATOM     11  O   UNL     1       6.166   8.415  -2.043  1.00  0.00    -0.550 OA
ENDBRANCH   8   9
ENDBRANCH   7   8
ENDBRANCH   6   7
ENDBRANCH   5   6
ENDBRANCH   4   5
ENDBRANCH   3   4
ENDBRANCH   2   3
ENDBRANCH   1   2
BRANCH   1  12
ATOM     12  C   UNL     1       2.641   8.885  -7.781  1.00  0.00     0.000 C 
BRANCH  12  13
ATOM     13  C   UNL     1       3.566   9.122  -8.991  1.00  0.00    -0.000 C 
BRANCH  13  14
ATOM     14  C   UNL     1       3.053  10.162 -10.006  1.00  0.00    -0.000 C 
BRANCH  14  15
ATOM     15  C   UNL     1       3.308   9.815 -11.486  1.00  0.00    -0.000 C 
BRANCH  15  16
ATOM     16  C   UNL     1       2.633  10.752 -12.504  1.00  0.00    -0.000 C 
BRANCH  16  17
ATOM     17  C   UNL     1       2.093  10.007 -13.736  1.00  0.00    -0.000 C 
BRANCH  17  18
ATOM     18  C   UNL     1       1.525   8.623 -13.385  1.00  0.00    -0.000 C 
BRANCH  18  19
ATOM     19  C   UNL     1      -0.010   8.583 -13.431  1.00  0.00    -0.003 C 
ATOM     20  C   UNL     1      -0.570   7.702 -12.318  1.00  0.00     0.004 C 
ENDBRANCH  18  19
ENDBRANCH  17  18
ENDBRANCH  16  17
ENDBRANCH  15  16
ENDBRANCH  14  15
ENDBRANCH  13  14
ENDBRANCH  12  13
ENDBRANCH   1  12
TORSDOF 16
ENDMDL
