MODEL 1
REMARK VINA RESULT:    -3.282      0.000      0.000
REMARK INTER + INTRA:          -6.546
REMARK INTER:                  -5.201
REMARK INTRA:                  -1.345
REMARK UNBOUND:                -1.345
REMARK SMILES CCCCCCCCCCCC(=O)[O-]
REMARK SMILES IDX 7 1 8 2 9 3 10 4 11 5 12 6 13 7 14 8 6 9 5 10 4 11 3 12 2 13
REMARK SMILES IDX 1 14
REMARK H PARENT
REMARK Flexibility Score: inf
ROOT
ATOM      1  C   UNL     1      27.062   7.112  26.388  1.00  0.00     0.000 C 
ENDROOT
BRANCH   1   2
ATOM      2  C   UNL     1      26.184   6.101  27.143  1.00  0.00     0.000 C 
BRANCH   2   3
ATOM      3  C   UNL     1      24.854   5.817  26.420  1.00  0.00     0.000 C 
BRANCH   3   4
ATOM      4  C   UNL     1      23.643   5.891  27.364  1.00  0.00     0.006 C 
BRANCH   4   5
ATOM      5  C   UNL     1      22.453   5.058  26.866  1.00  0.00     0.053 C 
BRANCH   5   6
ATOM      6  C   UNL     1      22.735   3.599  27.027  1.00  0.00     0.041 C 
ATOM      7  O   UNL     1      22.862   2.861  26.014  1.00  0.00    -0.550 OA
ATOM      8  O   UNL     1      22.806   3.039  28.297  1.00  0.00    -0.550 OA
ENDBRANCH   5   6
ENDBRANCH   4   5
ENDBRANCH   3   4
ENDBRANCH   2   3
ENDBRANCH   1   2
BRANCH   1   9
ATOM      9  C   UNL     1      26.254   8.002  25.431  1.00  0.00     0.000 C 
BRANCH   9  10
ATOM     10  C   UNL     1      26.400   9.484  25.806  1.00  0.00    -0.000 C 
BRANCH  10  11
ATOM     11  C   UNL     1      25.072  10.124  26.253  1.00  0.00    -0.000 C 
BRANCH  11  12
ATOM     12  C   UNL     1      24.369   9.414  27.424  1.00  0.00    -0.000 C 
BRANCH  12  13
ATOM     13  C   UNL     1      25.067   9.646  28.772  1.00  0.00    -0.003 C 
ATOM     14  C   UNL     1      24.976   8.407  29.658  1.00  0.00     0.004 C 
ENDBRANCH  12  13
ENDBRANCH  11  12
ENDBRANCH  10  11
ENDBRANCH   9  10
ENDBRANCH   1   9
TORSDOF 10
ENDMDL
MODEL 2
REMARK VINA RESULT:    -3.070      9.212     11.462
REMARK INTER + INTRA:          -6.209
REMARK INTER:                  -5.196
REMARK INTRA:                  -1.014
REMARK UNBOUND:                -1.345
REMARK SMILES CCCCCCCCCCCC(=O)[O-]
REMARK SMILES IDX 7 1 8 2 9 3 10 4 11 5 12 6 13 7 14 8 6 9 5 10 4 11 3 12 2 13
REMARK SMILES IDX 1 14
REMARK H PARENT
REMARK Flexibility Score: inf
ROOT
ATOM      1  C   UNL     1      22.394   9.640  37.059  1.00  0.00     0.000 C 
ENDROOT
BRANCH   1   2
ATOM      2  C   UNL     1      20.979  10.100  36.673  1.00  0.00     0.000 C 
BRANCH   2   3
ATOM      3  C   UNL     1      20.524   9.540  35.314  1.00  0.00     0.000 C 
BRANCH   3   4
ATOM      4  C   UNL     1      21.044   8.115  35.059  1.00  0.00     0.006 C 
BRANCH   4   5
ATOM      5  C   UNL     1      20.160   7.038  35.703  1.00  0.00     0.053 C 
BRANCH   5   6
ATOM      6  C   UNL     1      19.955   5.899  34.758  1.00  0.00     0.041 C 
ATOM      7  O   UNL     1      18.801   5.633  34.326  1.00  0.00    -0.550 OA
ATOM      8  O   UNL     1      21.028   5.096  34.391  1.00  0.00    -0.550 OA
ENDBRANCH   5   6
ENDBRANCH   4   5
ENDBRANCH   3   4
ENDBRANCH   2   3
ENDBRANCH   1   2
BRANCH   1   9
ATOM      9  C   UNL     1      22.567   9.458  38.575  1.00  0.00     0.000 C 
BRANCH   9  10
ATOM     10  C   UNL     1      21.759   8.253  39.079  1.00  0.00    -0.000 C 
BRANCH  10  11
ATOM     11  C   UNL     1      20.635   8.648  40.055  1.00  0.00    -0.000 C 
BRANCH  11  12
ATOM     12  C   UNL     1      19.227   8.711  39.436  1.00  0.00    -0.000 C 
BRANCH  12  13
ATOM     13  C   UNL     1      18.629  10.125  39.450  1.00  0.00    -0.003 C 
ATOM     14  C   UNL     1      17.121  10.087  39.220  1.00  0.00     0.004 C 
ENDBRANCH  12  13
ENDBRANCH  11  12
ENDBRANCH  10  11
ENDBRANCH   9  10
ENDBRANCH   1   9
TORSDOF 10
ENDMDL
MODEL 3
REMARK VINA RESULT:    -3.050     10.906     13.212
REMARK INTER + INTRA:          -6.177
REMARK INTER:                  -5.412
REMARK INTRA:                  -0.766
REMARK UNBOUND:                -1.345
REMARK SMILES CCCCCCCCCCCC(=O)[O-]
REMARK SMILES IDX 7 1 8 2 9 3 10 4 11 5 12 6 13 7 14 8 6 9 5 10 4 11 3 12 2 13
REMARK SMILES IDX 1 14
REMARK H PARENT
REMARK Flexibility Score: inf
ROOT
ATOM      1  C   UNL     1      21.148   8.194  39.481  1.00  0.00     0.000 C 
ENDROOT
BRANCH   1   2
ATOM      2  C   UNL     1      22.387   9.080  39.273  1.00  0.00     0.000 C 
BRANCH   2   3
ATOM      3  C   UNL     1      22.441   9.701  37.866  1.00  0.00     0.000 C 
BRANCH   3   4
ATOM      4  C   UNL     1      22.025   8.710  36.767  1.00  0.00     0.006 C 
BRANCH   4   5
ATOM      5  C   UNL     1      20.951   9.280  35.831  1.00  0.00     0.053 C 
BRANCH   5   6
ATOM      6  C   UNL     1      20.151   8.174  35.221  1.00  0.00     0.041 C 
ATOM      7  O   UNL     1      20.696   7.359  34.430  1.00  0.00    -0.550 OA
ATOM      8  O   UNL     1      18.790   8.072  35.484  1.00  0.00    -0.550 OA
ENDBRANCH   5   6
ENDBRANCH   4   5
ENDBRANCH   3   4
ENDBRANCH   2   3
ENDBRANCH   1   2
BRANCH   1   9
ATOM      9  C   UNL     1      19.957   8.966  40.068  1.00  0.00     0.000 C 
BRANCH   9  10
ATOM     10  C   UNL     1      18.934   9.310  38.976  1.00  0.00    -0.000 C 
BRANCH  10  11
ATOM     11  C   UNL     1      17.620   9.882  39.542  1.00  0.00    -0.000 C 
BRANCH  11  12
ATOM     12  C   UNL     1      17.360   9.569  41.026  1.00  0.00    -0.000 C 
BRANCH  12  13
ATOM     13  C   UNL     1      16.527   8.296  41.233  1.00  0.00    -0.003 C 
ATOM     14  C   UNL     1      15.447   8.511  42.290  1.00  0.00     0.004 C 
ENDBRANCH  12  13
ENDBRANCH  11  12
ENDBRANCH  10  11
ENDBRANCH   9  10
ENDBRANCH   1   9
TORSDOF 10
ENDMDL
MODEL 4
REMARK VINA RESULT:    -3.036      8.988     10.945
REMARK INTER + INTRA:          -6.155
REMARK INTER:                  -4.885
REMARK INTRA:                  -1.270
REMARK UNBOUND:                -1.345
REMARK SMILES CCCCCCCCCCCC(=O)[O-]
REMARK SMILES IDX 7 1 8 2 9 3 10 4 11 5 12 6 13 7 14 8 6 9 5 10 4 11 3 12 2 13
REMARK SMILES IDX 1 14
REMARK H PARENT
REMARK Flexibility Score: inf
ROOT
ATOM      1  C   UNL     1      20.411   9.362  35.685  1.00  0.00     0.000 C 
ENDROOT
BRANCH   1   2
ATOM      2  C   UNL     1      19.890   7.917  35.756  1.00  0.00     0.000 C 
BRANCH   2   3
ATOM      3  C   UNL     1      20.246   7.098  34.503  1.00  0.00     0.000 C 
BRANCH   3   4
ATOM      4  C   UNL     1      21.269   5.988  34.794  1.00  0.00     0.006 C 
BRANCH   4   5
ATOM      5  C   UNL     1      21.694   5.946  36.268  1.00  0.00     0.053 C 
BRANCH   5   6
ATOM      6  C   UNL     1      22.151   4.572  36.641  1.00  0.00     0.041 C 
ATOM      7  O   UNL     1      22.265   4.249  37.853  1.00  0.00    -0.550 OA
ATOM      8  O   UNL     1      22.499   3.662  35.651  1.00  0.00    -0.550 OA
ENDBRANCH   5   6
ENDBRANCH   4   5
ENDBRANCH   3   4
ENDBRANCH   2   3
ENDBRANCH   1   2
BRANCH   1   9
ATOM      9  C   UNL     1      20.888   9.890  37.047  1.00  0.00     0.000 C 
BRANCH   9  10
ATOM     10  C   UNL     1      22.352   9.503  37.302  1.00  0.00    -0.000 C 
BRANCH  10  11
ATOM     11  C   UNL     1      22.697   9.410  38.801  1.00  0.00    -0.000 C 
BRANCH  11  12
ATOM     12  C   UNL     1      21.588   8.816  39.688  1.00  0.00    -0.000 C 
BRANCH  12  13
ATOM     13  C   UNL     1      21.476   7.290  39.566  1.00  0.00    -0.003 C 
ATOM     14  C   UNL     1      20.022   6.857  39.404  1.00  0.00     0.004 C 
ENDBRANCH  12  13
ENDBRANCH  11  12
ENDBRANCH  10  11
ENDBRANCH   9  10
ENDBRANCH   1   9
TORSDOF 10
ENDMDL
MODEL 5
REMARK VINA RESULT:    -3.030      3.460      5.845
REMARK INTER + INTRA:          -6.146
REMARK INTER:                  -5.474
REMARK INTRA:                  -0.672
REMARK UNBOUND:                -1.345
REMARK SMILES CCCCCCCCCCCC(=O)[O-]
REMARK SMILES IDX 7 1 8 2 9 3 10 4 11 5 12 6 13 7 14 8 6 9 5 10 4 11 3 12 2 13
REMARK SMILES IDX 1 14
REMARK H PARENT
REMARK Flexibility Score: inf
ROOT
ATOM      1  C   UNL     1      23.431   3.642  27.037  1.00  0.00     0.000 C 
ENDROOT
BRANCH   1   2
ATOM      2  C   UNL     1      23.913   5.026  26.572  1.00  0.00     0.000 C 
BRANCH   2   3
ATOM      3  C   UNL     1      23.292   6.174  27.388  1.00  0.00     0.000 C 
BRANCH   3   4
ATOM      4  C   UNL     1      23.981   7.523  27.126  1.00  0.00     0.006 C 
BRANCH   4   5
ATOM      5  C   UNL     1      25.246   7.386  26.268  1.00  0.00     0.053 C 
BRANCH   5   6
ATOM      6  C   UNL     1      26.469   7.499  27.121  1.00  0.00     0.041 C 
ATOM      7  O   UNL     1      26.365   7.767  28.348  1.00  0.00    -0.550 OA
ATOM      8  O   UNL     1      27.729   7.360  26.552  1.00  0.00    -0.550 OA
ENDBRANCH   5   6
ENDBRANCH   4   5
ENDBRANCH   3   4
ENDBRANCH   2   3
ENDBRANCH   1   2
BRANCH   1   9
ATOM      9  C   UNL     1      22.445   3.721  28.212  1.00  0.00     0.000 C 
BRANCH   9  10
ATOM     10  C   UNL     1      22.457   2.419  29.027  1.00  0.00    -0.000 C 
BRANCH  10  11
ATOM     11  C   UNL     1      22.447   2.661  30.548  1.00  0.00    -0.000 C 
BRANCH  11  12
ATOM     12  C   UNL     1      21.619   3.875  31.008  1.00  0.00    -0.000 C 
BRANCH  12  13
ATOM     13  C   UNL     1      22.272   4.640  32.167  1.00  0.00    -0.003 C 
ATOM     14  C   UNL     1      22.467   6.112  31.813  1.00  0.00     0.004 C 
ENDBRANCH  12  13
ENDBRANCH  11  12
ENDBRANCH  10  11
ENDBRANCH   9  10
ENDBRANCH   1   9
TORSDOF 10
ENDMDL
MODEL 6
REMARK VINA RESULT:    -2.960      7.383      9.445
REMARK INTER + INTRA:          -6.036
REMARK INTER:                  -5.045
REMARK INTRA:                  -0.991
REMARK UNBOUND:                -1.345
REMARK SMILES CCCCCCCCCCCC(=O)[O-]
REMARK SMILES IDX 7 1 8 2 9 3 10 4 11 5 12 6 13 7 14 8 6 9 5 10 4 11 3 12 2 13
REMARK SMILES IDX 1 14
REMARK H PARENT
REMARK Flexibility Score: inf
ROOT
ATOM      1  C   UNL     1      19.464   8.383  35.850  1.00  0.00     0.000 C 
ENDROOT
BRANCH   1   2
ATOM      2  C   UNL     1      19.549   7.051  35.088  1.00  0.00     0.000 C 
BRANCH   2   3
ATOM      3  C   UNL     1      20.921   6.835  34.425  1.00  0.00     0.000 C 
BRANCH   3   4
ATOM      4  C   UNL     1      20.934   5.628  33.474  1.00  0.00     0.006 C 
BRANCH   4   5
ATOM      5  C   UNL     1      22.215   5.549  32.633  1.00  0.00     0.053 C 
BRANCH   5   6
ATOM      6  C   UNL     1      22.772   4.162  32.660  1.00  0.00     0.041 C 
ATOM      7  O   UNL     1      22.539   3.366  31.711  1.00  0.00    -0.550 OA
ATOM      8  O   UNL     1      23.507   3.727  33.756  1.00  0.00    -0.550 OA
ENDBRANCH   5   6
ENDBRANCH   4   5
ENDBRANCH   3   4
ENDBRANCH   2   3
ENDBRANCH   1   2
BRANCH   1   9
ATOM      9  C   UNL     1      20.520   9.400  35.389  1.00  0.00     0.000 C 
BRANCH   9  10
ATOM     10  C   UNL     1      21.146  10.124  36.590  1.00  0.00    -0.000 C 
BRANCH  10  11
ATOM     11  C   UNL     1      22.447   9.462  37.080  1.00  0.00    -0.000 C 
BRANCH  11  12
ATOM     12  C   UNL     1      22.546   9.269  38.604  1.00  0.00    -0.000 C 
BRANCH  12  13
ATOM     13  C   UNL     1      21.707   8.089  39.114  1.00  0.00    -0.003 C 
ATOM     14  C   UNL     1      21.918   6.849  38.248  1.00  0.00     0.004 C 
ENDBRANCH  12  13
ENDBRANCH  11  12
ENDBRANCH  10  11
ENDBRANCH   9  10
ENDBRANCH   1   9
TORSDOF 10
ENDMDL
MODEL 7
REMARK VINA RESULT:    -2.949     10.442     12.357
REMARK INTER + INTRA:          -6.018
REMARK INTER:                  -4.504
REMARK INTRA:                  -1.513
REMARK UNBOUND:                -1.345
REMARK SMILES CCCCCCCCCCCC(=O)[O-]
REMARK SMILES IDX 7 1 8 2 9 3 10 4 11 5 12 6 13 7 14 8 6 9 5 10 4 11 3 12 2 13
REMARK SMILES IDX 1 14
REMARK H PARENT
REMARK Flexibility Score: inf
ROOT
ATOM      1  C   UNL     1      20.708  10.125  36.170  1.00  0.00     0.000 C 
ENDROOT
BRANCH   1   2
ATOM      2  C   UNL     1      20.602   9.686  37.640  1.00  0.00     0.000 C 
BRANCH   2   3
ATOM      3  C   UNL     1      21.914   9.086  38.174  1.00  0.00     0.000 C 
BRANCH   3   4
ATOM      4  C   UNL     1      21.686   8.113  39.342  1.00  0.00     0.006 C 
BRANCH   4   5
ATOM      5  C   UNL     1      20.238   7.607  39.417  1.00  0.00     0.053 C 
BRANCH   5   6
ATOM      6  C   UNL     1      19.664   7.869  40.772  1.00  0.00     0.041 C 
ATOM      7  O   UNL     1      18.720   7.159  41.210  1.00  0.00    -0.550 OA
ATOM      8  O   UNL     1      20.136   8.930  41.535  1.00  0.00    -0.550 OA
ENDBRANCH   5   6
ENDBRANCH   4   5
ENDBRANCH   3   4
ENDBRANCH   2   3
ENDBRANCH   1   2
BRANCH   1   9
ATOM      9  C   UNL     1      20.687   8.940  35.193  1.00  0.00     0.000 C 
BRANCH   9  10
ATOM     10  C   UNL     1      19.526   7.986  35.510  1.00  0.00    -0.000 C 
BRANCH  10  11
ATOM     11  C   UNL     1      19.902   6.503  35.338  1.00  0.00    -0.000 C 
BRANCH  11  12
ATOM     12  C   UNL     1      21.406   6.194  35.452  1.00  0.00    -0.000 C 
BRANCH  12  13
ATOM     13  C   UNL     1      21.778   5.508  36.774  1.00  0.00    -0.003 C 
ATOM     14  C   UNL     1      20.663   4.578  37.243  1.00  0.00     0.004 C 
ENDBRANCH  12  13
ENDBRANCH  11  12
ENDBRANCH  10  11
ENDBRANCH   9  10
ENDBRANCH   1   9
TORSDOF 10
ENDMDL
MODEL 8
REMARK VINA RESULT:    -2.948     10.589     12.770
REMARK INTER + INTRA:          -6.016
REMARK INTER:                  -4.627
REMARK INTRA:                  -1.389
REMARK UNBOUND:                -1.345
REMARK SMILES CCCCCCCCCCCC(=O)[O-]
REMARK SMILES IDX 7 1 8 2 9 3 10 4 11 5 12 6 13 7 14 8 6 9 5 10 4 11 3 12 2 13
REMARK SMILES IDX 1 14
REMARK H PARENT
REMARK Flexibility Score: inf
ROOT
ATOM      1  C   UNL     1      22.319   8.082  39.034  1.00  0.00     0.000 C 
ENDROOT
BRANCH   1   2
ATOM      2  C   UNL     1      21.732   6.794  38.433  1.00  0.00     0.000 C 
BRANCH   2   3
ATOM      3  C   UNL     1      20.316   6.490  38.953  1.00  0.00     0.000 C 
BRANCH   3   4
ATOM      4  C   UNL     1      20.161   6.790  40.453  1.00  0.00     0.006 C 
BRANCH   4   5
ATOM      5  C   UNL     1      18.849   7.516  40.779  1.00  0.00     0.053 C 
BRANCH   5   6
ATOM      6  C   UNL     1      19.055   8.997  40.765  1.00  0.00     0.041 C 
ATOM      7  O   UNL     1      18.809   9.661  39.723  1.00  0.00    -0.550 OA
ATOM      8  O   UNL     1      19.567   9.639  41.885  1.00  0.00    -0.550 OA
ENDBRANCH   5   6
ENDBRANCH   4   5
ENDBRANCH   3   4
ENDBRANCH   2   3
ENDBRANCH   1   2
BRANCH   1   9
ATOM      9  C   UNL     1      21.908   9.342  38.256  1.00  0.00     0.000 C 
BRANCH   9  10
ATOM     10  C   UNL     1      22.526   9.344  36.850  1.00  0.00    -0.000 C 
BRANCH  10  11
ATOM     11  C   UNL     1      21.470   9.335  35.729  1.00  0.00    -0.000 C 
BRANCH  11  12
ATOM     12  C   UNL     1      20.009   9.266  36.211  1.00  0.00    -0.000 C 
BRANCH  12  13
ATOM     13  C   UNL     1      19.258   8.041  35.673  1.00  0.00    -0.003 C 
ATOM     14  C   UNL     1      20.135   7.234  34.719  1.00  0.00     0.004 C 
ENDBRANCH  12  13
ENDBRANCH  11  12
ENDBRANCH  10  11
ENDBRANCH   9  10
ENDBRANCH   1   9
TORSDOF 10
ENDMDL
MODEL 9
REMARK VINA RESULT:    -2.938      8.480     10.714
REMARK INTER + INTRA:          -6.000
REMARK INTER:                  -4.578
REMARK INTRA:                  -1.421
REMARK UNBOUND:                -1.345
REMARK SMILES CCCCCCCCCCCC(=O)[O-]
REMARK SMILES IDX 7 1 8 2 9 3 10 4 11 5 12 6 13 7 14 8 6 9 5 10 4 11 3 12 2 13
REMARK SMILES IDX 1 14
REMARK H PARENT
REMARK Flexibility Score: inf
ROOT
ATOM      1  C   UNL     1      21.988   6.833  38.756  1.00  0.00     0.000 C 
ENDROOT
BRANCH   1   2
ATOM      2  C   UNL     1      21.814   5.551  37.925  1.00  0.00     0.000 C 
BRANCH   2   3
ATOM      3  C   UNL     1      21.776   5.828  36.411  1.00  0.00     0.000 C 
BRANCH   3   4
ATOM      4  C   UNL     1      20.380   6.244  35.922  1.00  0.00     0.006 C 
BRANCH   4   5
ATOM      5  C   UNL     1      20.417   6.971  34.571  1.00  0.00     0.053 C 
BRANCH   5   6
ATOM      6  C   UNL     1      20.655   5.997  33.462  1.00  0.00     0.041 C 
ATOM      7  O   UNL     1      19.728   5.234  33.078  1.00  0.00    -0.550 OA
ATOM      8  O   UNL     1      21.914   5.894  32.884  1.00  0.00    -0.550 OA
ENDBRANCH   5   6
ENDBRANCH   4   5
ENDBRANCH   3   4
ENDBRANCH   2   3
ENDBRANCH   1   2
BRANCH   1   9
ATOM      9  C   UNL     1      20.854   7.041  39.772  1.00  0.00     0.000 C 
BRANCH   9  10
ATOM     10  C   UNL     1      20.356   8.493  39.747  1.00  0.00    -0.000 C 
BRANCH  10  11
ATOM     11  C   UNL     1      21.028   9.342  38.651  1.00  0.00    -0.000 C 
BRANCH  11  12
ATOM     12  C   UNL     1      20.091   9.807  37.522  1.00  0.00    -0.000 C 
BRANCH  12  13
ATOM     13  C   UNL     1      20.836  10.125  36.218  1.00  0.00    -0.003 C 
ATOM     14  C   UNL     1      22.304   9.717  36.310  1.00  0.00     0.004 C 
ENDBRANCH  12  13
ENDBRANCH  11  12
ENDBRANCH  10  11
ENDBRANCH   9  10
ENDBRANCH   1   9
TORSDOF 10
ENDMDL
