MODEL 1
REMARK VINA RESULT:    -2.299      0.000      0.000
REMARK INTER + INTRA:          -2.299
REMARK INTER:                  -2.299
REMARK INTRA:                   0.000
REMARK UNBOUND:                 0.000
REMARK SMILES CC(=O)[O-]
REMARK SMILES IDX 1 1 2 2 3 3 4 4
REMARK H PARENT
REMARK Flexibility Score: inf
ROOT
ATOM      1  C   UNL     1      13.268  39.196  58.126  1.00  0.00     0.063 C 
ATOM      2  C   UNL     1      13.567  37.942  57.377  1.00  0.00     0.038 C 
ATOM      3  O   UNL     1      14.021  37.999  56.204  1.00  0.00    -0.550 OA
ATOM      4  O   UNL     1      13.397  36.707  57.990  1.00  0.00    -0.550 OA
ENDROOT
TORSDOF 0
ENDMDL
MODEL 2
REMARK VINA RESULT:    -2.280      2.061      2.312
REMARK INTER + INTRA:          -2.280
REMARK INTER:                  -2.280
REMARK INTRA:                   0.000
REMARK UNBOUND:                 0.000
REMARK SMILES CC(=O)[O-]
REMARK SMILES IDX 1 1 2 2 3 3 4 4
REMARK H PARENT
REMARK Flexibility Score: inf
ROOT
ATOM      1  C   UNL     1      13.317  37.035  57.899  1.00  0.00     0.063 C 
ATOM      2  C   UNL     1      12.799  38.226  58.632  1.00  0.00     0.038 C 
ATOM      3  O   UNL     1      13.326  39.355  58.455  1.00  0.00    -0.550 OA
ATOM      4  O   UNL     1      11.698  38.103  59.470  1.00  0.00    -0.550 OA
ENDROOT
TORSDOF 0
ENDMDL
MODEL 3
REMARK VINA RESULT:    -2.277      2.016      2.713
REMARK INTER + INTRA:          -2.277
REMARK INTER:                  -2.277
REMARK INTRA:                   0.000
REMARK UNBOUND:                 0.000
REMARK SMILES CC(=O)[O-]
REMARK SMILES IDX 1 1 2 2 3 3 4 4
REMARK H PARENT
REMARK Flexibility Score: inf
ROOT
ATOM      1  C   UNL     1      13.276  37.009  57.824  1.00  0.00     0.063 C 
ATOM      2  C   UNL     1      12.764  38.201  58.560  1.00  0.00     0.038 C 
ATOM      3  O   UNL     1      11.789  38.086  59.347  1.00  0.00    -0.550 OA
ATOM      4  O   UNL     1      13.396  39.430  58.420  1.00  0.00    -0.550 OA
ENDROOT
TORSDOF 0
ENDMDL
MODEL 4
REMARK VINA RESULT:    -2.244      1.963      2.416
REMARK INTER + INTRA:          -2.244
REMARK INTER:                  -2.244
REMARK INTRA:                   0.000
REMARK UNBOUND:                 0.000
REMARK SMILES CC(=O)[O-]
REMARK SMILES IDX 1 1 2 2 3 3 4 4
REMARK H PARENT
REMARK Flexibility Score: inf
ROOT
ATOM      1  C   UNL     1      13.117  38.864  58.390  1.00  0.00     0.063 C 
ATOM      2  C   UNL     1      12.116  37.828  58.776  1.00  0.00     0.038 C 
ATOM      3  O   UNL     1      12.081  36.727  58.168  1.00  0.00    -0.550 OA
ATOM      4  O   UNL     1      11.259  38.053  59.845  1.00  0.00    -0.550 OA
ENDROOT
TORSDOF 0
ENDMDL
MODEL 5
REMARK VINA RESULT:    -2.003     18.352     18.860
REMARK INTER + INTRA:          -2.003
REMARK INTER:                  -2.003
REMARK INTRA:                   0.000
REMARK UNBOUND:                 0.000
REMARK SMILES CC(=O)[O-]
REMARK SMILES IDX 1 1 2 2 3 3 4 4
REMARK H PARENT
REMARK Flexibility Score: inf
ROOT
ATOM      1  C   UNL     1      29.625  37.818  46.875  1.00  0.00     0.063 C 
ATOM      2  C   UNL     1      30.001  38.125  48.285  1.00  0.00     0.038 C 
ATOM      3  O   UNL     1      30.967  38.894  48.528  1.00  0.00    -0.550 OA
ATOM      4  O   UNL     1      29.251  37.608  49.334  1.00  0.00    -0.550 OA
ENDROOT
TORSDOF 0
ENDMDL
MODEL 6
REMARK VINA RESULT:    -1.949      5.730      6.391
REMARK INTER + INTRA:          -1.949
REMARK INTER:                  -1.949
REMARK INTRA:                   0.000
REMARK UNBOUND:                 0.000
REMARK SMILES CC(=O)[O-]
REMARK SMILES IDX 1 1 2 2 3 3 4 4
REMARK H PARENT
REMARK Flexibility Score: inf
ROOT
ATOM      1  C   UNL     1      16.716  31.303  56.974  1.00  0.00     0.063 C 
ATOM      2  C   UNL     1      15.702  32.374  57.199  1.00  0.00     0.038 C 
ATOM      3  O   UNL     1      14.479  32.128  57.036  1.00  0.00    -0.550 OA
ATOM      4  O   UNL     1      16.101  33.628  57.642  1.00  0.00    -0.550 OA
ENDROOT
TORSDOF 0
ENDMDL
MODEL 7
REMARK VINA RESULT:    -1.904     17.345     17.883
REMARK INTER + INTRA:          -1.904
REMARK INTER:                  -1.904
REMARK INTRA:                   0.000
REMARK UNBOUND:                 0.000
REMARK SMILES CC(=O)[O-]
REMARK SMILES IDX 1 1 2 2 3 3 4 4
REMARK H PARENT
REMARK Flexibility Score: inf
ROOT
ATOM      1  C   UNL     1      29.611  37.661  48.222  1.00  0.00     0.063 C 
ATOM      2  C   UNL     1      29.480  37.974  49.674  1.00  0.00     0.038 C 
ATOM      3  O   UNL     1      28.876  37.178  50.440  1.00  0.00    -0.550 OA
ATOM      4  O   UNL     1      30.071  39.116  50.196  1.00  0.00    -0.550 OA
ENDROOT
TORSDOF 0
ENDMDL
MODEL 8
REMARK VINA RESULT:    -1.895     12.568     13.043
REMARK INTER + INTRA:          -1.895
REMARK INTER:                  -1.895
REMARK INTRA:                   0.000
REMARK UNBOUND:                 0.000
REMARK SMILES CC(=O)[O-]
REMARK SMILES IDX 1 1 2 2 3 3 4 4
REMARK H PARENT
REMARK Flexibility Score: inf
ROOT
ATOM      1  C   UNL     1      15.978  26.587  54.580  1.00  0.00     0.063 C 
ATOM      2  C   UNL     1      15.361  25.643  53.604  1.00  0.00     0.038 C 
ATOM      3  O   UNL     1      14.601  26.078  52.700  1.00  0.00    -0.550 OA
ATOM      4  O   UNL     1      15.666  24.290  53.657  1.00  0.00    -0.550 OA
ENDROOT
TORSDOF 0
ENDMDL
