MODEL 1
REMARK VINA RESULT:    -7.116      0.000      0.000
REMARK INTER + INTRA:          -7.116
REMARK INTER:                  -7.116
REMARK INTRA:                   0.000
REMARK UNBOUND:                 0.000
REMARK SMILES CC1=CC[C@]2(C)CCCC(C)(C)[C@]23C[C@H]13
REMARK SMILES IDX 1 1 2 2 3 3 4 4 5 5 7 6 8 7 9 8 10 9 13 10 15 11 14 12 11 13
REMARK SMILES IDX 12 14 6 15
REMARK H PARENT
REMARK Flexibility Score: inf
ROOT
ATOM      1  C   UNL     1     108.806 111.617 118.429  1.00  0.00     0.039 C 
ATOM      2  C   UNL     1     109.917 111.661 117.418  1.00  0.00    -0.074 C 
ATOM      3  C   UNL     1     111.174 111.355 117.807  1.00  0.00    -0.027 C 
ATOM      4  C   UNL     1     112.337 111.389 116.847  1.00  0.00     0.034 C 
ATOM      5  C   UNL     1     111.897 110.956 115.418  1.00  0.00    -0.022 C 
ATOM      6  C   UNL     1     113.076 111.179 114.441  1.00  0.00     0.008 C 
ATOM      7  C   UNL     1     112.704 110.923 112.969  1.00  0.00     0.001 C 
ATOM      8  C   UNL     1     111.510 111.774 112.508  1.00  0.00     0.007 C 
ATOM      9  C   UNL     1     110.234 111.642 113.387  1.00  0.00    -0.029 C 
ATOM     10  C   UNL     1     110.663 111.803 114.907  1.00  0.00    -0.012 C 
ATOM     11  C   UNL     1     109.591 112.047 115.983  1.00  0.00     0.022 C 
ATOM     12  C   UNL     1     110.439 113.223 115.499  1.00  0.00     0.017 C 
ATOM     13  C   UNL     1     109.544 110.274 113.151  1.00  0.00     0.012 C 
ATOM     14  C   UNL     1     109.233 112.718 112.875  1.00  0.00     0.012 C 
ATOM     15  C   UNL     1     111.550 109.436 115.508  1.00  0.00     0.012 C 
ENDROOT
TORSDOF 0
ENDMDL
MODEL 2
REMARK VINA RESULT:    -7.107      3.261      4.917
REMARK INTER + INTRA:          -7.107
REMARK INTER:                  -7.107
REMARK INTRA:                   0.000
REMARK UNBOUND:                 0.000
REMARK SMILES CC1=CC[C@]2(C)CCCC(C)(C)[C@]23C[C@H]13
REMARK SMILES IDX 1 1 2 2 3 3 4 4 5 5 7 6 8 7 9 8 10 9 13 10 15 11 14 12 11 13
REMARK SMILES IDX 12 14 6 15
REMARK H PARENT
REMARK Flexibility Score: inf
ROOT
ATOM      1  C   UNL     1     108.756 111.636 113.496  1.00  0.00     0.039 C 
ATOM      2  C   UNL     1     109.874 111.699 112.492  1.00  0.00    -0.074 C 
ATOM      3  C   UNL     1     111.134 111.426 112.893  1.00  0.00    -0.027 C 
ATOM      4  C   UNL     1     112.304 111.481 111.942  1.00  0.00     0.034 C 
ATOM      5  C   UNL     1     111.885 111.027 110.513  1.00  0.00    -0.022 C 
ATOM      6  C   UNL     1     113.066 111.271 109.543  1.00  0.00     0.008 C 
ATOM      7  C   UNL     1     112.711 110.997 108.070  1.00  0.00     0.001 C 
ATOM      8  C   UNL     1     111.502 111.816 107.594  1.00  0.00     0.007 C 
ATOM      9  C   UNL     1     110.222 111.660 108.465  1.00  0.00    -0.029 C 
ATOM     10  C   UNL     1     110.635 111.842 109.987  1.00  0.00    -0.012 C 
ATOM     11  C   UNL     1     109.550 112.067 111.052  1.00  0.00     0.022 C 
ATOM     12  C   UNL     1     110.373 113.260 110.567  1.00  0.00     0.017 C 
ATOM     13  C   UNL     1     109.567 110.274 108.232  1.00  0.00     0.012 C 
ATOM     14  C   UNL     1     109.200 112.709 107.937  1.00  0.00     0.012 C 
ATOM     15  C   UNL     1     111.574 109.500 110.611  1.00  0.00     0.012 C 
ENDROOT
TORSDOF 0
ENDMDL
MODEL 3
REMARK VINA RESULT:    -7.092      2.173      5.044
REMARK INTER + INTRA:          -7.092
REMARK INTER:                  -7.092
REMARK INTRA:                   0.000
REMARK UNBOUND:                 0.000
REMARK SMILES CC1=CC[C@]2(C)CCCC(C)(C)[C@]23C[C@H]13
REMARK SMILES IDX 1 1 2 2 3 3 4 4 5 5 7 6 8 7 9 8 10 9 13 10 15 11 14 12 11 13
REMARK SMILES IDX 12 14 6 15
REMARK H PARENT
REMARK Flexibility Score: inf
ROOT
ATOM      1  C   UNL     1     109.503 112.460 108.958  1.00  0.00     0.039 C 
ATOM      2  C   UNL     1     110.270 111.582 109.907  1.00  0.00    -0.074 C 
ATOM      3  C   UNL     1     111.417 111.005 109.489  1.00  0.00    -0.027 C 
ATOM      4  C   UNL     1     112.230 110.105 110.386  1.00  0.00     0.034 C 
ATOM      5  C   UNL     1     112.155 110.575 111.868  1.00  0.00    -0.022 C 
ATOM      6  C   UNL     1     112.853 109.523 112.764  1.00  0.00     0.008 C 
ATOM      7  C   UNL     1     112.708 109.812 114.268  1.00  0.00     0.001 C 
ATOM      8  C   UNL     1     111.239 109.938 114.704  1.00  0.00     0.007 C 
ATOM      9  C   UNL     1     110.406 110.979 113.903  1.00  0.00    -0.029 C 
ATOM     10  C   UNL     1     110.658 110.726 112.356  1.00  0.00    -0.012 C 
ATOM     11  C   UNL     1     109.730 111.372 111.314  1.00  0.00     0.022 C 
ATOM     12  C   UNL     1     109.556 109.891 111.645  1.00  0.00     0.017 C 
ATOM     13  C   UNL     1     110.806 112.423 114.298  1.00  0.00     0.012 C 
ATOM     14  C   UNL     1     108.928 110.805 114.359  1.00  0.00     0.012 C 
ATOM     15  C   UNL     1     112.920 111.934 111.936  1.00  0.00     0.012 C 
ENDROOT
TORSDOF 0
ENDMDL
MODEL 4
REMARK VINA RESULT:    -7.091      2.029      5.501
REMARK INTER + INTRA:          -7.091
REMARK INTER:                  -7.091
REMARK INTRA:                   0.000
REMARK UNBOUND:                 0.000
REMARK SMILES CC1=CC[C@]2(C)CCCC(C)(C)[C@]23C[C@H]13
REMARK SMILES IDX 1 1 2 2 3 3 4 4 5 5 7 6 8 7 9 8 10 9 13 10 15 11 14 12 11 13
REMARK SMILES IDX 12 14 6 15
REMARK H PARENT
REMARK Flexibility Score: inf
ROOT
ATOM      1  C   UNL     1     112.734 109.848 108.912  1.00  0.00     0.039 C 
ATOM      2  C   UNL     1     111.944 110.714 109.853  1.00  0.00    -0.074 C 
ATOM      3  C   UNL     1     110.811 111.301 109.412  1.00  0.00    -0.027 C 
ATOM      4  C   UNL     1     109.976 112.190 110.299  1.00  0.00     0.034 C 
ATOM      5  C   UNL     1     110.008 111.698 111.775  1.00  0.00    -0.022 C 
ATOM      6  C   UNL     1     109.288 112.738 112.667  1.00  0.00     0.008 C 
ATOM      7  C   UNL     1     109.390 112.426 114.170  1.00  0.00     0.001 C 
ATOM      8  C   UNL     1     110.846 112.289 114.645  1.00  0.00     0.007 C 
ATOM      9  C   UNL     1     111.698 111.257 113.851  1.00  0.00    -0.029 C 
ATOM     10  C   UNL     1     111.490 111.535 112.302  1.00  0.00    -0.012 C 
ATOM     11  C   UNL     1     112.445 110.902 111.277  1.00  0.00     0.022 C 
ATOM     12  C   UNL     1     112.614 112.377 111.635  1.00  0.00     0.017 C 
ATOM     13  C   UNL     1     111.283 109.809 114.213  1.00  0.00     0.012 C 
ATOM     14  C   UNL     1     113.163 111.420 114.352  1.00  0.00     0.012 C 
ATOM     15  C   UNL     1     109.238 110.340 111.801  1.00  0.00     0.012 C 
ENDROOT
TORSDOF 0
ENDMDL
MODEL 5
REMARK VINA RESULT:    -7.064      3.293      5.799
REMARK INTER + INTRA:          -7.064
REMARK INTER:                  -7.064
REMARK INTRA:                   0.000
REMARK UNBOUND:                 0.000
REMARK SMILES CC1=CC[C@]2(C)CCCC(C)(C)[C@]23C[C@H]13
REMARK SMILES IDX 1 1 2 2 3 3 4 4 5 5 7 6 8 7 9 8 10 9 13 10 15 11 14 12 11 13
REMARK SMILES IDX 12 14 6 15
REMARK H PARENT
REMARK Flexibility Score: inf
ROOT
ATOM      1  C   UNL     1     112.998 110.927 113.748  1.00  0.00     0.039 C 
ATOM      2  C   UNL     1     112.004 110.727 112.639  1.00  0.00    -0.074 C 
ATOM      3  C   UNL     1     110.687 110.866 112.903  1.00  0.00    -0.027 C 
ATOM      4  C   UNL     1     109.635 110.668 111.840  1.00  0.00     0.034 C 
ATOM      5  C   UNL     1     110.148 111.143 110.449  1.00  0.00    -0.022 C 
ATOM      6  C   UNL     1     109.107 110.756 109.372  1.00  0.00     0.008 C 
ATOM      7  C   UNL     1     109.580 111.045 107.936  1.00  0.00     0.001 C 
ATOM      8  C   UNL     1     110.913 110.356 107.607  1.00  0.00     0.007 C 
ATOM      9  C   UNL     1     112.072 110.666 108.598  1.00  0.00    -0.029 C 
ATOM     10  C   UNL     1     111.526 110.463 110.074  1.00  0.00    -0.012 C 
ATOM     11  C   UNL     1     112.512 110.374 111.250  1.00  0.00     0.022 C 
ATOM     12  C   UNL     1     111.877 109.091 110.715  1.00  0.00     0.017 C 
ATOM     13  C   UNL     1     112.594 112.111 108.396  1.00  0.00     0.012 C 
ATOM     14  C   UNL     1     113.250 109.727 108.204  1.00  0.00     0.012 C 
ATOM     15  C   UNL     1     110.281 112.696 110.538  1.00  0.00     0.012 C 
ENDROOT
TORSDOF 0
ENDMDL
MODEL 6
REMARK VINA RESULT:    -7.050      1.794      3.935
REMARK INTER + INTRA:          -7.050
REMARK INTER:                  -7.050
REMARK INTRA:                   0.000
REMARK UNBOUND:                 0.000
REMARK SMILES CC1=CC[C@]2(C)CCCC(C)(C)[C@]23C[C@H]13
REMARK SMILES IDX 1 1 2 2 3 3 4 4 5 5 7 6 8 7 9 8 10 9 13 10 15 11 14 12 11 13
REMARK SMILES IDX 12 14 6 15
REMARK H PARENT
REMARK Flexibility Score: inf
ROOT
ATOM      1  C   UNL     1     113.252 112.467 115.628  1.00  0.00     0.039 C 
ATOM      2  C   UNL     1     112.289 111.726 114.744  1.00  0.00    -0.074 C 
ATOM      3  C   UNL     1     111.147 111.240 115.276  1.00  0.00    -0.027 C 
ATOM      4  C   UNL     1     110.143 110.477 114.448  1.00  0.00     0.034 C 
ATOM      5  C   UNL     1     110.087 111.023 112.991  1.00  0.00    -0.022 C 
ATOM      6  C   UNL     1     109.181 110.098 112.143  1.00  0.00     0.008 C 
ATOM      7  C   UNL     1     109.173 110.459 110.647  1.00  0.00     0.001 C 
ATOM      8  C   UNL     1     110.583 110.467 110.036  1.00  0.00     0.007 C 
ATOM      9  C   UNL     1     111.611 111.373 110.774  1.00  0.00    -0.029 C 
ATOM     10  C   UNL     1     111.522 111.056 112.327  1.00  0.00    -0.012 C 
ATOM     11  C   UNL     1     112.631 111.546 113.272  1.00  0.00     0.022 C 
ATOM     12  C   UNL     1     112.609 110.077 112.854  1.00  0.00     0.017 C 
ATOM     13  C   UNL     1     111.318 112.870 110.499  1.00  0.00     0.012 C 
ATOM     14  C   UNL     1     112.997 111.083 110.127  1.00  0.00     0.012 C 
ATOM     15  C   UNL     1     109.465 112.452 113.083  1.00  0.00     0.012 C 
ENDROOT
TORSDOF 0
ENDMDL
MODEL 7
REMARK VINA RESULT:    -7.046      1.133      3.159
REMARK INTER + INTRA:          -7.046
REMARK INTER:                  -7.046
REMARK INTRA:                   0.000
REMARK UNBOUND:                 0.000
REMARK SMILES CC1=CC[C@]2(C)CCCC(C)(C)[C@]23C[C@H]13
REMARK SMILES IDX 1 1 2 2 3 3 4 4 5 5 7 6 8 7 9 8 10 9 13 10 15 11 14 12 11 13
REMARK SMILES IDX 12 14 6 15
REMARK H PARENT
REMARK Flexibility Score: inf
ROOT
ATOM      1  C   UNL     1     112.992 110.946 118.659  1.00  0.00     0.039 C 
ATOM      2  C   UNL     1     111.998 110.775 117.545  1.00  0.00    -0.074 C 
ATOM      3  C   UNL     1     110.686 110.971 117.797  1.00  0.00    -0.027 C 
ATOM      4  C   UNL     1     109.635 110.805 116.727  1.00  0.00     0.034 C 
ATOM      5  C   UNL     1     110.177 111.243 115.335  1.00  0.00    -0.022 C 
ATOM      6  C   UNL     1     109.129 110.887 114.254  1.00  0.00     0.008 C 
ATOM      7  C   UNL     1     109.624 111.140 112.819  1.00  0.00     0.001 C 
ATOM      8  C   UNL     1     110.930 110.392 112.508  1.00  0.00     0.007 C 
ATOM      9  C   UNL     1     112.093 110.665 113.504  1.00  0.00    -0.029 C 
ATOM     10  C   UNL     1     111.528 110.501 114.979  1.00  0.00    -0.012 C 
ATOM     11  C   UNL     1     112.502 110.385 116.163  1.00  0.00     0.022 C 
ATOM     12  C   UNL     1     111.818 109.124 115.638  1.00  0.00     0.017 C 
ATOM     13  C   UNL     1     112.677 112.084 113.291  1.00  0.00     0.012 C 
ATOM     14  C   UNL     1     113.234 109.674 113.130  1.00  0.00     0.012 C 
ATOM     15  C   UNL     1     110.374 112.790 115.408  1.00  0.00     0.012 C 
ENDROOT
TORSDOF 0
ENDMDL
MODEL 8
REMARK VINA RESULT:    -7.037      5.452      8.062
REMARK INTER + INTRA:          -7.037
REMARK INTER:                  -7.037
REMARK INTRA:                   0.000
REMARK UNBOUND:                 0.000
REMARK SMILES CC1=CC[C@]2(C)CCCC(C)(C)[C@]23C[C@H]13
REMARK SMILES IDX 1 1 2 2 3 3 4 4 5 5 7 6 8 7 9 8 10 9 13 10 15 11 14 12 11 13
REMARK SMILES IDX 12 14 6 15
REMARK H PARENT
REMARK Flexibility Score: inf
ROOT
ATOM      1  C   UNL     1     113.258 112.479 110.710  1.00  0.00     0.039 C 
ATOM      2  C   UNL     1     112.342 111.701 109.807  1.00  0.00    -0.074 C 
ATOM      3  C   UNL     1     111.245 111.114 110.332  1.00  0.00    -0.027 C 
ATOM      4  C   UNL     1     110.289 110.310 109.486  1.00  0.00     0.034 C 
ATOM      5  C   UNL     1     110.175 110.903 108.051  1.00  0.00    -0.022 C 
ATOM      6  C   UNL     1     109.329 109.946 107.178  1.00  0.00     0.008 C 
ATOM      7  C   UNL     1     109.276 110.359 105.697  1.00  0.00     0.001 C 
ATOM      8  C   UNL     1     110.674 110.492 105.073  1.00  0.00     0.007 C 
ATOM      9  C   UNL     1     111.642 111.444 105.834  1.00  0.00    -0.029 C 
ATOM     10  C   UNL     1     111.596 111.065 107.375  1.00  0.00    -0.012 C 
ATOM     11  C   UNL     1     112.677 111.600 108.327  1.00  0.00     0.022 C 
ATOM     12  C   UNL     1     112.757 110.150 107.855  1.00  0.00     0.017 C 
ATOM     13  C   UNL     1     111.238 112.924 105.617  1.00  0.00     0.012 C 
ATOM     14  C   UNL     1     113.037 111.280 105.164  1.00  0.00     0.012 C 
ATOM     15  C   UNL     1     109.452 112.279 108.202  1.00  0.00     0.012 C 
ENDROOT
TORSDOF 0
ENDMDL
MODEL 9
REMARK VINA RESULT:    -6.994      1.904      2.964
REMARK INTER + INTRA:          -6.994
REMARK INTER:                  -6.994
REMARK INTRA:                   0.000
REMARK UNBOUND:                 0.000
REMARK SMILES CC1=CC[C@]2(C)CCCC(C)(C)[C@]23C[C@H]13
REMARK SMILES IDX 1 1 2 2 3 3 4 4 5 5 7 6 8 7 9 8 10 9 13 10 15 11 14 12 11 13
REMARK SMILES IDX 12 14 6 15
REMARK H PARENT
REMARK Flexibility Score: inf
ROOT
ATOM      1  C   UNL     1     109.127 109.509 115.374  1.00  0.00     0.039 C 
ATOM      2  C   UNL     1     110.086 110.314 114.541  1.00  0.00    -0.074 C 
ATOM      3  C   UNL     1     111.242 110.739 115.095  1.00  0.00    -0.027 C 
ATOM      4  C   UNL     1     112.243 111.559 114.320  1.00  0.00     0.034 C 
ATOM      5  C   UNL     1     112.270 111.141 112.821  1.00  0.00    -0.022 C 
ATOM      6  C   UNL     1     113.175 112.125 112.042  1.00  0.00     0.008 C 
ATOM      7  C   UNL     1     113.156 111.894 110.520  1.00  0.00     0.001 C 
ATOM      8  C   UNL     1     111.737 111.956 109.934  1.00  0.00     0.007 C 
ATOM      9  C   UNL     1     110.709 111.001 110.607  1.00  0.00    -0.029 C 
ATOM     10  C   UNL     1     110.825 111.182 112.180  1.00  0.00    -0.012 C 
ATOM     11  C   UNL     1     109.724 110.624 113.097  1.00  0.00     0.022 C 
ATOM     12  C   UNL     1     109.759 112.124 112.807  1.00  0.00     0.017 C 
ATOM     13  C   UNL     1     110.978 109.531 110.198  1.00  0.00     0.012 C 
ATOM     14  C   UNL     1     109.317 111.363 110.010  1.00  0.00     0.012 C 
ATOM     15  C   UNL     1     112.875 109.702 112.779  1.00  0.00     0.012 C 
ENDROOT
TORSDOF 0
ENDMDL
