MODEL 1
REMARK VINA RESULT:    -4.254      0.000      0.000
REMARK INTER + INTRA:          -6.419
REMARK INTER:                  -5.995
REMARK INTRA:                  -0.424
REMARK UNBOUND:                -0.424
REMARK SMILES CCCCCCCCC(=O)[O-]
REMARK SMILES IDX 6 1 7 2 8 3 9 4 10 5 11 6 5 7 4 8 3 9 2 10 1 11
REMARK H PARENT
REMARK Flexibility Score: inf
ROOT
ATOM      1  C   UNL     1      31.416  19.307  12.751  1.00  0.00     0.000 C 
ENDROOT
BRANCH   1   2
ATOM      2  C   UNL     1      31.684  20.181  11.512  1.00  0.00     0.006 C 
BRANCH   2   3
ATOM      3  C   UNL     1      30.943  19.726  10.244  1.00  0.00     0.053 C 
BRANCH   3   4
ATOM      4  C   UNL     1      30.787  18.238  10.187  1.00  0.00     0.041 C 
ATOM      5  O   UNL     1      31.772  17.509   9.899  1.00  0.00    -0.550 OA
ATOM      6  O   UNL     1      29.546  17.658  10.417  1.00  0.00    -0.550 OA
ENDBRANCH   3   4
ENDBRANCH   2   3
ENDBRANCH   1   2
BRANCH   1   7
ATOM      7  C   UNL     1      32.580  19.324  13.754  1.00  0.00     0.000 C 
BRANCH   7   8
ATOM      8  C   UNL     1      33.548  20.474  13.452  1.00  0.00    -0.000 C 
BRANCH   8   9
ATOM      9  C   UNL     1      34.076  21.103  14.751  1.00  0.00    -0.000 C 
BRANCH   9  10
ATOM     10  C   UNL     1      33.555  22.531  14.970  1.00  0.00    -0.003 C 
ATOM     11  C   UNL     1      32.296  22.832  14.155  1.00  0.00     0.004 C 
ENDBRANCH   9  10
ENDBRANCH   8   9
ENDBRANCH   7   8
ENDBRANCH   1   7
TORSDOF 7
ENDMDL
MODEL 2
REMARK VINA RESULT:    -4.186      2.660      3.969
REMARK INTER + INTRA:          -6.322
REMARK INTER:                  -5.697
REMARK INTRA:                  -0.625
REMARK UNBOUND:                -0.424
REMARK SMILES CCCCCCCCC(=O)[O-]
REMARK SMILES IDX 6 1 7 2 8 3 9 4 10 5 11 6 5 7 4 8 3 9 2 10 1 11
REMARK H PARENT
REMARK Flexibility Score: inf
ROOT
ATOM      1  C   UNL     1      29.606  17.994  10.362  1.00  0.00     0.000 C 
ENDROOT
BRANCH   1   2
ATOM      2  C   UNL     1      29.075  18.710  11.616  1.00  0.00     0.006 C 
BRANCH   2   3
ATOM      3  C   UNL     1      27.703  19.379  11.431  1.00  0.00     0.053 C 
BRANCH   3   4
ATOM      4  C   UNL     1      27.801  20.873  11.437  1.00  0.00     0.041 C 
ATOM      5  O   UNL     1      28.849  21.438  11.846  1.00  0.00    -0.550 OA
ATOM      6  O   UNL     1      26.721  21.643  11.024  1.00  0.00    -0.550 OA
ENDBRANCH   3   4
ENDBRANCH   2   3
ENDBRANCH   1   2
BRANCH   1   7
ATOM      7  C   UNL     1      31.114  18.198  10.153  1.00  0.00     0.000 C 
BRANCH   7   8
ATOM      8  C   UNL     1      31.513  19.654  10.422  1.00  0.00    -0.000 C 
BRANCH   8   9
ATOM      9  C   UNL     1      32.814  19.726  11.237  1.00  0.00    -0.000 C 
BRANCH   9  10
ATOM     10  C   UNL     1      32.582  20.216  12.675  1.00  0.00    -0.003 C 
ATOM     11  C   UNL     1      32.202  19.084  13.631  1.00  0.00     0.004 C 
ENDBRANCH   9  10
ENDBRANCH   8   9
ENDBRANCH   7   8
ENDBRANCH   1   7
TORSDOF 7
ENDMDL
MODEL 3
REMARK VINA RESULT:    -4.155      3.282      5.563
REMARK INTER + INTRA:          -6.278
REMARK INTER:                  -5.887
REMARK INTRA:                  -0.391
REMARK UNBOUND:                -0.424
REMARK SMILES CCCCCCCCC(=O)[O-]
REMARK SMILES IDX 6 1 7 2 8 3 9 4 10 5 11 6 5 7 4 8 3 9 2 10 1 11
REMARK H PARENT
REMARK Flexibility Score: inf
ROOT
ATOM      1  C   UNL     1      31.266  19.354  12.506  1.00  0.00     0.000 C 
ENDROOT
BRANCH   1   2
ATOM      2  C   UNL     1      32.281  19.312  13.663  1.00  0.00     0.006 C 
BRANCH   2   3
ATOM      3  C   UNL     1      33.563  20.121  13.411  1.00  0.00     0.053 C 
BRANCH   3   4
ATOM      4  C   UNL     1      33.645  21.333  14.288  1.00  0.00     0.041 C 
ATOM      5  O   UNL     1      32.949  22.350  14.030  1.00  0.00    -0.550 OA
ATOM      6  O   UNL     1      34.516  21.351  15.370  1.00  0.00    -0.550 OA
ENDBRANCH   3   4
ENDBRANCH   2   3
ENDBRANCH   1   2
BRANCH   1   7
ATOM      7  C   UNL     1      31.895  19.002  11.149  1.00  0.00     0.000 C 
BRANCH   7   8
ATOM      8  C   UNL     1      30.853  19.075  10.026  1.00  0.00    -0.000 C 
BRANCH   8   9
ATOM      9  C   UNL     1      29.568  18.330  10.419  1.00  0.00    -0.000 C 
BRANCH   9  10
ATOM     10  C   UNL     1      28.301  19.158  10.155  1.00  0.00    -0.003 C 
ATOM     11  C   UNL     1      27.547  19.511  11.437  1.00  0.00     0.004 C 
ENDBRANCH   9  10
ENDBRANCH   8   9
ENDBRANCH   7   8
ENDBRANCH   1   7
TORSDOF 7
ENDMDL
MODEL 4
REMARK VINA RESULT:    -4.081      3.519      5.166
REMARK INTER + INTRA:          -6.175
REMARK INTER:                  -5.479
REMARK INTRA:                  -0.696
REMARK UNBOUND:                -0.424
REMARK SMILES CCCCCCCCC(=O)[O-]
REMARK SMILES IDX 6 1 7 2 8 3 9 4 10 5 11 6 5 7 4 8 3 9 2 10 1 11
REMARK H PARENT
REMARK Flexibility Score: inf
ROOT
ATOM      1  C   UNL     1      32.178  19.389  13.576  1.00  0.00     0.000 C 
ENDROOT
BRANCH   1   2
ATOM      2  C   UNL     1      33.173  20.497  13.187  1.00  0.00     0.006 C 
BRANCH   2   3
ATOM      3  C   UNL     1      33.123  21.740  14.089  1.00  0.00     0.053 C 
BRANCH   3   4
ATOM      4  C   UNL     1      34.360  21.882  14.922  1.00  0.00     0.041 C 
ATOM      5  O   UNL     1      35.346  21.125  14.724  1.00  0.00    -0.550 OA
ATOM      6  O   UNL     1      34.411  22.826  15.939  1.00  0.00    -0.550 OA
ENDBRANCH   3   4
ENDBRANCH   2   3
ENDBRANCH   1   2
BRANCH   1   7
ATOM      7  C   UNL     1      31.479  18.762  12.360  1.00  0.00     0.000 C 
BRANCH   7   8
ATOM      8  C   UNL     1      31.890  19.472  11.065  1.00  0.00    -0.000 C 
BRANCH   8   9
ATOM      9  C   UNL     1      30.677  20.130  10.389  1.00  0.00    -0.000 C 
BRANCH   9  10
ATOM     10  C   UNL     1      30.563  21.628  10.711  1.00  0.00    -0.003 C 
ATOM     11  C   UNL     1      29.673  21.906  11.923  1.00  0.00     0.004 C 
ENDBRANCH   9  10
ENDBRANCH   8   9
ENDBRANCH   7   8
ENDBRANCH   1   7
TORSDOF 7
ENDMDL
MODEL 5
REMARK VINA RESULT:    -3.991      1.181      2.457
REMARK INTER + INTRA:          -6.048
REMARK INTER:                  -5.359
REMARK INTRA:                  -0.688
REMARK UNBOUND:                -0.424
REMARK SMILES CCCCCCCCC(=O)[O-]
REMARK SMILES IDX 6 1 7 2 8 3 9 4 10 5 11 6 5 7 4 8 3 9 2 10 1 11
REMARK H PARENT
REMARK Flexibility Score: inf
ROOT
ATOM      1  C   UNL     1      30.033  21.599  11.939  1.00  0.00     0.000 C 
ENDROOT
BRANCH   1   2
ATOM      2  C   UNL     1      29.952  20.856  10.594  1.00  0.00     0.006 C 
BRANCH   2   3
ATOM      3  C   UNL     1      31.127  19.902  10.325  1.00  0.00     0.053 C 
BRANCH   3   4
ATOM      4  C   UNL     1      30.708  18.465  10.377  1.00  0.00     0.041 C 
ATOM      5  O   UNL     1      29.569  18.153  10.812  1.00  0.00    -0.550 OA
ATOM      6  O   UNL     1      31.590  17.468   9.978  1.00  0.00    -0.550 OA
ENDBRANCH   3   4
ENDBRANCH   2   3
ENDBRANCH   1   2
BRANCH   1   7
ATOM      7  C   UNL     1      31.457  22.069  12.275  1.00  0.00     0.000 C 
BRANCH   7   8
ATOM      8  C   UNL     1      31.739  21.937  13.776  1.00  0.00    -0.000 C 
BRANCH   8   9
ATOM      9  C   UNL     1      33.091  21.250  14.023  1.00  0.00    -0.000 C 
BRANCH   9  10
ATOM     10  C   UNL     1      33.205  19.897  13.305  1.00  0.00    -0.003 C 
ATOM     11  C   UNL     1      32.165  18.883  13.785  1.00  0.00     0.004 C 
ENDBRANCH   9  10
ENDBRANCH   8   9
ENDBRANCH   7   8
ENDBRANCH   1   7
TORSDOF 7
ENDMDL
MODEL 6
REMARK VINA RESULT:    -3.858     13.180     14.928
REMARK INTER + INTRA:          -5.861
REMARK INTER:                  -5.191
REMARK INTRA:                  -0.670
REMARK UNBOUND:                -0.424
REMARK SMILES CCCCCCCCC(=O)[O-]
REMARK SMILES IDX 6 1 7 2 8 3 9 4 10 5 11 6 5 7 4 8 3 9 2 10 1 11
REMARK H PARENT
REMARK Flexibility Score: inf
ROOT
ATOM      1  C   UNL     1      28.424   4.784  12.767  1.00  0.00     0.000 C 
ENDROOT
BRANCH   1   2
ATOM      2  C   UNL     1      29.456   3.891  13.478  1.00  0.00     0.006 C 
BRANCH   2   3
ATOM      3  C   UNL     1      30.916   4.329  13.277  1.00  0.00     0.053 C 
BRANCH   3   4
ATOM      4  C   UNL     1      31.431   5.120  14.440  1.00  0.00     0.041 C 
ATOM      5  O   UNL     1      31.846   4.532  15.472  1.00  0.00    -0.550 OA
ATOM      6  O   UNL     1      31.419   6.509  14.397  1.00  0.00    -0.550 OA
ENDBRANCH   3   4
ENDBRANCH   2   3
ENDBRANCH   1   2
BRANCH   1   7
ATOM      7  C   UNL     1      27.892   5.911  13.666  1.00  0.00     0.000 C 
BRANCH   7   8
ATOM      8  C   UNL     1      28.029   7.274  12.976  1.00  0.00    -0.000 C 
BRANCH   8   9
ATOM      9  C   UNL     1      27.896   7.134  11.452  1.00  0.00    -0.000 C 
BRANCH   9  10
ATOM     10  C   UNL     1      29.052   7.805  10.695  1.00  0.00    -0.003 C 
ATOM     11  C   UNL     1      30.276   6.898  10.560  1.00  0.00     0.004 C 
ENDBRANCH   9  10
ENDBRANCH   8   9
ENDBRANCH   7   8
ENDBRANCH   1   7
TORSDOF 7
ENDMDL
MODEL 7
REMARK VINA RESULT:    -3.815     17.454     18.943
REMARK INTER + INTRA:          -5.800
REMARK INTER:                  -5.528
REMARK INTRA:                  -0.272
REMARK UNBOUND:                -0.424
REMARK SMILES CCCCCCCCC(=O)[O-]
REMARK SMILES IDX 6 1 7 2 8 3 9 4 10 5 11 6 5 7 4 8 3 9 2 10 1 11
REMARK H PARENT
REMARK Flexibility Score: inf
ROOT
ATOM      1  C   UNL     1      33.742  11.532  30.100  1.00  0.00     0.000 C 
ENDROOT
BRANCH   1   2
ATOM      2  C   UNL     1      34.904  12.476  29.742  1.00  0.00     0.006 C 
BRANCH   2   3
ATOM      3  C   UNL     1      34.465  13.882  29.301  1.00  0.00     0.053 C 
BRANCH   3   4
ATOM      4  C   UNL     1      35.287  14.395  28.159  1.00  0.00     0.041 C 
ATOM      5  O   UNL     1      35.112  15.565  27.729  1.00  0.00    -0.550 OA
ATOM      6  O   UNL     1      36.222  13.570  27.548  1.00  0.00    -0.550 OA
ENDBRANCH   3   4
ENDBRANCH   2   3
ENDBRANCH   1   2
BRANCH   1   7
ATOM      7  C   UNL     1      34.084  10.052  29.868  1.00  0.00     0.000 C 
BRANCH   7   8
ATOM      8  C   UNL     1      35.082   9.894  28.715  1.00  0.00    -0.000 C 
BRANCH   8   9
ATOM      9  C   UNL     1      34.870   8.560  27.984  1.00  0.00    -0.000 C 
BRANCH   9  10
ATOM     10  C   UNL     1      34.785   8.729  26.459  1.00  0.00    -0.003 C 
ATOM     11  C   UNL     1      35.767   7.829  25.709  1.00  0.00     0.004 C 
ENDBRANCH   9  10
ENDBRANCH   8   9
ENDBRANCH   7   8
ENDBRANCH   1   7
TORSDOF 7
ENDMDL
MODEL 8
REMARK VINA RESULT:    -3.738     13.311     14.428
REMARK INTER + INTRA:          -5.691
REMARK INTER:                  -5.030
REMARK INTRA:                  -0.661
REMARK UNBOUND:                -0.424
REMARK SMILES CCCCCCCCC(=O)[O-]
REMARK SMILES IDX 6 1 7 2 8 3 9 4 10 5 11 6 5 7 4 8 3 9 2 10 1 11
REMARK H PARENT
REMARK Flexibility Score: inf
ROOT
ATOM      1  C   UNL     1      30.407   6.186  11.033  1.00  0.00     0.000 C 
ENDROOT
BRANCH   1   2
ATOM      2  C   UNL     1      29.246   6.600  10.111  1.00  0.00     0.006 C 
BRANCH   2   3
ATOM      3  C   UNL     1      28.308   7.659  10.710  1.00  0.00     0.053 C 
BRANCH   3   4
ATOM      4  C   UNL     1      27.367   7.073  11.718  1.00  0.00     0.041 C 
ATOM      5  O   UNL     1      27.318   7.541  12.885  1.00  0.00    -0.550 OA
ATOM      6  O   UNL     1      26.570   5.987  11.377  1.00  0.00    -0.550 OA
ENDBRANCH   3   4
ENDBRANCH   2   3
ENDBRANCH   1   2
BRANCH   1   7
ATOM      7  C   UNL     1      30.284   4.738  11.532  1.00  0.00     0.000 C 
BRANCH   7   8
ATOM      8  C   UNL     1      29.863   4.700  13.006  1.00  0.00    -0.000 C 
BRANCH   8   9
ATOM      9  C   UNL     1      30.313   5.973  13.739  1.00  0.00    -0.000 C 
BRANCH   9  10
ATOM     10  C   UNL     1      31.606   5.764  14.544  1.00  0.00    -0.003 C 
ATOM     11  C   UNL     1      31.645   4.413  15.259  1.00  0.00     0.004 C 
ENDBRANCH   9  10
ENDBRANCH   8   9
ENDBRANCH   7   8
ENDBRANCH   1   7
TORSDOF 7
ENDMDL
MODEL 9
REMARK VINA RESULT:    -3.696      1.914      2.660
REMARK INTER + INTRA:          -5.632
REMARK INTER:                  -5.072
REMARK INTRA:                  -0.560
REMARK UNBOUND:                -0.424
REMARK SMILES CCCCCCCCC(=O)[O-]
REMARK SMILES IDX 6 1 7 2 8 3 9 4 10 5 11 6 5 7 4 8 3 9 2 10 1 11
REMARK H PARENT
REMARK Flexibility Score: inf
ROOT
ATOM      1  C   UNL     1      30.761  22.076  12.397  1.00  0.00     0.000 C 
ENDROOT
BRANCH   1   2
ATOM      2  C   UNL     1      29.637  22.134  11.347  1.00  0.00     0.006 C 
BRANCH   2   3
ATOM      3  C   UNL     1      28.583  21.024  11.486  1.00  0.00     0.053 C 
BRANCH   3   4
ATOM      4  C   UNL     1      29.111  19.690  11.056  1.00  0.00     0.041 C 
ATOM      5  O   UNL     1      29.789  19.588  10.000  1.00  0.00    -0.550 OA
ATOM      6  O   UNL     1      28.825  18.554  11.802  1.00  0.00    -0.550 OA
ENDBRANCH   3   4
ENDBRANCH   2   3
ENDBRANCH   1   2
BRANCH   1   7
ATOM      7  C   UNL     1      32.164  22.116  11.771  1.00  0.00     0.000 C 
BRANCH   7   8
ATOM      8  C   UNL     1      32.749  20.704  11.647  1.00  0.00    -0.000 C 
BRANCH   8   9
ATOM      9  C   UNL     1      32.908  20.052  13.029  1.00  0.00    -0.000 C 
BRANCH   9  10
ATOM     10  C   UNL     1      34.311  20.256  13.620  1.00  0.00    -0.003 C 
ATOM     11  C   UNL     1      34.345  21.335  14.704  1.00  0.00     0.004 C 
ENDBRANCH   9  10
ENDBRANCH   8   9
ENDBRANCH   7   8
ENDBRANCH   1   7
TORSDOF 7
ENDMDL
