MODEL 1
REMARK VINA RESULT:    -4.088      0.000      0.000
REMARK INTER + INTRA:          -5.023
REMARK INTER:                  -4.685
REMARK INTRA:                  -0.338
REMARK UNBOUND:                -0.338
REMARK SMILES COc1ccc(C(C)=O)c(O)c1
REMARK SMILES IDX 6 1 10 2 12 3 3 4 4 5 5 6 7 7 8 8 9 9 11 10 2 12 1 13
REMARK H PARENT 11 11
REMARK Flexibility Score: inf
ROOT
ATOM      1  C   UNL     1     -16.662 -18.468  13.229  1.00  0.00     0.059 A 
ATOM      2  C   UNL     1     -15.808 -17.624  13.977  1.00  0.00     0.130 A 
ATOM      3  C   UNL     1     -15.506 -16.335  13.509  1.00  0.00     0.093 A 
ATOM      4  C   UNL     1     -16.050 -15.866  12.301  1.00  0.00     0.122 A 
ATOM      5  C   UNL     1     -16.895 -16.699  11.567  1.00  0.00     0.047 A 
ATOM      6  C   UNL     1     -17.200 -17.984  12.021  1.00  0.00     0.019 A 
ENDROOT
BRANCH   1   7
ATOM      7  C   UNL     1     -16.990 -19.846  13.697  1.00  0.00     0.163 C 
ATOM      8  C   UNL     1     -16.856 -21.038  12.796  1.00  0.00     0.093 C 
ATOM      9  O   UNL     1     -17.363 -20.040  14.885  1.00  0.00    -0.294 OA
ENDBRANCH   1   7
BRANCH   2  10
ATOM     10  O   UNL     1     -15.265 -18.054  15.187  1.00  0.00    -0.507 OA
ATOM     11  H   UNL     1     -15.312 -17.487  16.025  1.00  0.00     0.293 HD
ENDBRANCH   2  10
BRANCH   4  12
ATOM     12  O   UNL     1     -15.775 -14.585  11.798  1.00  0.00    -0.497 OA
ATOM     13  C   UNL     1     -14.482 -13.987  11.780  1.00  0.00     0.278 C 
ENDBRANCH   4  12
TORSDOF 3
ENDMDL
MODEL 2
REMARK VINA RESULT:    -3.994      2.903      4.358
REMARK INTER + INTRA:          -4.916
REMARK INTER:                  -4.749
REMARK INTRA:                  -0.166
REMARK UNBOUND:                -0.338
REMARK SMILES COc1ccc(C(C)=O)c(O)c1
REMARK SMILES IDX 6 1 10 2 12 3 3 4 4 5 5 6 7 7 8 8 9 9 11 10 2 12 1 13
REMARK H PARENT 11 11
REMARK Flexibility Score: inf
ROOT
ATOM      1  C   UNL     1     -13.631 -19.395  14.712  1.00  0.00     0.059 A 
ATOM      2  C   UNL     1     -14.830 -19.070  15.388  1.00  0.00     0.130 A 
ATOM      3  C   UNL     1     -16.051 -19.066  14.694  1.00  0.00     0.093 A 
ATOM      4  C   UNL     1     -16.099 -19.388  13.326  1.00  0.00     0.122 A 
ATOM      5  C   UNL     1     -14.915 -19.712  12.663  1.00  0.00     0.047 A 
ATOM      6  C   UNL     1     -13.695 -19.717  13.342  1.00  0.00     0.019 A 
ENDROOT
BRANCH   1   7
ATOM      7  C   UNL     1     -12.319 -19.397  15.422  1.00  0.00     0.163 C 
ATOM      8  C   UNL     1     -11.791 -20.627  16.098  1.00  0.00     0.093 C 
ATOM      9  O   UNL     1     -11.608 -18.357  15.442  1.00  0.00    -0.294 OA
ENDBRANCH   1   7
BRANCH   2  10
ATOM     10  O   UNL     1     -14.819 -18.761  16.748  1.00  0.00    -0.507 OA
ATOM     11  H   UNL     1     -13.959 -18.551  17.241  1.00  0.00     0.293 HD
ENDBRANCH   2  10
BRANCH   4  12
ATOM     12  O   UNL     1     -17.297 -19.396  12.596  1.00  0.00    -0.497 OA
ATOM     13  C   UNL     1     -17.837 -18.264  11.922  1.00  0.00     0.278 C 
ENDBRANCH   4  12
TORSDOF 3
ENDMDL
MODEL 3
REMARK VINA RESULT:    -3.907      2.206      5.010
REMARK INTER + INTRA:          -4.816
REMARK INTER:                  -4.519
REMARK INTRA:                  -0.297
REMARK UNBOUND:                -0.338
REMARK SMILES COc1ccc(C(C)=O)c(O)c1
REMARK SMILES IDX 6 1 10 2 12 3 3 4 4 5 5 6 7 7 8 8 9 9 11 10 2 12 1 13
REMARK H PARENT 11 11
REMARK Flexibility Score: inf
ROOT
ATOM      1  C   UNL     1     -16.220 -18.137  12.629  1.00  0.00     0.059 A 
ATOM      2  C   UNL     1     -17.193 -19.099  12.270  1.00  0.00     0.130 A 
ATOM      3  C   UNL     1     -16.863 -20.464  12.259  1.00  0.00     0.093 A 
ATOM      4  C   UNL     1     -15.570 -20.891  12.607  1.00  0.00     0.122 A 
ATOM      5  C   UNL     1     -14.613 -19.941  12.964  1.00  0.00     0.047 A 
ATOM      6  C   UNL     1     -14.929 -18.580  12.976  1.00  0.00     0.019 A 
ENDROOT
BRANCH   1   7
ATOM      7  C   UNL     1     -16.540 -16.680  12.638  1.00  0.00     0.163 C 
ATOM      8  C   UNL     1     -15.786 -15.713  13.501  1.00  0.00     0.093 C 
ATOM      9  O   UNL     1     -17.445 -16.225  11.888  1.00  0.00    -0.294 OA
ENDBRANCH   1   7
BRANCH   2  10
ATOM     10  O   UNL     1     -18.489 -18.709  11.935  1.00  0.00    -0.507 OA
ATOM     11  H   UNL     1     -18.668 -17.948  11.289  1.00  0.00     0.293 HD
ENDBRANCH   2  10
BRANCH   4  12
ATOM     12  O   UNL     1     -15.199 -22.245  12.610  1.00  0.00    -0.497 OA
ATOM     13  C   UNL     1     -13.861 -22.712  12.749  1.00  0.00     0.278 C 
ENDBRANCH   4  12
TORSDOF 3
ENDMDL
MODEL 4
REMARK VINA RESULT:    -3.891      1.427      4.989
REMARK INTER + INTRA:          -4.798
REMARK INTER:                  -4.591
REMARK INTRA:                  -0.207
REMARK UNBOUND:                -0.338
REMARK SMILES COc1ccc(C(C)=O)c(O)c1
REMARK SMILES IDX 6 1 10 2 12 3 3 4 4 5 5 6 7 7 8 8 9 9 11 10 2 12 1 13
REMARK H PARENT 11 11
REMARK Flexibility Score: inf
ROOT
ATOM      1  C   UNL     1     -15.906 -16.780  12.955  1.00  0.00     0.059 A 
ATOM      2  C   UNL     1     -16.671 -17.446  11.969  1.00  0.00     0.130 A 
ATOM      3  C   UNL     1     -17.086 -18.771  12.175  1.00  0.00     0.093 A 
ATOM      4  C   UNL     1     -16.753 -19.450  13.361  1.00  0.00     0.122 A 
ATOM      5  C   UNL     1     -16.003 -18.790  14.334  1.00  0.00     0.047 A 
ATOM      6  C   UNL     1     -15.583 -17.472  14.138  1.00  0.00     0.019 A 
ENDROOT
BRANCH   1   7
ATOM      7  C   UNL     1     -15.444 -15.376  12.757  1.00  0.00     0.163 C 
ATOM      8  C   UNL     1     -14.295 -14.807  13.536  1.00  0.00     0.093 C 
ATOM      9  O   UNL     1     -15.999 -14.641  11.898  1.00  0.00    -0.294 OA
ENDBRANCH   1   7
BRANCH   2  10
ATOM     10  O   UNL     1     -17.030 -16.795  10.788  1.00  0.00    -0.507 OA
ATOM     11  H   UNL     1     -17.882 -17.024  10.291  1.00  0.00     0.293 HD
ENDBRANCH   2  10
BRANCH   4  12
ATOM     12  O   UNL     1     -17.148 -20.773  13.607  1.00  0.00    -0.497 OA
ATOM     13  C   UNL     1     -17.068 -21.828  12.653  1.00  0.00     0.278 C 
ENDBRANCH   4  12
TORSDOF 3
ENDMDL
MODEL 5
REMARK VINA RESULT:    -3.854      3.051      5.348
REMARK INTER + INTRA:          -4.755
REMARK INTER:                  -4.422
REMARK INTRA:                  -0.333
REMARK UNBOUND:                -0.338
REMARK SMILES COc1ccc(C(C)=O)c(O)c1
REMARK SMILES IDX 6 1 10 2 12 3 3 4 4 5 5 6 7 7 8 8 9 9 11 10 2 12 1 13
REMARK H PARENT 11 11
REMARK Flexibility Score: inf
ROOT
ATOM      1  C   UNL     1     -15.597 -20.175  13.143  1.00  0.00     0.059 A 
ATOM      2  C   UNL     1     -16.440 -20.611  12.094  1.00  0.00     0.130 A 
ATOM      3  C   UNL     1     -15.957 -21.509  11.129  1.00  0.00     0.093 A 
ATOM      4  C   UNL     1     -14.637 -21.988  11.194  1.00  0.00     0.122 A 
ATOM      5  C   UNL     1     -13.808 -21.559  12.231  1.00  0.00     0.047 A 
ATOM      6  C   UNL     1     -14.277 -20.664  13.195  1.00  0.00     0.019 A 
ENDROOT
BRANCH   1   7
ATOM      7  C   UNL     1     -16.082 -19.213  14.175  1.00  0.00     0.163 C 
ATOM      8  C   UNL     1     -15.504 -17.834  14.301  1.00  0.00     0.093 C 
ATOM      9  O   UNL     1     -17.020 -19.537  14.951  1.00  0.00    -0.294 OA
ENDBRANCH   1   7
BRANCH   2  10
ATOM     10  O   UNL     1     -17.760 -20.167  12.011  1.00  0.00    -0.507 OA
ATOM     11  H   UNL     1     -18.033 -19.242  12.321  1.00  0.00     0.293 HD
ENDBRANCH   2  10
BRANCH   4  12
ATOM     12  O   UNL     1     -14.114 -22.886  10.251  1.00  0.00    -0.497 OA
ATOM     13  C   UNL     1     -12.737 -23.236  10.149  1.00  0.00     0.278 C 
ENDBRANCH   4  12
TORSDOF 3
ENDMDL
MODEL 6
REMARK VINA RESULT:    -3.848     14.404     15.422
REMARK INTER + INTRA:          -4.748
REMARK INTER:                  -4.411
REMARK INTRA:                  -0.337
REMARK UNBOUND:                -0.338
REMARK SMILES COc1ccc(C(C)=O)c(O)c1
REMARK SMILES IDX 6 1 10 2 12 3 3 4 4 5 5 6 7 7 8 8 9 9 11 10 2 12 1 13
REMARK H PARENT 11 11
REMARK Flexibility Score: inf
ROOT
ATOM      1  C   UNL     1     -19.146 -11.756  -1.009  1.00  0.00     0.059 A 
ATOM      2  C   UNL     1     -20.382 -11.621  -0.334  1.00  0.00     0.130 A 
ATOM      3  C   UNL     1     -20.569 -10.583   0.592  1.00  0.00     0.093 A 
ATOM      4  C   UNL     1     -19.537  -9.664   0.857  1.00  0.00     0.122 A 
ATOM      5  C   UNL     1     -18.321  -9.797   0.187  1.00  0.00     0.047 A 
ATOM      6  C   UNL     1     -18.123 -10.827  -0.734  1.00  0.00     0.019 A 
ENDROOT
BRANCH   1   7
ATOM      7  C   UNL     1     -18.917 -12.856  -1.990  1.00  0.00     0.163 C 
ATOM      8  C   UNL     1     -17.836 -13.877  -1.791  1.00  0.00     0.093 C 
ATOM      9  O   UNL     1     -19.659 -12.967  -3.002  1.00  0.00    -0.294 OA
ENDBRANCH   1   7
BRANCH   2  10
ATOM     10  O   UNL     1     -21.430 -12.506  -0.585  1.00  0.00    -0.507 OA
ATOM     11  H   UNL     1     -21.819 -13.093   0.143  1.00  0.00     0.293 HD
ENDBRANCH   2  10
BRANCH   4  12
ATOM     12  O   UNL     1     -19.682  -8.612   1.774  1.00  0.00    -0.497 OA
ATOM     13  C   UNL     1     -18.812  -8.379   2.877  1.00  0.00     0.278 C 
ENDBRANCH   4  12
TORSDOF 3
ENDMDL
MODEL 7
REMARK VINA RESULT:    -3.810      1.788      2.529
REMARK INTER + INTRA:          -4.705
REMARK INTER:                  -4.371
REMARK INTRA:                  -0.334
REMARK UNBOUND:                -0.338
REMARK SMILES COc1ccc(C(C)=O)c(O)c1
REMARK SMILES IDX 6 1 10 2 12 3 3 4 4 5 5 6 7 7 8 8 9 9 11 10 2 12 1 13
REMARK H PARENT 11 11
REMARK Flexibility Score: inf
ROOT
ATOM      1  C   UNL     1     -15.975 -19.761  12.996  1.00  0.00     0.059 A 
ATOM      2  C   UNL     1     -16.882 -18.765  12.566  1.00  0.00     0.130 A 
ATOM      3  C   UNL     1     -16.614 -17.410  12.820  1.00  0.00     0.093 A 
ATOM      4  C   UNL     1     -15.444 -17.027  13.498  1.00  0.00     0.122 A 
ATOM      5  C   UNL     1     -14.548 -18.011  13.917  1.00  0.00     0.047 A 
ATOM      6  C   UNL     1     -14.806 -19.361  13.672  1.00  0.00     0.019 A 
ENDROOT
BRANCH   1   7
ATOM      7  C   UNL     1     -16.240 -21.208  12.748  1.00  0.00     0.163 C 
ATOM      8  C   UNL     1     -15.172 -22.130  12.241  1.00  0.00     0.093 C 
ATOM      9  O   UNL     1     -17.377 -21.694  12.992  1.00  0.00    -0.294 OA
ENDBRANCH   1   7
BRANCH   2  10
ATOM     10  O   UNL     1     -18.045 -19.111  11.878  1.00  0.00    -0.507 OA
ATOM     11  H   UNL     1     -18.641 -18.412  11.450  1.00  0.00     0.293 HD
ENDBRANCH   2  10
BRANCH   4  12
ATOM     12  O   UNL     1     -15.137 -15.685  13.772  1.00  0.00    -0.497 OA
ATOM     13  C   UNL     1     -14.643 -14.760  12.808  1.00  0.00     0.278 C 
ENDBRANCH   4  12
TORSDOF 3
ENDMDL
MODEL 8
REMARK VINA RESULT:    -3.805      3.281      4.459
REMARK INTER + INTRA:          -4.699
REMARK INTER:                  -4.367
REMARK INTRA:                  -0.331
REMARK UNBOUND:                -0.338
REMARK SMILES COc1ccc(C(C)=O)c(O)c1
REMARK SMILES IDX 6 1 10 2 12 3 3 4 4 5 5 6 7 7 8 8 9 9 11 10 2 12 1 13
REMARK H PARENT 11 11
REMARK Flexibility Score: inf
ROOT
ATOM      1  C   UNL     1     -15.138 -19.598  13.798  1.00  0.00     0.059 A 
ATOM      2  C   UNL     1     -14.438 -19.170  14.950  1.00  0.00     0.130 A 
ATOM      3  C   UNL     1     -13.040 -19.286  15.008  1.00  0.00     0.093 A 
ATOM      4  C   UNL     1     -12.320 -19.822  13.926  1.00  0.00     0.122 A 
ATOM      5  C   UNL     1     -13.012 -20.240  12.789  1.00  0.00     0.047 A 
ATOM      6  C   UNL     1     -14.403 -20.132  12.721  1.00  0.00     0.019 A 
ENDROOT
BRANCH   1   7
ATOM      7  C   UNL     1     -16.624 -19.496  13.715  1.00  0.00     0.163 C 
ATOM      8  C   UNL     1     -17.313 -19.010  12.474  1.00  0.00     0.093 C 
ATOM      9  O   UNL     1     -17.339 -19.850  14.690  1.00  0.00    -0.294 OA
ENDBRANCH   1   7
BRANCH   2  10
ATOM     10  O   UNL     1     -15.121 -18.620  16.034  1.00  0.00    -0.507 OA
ATOM     11  H   UNL     1     -14.639 -18.324  16.875  1.00  0.00     0.293 HD
ENDBRANCH   2  10
BRANCH   4  12
ATOM     12  O   UNL     1     -10.923 -19.954  13.942  1.00  0.00    -0.497 OA
ATOM     13  C   UNL     1     -10.222 -21.006  14.598  1.00  0.00     0.278 C 
ENDBRANCH   4  12
TORSDOF 3
ENDMDL
MODEL 9
REMARK VINA RESULT:    -3.783     12.162     13.603
REMARK INTER + INTRA:          -4.674
REMARK INTER:                  -4.349
REMARK INTRA:                  -0.325
REMARK UNBOUND:                -0.338
REMARK SMILES COc1ccc(C(C)=O)c(O)c1
REMARK SMILES IDX 6 1 10 2 12 3 3 4 4 5 5 6 7 7 8 8 9 9 11 10 2 12 1 13
REMARK H PARENT 11 11
REMARK Flexibility Score: inf
ROOT
ATOM      1  C   UNL     1     -19.324  -8.954   4.455  1.00  0.00     0.059 A 
ATOM      2  C   UNL     1     -18.865  -8.318   3.278  1.00  0.00     0.130 A 
ATOM      3  C   UNL     1     -18.921  -8.990   2.046  1.00  0.00     0.093 A 
ATOM      4  C   UNL     1     -19.436 -10.296   1.966  1.00  0.00     0.122 A 
ATOM      5  C   UNL     1     -19.891 -10.920   3.128  1.00  0.00     0.047 A 
ATOM      6  C   UNL     1     -19.838 -10.261   4.358  1.00  0.00     0.019 A 
ENDROOT
BRANCH   1   7
ATOM      7  C   UNL     1     -19.266  -8.266   5.777  1.00  0.00     0.163 C 
ATOM      8  C   UNL     1     -20.364  -8.408   6.789  1.00  0.00     0.093 C 
ATOM      9  O   UNL     1     -18.264  -7.566   6.085  1.00  0.00    -0.294 OA
ENDBRANCH   1   7
BRANCH   2  10
ATOM     10  O   UNL     1     -18.363  -7.017   3.321  1.00  0.00    -0.507 OA
ATOM     11  H   UNL     1     -17.369  -6.830   3.378  1.00  0.00     0.293 HD
ENDBRANCH   2  10
BRANCH   4  12
ATOM     12  O   UNL     1     -19.510 -11.003   0.756  1.00  0.00    -0.497 OA
ATOM     13  C   UNL     1     -20.699 -11.158  -0.013  1.00  0.00     0.278 C 
ENDBRANCH   4  12
TORSDOF 3
ENDMDL
