MODEL 1
REMARK VINA RESULT:    -6.111      0.000      0.000
REMARK INTER + INTRA:          -7.786
REMARK INTER:                  -7.362
REMARK INTRA:                  -0.425
REMARK UNBOUND:                -0.425
REMARK SMILES O=c1c(O)c(-c2ccc(O)cc2O)oc2cc(O)cc(O)c12
REMARK SMILES IDX 5 1 3 2 2 3 1 4 22 5 20 6 19 7 17 8 16 9 15 10 14 11 6 12
REMARK SMILES IDX 8 13 7 14 9 15 11 16 12 17 10 18 13 20 4 22 21 24 18 26
REMARK H PARENT 10 19 13 21 4 23 21 25 18 27
REMARK Flexibility Score: inf
ROOT
ATOM      1  C   UNL     1       5.890  -2.569  -1.844  1.00  0.00     0.184 A 
ATOM      2  C   UNL     1       7.143  -2.191  -2.354  1.00  0.00     0.208 A 
ATOM      3  C   UNL     1       7.369  -2.277  -3.736  1.00  0.00     0.238 A 
ATOM      4  O   UNL     1       8.510  -1.988  -4.181  1.00  0.00    -0.285 OA
ATOM      5  C   UNL     1       6.334  -2.724  -4.592  1.00  0.00     0.111 A 
ATOM      6  C   UNL     1       6.439  -2.812  -6.013  1.00  0.00     0.134 A 
ATOM      7  C   UNL     1       5.396  -3.391  -6.747  1.00  0.00     0.093 A 
ATOM      8  C   UNL     1       4.228  -3.824  -6.122  1.00  0.00     0.123 A 
ATOM      9  C   UNL     1       4.091  -3.688  -4.741  1.00  0.00     0.094 A 
ATOM     10  C   UNL     1       5.127  -3.149  -3.976  1.00  0.00     0.146 A 
ATOM     11  O   UNL     1       4.961  -3.047  -2.663  1.00  0.00    -0.451 OA
ENDROOT
BRANCH   1  12
ATOM     12  C   UNL     1       5.581  -2.488  -0.402  1.00  0.00     0.063 A 
ATOM     13  C   UNL     1       5.020  -1.121   1.529  1.00  0.00     0.047 A 
ATOM     14  C   UNL     1       5.310  -1.233   0.168  1.00  0.00     0.020 A 
ATOM     15  C   UNL     1       5.009  -2.260   2.343  1.00  0.00     0.119 A 
ATOM     16  C   UNL     1       5.299  -3.510   1.790  1.00  0.00     0.093 A 
ATOM     17  C   UNL     1       5.598  -3.632   0.424  1.00  0.00     0.130 A 
BRANCH  15  18
ATOM     18  O   UNL     1       4.716  -2.160   3.701  1.00  0.00    -0.508 OA
ATOM     19  H   UNL     1       4.449  -1.278   4.122  1.00  0.00     0.293 HD
ENDBRANCH  15  18
BRANCH  17  20
ATOM     20  O   UNL     1       5.934  -4.879  -0.105  1.00  0.00    -0.507 OA
ATOM     21  H   UNL     1       5.256  -5.447  -0.597  1.00  0.00     0.293 HD
ENDBRANCH  17  20
ENDBRANCH   1  12
BRANCH   2  22
ATOM     22  O   UNL     1       8.153  -1.772  -1.483  1.00  0.00    -0.502 OA
ATOM     23  H   UNL     1       8.016  -1.713  -0.481  1.00  0.00     0.293 HD
ENDBRANCH   2  22
BRANCH   6  24
ATOM     24  O   UNL     1       7.524  -2.326  -6.747  1.00  0.00    -0.507 OA
ATOM     25  H   UNL     1       8.492  -2.532  -6.547  1.00  0.00     0.293 HD
ENDBRANCH   6  24
BRANCH   8  26
ATOM     26  O   UNL     1       3.205  -4.380  -6.887  1.00  0.00    -0.508 OA
ATOM     27  H   UNL     1       2.428  -4.870  -6.457  1.00  0.00     0.293 HD
ENDBRANCH   8  26
TORSDOF 6
ENDMDL
MODEL 2
REMARK VINA RESULT:    -5.511      1.491      3.213
REMARK INTER + INTRA:          -7.063
REMARK INTER:                  -6.644
REMARK INTRA:                  -0.419
REMARK UNBOUND:                -0.425
REMARK SMILES O=c1c(O)c(-c2ccc(O)cc2O)oc2cc(O)cc(O)c12
REMARK SMILES IDX 5 1 3 2 2 3 1 4 22 5 20 6 19 7 17 8 16 9 15 10 14 11 6 12
REMARK SMILES IDX 8 13 7 14 9 15 11 16 12 17 10 18 13 20 4 22 21 24 18 26
REMARK H PARENT 10 19 13 21 4 23 21 25 18 27
REMARK Flexibility Score: inf
ROOT
ATOM      1  C   UNL     1       5.341  -3.121  -2.252  1.00  0.00     0.184 A 
ATOM      2  C   UNL     1       4.284  -3.782  -2.899  1.00  0.00     0.208 A 
ATOM      3  C   UNL     1       4.403  -4.078  -4.265  1.00  0.00     0.238 A 
ATOM      4  O   UNL     1       3.431  -4.622  -4.852  1.00  0.00    -0.285 OA
ATOM      5  C   UNL     1       5.582  -3.724  -4.963  1.00  0.00     0.111 A 
ATOM      6  C   UNL     1       5.827  -4.012  -6.339  1.00  0.00     0.134 A 
ATOM      7  C   UNL     1       6.975  -3.499  -6.958  1.00  0.00     0.093 A 
ATOM      8  C   UNL     1       7.916  -2.768  -6.237  1.00  0.00     0.123 A 
ATOM      9  C   UNL     1       7.717  -2.532  -4.876  1.00  0.00     0.094 A 
ATOM     10  C   UNL     1       6.565  -2.998  -4.239  1.00  0.00     0.146 A 
ATOM     11  O   UNL     1       6.407  -2.742  -2.946  1.00  0.00    -0.451 OA
ENDROOT
BRANCH   1  12
ATOM     12  C   UNL     1       5.288  -2.793  -0.812  1.00  0.00     0.063 A 
ATOM     13  C   UNL     1       5.345  -3.557   1.496  1.00  0.00     0.047 A 
ATOM     14  C   UNL     1       5.397  -3.831   0.127  1.00  0.00     0.020 A 
ATOM     15  C   UNL     1       5.171  -2.242   1.944  1.00  0.00     0.119 A 
ATOM     16  C   UNL     1       5.038  -1.205   1.016  1.00  0.00     0.093 A 
ATOM     17  C   UNL     1       5.083  -1.472  -0.361  1.00  0.00     0.130 A 
BRANCH  15  18
ATOM     18  O   UNL     1       5.122  -1.957   3.306  1.00  0.00    -0.508 OA
ATOM     19  H   UNL     1       5.939  -2.054   3.898  1.00  0.00     0.293 HD
ENDBRANCH  15  18
BRANCH  17  20
ATOM     20  O   UNL     1       4.901  -0.435  -1.275  1.00  0.00    -0.507 OA
ATOM     21  H   UNL     1       5.075  -0.561  -2.265  1.00  0.00     0.293 HD
ENDBRANCH  17  20
ENDBRANCH   1  12
BRANCH   2  22
ATOM     22  O   UNL     1       3.123  -4.102  -2.190  1.00  0.00    -0.502 OA
ATOM     23  H   UNL     1       2.575  -4.930  -2.392  1.00  0.00     0.293 HD
ENDBRANCH   2  22
BRANCH   6  24
ATOM     24  O   UNL     1       4.996  -4.810  -7.130  1.00  0.00    -0.507 OA
ATOM     25  H   UNL     1       4.876  -5.806  -7.014  1.00  0.00     0.293 HD
ENDBRANCH   6  24
BRANCH   8  26
ATOM     26  O   UNL     1       9.054  -2.287  -6.881  1.00  0.00    -0.508 OA
ATOM     27  H   UNL     1       9.464  -1.393  -6.638  1.00  0.00     0.293 HD
ENDBRANCH   8  26
TORSDOF 6
ENDMDL
MODEL 3
REMARK VINA RESULT:    -5.475      1.296      2.880
REMARK INTER + INTRA:          -7.019
REMARK INTER:                  -6.636
REMARK INTRA:                  -0.384
REMARK UNBOUND:                -0.425
REMARK SMILES O=c1c(O)c(-c2ccc(O)cc2O)oc2cc(O)cc(O)c12
REMARK SMILES IDX 5 1 3 2 2 3 1 4 22 5 20 6 19 7 17 8 16 9 15 10 14 11 6 12
REMARK SMILES IDX 8 13 7 14 9 15 11 16 12 17 10 18 13 20 4 22 21 24 18 26
REMARK H PARENT 10 19 13 21 4 23 21 25 18 27
REMARK Flexibility Score: inf
ROOT
ATOM      1  C   UNL     1       5.376  -3.136  -2.243  1.00  0.00     0.184 A 
ATOM      2  C   UNL     1       4.319  -3.777  -2.909  1.00  0.00     0.208 A 
ATOM      3  C   UNL     1       4.452  -4.066  -4.276  1.00  0.00     0.238 A 
ATOM      4  O   UNL     1       3.481  -4.591  -4.880  1.00  0.00    -0.285 OA
ATOM      5  C   UNL     1       5.647  -3.724  -4.954  1.00  0.00     0.111 A 
ATOM      6  C   UNL     1       5.907  -4.006  -6.329  1.00  0.00     0.134 A 
ATOM      7  C   UNL     1       7.071  -3.506  -6.928  1.00  0.00     0.093 A 
ATOM      8  C   UNL     1       8.013  -2.794  -6.188  1.00  0.00     0.123 A 
ATOM      9  C   UNL     1       7.797  -2.564  -4.829  1.00  0.00     0.094 A 
ATOM     10  C   UNL     1       6.630  -3.017  -4.212  1.00  0.00     0.146 A 
ATOM     11  O   UNL     1       6.457  -2.768  -2.919  1.00  0.00    -0.451 OA
ENDROOT
BRANCH   1  12
ATOM     12  C   UNL     1       5.307  -2.818  -0.802  1.00  0.00     0.063 A 
ATOM     13  C   UNL     1       4.934  -1.170   0.947  1.00  0.00     0.047 A 
ATOM     14  C   UNL     1       5.002  -1.506  -0.407  1.00  0.00     0.020 A 
ATOM     15  C   UNL     1       5.184  -2.140   1.926  1.00  0.00     0.119 A 
ATOM     16  C   UNL     1       5.511  -3.444   1.542  1.00  0.00     0.093 A 
ATOM     17  C   UNL     1       5.587  -3.788   0.184  1.00  0.00     0.130 A 
BRANCH  15  18
ATOM     18  O   UNL     1       5.116  -1.818   3.279  1.00  0.00    -0.508 OA
ATOM     19  H   UNL     1       5.926  -1.482   3.785  1.00  0.00     0.293 HD
ENDBRANCH  15  18
BRANCH  17  20
ATOM     20  O   UNL     1       5.962  -5.080  -0.184  1.00  0.00    -0.507 OA
ATOM     21  H   UNL     1       6.732  -5.250  -0.819  1.00  0.00     0.293 HD
ENDBRANCH  17  20
ENDBRANCH   1  12
BRANCH   2  22
ATOM     22  O   UNL     1       3.143  -4.085  -2.219  1.00  0.00    -0.502 OA
ATOM     23  H   UNL     1       3.077  -4.032  -1.210  1.00  0.00     0.293 HD
ENDBRANCH   2  22
BRANCH   6  24
ATOM     24  O   UNL     1       5.076  -4.786  -7.137  1.00  0.00    -0.507 OA
ATOM     25  H   UNL     1       5.275  -5.735  -7.420  1.00  0.00     0.293 HD
ENDBRANCH   6  24
BRANCH   8  26
ATOM     26  O   UNL     1       9.167  -2.326  -6.813  1.00  0.00    -0.508 OA
ATOM     27  H   UNL     1       9.154  -1.500  -7.401  1.00  0.00     0.293 HD
ENDBRANCH   8  26
TORSDOF 6
ENDMDL
MODEL 4
REMARK VINA RESULT:    -5.388      2.266      6.864
REMARK INTER + INTRA:          -6.915
REMARK INTER:                  -6.940
REMARK INTRA:                   0.025
REMARK UNBOUND:                -0.425
REMARK SMILES O=c1c(O)c(-c2ccc(O)cc2O)oc2cc(O)cc(O)c12
REMARK SMILES IDX 5 1 3 2 2 3 1 4 22 5 20 6 19 7 17 8 16 9 15 10 14 11 6 12
REMARK SMILES IDX 8 13 7 14 9 15 11 16 12 17 10 18 13 20 4 22 21 24 18 26
REMARK H PARENT 10 19 13 21 4 23 21 25 18 27
REMARK Flexibility Score: inf
ROOT
ATOM      1  C   UNL     1       4.742  -3.633  -3.864  1.00  0.00     0.184 A 
ATOM      2  C   UNL     1       5.097  -4.482  -2.803  1.00  0.00     0.208 A 
ATOM      3  C   UNL     1       5.243  -3.939  -1.517  1.00  0.00     0.238 A 
ATOM      4  O   UNL     1       5.613  -4.694  -0.581  1.00  0.00    -0.285 OA
ATOM      5  C   UNL     1       5.016  -2.557  -1.307  1.00  0.00     0.111 A 
ATOM      6  C   UNL     1       5.096  -1.907  -0.038  1.00  0.00     0.134 A 
ATOM      7  C   UNL     1       4.979  -0.513   0.031  1.00  0.00     0.093 A 
ATOM      8  C   UNL     1       4.721   0.246  -1.109  1.00  0.00     0.123 A 
ATOM      9  C   UNL     1       4.582  -0.386  -2.345  1.00  0.00     0.094 A 
ATOM     10  C   UNL     1       4.729  -1.770  -2.453  1.00  0.00     0.146 A 
ATOM     11  O   UNL     1       4.601  -2.331  -3.650  1.00  0.00    -0.451 OA
ENDROOT
BRANCH   1  12
ATOM     12  C   UNL     1       4.556  -4.143  -5.238  1.00  0.00     0.063 A 
ATOM     13  C   UNL     1       5.282  -5.633  -7.018  1.00  0.00     0.047 A 
ATOM     14  C   UNL     1       5.426  -5.133  -5.721  1.00  0.00     0.020 A 
ATOM     15  C   UNL     1       4.273  -5.139  -7.854  1.00  0.00     0.119 A 
ATOM     16  C   UNL     1       3.416  -4.137  -7.389  1.00  0.00     0.093 A 
ATOM     17  C   UNL     1       3.557  -3.625  -6.090  1.00  0.00     0.130 A 
BRANCH  15  18
ATOM     18  O   UNL     1       4.117  -5.633  -9.146  1.00  0.00    -0.508 OA
ATOM     19  H   UNL     1       4.806  -5.457  -9.868  1.00  0.00     0.293 HD
ENDBRANCH  15  18
BRANCH  17  20
ATOM     20  O   UNL     1       2.727  -2.592  -5.657  1.00  0.00    -0.507 OA
ATOM     21  H   UNL     1       2.873  -2.128  -4.769  1.00  0.00     0.293 HD
ENDBRANCH  17  20
ENDBRANCH   1  12
BRANCH   2  22
ATOM     22  O   UNL     1       5.334  -5.838  -3.043  1.00  0.00    -0.502 OA
ATOM     23  H   UNL     1       5.626  -6.476  -2.312  1.00  0.00     0.293 HD
ENDBRANCH   2  22
BRANCH   6  24
ATOM     24  O   UNL     1       5.260  -2.580   1.175  1.00  0.00    -0.507 OA
ATOM     25  H   UNL     1       4.883  -3.494   1.381  1.00  0.00     0.293 HD
ENDBRANCH   6  24
BRANCH   8  26
ATOM     26  O   UNL     1       4.595   1.629  -1.000  1.00  0.00    -0.508 OA
ATOM     27  H   UNL     1       4.820   2.117  -0.141  1.00  0.00     0.293 HD
ENDBRANCH   8  26
TORSDOF 6
ENDMDL
MODEL 5
REMARK VINA RESULT:    -5.217      2.615      6.423
REMARK INTER + INTRA:          -6.709
REMARK INTER:                  -6.350
REMARK INTRA:                  -0.359
REMARK UNBOUND:                -0.425
REMARK SMILES O=c1c(O)c(-c2ccc(O)cc2O)oc2cc(O)cc(O)c12
REMARK SMILES IDX 5 1 3 2 2 3 1 4 22 5 20 6 19 7 17 8 16 9 15 10 14 11 6 12
REMARK SMILES IDX 8 13 7 14 9 15 11 16 12 17 10 18 13 20 4 22 21 24 18 26
REMARK H PARENT 10 19 13 21 4 23 21 25 18 27
REMARK Flexibility Score: inf
ROOT
ATOM      1  C   UNL     1       6.195  -4.242  -2.183  1.00  0.00     0.184 A 
ATOM      2  C   UNL     1       6.259  -4.664  -0.845  1.00  0.00     0.208 A 
ATOM      3  C   UNL     1       5.904  -3.762   0.170  1.00  0.00     0.238 A 
ATOM      4  O   UNL     1       6.015  -4.128   1.369  1.00  0.00    -0.285 OA
ATOM      5  C   UNL     1       5.475  -2.456  -0.167  1.00  0.00     0.111 A 
ATOM      6  C   UNL     1       5.052  -1.473   0.777  1.00  0.00     0.134 A 
ATOM      7  C   UNL     1       4.772  -0.172   0.340  1.00  0.00     0.093 A 
ATOM      8  C   UNL     1       4.834   0.164  -1.011  1.00  0.00     0.123 A 
ATOM      9  C   UNL     1       5.188  -0.806  -1.950  1.00  0.00     0.094 A 
ATOM     10  C   UNL     1       5.509  -2.101  -1.542  1.00  0.00     0.146 A 
ATOM     11  O   UNL     1       5.852  -2.991  -2.466  1.00  0.00    -0.451 OA
ENDROOT
BRANCH   1  12
ATOM     12  C   UNL     1       6.539  -5.146  -3.300  1.00  0.00     0.063 A 
ATOM     13  C   UNL     1       8.220  -6.454  -4.472  1.00  0.00     0.047 A 
ATOM     14  C   UNL     1       7.860  -5.604  -3.425  1.00  0.00     0.020 A 
ATOM     15  C   UNL     1       7.265  -6.849  -5.418  1.00  0.00     0.119 A 
ATOM     16  C   UNL     1       5.953  -6.380  -5.315  1.00  0.00     0.093 A 
ATOM     17  C   UNL     1       5.584  -5.521  -4.269  1.00  0.00     0.130 A 
BRANCH  15  18
ATOM     18  O   UNL     1       7.612  -7.700  -6.464  1.00  0.00    -0.508 OA
ATOM     19  H   UNL     1       7.985  -8.626  -6.293  1.00  0.00     0.293 HD
ENDBRANCH  15  18
BRANCH  17  20
ATOM     20  O   UNL     1       4.282  -5.022  -4.207  1.00  0.00    -0.507 OA
ATOM     21  H   UNL     1       3.690  -5.182  -3.402  1.00  0.00     0.293 HD
ENDBRANCH  17  20
ENDBRANCH   1  12
BRANCH   2  22
ATOM     22  O   UNL     1       6.706  -5.952  -0.540  1.00  0.00    -0.502 OA
ATOM     23  H   UNL     1       6.129  -6.774  -0.679  1.00  0.00     0.293 HD
ENDBRANCH   2  22
BRANCH   6  24
ATOM     24  O   UNL     1       4.868  -1.727   2.139  1.00  0.00    -0.507 OA
ATOM     25  H   UNL     1       3.977  -1.708   2.612  1.00  0.00     0.293 HD
ENDBRANCH   6  24
BRANCH   8  26
ATOM     26  O   UNL     1       4.533   1.464  -1.411  1.00  0.00    -0.508 OA
ATOM     27  H   UNL     1       4.735   1.790  -2.349  1.00  0.00     0.293 HD
ENDBRANCH   8  26
TORSDOF 6
ENDMDL
MODEL 6
REMARK VINA RESULT:    -5.143      1.879      6.974
REMARK INTER + INTRA:          -6.619
REMARK INTER:                  -6.190
REMARK INTRA:                  -0.429
REMARK UNBOUND:                -0.425
REMARK SMILES O=c1c(O)c(-c2ccc(O)cc2O)oc2cc(O)cc(O)c12
REMARK SMILES IDX 5 1 3 2 2 3 1 4 22 5 20 6 19 7 17 8 16 9 15 10 14 11 6 12
REMARK SMILES IDX 8 13 7 14 9 15 11 16 12 17 10 18 13 20 4 22 21 24 18 26
REMARK H PARENT 10 19 13 21 4 23 21 25 18 27
REMARK Flexibility Score: inf
ROOT
ATOM      1  C   UNL     1       5.219  -3.593  -4.399  1.00  0.00     0.184 A 
ATOM      2  C   UNL     1       5.684  -4.795  -3.842  1.00  0.00     0.208 A 
ATOM      3  C   UNL     1       5.823  -4.890  -2.449  1.00  0.00     0.238 A 
ATOM      4  O   UNL     1       6.291  -5.951  -1.959  1.00  0.00    -0.285 OA
ATOM      5  C   UNL     1       5.481  -3.787  -1.630  1.00  0.00     0.111 A 
ATOM      6  C   UNL     1       5.544  -3.785  -0.204  1.00  0.00     0.134 A 
ATOM      7  C   UNL     1       5.306  -2.595   0.496  1.00  0.00     0.093 A 
ATOM      8  C   UNL     1       4.943  -1.427  -0.171  1.00  0.00     0.123 A 
ATOM      9  C   UNL     1       4.820  -1.432  -1.561  1.00  0.00     0.094 A 
ATOM     10  C   UNL     1       5.086  -2.592  -2.290  1.00  0.00     0.146 A 
ATOM     11  O   UNL     1       4.969  -2.553  -3.612  1.00  0.00    -0.451 OA
ENDROOT
BRANCH   1  12
ATOM     12  C   UNL     1       5.034  -3.431  -5.856  1.00  0.00     0.063 A 
ATOM     13  C   UNL     1       3.704  -3.872  -7.843  1.00  0.00     0.047 A 
ATOM     14  C   UNL     1       3.906  -4.001  -6.467  1.00  0.00     0.020 A 
ATOM     15  C   UNL     1       4.634  -3.182  -8.629  1.00  0.00     0.119 A 
ATOM     16  C   UNL     1       5.772  -2.630  -8.033  1.00  0.00     0.093 A 
ATOM     17  C   UNL     1       5.986  -2.760  -6.652  1.00  0.00     0.130 A 
BRANCH  15  18
ATOM     18  O   UNL     1       4.440  -3.043 -10.001  1.00  0.00    -0.508 OA
ATOM     19  H   UNL     1       5.211  -2.845 -10.628  1.00  0.00     0.293 HD
ENDBRANCH  15  18
BRANCH  17  20
ATOM     20  O   UNL     1       7.150  -2.247  -6.080  1.00  0.00    -0.507 OA
ATOM     21  H   UNL     1       7.790  -1.665  -6.606  1.00  0.00     0.293 HD
ENDBRANCH  17  20
ENDBRANCH   1  12
BRANCH   2  22
ATOM     22  O   UNL     1       6.033  -5.861  -4.675  1.00  0.00    -0.502 OA
ATOM     23  H   UNL     1       6.963  -5.966  -5.062  1.00  0.00     0.293 HD
ENDBRANCH   2  22
BRANCH   6  24
ATOM     24  O   UNL     1       5.809  -4.920   0.567  1.00  0.00    -0.507 OA
ATOM     25  H   UNL     1       6.628  -5.502   0.471  1.00  0.00     0.293 HD
ENDBRANCH   6  24
BRANCH   8  26
ATOM     26  O   UNL     1       4.698  -0.266   0.559  1.00  0.00    -0.508 OA
ATOM     27  H   UNL     1       4.777  -0.248   1.569  1.00  0.00     0.293 HD
ENDBRANCH   8  26
TORSDOF 6
ENDMDL
MODEL 7
REMARK VINA RESULT:    -5.038      3.235      6.269
REMARK INTER + INTRA:          -6.494
REMARK INTER:                  -6.248
REMARK INTRA:                  -0.246
REMARK UNBOUND:                -0.425
REMARK SMILES O=c1c(O)c(-c2ccc(O)cc2O)oc2cc(O)cc(O)c12
REMARK SMILES IDX 5 1 3 2 2 3 1 4 22 5 20 6 19 7 17 8 16 9 15 10 14 11 6 12
REMARK SMILES IDX 8 13 7 14 9 15 11 16 12 17 10 18 13 20 4 22 21 24 18 26
REMARK H PARENT 10 19 13 21 4 23 21 25 18 27
REMARK Flexibility Score: inf
ROOT
ATOM      1  C   UNL     1       6.367  -4.877  -1.647  1.00  0.00     0.184 A 
ATOM      2  C   UNL     1       6.122  -3.883  -2.607  1.00  0.00     0.208 A 
ATOM      3  C   UNL     1       5.713  -2.611  -2.180  1.00  0.00     0.238 A 
ATOM      4  O   UNL     1       5.444  -1.740  -3.048  1.00  0.00    -0.285 OA
ATOM      5  C   UNL     1       5.568  -2.345  -0.798  1.00  0.00     0.111 A 
ATOM      6  C   UNL     1       5.199  -1.079  -0.250  1.00  0.00     0.134 A 
ATOM      7  C   UNL     1       4.960  -0.966   1.126  1.00  0.00     0.093 A 
ATOM      8  C   UNL     1       5.141  -2.052   1.980  1.00  0.00     0.123 A 
ATOM      9  C   UNL     1       5.561  -3.278   1.464  1.00  0.00     0.094 A 
ATOM     10  C   UNL     1       5.772  -3.433   0.092  1.00  0.00     0.146 A 
ATOM     11  O   UNL     1       6.159  -4.619  -0.361  1.00  0.00    -0.451 OA
ENDROOT
BRANCH   1  12
ATOM     12  C   UNL     1       6.816  -6.233  -2.027  1.00  0.00     0.063 A 
ATOM     13  C   UNL     1       6.445  -8.257  -3.321  1.00  0.00     0.047 A 
ATOM     14  C   UNL     1       6.052  -6.971  -2.944  1.00  0.00     0.020 A 
ATOM     15  C   UNL     1       7.601  -8.828  -2.775  1.00  0.00     0.119 A 
ATOM     16  C   UNL     1       8.356  -8.109  -1.844  1.00  0.00     0.093 A 
ATOM     17  C   UNL     1       7.965  -6.818  -1.456  1.00  0.00     0.130 A 
BRANCH  15  18
ATOM     18  O   UNL     1       8.005 -10.108  -3.147  1.00  0.00    -0.508 OA
ATOM     19  H   UNL     1       8.873 -10.266  -3.646  1.00  0.00     0.293 HD
ENDBRANCH  15  18
BRANCH  17  20
ATOM     20  O   UNL     1       8.701  -6.132  -0.489  1.00  0.00    -0.507 OA
ATOM     21  H   UNL     1       8.302  -5.891   0.410  1.00  0.00     0.293 HD
ENDBRANCH  17  20
ENDBRANCH   1  12
BRANCH   2  22
ATOM     22  O   UNL     1       6.254  -4.179  -3.967  1.00  0.00    -0.502 OA
ATOM     23  H   UNL     1       7.054  -4.677  -4.339  1.00  0.00     0.293 HD
ENDBRANCH   2  22
BRANCH   6  24
ATOM     24  O   UNL     1       5.079   0.092  -1.002  1.00  0.00    -0.507 OA
ATOM     25  H   UNL     1       5.767   0.425  -1.661  1.00  0.00     0.293 HD
ENDBRANCH   6  24
BRANCH   8  26
ATOM     26  O   UNL     1       4.910  -1.899   3.346  1.00  0.00    -0.508 OA
ATOM     27  H   UNL     1       5.275  -1.106   3.860  1.00  0.00     0.293 HD
ENDBRANCH   8  26
TORSDOF 6
ENDMDL
MODEL 8
REMARK VINA RESULT:    -4.900      2.231      4.087
REMARK INTER + INTRA:          -6.328
REMARK INTER:                  -5.919
REMARK INTRA:                  -0.408
REMARK UNBOUND:                -0.425
REMARK SMILES O=c1c(O)c(-c2ccc(O)cc2O)oc2cc(O)cc(O)c12
REMARK SMILES IDX 5 1 3 2 2 3 1 4 22 5 20 6 19 7 17 8 16 9 15 10 14 11 6 12
REMARK SMILES IDX 8 13 7 14 9 15 11 16 12 17 10 18 13 20 4 22 21 24 18 26
REMARK H PARENT 10 19 13 21 4 23 21 25 18 27
REMARK Flexibility Score: inf
ROOT
ATOM      1  C   UNL     1       5.033  -3.680  -4.670  1.00  0.00     0.184 A 
ATOM      2  C   UNL     1       5.123  -5.069  -4.857  1.00  0.00     0.208 A 
ATOM      3  C   UNL     1       4.851  -5.603  -6.125  1.00  0.00     0.238 A 
ATOM      4  O   UNL     1       4.881  -6.853  -6.274  1.00  0.00    -0.285 OA
ATOM      5  C   UNL     1       4.509  -4.741  -7.194  1.00  0.00     0.111 A 
ATOM      6  C   UNL     1       4.253  -5.169  -8.532  1.00  0.00     0.134 A 
ATOM      7  C   UNL     1       3.796  -4.242  -9.477  1.00  0.00     0.093 A 
ATOM      8  C   UNL     1       3.649  -2.895  -9.154  1.00  0.00     0.123 A 
ATOM      9  C   UNL     1       3.954  -2.454  -7.865  1.00  0.00     0.094 A 
ATOM     10  C   UNL     1       4.376  -3.359  -6.890  1.00  0.00     0.146 A 
ATOM     11  O   UNL     1       4.645  -2.902  -5.673  1.00  0.00    -0.451 OA
ENDROOT
BRANCH   1  12
ATOM     12  C   UNL     1       5.321  -3.051  -3.364  1.00  0.00     0.063 A 
ATOM     13  C   UNL     1       4.645  -2.626  -1.068  1.00  0.00     0.047 A 
ATOM     14  C   UNL     1       4.405  -3.212  -2.313  1.00  0.00     0.020 A 
ATOM     15  C   UNL     1       5.799  -1.860  -0.861  1.00  0.00     0.119 A 
ATOM     16  C   UNL     1       6.706  -1.676  -1.909  1.00  0.00     0.093 A 
ATOM     17  C   UNL     1       6.470  -2.256  -3.165  1.00  0.00     0.130 A 
BRANCH  15  18
ATOM     18  O   UNL     1       6.050  -1.275   0.377  1.00  0.00    -0.508 OA
ATOM     19  H   UNL     1       6.995  -1.096   0.697  1.00  0.00     0.293 HD
ENDBRANCH  15  18
BRANCH  17  20
ATOM     20  O   UNL     1       7.358  -2.023  -4.214  1.00  0.00    -0.507 OA
ATOM     21  H   UNL     1       8.010  -2.733  -4.527  1.00  0.00     0.293 HD
ENDBRANCH  17  20
ENDBRANCH   1  12
BRANCH   2  22
ATOM     22  O   UNL     1       5.444  -5.899  -3.779  1.00  0.00    -0.502 OA
ATOM     23  H   UNL     1       4.851  -5.983  -2.962  1.00  0.00     0.293 HD
ENDBRANCH   2  22
BRANCH   6  24
ATOM     24  O   UNL     1       4.455  -6.475  -8.985  1.00  0.00    -0.507 OA
ATOM     25  H   UNL     1       3.744  -7.191  -9.010  1.00  0.00     0.293 HD
ENDBRANCH   6  24
BRANCH   8  26
ATOM     26  O   UNL     1       3.207  -1.998 -10.125  1.00  0.00    -0.508 OA
ATOM     27  H   UNL     1       3.853  -1.540 -10.757  1.00  0.00     0.293 HD
ENDBRANCH   8  26
TORSDOF 6
ENDMDL
MODEL 9
REMARK VINA RESULT:    -4.697      2.257      7.043
REMARK INTER + INTRA:          -6.082
REMARK INTER:                  -5.687
REMARK INTRA:                  -0.395
REMARK UNBOUND:                -0.425
REMARK SMILES O=c1c(O)c(-c2ccc(O)cc2O)oc2cc(O)cc(O)c12
REMARK SMILES IDX 5 1 3 2 2 3 1 4 22 5 20 6 19 7 17 8 16 9 15 10 14 11 6 12
REMARK SMILES IDX 8 13 7 14 9 15 11 16 12 17 10 18 13 20 4 22 21 24 18 26
REMARK H PARENT 10 19 13 21 4 23 21 25 18 27
REMARK Flexibility Score: inf
ROOT
ATOM      1  C   UNL     1       5.139  -3.579  -4.931  1.00  0.00     0.184 A 
ATOM      2  C   UNL     1       4.234  -3.620  -3.858  1.00  0.00     0.208 A 
ATOM      3  C   UNL     1       4.636  -3.121  -2.610  1.00  0.00     0.238 A 
ATOM      4  O   UNL     1       3.840  -3.209  -1.639  1.00  0.00    -0.285 OA
ATOM      5  C   UNL     1       5.932  -2.573  -2.455  1.00  0.00     0.111 A 
ATOM      6  C   UNL     1       6.431  -2.001  -1.246  1.00  0.00     0.134 A 
ATOM      7  C   UNL     1       7.773  -1.607  -1.172  1.00  0.00     0.093 A 
ATOM      8  C   UNL     1       8.614  -1.702  -2.278  1.00  0.00     0.123 A 
ATOM      9  C   UNL     1       8.121  -2.204  -3.483  1.00  0.00     0.094 A 
ATOM     10  C   UNL     1       6.798  -2.639  -3.579  1.00  0.00     0.146 A 
ATOM     11  O   UNL     1       6.370  -3.120  -4.740  1.00  0.00    -0.451 OA
ENDROOT
BRANCH   1  12
ATOM     12  C   UNL     1       4.774  -4.073  -6.275  1.00  0.00     0.063 A 
ATOM     13  C   UNL     1       3.902  -3.602  -8.495  1.00  0.00     0.047 A 
ATOM     14  C   UNL     1       4.262  -3.167  -7.218  1.00  0.00     0.020 A 
ATOM     15  C   UNL     1       4.037  -4.952  -8.843  1.00  0.00     0.119 A 
ATOM     16  C   UNL     1       4.525  -5.865  -7.904  1.00  0.00     0.093 A 
ATOM     17  C   UNL     1       4.883  -5.437  -6.616  1.00  0.00     0.130 A 
BRANCH  15  18
ATOM     18  O   UNL     1       3.686  -5.395 -10.116  1.00  0.00    -0.508 OA
ATOM     19  H   UNL     1       3.121  -6.225 -10.250  1.00  0.00     0.293 HD
ENDBRANCH  15  18
BRANCH  17  20
ATOM     20  O   UNL     1       5.322  -6.368  -5.674  1.00  0.00    -0.507 OA
ATOM     21  H   UNL     1       4.780  -7.194  -5.451  1.00  0.00     0.293 HD
ENDBRANCH  17  20
ENDBRANCH   1  12
BRANCH   2  22
ATOM     22  O   UNL     1       2.968  -4.184  -4.034  1.00  0.00    -0.502 OA
ATOM     23  H   UNL     1       2.760  -5.143  -3.780  1.00  0.00     0.293 HD
ENDBRANCH   2  22
BRANCH   6  24
ATOM     24  O   UNL     1       5.651  -1.777  -0.108  1.00  0.00    -0.507 OA
ATOM     25  H   UNL     1       5.795  -2.225   0.785  1.00  0.00     0.293 HD
ENDBRANCH   6  24
BRANCH   8  26
ATOM     26  O   UNL     1       9.940  -1.286  -2.173  1.00  0.00    -0.508 OA
ATOM     27  H   UNL     1      10.495  -1.485  -1.348  1.00  0.00     0.293 HD
ENDBRANCH   8  26
TORSDOF 6
ENDMDL
