MODEL 1
REMARK VINA RESULT:    -3.555      0.000      0.000
REMARK INTER + INTRA:          -4.410
REMARK INTER:                  -4.283
REMARK INTRA:                  -0.127
REMARK UNBOUND:                -0.127
REMARK SMILES NC(=O)C[C@@H]([NH3+])C(=O)[O-]
REMARK SMILES IDX 4 1 5 2 6 3 7 7 8 8 9 9 2 10 3 11 1 12
REMARK H PARENT 6 4 6 5 6 6 1 13 1 14
REMARK Flexibility Score: inf
ROOT
ATOM      1  C   UNL     1     130.901 145.748 131.226  1.00  0.00     0.171 C 
ENDROOT
BRANCH   1   2
ATOM      2  C   UNL     1     130.384 144.405 131.781  1.00  0.00     0.237 C 
BRANCH   2   3
ATOM      3  N   UNL     1     131.496 143.464 131.967  1.00  0.00    -0.350 N 
ATOM      4  H   UNL     1     131.196 142.645 132.544  1.00  0.00     0.345 HD
ATOM      5  H   UNL     1     131.834 143.124 131.036  1.00  0.00     0.345 HD
ATOM      6  H   UNL     1     132.291 143.947 132.445  1.00  0.00     0.345 HD
ENDBRANCH   2   3
BRANCH   2   7
ATOM      7  C   UNL     1     129.646 144.603 133.081  1.00  0.00     0.100 C 
ATOM      8  O   UNL     1     129.522 145.754 133.576  1.00  0.00    -0.544 OA
ATOM      9  O   UNL     1     129.086 143.512 133.732  1.00  0.00    -0.544 OA
ENDBRANCH   2   7
ENDBRANCH   1   2
BRANCH   1  10
ATOM     10  C   UNL     1     130.040 146.250 130.102  1.00  0.00     0.223 C 
ATOM     11  O   UNL     1     128.912 146.751 130.353  1.00  0.00    -0.275 OA
ATOM     12  N   UNL     1     130.476 146.128 128.749  1.00  0.00    -0.369 N 
ATOM     13  H   UNL     1     129.871 146.466 127.968  1.00  0.00     0.159 HD
ATOM     14  H   UNL     1     131.402 145.700 128.524  1.00  0.00     0.159 HD
ENDBRANCH   1  10
TORSDOF 4
ENDMDL
MODEL 2
REMARK VINA RESULT:    -3.362      1.932      3.742
REMARK INTER + INTRA:          -4.177
REMARK INTER:                  -3.816
REMARK INTRA:                  -0.361
REMARK UNBOUND:                -0.127
REMARK SMILES NC(=O)C[C@@H]([NH3+])C(=O)[O-]
REMARK SMILES IDX 4 1 5 2 6 3 7 7 8 8 9 9 2 10 3 11 1 12
REMARK H PARENT 6 4 6 5 6 6 1 13 1 14
REMARK Flexibility Score: inf
ROOT
ATOM      1  C   UNL     1     128.875 144.186 131.259  1.00  0.00     0.171 C 
ENDROOT
BRANCH   1   2
ATOM      2  C   UNL     1     129.067 145.714 131.346  1.00  0.00     0.237 C 
BRANCH   2   3
ATOM      3  N   UNL     1     129.004 146.160 132.743  1.00  0.00    -0.350 N 
ATOM      4  H   UNL     1     128.011 146.295 133.044  1.00  0.00     0.345 HD
ATOM      5  H   UNL     1     129.457 145.449 133.364  1.00  0.00     0.345 HD
ATOM      6  H   UNL     1     129.520 147.063 132.850  1.00  0.00     0.345 HD
ENDBRANCH   2   3
BRANCH   2   7
ATOM      7  C   UNL     1     130.377 146.132 130.725  1.00  0.00     0.100 C 
ATOM      8  O   UNL     1     131.435 146.134 131.407  1.00  0.00    -0.544 OA
ATOM      9  O   UNL     1     130.422 146.503 129.388  1.00  0.00    -0.544 OA
ENDBRANCH   2   7
ENDBRANCH   1   2
BRANCH   1  10
ATOM     10  C   UNL     1     129.666 143.468 132.315  1.00  0.00     0.223 C 
ATOM     11  O   UNL     1     129.246 143.440 133.502  1.00  0.00    -0.275 OA
ATOM     12  N   UNL     1     130.910 142.848 131.989  1.00  0.00    -0.369 N 
ATOM     13  H   UNL     1     131.465 142.360 132.726  1.00  0.00     0.159 HD
ATOM     14  H   UNL     1     131.278 142.876 131.012  1.00  0.00     0.159 HD
ENDBRANCH   1  10
TORSDOF 4
ENDMDL
MODEL 3
REMARK VINA RESULT:    -3.262     14.940     16.036
REMARK INTER + INTRA:          -4.056
REMARK INTER:                  -3.779
REMARK INTRA:                  -0.277
REMARK UNBOUND:                -0.127
REMARK SMILES NC(=O)C[C@@H]([NH3+])C(=O)[O-]
REMARK SMILES IDX 4 1 5 2 6 3 7 7 8 8 9 9 2 10 3 11 1 12
REMARK H PARENT 6 4 6 5 6 6 1 13 1 14
REMARK Flexibility Score: inf
ROOT
ATOM      1  C   UNL     1     138.588 146.422 144.083  1.00  0.00     0.171 C 
ENDROOT
BRANCH   1   2
ATOM      2  C   UNL     1     138.505 146.085 145.585  1.00  0.00     0.237 C 
BRANCH   2   3
ATOM      3  N   UNL     1     139.327 144.909 145.894  1.00  0.00    -0.350 N 
ATOM      4  H   UNL     1     139.396 144.277 145.063  1.00  0.00     0.345 HD
ATOM      5  H   UNL     1     140.288 145.211 146.177  1.00  0.00     0.345 HD
ATOM      6  H   UNL     1     138.903 144.381 146.691  1.00  0.00     0.345 HD
ENDBRANCH   2   3
BRANCH   2   7
ATOM      7  C   UNL     1     138.938 147.259 146.429  1.00  0.00     0.100 C 
ATOM      8  O   UNL     1     138.549 147.366 147.622  1.00  0.00    -0.544 OA
ATOM      9  O   UNL     1     139.784 148.221 145.894  1.00  0.00    -0.544 OA
ENDBRANCH   2   7
ENDBRANCH   1   2
BRANCH   1  10
ATOM     10  C   UNL     1     138.150 145.263 143.232  1.00  0.00     0.223 C 
ATOM     11  O   UNL     1     137.258 144.478 143.653  1.00  0.00    -0.275 OA
ATOM     12  N   UNL     1     138.763 145.025 141.966  1.00  0.00    -0.369 N 
ATOM     13  H   UNL     1     138.467 144.212 141.381  1.00  0.00     0.159 HD
ATOM     14  H   UNL     1     139.515 145.657 141.611  1.00  0.00     0.159 HD
ENDBRANCH   1  10
TORSDOF 4
ENDMDL
MODEL 4
REMARK VINA RESULT:    -3.244     21.578     22.718
REMARK INTER + INTRA:          -4.035
REMARK INTER:                  -3.765
REMARK INTRA:                  -0.270
REMARK UNBOUND:                -0.127
REMARK SMILES NC(=O)C[C@@H]([NH3+])C(=O)[O-]
REMARK SMILES IDX 4 1 5 2 6 3 7 7 8 8 9 9 2 10 3 11 1 12
REMARK H PARENT 6 4 6 5 6 6 1 13 1 14
REMARK Flexibility Score: inf
ROOT
ATOM      1  C   UNL     1     145.480 134.931 144.358  1.00  0.00     0.171 C 
ENDROOT
BRANCH   1   2
ATOM      2  C   UNL     1     145.053 135.179 145.819  1.00  0.00     0.237 C 
BRANCH   2   3
ATOM      3  N   UNL     1     143.624 134.892 145.992  1.00  0.00    -0.350 N 
ATOM      4  H   UNL     1     143.275 134.272 145.225  1.00  0.00     0.345 HD
ATOM      5  H   UNL     1     143.464 134.422 146.914  1.00  0.00     0.345 HD
ATOM      6  H   UNL     1     143.081 135.786 145.983  1.00  0.00     0.345 HD
ENDBRANCH   2   3
BRANCH   2   7
ATOM      7  C   UNL     1     145.871 134.343 146.772  1.00  0.00     0.100 C 
ATOM      8  O   UNL     1     146.138 134.767 147.927  1.00  0.00    -0.544 OA
ATOM      9  O   UNL     1     146.320 133.088 146.382  1.00  0.00    -0.544 OA
ENDBRANCH   2   7
ENDBRANCH   1   2
BRANCH   1  10
ATOM     10  C   UNL     1     144.728 135.817 143.405  1.00  0.00     0.223 C 
ATOM     11  O   UNL     1     144.361 136.965 143.773  1.00  0.00    -0.275 OA
ATOM     12  N   UNL     1     144.394 135.352 142.098  1.00  0.00    -0.369 N 
ATOM     13  H   UNL     1     143.861 135.964 141.441  1.00  0.00     0.159 HD
ATOM     14  H   UNL     1     144.678 134.397 141.784  1.00  0.00     0.159 HD
ENDBRANCH   1  10
TORSDOF 4
ENDMDL
MODEL 5
REMARK VINA RESULT:    -3.235     15.948     17.157
REMARK INTER + INTRA:          -4.023
REMARK INTER:                  -3.743
REMARK INTRA:                  -0.280
REMARK UNBOUND:                -0.127
REMARK SMILES NC(=O)C[C@@H]([NH3+])C(=O)[O-]
REMARK SMILES IDX 4 1 5 2 6 3 7 7 8 8 9 9 2 10 3 11 1 12
REMARK H PARENT 6 4 6 5 6 6 1 13 1 14
REMARK Flexibility Score: inf
ROOT
ATOM      1  C   UNL     1     132.086 134.531 144.204  1.00  0.00     0.171 C 
ENDROOT
BRANCH   1   2
ATOM      2  C   UNL     1     132.466 134.811 145.673  1.00  0.00     0.237 C 
BRANCH   2   3
ATOM      3  N   UNL     1     132.941 136.192 145.825  1.00  0.00    -0.350 N 
ATOM      4  H   UNL     1     132.167 136.816 146.149  1.00  0.00     0.345 HD
ATOM      5  H   UNL     1     133.723 136.224 146.520  1.00  0.00     0.345 HD
ATOM      6  H   UNL     1     133.303 136.544 144.909  1.00  0.00     0.345 HD
ENDBRANCH   2   3
BRANCH   2   7
ATOM      7  C   UNL     1     131.299 134.557 146.593  1.00  0.00     0.100 C 
ATOM      8  O   UNL     1     131.488 134.129 147.762  1.00  0.00    -0.544 OA
ATOM      9  O   UNL     1     130.005 134.812 146.158  1.00  0.00    -0.544 OA
ENDBRANCH   2   7
ENDBRANCH   1   2
BRANCH   1  10
ATOM     10  C   UNL     1     133.208 134.878 143.267  1.00  0.00     0.223 C 
ATOM     11  O   UNL     1     134.396 134.602 143.582  1.00  0.00    -0.275 OA
ATOM     12  N   UNL     1     132.940 135.552 142.039  1.00  0.00    -0.369 N 
ATOM     13  H   UNL     1     133.722 135.804 141.394  1.00  0.00     0.159 HD
ATOM     14  H   UNL     1     131.962 135.802 141.771  1.00  0.00     0.159 HD
ENDBRANCH   1  10
TORSDOF 4
ENDMDL
MODEL 6
REMARK VINA RESULT:    -3.178     18.032     19.217
REMARK INTER + INTRA:          -3.955
REMARK INTER:                  -3.447
REMARK INTRA:                  -0.509
REMARK UNBOUND:                -0.127
REMARK SMILES NC(=O)C[C@@H]([NH3+])C(=O)[O-]
REMARK SMILES IDX 4 1 5 2 6 3 7 7 8 8 9 9 2 10 3 11 1 12
REMARK H PARENT 6 4 6 5 6 6 1 13 1 14
REMARK Flexibility Score: inf
ROOT
ATOM      1  C   UNL     1     132.555 133.666 148.027  1.00  0.00     0.171 C 
ENDROOT
BRANCH   1   2
ATOM      2  C   UNL     1     131.812 134.956 147.623  1.00  0.00     0.237 C 
BRANCH   2   3
ATOM      3  N   UNL     1     132.765 136.051 147.406  1.00  0.00    -0.350 N 
ATOM      4  H   UNL     1     132.297 136.864 146.943  1.00  0.00     0.345 HD
ATOM      5  H   UNL     1     133.164 136.361 148.323  1.00  0.00     0.345 HD
ATOM      6  H   UNL     1     133.552 135.720 146.803  1.00  0.00     0.345 HD
ENDBRANCH   2   3
BRANCH   2   7
ATOM      7  C   UNL     1     130.980 134.738 146.384  1.00  0.00     0.100 C 
ATOM      8  O   UNL     1     129.732 134.591 146.469  1.00  0.00    -0.544 OA
ATOM      9  O   UNL     1     131.589 134.714 145.136  1.00  0.00    -0.544 OA
ENDBRANCH   2   7
ENDBRANCH   1   2
BRANCH   1  10
ATOM     10  C   UNL     1     133.948 133.632 147.464  1.00  0.00     0.223 C 
ATOM     11  O   UNL     1     134.902 134.123 148.124  1.00  0.00    -0.275 OA
ATOM     12  N   UNL     1     134.190 133.080 146.171  1.00  0.00    -0.369 N 
ATOM     13  H   UNL     1     135.157 133.067 145.776  1.00  0.00     0.159 HD
ATOM     14  H   UNL     1     133.407 132.683 145.606  1.00  0.00     0.159 HD
ENDBRANCH   1  10
TORSDOF 4
ENDMDL
MODEL 7
REMARK VINA RESULT:    -3.164     23.262     23.950
REMARK INTER + INTRA:          -3.938
REMARK INTER:                  -3.425
REMARK INTRA:                  -0.513
REMARK UNBOUND:                -0.127
REMARK SMILES NC(=O)C[C@@H]([NH3+])C(=O)[O-]
REMARK SMILES IDX 4 1 5 2 6 3 7 7 8 8 9 9 2 10 3 11 1 12
REMARK H PARENT 6 4 6 5 6 6 1 13 1 14
REMARK Flexibility Score: inf
ROOT
ATOM      1  C   UNL     1     145.963 135.836 148.067  1.00  0.00     0.171 C 
ENDROOT
BRANCH   1   2
ATOM      2  C   UNL     1     145.187 134.567 147.657  1.00  0.00     0.237 C 
BRANCH   2   3
ATOM      3  N   UNL     1     143.766 134.878 147.455  1.00  0.00    -0.350 N 
ATOM      4  H   UNL     1     143.222 134.007 147.255  1.00  0.00     0.345 HD
ATOM      5  H   UNL     1     143.378 135.338 148.310  1.00  0.00     0.345 HD
ATOM      6  H   UNL     1     143.661 135.539 146.652  1.00  0.00     0.345 HD
ENDBRANCH   2   3
BRANCH   2   7
ATOM      7  C   UNL     1     145.770 133.955 146.408  1.00  0.00     0.100 C 
ATOM      8  O   UNL     1     146.498 132.930 146.478  1.00  0.00    -0.544 OA
ATOM      9  O   UNL     1     145.490 134.513 145.167  1.00  0.00    -0.544 OA
ENDBRANCH   2   7
ENDBRANCH   1   2
BRANCH   1  10
ATOM     10  C   UNL     1     145.348 137.074 147.478  1.00  0.00     0.223 C 
ATOM     11  O   UNL     1     144.472 137.707 148.124  1.00  0.00    -0.275 OA
ATOM     12  N   UNL     1     145.725 137.516 146.174  1.00  0.00    -0.369 N 
ATOM     13  H   UNL     1     145.288 138.369 145.761  1.00  0.00     0.159 HD
ATOM     14  H   UNL     1     146.438 136.992 145.620  1.00  0.00     0.159 HD
ENDBRANCH   1  10
TORSDOF 4
ENDMDL
MODEL 8
REMARK VINA RESULT:    -3.137     16.761     17.658
REMARK INTER + INTRA:          -3.906
REMARK INTER:                  -3.403
REMARK INTRA:                  -0.504
REMARK UNBOUND:                -0.127
REMARK SMILES NC(=O)C[C@@H]([NH3+])C(=O)[O-]
REMARK SMILES IDX 4 1 5 2 6 3 7 7 8 8 9 9 2 10 3 11 1 12
REMARK H PARENT 6 4 6 5 6 6 1 13 1 14
REMARK Flexibility Score: inf
ROOT
ATOM      1  C   UNL     1     137.393 146.381 148.125  1.00  0.00     0.171 C 
ENDROOT
BRANCH   1   2
ATOM      2  C   UNL     1     138.862 146.378 147.657  1.00  0.00     0.237 C 
BRANCH   2   3
ATOM      3  N   UNL     1     139.310 145.007 147.381  1.00  0.00    -0.350 N 
ATOM      4  H   UNL     1     139.529 144.502 148.270  1.00  0.00     0.345 HD
ATOM      5  H   UNL     1     138.563 144.487 146.865  1.00  0.00     0.345 HD
ATOM      6  H   UNL     1     140.166 145.030 146.781  1.00  0.00     0.345 HD
ENDBRANCH   2   3
BRANCH   2   7
ATOM      7  C   UNL     1     139.044 147.241 146.433  1.00  0.00     0.100 C 
ATOM      8  O   UNL     1     139.491 148.413 146.539  1.00  0.00    -0.544 OA
ATOM      9  O   UNL     1     138.731 146.738 145.177  1.00  0.00    -0.544 OA
ENDBRANCH   2   7
ENDBRANCH   1   2
BRANCH   1  10
ATOM     10  C   UNL     1     136.620 145.241 147.525  1.00  0.00     0.223 C 
ATOM     11  O   UNL     1     136.574 144.132 148.121  1.00  0.00    -0.275 OA
ATOM     12  N   UNL     1     135.966 145.395 146.266  1.00  0.00    -0.369 N 
ATOM     13  H   UNL     1     135.439 144.599 145.844  1.00  0.00     0.159 HD
ATOM     14  H   UNL     1     136.008 146.304 145.752  1.00  0.00     0.159 HD
ENDBRANCH   1  10
TORSDOF 4
ENDMDL
MODEL 9
REMARK VINA RESULT:    -3.136     21.481     22.835
REMARK INTER + INTRA:          -3.904
REMARK INTER:                  -3.653
REMARK INTRA:                  -0.251
REMARK UNBOUND:                -0.127
REMARK SMILES NC(=O)C[C@@H]([NH3+])C(=O)[O-]
REMARK SMILES IDX 4 1 5 2 6 3 7 7 8 8 9 9 2 10 3 11 1 12
REMARK H PARENT 6 4 6 5 6 6 1 13 1 14
REMARK Flexibility Score: inf
ROOT
ATOM      1  C   UNL     1     146.084 134.086 143.979  1.00  0.00     0.171 C 
ENDROOT
BRANCH   1   2
ATOM      2  C   UNL     1     144.903 134.966 144.436  1.00  0.00     0.237 C 
BRANCH   2   3
ATOM      3  N   UNL     1     145.349 135.942 145.438  1.00  0.00    -0.350 N 
ATOM      4  H   UNL     1     146.254 135.644 145.869  1.00  0.00     0.345 HD
ATOM      5  H   UNL     1     145.473 136.880 144.990  1.00  0.00     0.345 HD
ATOM      6  H   UNL     1     144.626 136.032 146.189  1.00  0.00     0.345 HD
ENDBRANCH   2   3
BRANCH   2   7
ATOM      7  C   UNL     1     144.269 135.675 143.265  1.00  0.00     0.100 C 
ATOM      8  O   UNL     1     144.118 136.925 143.280  1.00  0.00    -0.544 OA
ATOM      9  O   UNL     1     143.864 134.949 142.153  1.00  0.00    -0.544 OA
ENDBRANCH   2   7
ENDBRANCH   1   2
BRANCH   1  10
ATOM     10  C   UNL     1     146.428 133.046 145.008  1.00  0.00     0.223 C 
ATOM     11  O   UNL     1     146.101 133.222 146.211  1.00  0.00    -0.275 OA
ATOM     12  N   UNL     1     147.154 131.875 144.635  1.00  0.00    -0.369 N 
ATOM     13  H   UNL     1     147.403 131.159 145.353  1.00  0.00     0.159 HD
ATOM     14  H   UNL     1     147.445 131.722 143.644  1.00  0.00     0.159 HD
ENDBRANCH   1  10
TORSDOF 4
ENDMDL
