MODEL 1
REMARK VINA RESULT:    -7.119      0.000      0.000
REMARK INTER + INTRA:          -8.869
REMARK INTER:                  -8.575
REMARK INTRA:                  -0.294
REMARK UNBOUND:                -0.294
REMARK SMILES O=c1c(O)c(-c2ccc(O)c(O)c2)oc2cc(O)cc(O)c12
REMARK SMILES IDX 5 1 3 2 2 3 1 4 22 5 20 6 19 7 17 8 16 9 15 10 14 11 6 12
REMARK SMILES IDX 7 13 8 14 9 15 13 16 11 17 10 18 12 20 4 22 21 24 18 26
REMARK H PARENT 10 19 12 21 4 23 21 25 18 27
REMARK Flexibility Score: inf
ROOT
ATOM      1  C   UNL     1     -38.029   4.737  79.674  1.00  0.00     0.180 A 
ATOM      2  C   UNL     1     -38.578   4.751  80.968  1.00  0.00     0.208 A 
ATOM      3  C   UNL     1     -39.899   4.309  81.153  1.00  0.00     0.238 A 
ATOM      4  O   UNL     1     -40.366   4.272  82.321  1.00  0.00    -0.285 OA
ATOM      5  C   UNL     1     -40.659   3.874  80.039  1.00  0.00     0.111 A 
ATOM      6  C   UNL     1     -42.018   3.444  80.104  1.00  0.00     0.134 A 
ATOM      7  C   UNL     1     -42.629   2.913  78.962  1.00  0.00     0.093 A 
ATOM      8  C   UNL     1     -41.950   2.857  77.742  1.00  0.00     0.123 A 
ATOM      9  C   UNL     1     -40.643   3.330  77.655  1.00  0.00     0.094 A 
ATOM     10  C   UNL     1     -39.995   3.832  78.786  1.00  0.00     0.146 A 
ATOM     11  O   UNL     1     -38.745   4.262  78.661  1.00  0.00    -0.452 OA
ENDROOT
BRANCH   1  12
ATOM     12  C   UNL     1     -36.654   5.209  79.397  1.00  0.00     0.025 A 
ATOM     13  C   UNL     1     -35.568   4.352  79.638  1.00  0.00     0.016 A 
ATOM     14  C   UNL     1     -34.262   4.770  79.363  1.00  0.00     0.051 A 
ATOM     15  C   UNL     1     -34.026   6.044  78.830  1.00  0.00     0.157 A 
ATOM     16  C   UNL     1     -36.414   6.479  78.841  1.00  0.00     0.062 A 
ATOM     17  C   UNL     1     -35.104   6.898  78.564  1.00  0.00     0.158 A 
BRANCH  15  18
ATOM     18  O   UNL     1     -32.726   6.465  78.557  1.00  0.00    -0.504 OA
ATOM     19  H   UNL     1     -32.508   7.443  78.401  1.00  0.00     0.293 HD
ENDBRANCH  15  18
BRANCH  17  20
ATOM     20  O   UNL     1     -34.867   8.159  78.020  1.00  0.00    -0.504 OA
ATOM     21  H   UNL     1     -33.927   8.526  77.923  1.00  0.00     0.293 HD
ENDBRANCH  17  20
ENDBRANCH   1  12
BRANCH   2  22
ATOM     22  O   UNL     1     -37.804   5.162  82.056  1.00  0.00    -0.502 OA
ATOM     23  H   UNL     1     -37.583   4.547  82.831  1.00  0.00     0.293 HD
ENDBRANCH   2  22
BRANCH   6  24
ATOM     24  O   UNL     1     -42.814   3.543  81.250  1.00  0.00    -0.507 OA
ATOM     25  H   UNL     1     -43.165   4.408  81.633  1.00  0.00     0.293 HD
ENDBRANCH   6  24
BRANCH   8  26
ATOM     26  O   UNL     1     -42.572   2.341  76.607  1.00  0.00    -0.508 OA
ATOM     27  H   UNL     1     -42.097   2.303  75.713  1.00  0.00     0.293 HD
ENDBRANCH   8  26
TORSDOF 6
ENDMDL
MODEL 2
REMARK VINA RESULT:    -6.951     10.009     11.728
REMARK INTER + INTRA:          -8.666
REMARK INTER:                  -8.353
REMARK INTRA:                  -0.314
REMARK UNBOUND:                -0.294
REMARK SMILES O=c1c(O)c(-c2ccc(O)c(O)c2)oc2cc(O)cc(O)c12
REMARK SMILES IDX 5 1 3 2 2 3 1 4 22 5 20 6 19 7 17 8 16 9 15 10 14 11 6 12
REMARK SMILES IDX 7 13 8 14 9 15 13 16 11 17 10 18 12 20 4 22 21 24 18 26
REMARK H PARENT 10 19 12 21 4 23 21 25 18 27
REMARK Flexibility Score: inf
ROOT
ATOM      1  C   UNL     1     -46.482   2.464  73.479  1.00  0.00     0.180 A 
ATOM      2  C   UNL     1     -47.145   3.317  74.378  1.00  0.00     0.208 A 
ATOM      3  C   UNL     1     -47.377   4.652  74.006  1.00  0.00     0.238 A 
ATOM      4  O   UNL     1     -48.019   5.396  74.792  1.00  0.00    -0.285 OA
ATOM      5  C   UNL     1     -46.930   5.120  72.746  1.00  0.00     0.111 A 
ATOM      6  C   UNL     1     -47.076   6.462  72.282  1.00  0.00     0.134 A 
ATOM      7  C   UNL     1     -46.713   6.781  70.968  1.00  0.00     0.093 A 
ATOM      8  C   UNL     1     -46.149   5.821  70.123  1.00  0.00     0.123 A 
ATOM      9  C   UNL     1     -45.948   4.523  70.587  1.00  0.00     0.094 A 
ATOM     10  C   UNL     1     -46.333   4.166  71.881  1.00  0.00     0.146 A 
ATOM     11  O   UNL     1     -46.134   2.915  72.279  1.00  0.00    -0.452 OA
ENDROOT
BRANCH   1  12
ATOM     12  C   UNL     1     -46.181   1.053  73.810  1.00  0.00     0.025 A 
ATOM     13  C   UNL     1     -44.941   0.728  74.384  1.00  0.00     0.016 A 
ATOM     14  C   UNL     1     -44.644  -0.594  74.725  1.00  0.00     0.051 A 
ATOM     15  C   UNL     1     -45.587  -1.608  74.511  1.00  0.00     0.157 A 
ATOM     16  C   UNL     1     -47.133   0.036  73.617  1.00  0.00     0.062 A 
ATOM     17  C   UNL     1     -46.835  -1.291  73.960  1.00  0.00     0.158 A 
BRANCH  15  18
ATOM     18  O   UNL     1     -45.294  -2.928  74.847  1.00  0.00    -0.504 OA
ATOM     19  H   UNL     1     -45.472  -3.690  74.204  1.00  0.00     0.293 HD
ENDBRANCH  15  18
BRANCH  17  20
ATOM     20  O   UNL     1     -47.777  -2.299  73.762  1.00  0.00    -0.504 OA
ATOM     21  H   UNL     1     -48.637  -2.334  74.298  1.00  0.00     0.293 HD
ENDBRANCH  17  20
ENDBRANCH   1  12
BRANCH   2  22
ATOM     22  O   UNL     1     -47.598   2.830  75.607  1.00  0.00    -0.502 OA
ATOM     23  H   UNL     1     -48.556   2.535  75.756  1.00  0.00     0.293 HD
ENDBRANCH   2  22
BRANCH   6  24
ATOM     24  O   UNL     1     -47.541   7.515  73.074  1.00  0.00    -0.507 OA
ATOM     25  H   UNL     1     -48.515   7.726  73.235  1.00  0.00     0.293 HD
ENDBRANCH   6  24
BRANCH   8  26
ATOM     26  O   UNL     1     -45.776   6.152  68.821  1.00  0.00    -0.508 OA
ATOM     27  H   UNL     1     -46.245   5.752  68.017  1.00  0.00     0.293 HD
ENDBRANCH   8  26
TORSDOF 6
ENDMDL
MODEL 3
REMARK VINA RESULT:    -6.461     10.414     11.856
REMARK INTER + INTRA:          -8.076
REMARK INTER:                  -7.812
REMARK INTRA:                  -0.265
REMARK UNBOUND:                -0.294
REMARK SMILES O=c1c(O)c(-c2ccc(O)c(O)c2)oc2cc(O)cc(O)c12
REMARK SMILES IDX 5 1 3 2 2 3 1 4 22 5 20 6 19 7 17 8 16 9 15 10 14 11 6 12
REMARK SMILES IDX 7 13 8 14 9 15 13 16 11 17 10 18 12 20 4 22 21 24 18 26
REMARK H PARENT 10 19 12 21 4 23 21 25 18 27
REMARK Flexibility Score: inf
ROOT
ATOM      1  C   UNL     1     -46.459  -0.377  73.922  1.00  0.00     0.180 A 
ATOM      2  C   UNL     1     -47.623  -1.135  73.703  1.00  0.00     0.208 A 
ATOM      3  C   UNL     1     -47.577  -2.526  73.901  1.00  0.00     0.238 A 
ATOM      4  O   UNL     1     -48.635  -3.191  73.757  1.00  0.00    -0.285 OA
ATOM      5  C   UNL     1     -46.365  -3.141  74.299  1.00  0.00     0.111 A 
ATOM      6  C   UNL     1     -46.194  -4.545  74.488  1.00  0.00     0.134 A 
ATOM      7  C   UNL     1     -44.988  -5.029  75.008  1.00  0.00     0.093 A 
ATOM      8  C   UNL     1     -43.924  -4.166  75.284  1.00  0.00     0.123 A 
ATOM      9  C   UNL     1     -44.061  -2.801  75.045  1.00  0.00     0.094 A 
ATOM     10  C   UNL     1     -45.265  -2.284  74.561  1.00  0.00     0.146 A 
ATOM     11  O   UNL     1     -45.357  -0.975  74.358  1.00  0.00    -0.452 OA
ENDROOT
BRANCH   1  12
ATOM     12  C   UNL     1     -46.424   1.088  73.712  1.00  0.00     0.025 A 
ATOM     13  C   UNL     1     -45.842   1.604  72.542  1.00  0.00     0.016 A 
ATOM     14  C   UNL     1     -45.818   2.983  72.313  1.00  0.00     0.051 A 
ATOM     15  C   UNL     1     -46.387   3.863  73.241  1.00  0.00     0.157 A 
ATOM     16  C   UNL     1     -47.014   1.974  74.631  1.00  0.00     0.062 A 
ATOM     17  C   UNL     1     -46.990   3.357  74.400  1.00  0.00     0.158 A 
BRANCH  15  18
ATOM     18  O   UNL     1     -46.362   5.238  73.018  1.00  0.00    -0.504 OA
ATOM     19  H   UNL     1     -45.489   5.744  72.927  1.00  0.00     0.293 HD
ENDBRANCH  15  18
BRANCH  17  20
ATOM     20  O   UNL     1     -47.569   4.236  75.315  1.00  0.00    -0.504 OA
ATOM     21  H   UNL     1     -47.029   4.649  76.067  1.00  0.00     0.293 HD
ENDBRANCH  17  20
ENDBRANCH   1  12
BRANCH   2  22
ATOM     22  O   UNL     1     -48.814  -0.505  73.333  1.00  0.00    -0.502 OA
ATOM     23  H   UNL     1     -48.987   0.478  73.506  1.00  0.00     0.293 HD
ENDBRANCH   2  22
BRANCH   6  24
ATOM     24  O   UNL     1     -47.160  -5.501  74.158  1.00  0.00    -0.507 OA
ATOM     25  H   UNL     1     -47.718  -5.488  73.317  1.00  0.00     0.293 HD
ENDBRANCH   6  24
BRANCH   8  26
ATOM     26  O   UNL     1     -42.721  -4.659  75.786  1.00  0.00    -0.508 OA
ATOM     27  H   UNL     1     -42.416  -4.453  76.730  1.00  0.00     0.293 HD
ENDBRANCH   8  26
TORSDOF 6
ENDMDL
MODEL 4
REMARK VINA RESULT:    -6.356      1.472      6.911
REMARK INTER + INTRA:          -7.951
REMARK INTER:                  -7.675
REMARK INTRA:                  -0.276
REMARK UNBOUND:                -0.294
REMARK SMILES O=c1c(O)c(-c2ccc(O)c(O)c2)oc2cc(O)cc(O)c12
REMARK SMILES IDX 5 1 3 2 2 3 1 4 22 5 20 6 19 7 17 8 16 9 15 10 14 11 6 12
REMARK SMILES IDX 7 13 8 14 9 15 13 16 11 17 10 18 12 20 4 22 21 24 18 26
REMARK H PARENT 10 19 12 21 4 23 21 25 18 27
REMARK Flexibility Score: inf
ROOT
ATOM      1  C   UNL     1     -38.526   4.709  78.881  1.00  0.00     0.180 A 
ATOM      2  C   UNL     1     -37.423   4.087  79.493  1.00  0.00     0.208 A 
ATOM      3  C   UNL     1     -36.160   4.694  79.399  1.00  0.00     0.238 A 
ATOM      4  O   UNL     1     -35.187   4.162  79.994  1.00  0.00    -0.285 OA
ATOM      5  C   UNL     1     -36.013   5.906  78.681  1.00  0.00     0.111 A 
ATOM      6  C   UNL     1     -34.774   6.588  78.487  1.00  0.00     0.134 A 
ATOM      7  C   UNL     1     -34.767   7.846  77.873  1.00  0.00     0.093 A 
ATOM      8  C   UNL     1     -35.946   8.417  77.387  1.00  0.00     0.123 A 
ATOM      9  C   UNL     1     -37.151   7.732  77.518  1.00  0.00     0.094 A 
ATOM     10  C   UNL     1     -37.195   6.492  78.159  1.00  0.00     0.146 A 
ATOM     11  O   UNL     1     -38.367   5.878  78.272  1.00  0.00    -0.452 OA
ENDROOT
BRANCH   1  12
ATOM     12  C   UNL     1     -39.882   4.117  78.917  1.00  0.00     0.025 A 
ATOM     13  C   UNL     1     -40.358   3.412  77.800  1.00  0.00     0.016 A 
ATOM     14  C   UNL     1     -41.628   2.827  77.820  1.00  0.00     0.051 A 
ATOM     15  C   UNL     1     -42.432   2.925  78.963  1.00  0.00     0.157 A 
ATOM     16  C   UNL     1     -40.685   4.194  80.070  1.00  0.00     0.062 A 
ATOM     17  C   UNL     1     -41.957   3.605  80.091  1.00  0.00     0.158 A 
BRANCH  15  18
ATOM     18  O   UNL     1     -43.699   2.345  78.986  1.00  0.00    -0.504 OA
ATOM     19  H   UNL     1     -44.005   1.712  78.256  1.00  0.00     0.293 HD
ENDBRANCH  15  18
BRANCH  17  20
ATOM     20  O   UNL     1     -42.755   3.688  81.231  1.00  0.00    -0.504 OA
ATOM     21  H   UNL     1     -42.404   3.418  82.144  1.00  0.00     0.293 HD
ENDBRANCH  17  20
ENDBRANCH   1  12
BRANCH   2  22
ATOM     22  O   UNL     1     -37.594   2.903  80.215  1.00  0.00    -0.502 OA
ATOM     23  H   UNL     1     -38.455   2.680  80.700  1.00  0.00     0.293 HD
ENDBRANCH   2  22
BRANCH   6  24
ATOM     24  O   UNL     1     -33.530   6.064  78.852  1.00  0.00    -0.507 OA
ATOM     25  H   UNL     1     -33.295   5.083  78.846  1.00  0.00     0.293 HD
ENDBRANCH   6  24
BRANCH   8  26
ATOM     26  O   UNL     1     -35.926   9.662  76.762  1.00  0.00    -0.508 OA
ATOM     27  H   UNL     1     -36.522  10.421  77.073  1.00  0.00     0.293 HD
ENDBRANCH   8  26
TORSDOF 6
ENDMDL
MODEL 5
REMARK VINA RESULT:    -6.338      2.000      7.280
REMARK INTER + INTRA:          -7.928
REMARK INTER:                  -7.602
REMARK INTRA:                  -0.327
REMARK UNBOUND:                -0.294
REMARK SMILES O=c1c(O)c(-c2ccc(O)c(O)c2)oc2cc(O)cc(O)c12
REMARK SMILES IDX 5 1 3 2 2 3 1 4 22 5 20 6 19 7 17 8 16 9 15 10 14 11 6 12
REMARK SMILES IDX 7 13 8 14 9 15 13 16 11 17 10 18 12 20 4 22 21 24 18 26
REMARK H PARENT 10 19 12 21 4 23 21 25 18 27
REMARK Flexibility Score: inf
ROOT
ATOM      1  C   UNL     1     -38.566   6.135  78.190  1.00  0.00     0.180 A 
ATOM      2  C   UNL     1     -38.881   7.339  77.535  1.00  0.00     0.208 A 
ATOM      3  C   UNL     1     -37.849   8.245  77.240  1.00  0.00     0.238 A 
ATOM      4  O   UNL     1     -38.130   9.295  76.605  1.00  0.00    -0.285 OA
ATOM      5  C   UNL     1     -36.518   7.944  77.617  1.00  0.00     0.111 A 
ATOM      6  C   UNL     1     -35.401   8.806  77.405  1.00  0.00     0.134 A 
ATOM      7  C   UNL     1     -34.111   8.350  77.701  1.00  0.00     0.093 A 
ATOM      8  C   UNL     1     -33.904   7.088  78.263  1.00  0.00     0.123 A 
ATOM      9  C   UNL     1     -34.994   6.263  78.530  1.00  0.00     0.094 A 
ATOM     10  C   UNL     1     -36.290   6.676  78.212  1.00  0.00     0.146 A 
ATOM     11  O   UNL     1     -37.299   5.853  78.472  1.00  0.00    -0.452 OA
ENDROOT
BRANCH   1  12
ATOM     12  C   UNL     1     -39.601   5.144  78.556  1.00  0.00     0.025 A 
ATOM     13  C   UNL     1     -39.934   4.125  77.647  1.00  0.00     0.016 A 
ATOM     14  C   UNL     1     -40.893   3.165  77.981  1.00  0.00     0.051 A 
ATOM     15  C   UNL     1     -41.522   3.200  79.232  1.00  0.00     0.157 A 
ATOM     16  C   UNL     1     -40.219   5.161  79.819  1.00  0.00     0.062 A 
ATOM     17  C   UNL     1     -41.181   4.197  80.154  1.00  0.00     0.158 A 
BRANCH  15  18
ATOM     18  O   UNL     1     -42.481   2.246  79.567  1.00  0.00    -0.504 OA
ATOM     19  H   UNL     1     -43.373   2.202  79.089  1.00  0.00     0.293 HD
ENDBRANCH  15  18
BRANCH  17  20
ATOM     20  O   UNL     1     -41.798   4.221  81.404  1.00  0.00    -0.504 OA
ATOM     21  H   UNL     1     -41.592   4.944  82.083  1.00  0.00     0.293 HD
ENDBRANCH  17  20
ENDBRANCH   1  12
BRANCH   2  22
ATOM     22  O   UNL     1     -40.198   7.606  77.151  1.00  0.00    -0.502 OA
ATOM     23  H   UNL     1     -40.430   8.042  76.267  1.00  0.00     0.293 HD
ENDBRANCH   2  22
BRANCH   6  24
ATOM     24  O   UNL     1     -35.507  10.119  76.935  1.00  0.00    -0.507 OA
ATOM     25  H   UNL     1     -34.764  10.628  76.479  1.00  0.00     0.293 HD
ENDBRANCH   6  24
BRANCH   8  26
ATOM     26  O   UNL     1     -32.617   6.649  78.569  1.00  0.00    -0.508 OA
ATOM     27  H   UNL     1     -32.450   5.732  78.966  1.00  0.00     0.293 HD
ENDBRANCH   8  26
TORSDOF 6
ENDMDL
MODEL 6
REMARK VINA RESULT:    -6.220     11.007     12.235
REMARK INTER + INTRA:          -7.787
REMARK INTER:                  -7.531
REMARK INTRA:                  -0.256
REMARK UNBOUND:                -0.294
REMARK SMILES O=c1c(O)c(-c2ccc(O)c(O)c2)oc2cc(O)cc(O)c12
REMARK SMILES IDX 5 1 3 2 2 3 1 4 22 5 20 6 19 7 17 8 16 9 15 10 14 11 6 12
REMARK SMILES IDX 7 13 8 14 9 15 13 16 11 17 10 18 12 20 4 22 21 24 18 26
REMARK H PARENT 10 19 12 21 4 23 21 25 18 27
REMARK Flexibility Score: inf
ROOT
ATOM      1  C   UNL     1     -47.493   3.674  72.037  1.00  0.00     0.180 A 
ATOM      2  C   UNL     1     -47.382   3.808  73.432  1.00  0.00     0.208 A 
ATOM      3  C   UNL     1     -47.702   2.711  74.250  1.00  0.00     0.238 A 
ATOM      4  O   UNL     1     -47.548   2.819  75.494  1.00  0.00    -0.285 OA
ATOM      5  C   UNL     1     -48.144   1.500  73.663  1.00  0.00     0.111 A 
ATOM      6  C   UNL     1     -48.534   0.339  74.396  1.00  0.00     0.134 A 
ATOM      7  C   UNL     1     -48.829  -0.844  73.708  1.00  0.00     0.093 A 
ATOM      8  C   UNL     1     -48.813  -0.889  72.312  1.00  0.00     0.123 A 
ATOM      9  C   UNL     1     -48.492   0.255  71.586  1.00  0.00     0.094 A 
ATOM     10  C   UNL     1     -48.158   1.441  72.245  1.00  0.00     0.146 A 
ATOM     11  O   UNL     1     -47.848   2.506  71.515  1.00  0.00    -0.452 OA
ENDROOT
BRANCH   1  12
ATOM     12  C   UNL     1     -47.197   4.792  71.114  1.00  0.00     0.025 A 
ATOM     13  C   UNL     1     -48.102   5.862  71.012  1.00  0.00     0.016 A 
ATOM     14  C   UNL     1     -47.831   6.939  70.162  1.00  0.00     0.051 A 
ATOM     15  C   UNL     1     -46.647   6.969  69.415  1.00  0.00     0.157 A 
ATOM     16  C   UNL     1     -45.999   4.837  70.379  1.00  0.00     0.062 A 
ATOM     17  C   UNL     1     -45.727   5.918  69.527  1.00  0.00     0.158 A 
BRANCH  15  18
ATOM     18  O   UNL     1     -46.375   8.039  68.566  1.00  0.00    -0.504 OA
ATOM     19  H   UNL     1     -46.578   7.992  67.574  1.00  0.00     0.293 HD
ENDBRANCH  15  18
BRANCH  17  20
ATOM     20  O   UNL     1     -44.543   5.958  68.793  1.00  0.00    -0.504 OA
ATOM     21  H   UNL     1     -44.063   5.110  68.515  1.00  0.00     0.293 HD
ENDBRANCH  17  20
ENDBRANCH   1  12
BRANCH   2  22
ATOM     22  O   UNL     1     -46.922   5.004  73.990  1.00  0.00    -0.502 OA
ATOM     23  H   UNL     1     -47.310   5.392  74.842  1.00  0.00     0.293 HD
ENDBRANCH   2  22
BRANCH   6  24
ATOM     24  O   UNL     1     -48.671   0.304  75.787  1.00  0.00    -0.507 OA
ATOM     25  H   UNL     1     -48.888   1.103  76.363  1.00  0.00     0.293 HD
ENDBRANCH   6  24
BRANCH   8  26
ATOM     26  O   UNL     1     -49.124  -2.068  71.636  1.00  0.00    -0.508 OA
ATOM     27  H   UNL     1     -48.480  -2.487  70.976  1.00  0.00     0.293 HD
ENDBRANCH   8  26
TORSDOF 6
ENDMDL
MODEL 7
REMARK VINA RESULT:    -6.193      9.348     11.155
REMARK INTER + INTRA:          -7.753
REMARK INTER:                  -7.530
REMARK INTRA:                  -0.223
REMARK UNBOUND:                -0.294
REMARK SMILES O=c1c(O)c(-c2ccc(O)c(O)c2)oc2cc(O)cc(O)c12
REMARK SMILES IDX 5 1 3 2 2 3 1 4 22 5 20 6 19 7 17 8 16 9 15 10 14 11 6 12
REMARK SMILES IDX 7 13 8 14 9 15 13 16 11 17 10 18 12 20 4 22 21 24 18 26
REMARK H PARENT 10 19 12 21 4 23 21 25 18 27
REMARK Flexibility Score: inf
ROOT
ATOM      1  C   UNL     1     -46.419   2.053  73.753  1.00  0.00     0.180 A 
ATOM      2  C   UNL     1     -45.191   1.638  74.298  1.00  0.00     0.208 A 
ATOM      3  C   UNL     1     -44.985   0.272  74.553  1.00  0.00     0.238 A 
ATOM      4  O   UNL     1     -43.865  -0.099  74.990  1.00  0.00    -0.285 OA
ATOM      5  C   UNL     1     -46.015  -0.659  74.275  1.00  0.00     0.111 A 
ATOM      6  C   UNL     1     -45.931  -2.061  74.531  1.00  0.00     0.134 A 
ATOM      7  C   UNL     1     -46.960  -2.905  74.096  1.00  0.00     0.093 A 
ATOM      8  C   UNL     1     -48.099  -2.390  73.472  1.00  0.00     0.123 A 
ATOM      9  C   UNL     1     -48.217  -1.017  73.272  1.00  0.00     0.094 A 
ATOM     10  C   UNL     1     -47.191  -0.153  73.662  1.00  0.00     0.146 A 
ATOM     11  O   UNL     1     -47.340   1.147  73.442  1.00  0.00    -0.452 OA
ENDROOT
BRANCH   1  12
ATOM     12  C   UNL     1     -46.717   3.476  73.479  1.00  0.00     0.025 A 
ATOM     13  C   UNL     1     -47.607   4.169  74.317  1.00  0.00     0.016 A 
ATOM     14  C   UNL     1     -47.887   5.519  74.090  1.00  0.00     0.051 A 
ATOM     15  C   UNL     1     -47.269   6.201  73.033  1.00  0.00     0.157 A 
ATOM     16  C   UNL     1     -46.083   4.170  72.433  1.00  0.00     0.062 A 
ATOM     17  C   UNL     1     -46.362   5.526  72.206  1.00  0.00     0.158 A 
BRANCH  15  18
ATOM     18  O   UNL     1     -47.547   7.546  72.802  1.00  0.00    -0.504 OA
ATOM     19  H   UNL     1     -47.599   7.922  71.863  1.00  0.00     0.293 HD
ENDBRANCH  15  18
BRANCH  17  20
ATOM     20  O   UNL     1     -45.738   6.210  71.165  1.00  0.00    -0.504 OA
ATOM     21  H   UNL     1     -45.248   5.719  70.426  1.00  0.00     0.293 HD
ENDBRANCH  17  20
ENDBRANCH   1  12
BRANCH   2  22
ATOM     22  O   UNL     1     -44.179   2.571  74.544  1.00  0.00    -0.502 OA
ATOM     23  H   UNL     1     -44.110   3.082  75.416  1.00  0.00     0.293 HD
ENDBRANCH   2  22
BRANCH   6  24
ATOM     24  O   UNL     1     -44.880  -2.665  75.229  1.00  0.00    -0.507 OA
ATOM     25  H   UNL     1     -44.461  -2.296  76.069  1.00  0.00     0.293 HD
ENDBRANCH   6  24
BRANCH   8  26
ATOM     26  O   UNL     1     -49.125  -3.237  73.057  1.00  0.00    -0.508 OA
ATOM     27  H   UNL     1     -49.602  -3.098  72.174  1.00  0.00     0.293 HD
ENDBRANCH   8  26
TORSDOF 6
ENDMDL
MODEL 8
REMARK VINA RESULT:    -6.149      1.588      7.142
REMARK INTER + INTRA:          -7.701
REMARK INTER:                  -7.633
REMARK INTRA:                  -0.068
REMARK UNBOUND:                -0.294
REMARK SMILES O=c1c(O)c(-c2ccc(O)c(O)c2)oc2cc(O)cc(O)c12
REMARK SMILES IDX 5 1 3 2 2 3 1 4 22 5 20 6 19 7 17 8 16 9 15 10 14 11 6 12
REMARK SMILES IDX 7 13 8 14 9 15 13 16 11 17 10 18 12 20 4 22 21 24 18 26
REMARK H PARENT 10 19 12 21 4 23 21 25 18 27
REMARK Flexibility Score: inf
ROOT
ATOM      1  C   UNL     1     -38.822   4.575  78.836  1.00  0.00     0.180 A 
ATOM      2  C   UNL     1     -38.413   5.535  77.894  1.00  0.00     0.208 A 
ATOM      3  C   UNL     1     -37.106   6.046  77.965  1.00  0.00     0.238 A 
ATOM      4  O   UNL     1     -36.729   6.864  77.086  1.00  0.00    -0.285 OA
ATOM      5  C   UNL     1     -36.232   5.604  78.987  1.00  0.00     0.111 A 
ATOM      6  C   UNL     1     -34.901   6.084  79.178  1.00  0.00     0.134 A 
ATOM      7  C   UNL     1     -34.082   5.481  80.141  1.00  0.00     0.093 A 
ATOM      8  C   UNL     1     -34.567   4.460  80.962  1.00  0.00     0.123 A 
ATOM      9  C   UNL     1     -35.883   4.026  80.823  1.00  0.00     0.094 A 
ATOM     10  C   UNL     1     -36.713   4.583  79.848  1.00  0.00     0.146 A 
ATOM     11  O   UNL     1     -37.957   4.133  79.742  1.00  0.00    -0.452 OA
ENDROOT
BRANCH   1  12
ATOM     12  C   UNL     1     -40.189   4.008  78.839  1.00  0.00     0.025 A 
ATOM     13  C   UNL     1     -40.659   3.330  77.703  1.00  0.00     0.016 A 
ATOM     14  C   UNL     1     -41.939   2.768  77.692  1.00  0.00     0.051 A 
ATOM     15  C   UNL     1     -42.761   2.863  78.822  1.00  0.00     0.157 A 
ATOM     16  C   UNL     1     -41.010   4.082  79.979  1.00  0.00     0.062 A 
ATOM     17  C   UNL     1     -42.294   3.518  79.969  1.00  0.00     0.158 A 
BRANCH  15  18
ATOM     18  O   UNL     1     -44.038   2.306  78.815  1.00  0.00    -0.504 OA
ATOM     19  H   UNL     1     -44.593   2.243  79.661  1.00  0.00     0.293 HD
ENDBRANCH  15  18
BRANCH  17  20
ATOM     20  O   UNL     1     -43.109   3.598  81.097  1.00  0.00    -0.504 OA
ATOM     21  H   UNL     1     -42.724   3.551  82.033  1.00  0.00     0.293 HD
ENDBRANCH  17  20
ENDBRANCH   1  12
BRANCH   2  22
ATOM     22  O   UNL     1     -39.285   5.941  76.879  1.00  0.00    -0.502 OA
ATOM     23  H   UNL     1     -39.965   5.316  76.463  1.00  0.00     0.293 HD
ENDBRANCH   2  22
BRANCH   6  24
ATOM     24  O   UNL     1     -34.350   7.159  78.475  1.00  0.00    -0.507 OA
ATOM     25  H   UNL     1     -34.533   8.131  78.675  1.00  0.00     0.293 HD
ENDBRANCH   6  24
BRANCH   8  26
ATOM     26  O   UNL     1     -33.749   3.877  81.928  1.00  0.00    -0.508 OA
ATOM     27  H   UNL     1     -33.144   4.436  82.519  1.00  0.00     0.293 HD
ENDBRANCH   8  26
TORSDOF 6
ENDMDL
MODEL 9
REMARK VINA RESULT:    -5.888      9.193     11.269
REMARK INTER + INTRA:          -7.386
REMARK INTER:                  -7.101
REMARK INTRA:                  -0.285
REMARK UNBOUND:                -0.294
REMARK SMILES O=c1c(O)c(-c2ccc(O)c(O)c2)oc2cc(O)cc(O)c12
REMARK SMILES IDX 5 1 3 2 2 3 1 4 22 5 20 6 19 7 17 8 16 9 15 10 14 11 6 12
REMARK SMILES IDX 7 13 8 14 9 15 13 16 11 17 10 18 12 20 4 22 21 24 18 26
REMARK H PARENT 10 19 12 21 4 23 21 25 18 27
REMARK Flexibility Score: inf
ROOT
ATOM      1  C   UNL     1     -42.622  -5.073  82.110  1.00  0.00     0.180 A 
ATOM      2  C   UNL     1     -42.963  -6.262  82.778  1.00  0.00     0.208 A 
ATOM      3  C   UNL     1     -44.077  -6.997  82.337  1.00  0.00     0.238 A 
ATOM      4  O   UNL     1     -44.344  -8.087  82.904  1.00  0.00    -0.285 OA
ATOM      5  C   UNL     1     -44.843  -6.525  81.243  1.00  0.00     0.111 A 
ATOM      6  C   UNL     1     -46.013  -7.166  80.738  1.00  0.00     0.134 A 
ATOM      7  C   UNL     1     -46.617  -6.681  79.571  1.00  0.00     0.093 A 
ATOM      8  C   UNL     1     -46.130  -5.540  78.929  1.00  0.00     0.123 A 
ATOM      9  C   UNL     1     -45.024  -4.872  79.449  1.00  0.00     0.094 A 
ATOM     10  C   UNL     1     -44.379  -5.353  80.591  1.00  0.00     0.146 A 
ATOM     11  O   UNL     1     -43.322  -4.692  81.047  1.00  0.00    -0.452 OA
ENDROOT
BRANCH   1  12
ATOM     12  C   UNL     1     -41.478  -4.234  82.532  1.00  0.00     0.025 A 
ATOM     13  C   UNL     1     -41.710  -3.101  83.329  1.00  0.00     0.016 A 
ATOM     14  C   UNL     1     -40.642  -2.306  83.757  1.00  0.00     0.051 A 
ATOM     15  C   UNL     1     -39.327  -2.642  83.408  1.00  0.00     0.157 A 
ATOM     16  C   UNL     1     -40.155  -4.579  82.202  1.00  0.00     0.062 A 
ATOM     17  C   UNL     1     -39.084  -3.783  82.632  1.00  0.00     0.158 A 
BRANCH  15  18
ATOM     18  O   UNL     1     -38.261  -1.852  83.830  1.00  0.00    -0.504 OA
ATOM     19  H   UNL     1     -37.641  -1.400  83.168  1.00  0.00     0.293 HD
ENDBRANCH  15  18
BRANCH  17  20
ATOM     20  O   UNL     1     -37.773  -4.122  82.299  1.00  0.00    -0.504 OA
ATOM     21  H   UNL     1     -37.570  -4.830  81.602  1.00  0.00     0.293 HD
ENDBRANCH  17  20
ENDBRANCH   1  12
BRANCH   2  22
ATOM     22  O   UNL     1     -42.180  -6.721  83.841  1.00  0.00    -0.502 OA
ATOM     23  H   UNL     1     -41.394  -7.347  83.707  1.00  0.00     0.293 HD
ENDBRANCH   2  22
BRANCH   6  24
ATOM     24  O   UNL     1     -46.634  -8.257  81.355  1.00  0.00    -0.507 OA
ATOM     25  H   UNL     1     -47.627  -8.338  81.513  1.00  0.00     0.293 HD
ENDBRANCH   6  24
BRANCH   8  26
ATOM     26  O   UNL     1     -46.747  -5.056  77.777  1.00  0.00    -0.508 OA
ATOM     27  H   UNL     1     -46.977  -4.075  77.671  1.00  0.00     0.293 HD
ENDBRANCH   8  26
TORSDOF 6
ENDMDL
