MODEL 1
REMARK VINA RESULT:    -4.425      0.000      0.000
REMARK INTER + INTRA:          -6.442
REMARK INTER:                  -5.977
REMARK INTRA:                  -0.465
REMARK UNBOUND:                -0.465
REMARK SMILES CCCCCCCC(=O)[O-]
REMARK SMILES IDX 5 1 6 2 7 3 8 4 9 5 10 6 4 7 3 8 2 9 1 10
REMARK H PARENT
REMARK Flexibility Score: inf
ROOT
ATOM      1  C   UNL     1      21.115   1.144 -15.728  1.00  0.00     0.000 C 
ENDROOT
BRANCH   1   2
ATOM      2  C   UNL     1      20.058   1.843 -14.853  1.00  0.00     0.006 C 
BRANCH   2   3
ATOM      3  C   UNL     1      18.984   2.604 -15.647  1.00  0.00     0.053 C 
BRANCH   3   4
ATOM      4  C   UNL     1      17.749   1.783 -15.850  1.00  0.00     0.041 C 
ATOM      5  O   UNL     1      16.992   2.006 -16.832  1.00  0.00    -0.550 OA
ATOM      6  O   UNL     1      17.415   0.790 -14.937  1.00  0.00    -0.550 OA
ENDBRANCH   3   4
ENDBRANCH   2   3
ENDBRANCH   1   2
BRANCH   1   7
ATOM      7  C   UNL     1      21.392  -0.301 -15.288  1.00  0.00     0.000 C 
BRANCH   7   8
ATOM      8  C   UNL     1      20.212  -1.218 -15.646  1.00  0.00    -0.000 C 
BRANCH   8   9
ATOM      9  C   UNL     1      19.810  -1.112 -17.125  1.00  0.00    -0.003 C 
ATOM     10  C   UNL     1      19.679  -2.476 -17.802  1.00  0.00     0.004 C 
ENDBRANCH   8   9
ENDBRANCH   7   8
ENDBRANCH   1   7
TORSDOF 6
ENDMDL
MODEL 2
REMARK VINA RESULT:    -4.358      1.318      2.363
REMARK INTER + INTRA:          -6.351
REMARK INTER:                  -5.832
REMARK INTRA:                  -0.519
REMARK UNBOUND:                -0.465
REMARK SMILES CCCCCCCC(=O)[O-]
REMARK SMILES IDX 5 1 6 2 7 3 8 4 9 5 10 6 4 7 3 8 2 9 1 10
REMARK H PARENT
REMARK Flexibility Score: inf
ROOT
ATOM      1  C   UNL     1      20.901  -1.317 -16.051  1.00  0.00     0.000 C 
ENDROOT
BRANCH   1   2
ATOM      2  C   UNL     1      20.140  -0.486 -15.002  1.00  0.00     0.006 C 
BRANCH   2   3
ATOM      3  C   UNL     1      19.748   0.923 -15.474  1.00  0.00     0.053 C 
BRANCH   3   4
ATOM      4  C   UNL     1      18.282   1.032 -15.757  1.00  0.00     0.041 C 
ATOM      5  O   UNL     1      17.439   0.753 -14.864  1.00  0.00    -0.550 OA
ATOM      6  O   UNL     1      17.844   1.411 -17.021  1.00  0.00    -0.550 OA
ENDBRANCH   3   4
ENDBRANCH   2   3
ENDBRANCH   1   2
BRANCH   1   7
ATOM      7  C   UNL     1      20.008  -2.344 -16.761  1.00  0.00     0.000 C 
BRANCH   7   8
ATOM      8  C   UNL     1      20.065  -2.158 -18.285  1.00  0.00    -0.000 C 
BRANCH   8   9
ATOM      9  C   UNL     1      20.865  -0.913 -18.700  1.00  0.00    -0.003 C 
ATOM     10  C   UNL     1      20.032   0.087 -19.500  1.00  0.00     0.004 C 
ENDBRANCH   8   9
ENDBRANCH   7   8
ENDBRANCH   1   7
TORSDOF 6
ENDMDL
MODEL 3
REMARK VINA RESULT:    -4.308      1.395      2.509
REMARK INTER + INTRA:          -6.284
REMARK INTER:                  -5.986
REMARK INTRA:                  -0.298
REMARK UNBOUND:                -0.465
REMARK SMILES CCCCCCCC(=O)[O-]
REMARK SMILES IDX 5 1 6 2 7 3 8 4 9 5 10 6 4 7 3 8 2 9 1 10
REMARK H PARENT
REMARK Flexibility Score: inf
ROOT
ATOM      1  C   UNL     1      21.019   0.970 -15.133  1.00  0.00     0.000 C 
ENDROOT
BRANCH   1   2
ATOM      2  C   UNL     1      19.929   1.869 -14.521  1.00  0.00     0.006 C 
BRANCH   2   3
ATOM      3  C   UNL     1      18.988   2.514 -15.551  1.00  0.00     0.053 C 
BRANCH   3   4
ATOM      4  C   UNL     1      17.741   1.710 -15.751  1.00  0.00     0.041 C 
ATOM      5  O   UNL     1      17.418   0.820 -14.920  1.00  0.00    -0.550 OA
ATOM      6  O   UNL     1      16.950   1.920 -16.874  1.00  0.00    -0.550 OA
ENDBRANCH   3   4
ENDBRANCH   2   3
ENDBRANCH   1   2
BRANCH   1   7
ATOM      7  C   UNL     1      20.656  -0.521 -15.087  1.00  0.00     0.000 C 
BRANCH   7   8
ATOM      8  C   UNL     1      21.891  -1.394 -15.358  1.00  0.00    -0.000 C 
BRANCH   8   9
ATOM      9  C   UNL     1      23.175  -0.565 -15.527  1.00  0.00    -0.003 C 
ATOM     10  C   UNL     1      24.251  -0.927 -14.505  1.00  0.00     0.004 C 
ENDBRANCH   8   9
ENDBRANCH   7   8
ENDBRANCH   1   7
TORSDOF 6
ENDMDL
MODEL 4
REMARK VINA RESULT:    -4.208      8.566      9.932
REMARK INTER + INTRA:          -6.149
REMARK INTER:                  -5.622
REMARK INTRA:                  -0.527
REMARK UNBOUND:                -0.465
REMARK SMILES CCCCCCCC(=O)[O-]
REMARK SMILES IDX 5 1 6 2 7 3 8 4 9 5 10 6 4 7 3 8 2 9 1 10
REMARK H PARENT
REMARK Flexibility Score: inf
ROOT
ATOM      1  C   UNL     1      16.863   1.483 -24.158  1.00  0.00     0.000 C 
ENDROOT
BRANCH   1   2
ATOM      2  C   UNL     1      16.655   0.202 -23.330  1.00  0.00     0.006 C 
BRANCH   2   3
ATOM      3  C   UNL     1      17.932  -0.626 -23.114  1.00  0.00     0.053 C 
BRANCH   3   4
ATOM      4  C   UNL     1      18.015  -1.785 -24.059  1.00  0.00     0.041 C 
ATOM      5  O   UNL     1      17.035  -2.563 -24.196  1.00  0.00    -0.550 OA
ATOM      6  O   UNL     1      19.188  -2.025 -24.764  1.00  0.00    -0.550 OA
ENDBRANCH   3   4
ENDBRANCH   2   3
ENDBRANCH   1   2
BRANCH   1   7
ATOM      7  C   UNL     1      15.966   1.540 -25.403  1.00  0.00     0.000 C 
BRANCH   7   8
ATOM      8  C   UNL     1      16.355   0.445 -26.408  1.00  0.00    -0.000 C 
BRANCH   8   9
ATOM      9  C   UNL     1      17.799   0.594 -26.915  1.00  0.00    -0.003 C 
ATOM     10  C   UNL     1      18.173  -0.461 -27.955  1.00  0.00     0.004 C 
ENDBRANCH   8   9
ENDBRANCH   7   8
ENDBRANCH   1   7
TORSDOF 6
ENDMDL
MODEL 5
REMARK VINA RESULT:    -4.175      1.596      2.390
REMARK INTER + INTRA:          -6.104
REMARK INTER:                  -5.658
REMARK INTRA:                  -0.446
REMARK UNBOUND:                -0.465
REMARK SMILES CCCCCCCC(=O)[O-]
REMARK SMILES IDX 5 1 6 2 7 3 8 4 9 5 10 6 4 7 3 8 2 9 1 10
REMARK H PARENT
REMARK Flexibility Score: inf
ROOT
ATOM      1  C   UNL     1      19.911   0.526 -18.990  1.00  0.00     0.000 C 
ENDROOT
BRANCH   1   2
ATOM      2  C   UNL     1      19.495   1.486 -17.861  1.00  0.00     0.006 C 
BRANCH   2   3
ATOM      3  C   UNL     1      18.039   1.323 -17.396  1.00  0.00     0.053 C 
BRANCH   3   4
ATOM      4  C   UNL     1      17.855   1.745 -15.971  1.00  0.00     0.041 C 
ATOM      5  O   UNL     1      17.967   2.956 -15.647  1.00  0.00    -0.550 OA
ATOM      6  O   UNL     1      17.591   0.793 -14.993  1.00  0.00    -0.550 OA
ENDBRANCH   3   4
ENDBRANCH   2   3
ENDBRANCH   1   2
BRANCH   1   7
ATOM      7  C   UNL     1      20.873  -0.572 -18.514  1.00  0.00     0.000 C 
BRANCH   7   8
ATOM      8  C   UNL     1      20.250  -1.964 -18.701  1.00  0.00    -0.000 C 
BRANCH   8   9
ATOM      9  C   UNL     1      19.704  -2.548 -17.389  1.00  0.00    -0.003 C 
ATOM     10  C   UNL     1      20.143  -1.753 -16.160  1.00  0.00     0.004 C 
ENDBRANCH   8   9
ENDBRANCH   7   8
ENDBRANCH   1   7
TORSDOF 6
ENDMDL
MODEL 6
REMARK VINA RESULT:    -4.057      1.255      2.532
REMARK INTER + INTRA:          -5.945
REMARK INTER:                  -5.523
REMARK INTRA:                  -0.423
REMARK UNBOUND:                -0.465
REMARK SMILES CCCCCCCC(=O)[O-]
REMARK SMILES IDX 5 1 6 2 7 3 8 4 9 5 10 6 4 7 3 8 2 9 1 10
REMARK H PARENT
REMARK Flexibility Score: inf
ROOT
ATOM      1  C   UNL     1      19.386  -0.522 -17.430  1.00  0.00     0.000 C 
ENDROOT
BRANCH   1   2
ATOM      2  C   UNL     1      19.817   0.954 -17.352  1.00  0.00     0.006 C 
BRANCH   2   3
ATOM      3  C   UNL     1      19.298   1.700 -16.112  1.00  0.00     0.053 C 
BRANCH   3   4
ATOM      4  C   UNL     1      17.831   1.483 -15.901  1.00  0.00     0.041 C 
ATOM      5  O   UNL     1      17.424   0.805 -14.921  1.00  0.00    -0.550 OA
ATOM      6  O   UNL     1      16.914   2.004 -16.806  1.00  0.00    -0.550 OA
ENDBRANCH   3   4
ENDBRANCH   2   3
ENDBRANCH   1   2
BRANCH   1   7
ATOM      7  C   UNL     1      20.498  -1.491 -17.006  1.00  0.00     0.000 C 
BRANCH   7   8
ATOM      8  C   UNL     1      21.884  -0.884 -17.273  1.00  0.00    -0.000 C 
BRANCH   8   9
ATOM      9  C   UNL     1      22.695  -0.673 -15.985  1.00  0.00    -0.003 C 
ATOM     10  C   UNL     1      22.163  -1.491 -14.809  1.00  0.00     0.004 C 
ENDBRANCH   8   9
ENDBRANCH   7   8
ENDBRANCH   1   7
TORSDOF 6
ENDMDL
MODEL 7
REMARK VINA RESULT:    -4.003      9.112     10.474
REMARK INTER + INTRA:          -5.871
REMARK INTER:                  -5.289
REMARK INTRA:                  -0.582
REMARK UNBOUND:                -0.465
REMARK SMILES CCCCCCCC(=O)[O-]
REMARK SMILES IDX 5 1 6 2 7 3 8 4 9 5 10 6 4 7 3 8 2 9 1 10
REMARK H PARENT
REMARK Flexibility Score: inf
ROOT
ATOM      1  C   UNL     1      17.091  -0.854 -24.280  1.00  0.00     0.000 C 
ENDROOT
BRANCH   1   2
ATOM      2  C   UNL     1      18.616  -1.050 -24.367  1.00  0.00     0.006 C 
BRANCH   2   3
ATOM      3  C   UNL     1      19.249  -0.510 -25.659  1.00  0.00     0.053 C 
BRANCH   3   4
ATOM      4  C   UNL     1      18.826  -1.294 -26.862  1.00  0.00     0.041 C 
ATOM      5  O   UNL     1      19.341  -2.418 -27.101  1.00  0.00    -0.550 OA
ATOM      6  O   UNL     1      17.884  -0.769 -27.739  1.00  0.00    -0.550 OA
ENDBRANCH   3   4
ENDBRANCH   2   3
ENDBRANCH   1   2
BRANCH   1   7
ATOM      7  C   UNL     1      16.684   0.200 -23.241  1.00  0.00     0.000 C 
BRANCH   7   8
ATOM      8  C   UNL     1      16.720   1.611 -23.850  1.00  0.00    -0.000 C 
BRANCH   8   9
ATOM      9  C   UNL     1      16.068   1.671 -25.240  1.00  0.00    -0.003 C 
ATOM     10  C   UNL     1      16.934   2.396 -26.269  1.00  0.00     0.004 C 
ENDBRANCH   8   9
ENDBRANCH   7   8
ENDBRANCH   1   7
TORSDOF 6
ENDMDL
MODEL 8
REMARK VINA RESULT:    -3.975      8.972     10.504
REMARK INTER + INTRA:          -5.835
REMARK INTER:                  -5.391
REMARK INTRA:                  -0.443
REMARK UNBOUND:                -0.465
REMARK SMILES CCCCCCCC(=O)[O-]
REMARK SMILES IDX 5 1 6 2 7 3 8 4 9 5 10 6 4 7 3 8 2 9 1 10
REMARK H PARENT
REMARK Flexibility Score: inf
ROOT
ATOM      1  C   UNL     1      17.057   1.625 -26.507  1.00  0.00     0.000 C 
ENDROOT
BRANCH   1   2
ATOM      2  C   UNL     1      17.557   0.222 -26.898  1.00  0.00     0.006 C 
BRANCH   2   3
ATOM      3  C   UNL     1      19.040  -0.031 -26.586  1.00  0.00     0.053 C 
BRANCH   3   4
ATOM      4  C   UNL     1      19.272  -1.407 -26.042  1.00  0.00     0.041 C 
ATOM      5  O   UNL     1      19.490  -1.576 -24.813  1.00  0.00    -0.550 OA
ATOM      6  O   UNL     1      19.278  -2.501 -26.899  1.00  0.00    -0.550 OA
ENDBRANCH   3   4
ENDBRANCH   2   3
ENDBRANCH   1   2
BRANCH   1   7
ATOM      7  C   UNL     1      16.044   1.596 -25.353  1.00  0.00     0.000 C 
BRANCH   7   8
ATOM      8  C   UNL     1      16.001   0.207 -24.697  1.00  0.00    -0.000 C 
BRANCH   8   9
ATOM      9  C   UNL     1      16.710   0.177 -23.333  1.00  0.00    -0.003 C 
ATOM     10  C   UNL     1      17.117   1.567 -22.847  1.00  0.00     0.004 C 
ENDBRANCH   8   9
ENDBRANCH   7   8
ENDBRANCH   1   7
TORSDOF 6
ENDMDL
MODEL 9
REMARK VINA RESULT:    -3.937      8.365      9.400
REMARK INTER + INTRA:          -5.782
REMARK INTER:                  -5.123
REMARK INTRA:                  -0.660
REMARK UNBOUND:                -0.465
REMARK SMILES CCCCCCCC(=O)[O-]
REMARK SMILES IDX 5 1 6 2 7 3 8 4 9 5 10 6 4 7 3 8 2 9 1 10
REMARK H PARENT
REMARK Flexibility Score: inf
ROOT
ATOM      1  C   UNL     1      16.718   0.278 -23.131  1.00  0.00     0.000 C 
ENDROOT
BRANCH   1   2
ATOM      2  C   UNL     1      16.826   1.594 -23.924  1.00  0.00     0.006 C 
BRANCH   2   3
ATOM      3  C   UNL     1      16.024   1.611 -25.235  1.00  0.00     0.053 C 
BRANCH   3   4
ATOM      4  C   UNL     1      16.618   0.703 -26.267  1.00  0.00     0.041 C 
ATOM      5  O   UNL     1      16.103  -0.424 -26.493  1.00  0.00    -0.550 OA
ATOM      6  O   UNL     1      17.760   1.088 -26.958  1.00  0.00    -0.550 OA
ENDBRANCH   3   4
ENDBRANCH   2   3
ENDBRANCH   1   2
BRANCH   1   7
ATOM      7  C   UNL     1      18.062  -0.453 -23.004  1.00  0.00     0.000 C 
BRANCH   7   8
ATOM      8  C   UNL     1      18.071  -1.734 -23.853  1.00  0.00    -0.000 C 
BRANCH   8   9
ATOM      9  C   UNL     1      19.138  -1.702 -24.958  1.00  0.00    -0.003 C 
ATOM     10  C   UNL     1      20.080  -0.504 -24.837  1.00  0.00     0.004 C 
ENDBRANCH   8   9
ENDBRANCH   7   8
ENDBRANCH   1   7
TORSDOF 6
ENDMDL
