MODEL 1
REMARK VINA RESULT:    -6.162      0.000      0.000
REMARK INTER + INTRA:          -7.684
REMARK INTER:                  -7.423
REMARK INTRA:                  -0.261
REMARK UNBOUND:                -0.261
REMARK SMILES O=c1c(O)c(-c2ccc(O)c(O)c2)oc2cc(O)cc(O)c12
REMARK SMILES IDX 5 1 3 2 2 3 1 4 22 5 20 6 19 7 17 8 16 9 15 10 14 11 6 12
REMARK SMILES IDX 7 13 8 14 9 15 13 16 11 17 10 18 12 20 4 22 21 24 18 26
REMARK H PARENT 10 19 12 21 4 23 21 25 18 27
REMARK Flexibility Score: inf
ROOT
ATOM      1  C   UNL     1     -19.054  17.415  -2.172  1.00  0.00     0.180 A 
ATOM      2  C   UNL     1     -18.411  18.649  -1.970  1.00  0.00     0.208 A 
ATOM      3  C   UNL     1     -19.168  19.746  -1.527  1.00  0.00     0.238 A 
ATOM      4  O   UNL     1     -18.577  20.833  -1.295  1.00  0.00    -0.285 OA
ATOM      5  C   UNL     1     -20.559  19.599  -1.306  1.00  0.00     0.111 A 
ATOM      6  C   UNL     1     -21.429  20.653  -0.896  1.00  0.00     0.134 A 
ATOM      7  C   UNL     1     -22.763  20.364  -0.582  1.00  0.00     0.093 A 
ATOM      8  C   UNL     1     -23.274  19.075  -0.726  1.00  0.00     0.123 A 
ATOM      9  C   UNL     1     -22.446  18.049  -1.184  1.00  0.00     0.094 A 
ATOM     10  C   UNL     1     -21.103  18.299  -1.471  1.00  0.00     0.146 A 
ATOM     11  O   UNL     1     -20.346  17.293  -1.893  1.00  0.00    -0.452 OA
ENDROOT
BRANCH   1  12
ATOM     12  C   UNL     1     -18.328  16.220  -2.662  1.00  0.00     0.025 A 
ATOM     13  C   UNL     1     -17.942  16.152  -4.010  1.00  0.00     0.016 A 
ATOM     14  C   UNL     1     -17.238  15.045  -4.489  1.00  0.00     0.051 A 
ATOM     15  C   UNL     1     -16.898  13.996  -3.628  1.00  0.00     0.157 A 
ATOM     16  C   UNL     1     -17.967  15.175  -1.793  1.00  0.00     0.062 A 
ATOM     17  C   UNL     1     -17.259  14.063  -2.272  1.00  0.00     0.158 A 
BRANCH  15  18
ATOM     18  O   UNL     1     -16.197  12.903  -4.135  1.00  0.00    -0.504 OA
ATOM     19  H   UNL     1     -15.912  12.850  -5.106  1.00  0.00     0.293 HD
ENDBRANCH  15  18
BRANCH  17  20
ATOM     20  O   UNL     1     -16.911  13.029  -1.405  1.00  0.00    -0.504 OA
ATOM     21  H   UNL     1     -17.569  12.298  -1.159  1.00  0.00     0.293 HD
ENDBRANCH  17  20
ENDBRANCH   1  12
BRANCH   2  22
ATOM     22  O   UNL     1     -17.034  18.765  -2.172  1.00  0.00    -0.502 OA
ATOM     23  H   UNL     1     -16.366  18.707  -1.413  1.00  0.00     0.293 HD
ENDBRANCH   2  22
BRANCH   6  24
ATOM     24  O   UNL     1     -21.044  21.994  -0.807  1.00  0.00    -0.507 OA
ATOM     25  H   UNL     1     -20.739  22.558  -1.586  1.00  0.00     0.293 HD
ENDBRANCH   6  24
BRANCH   8  26
ATOM     26  O   UNL     1     -24.610  18.827  -0.420  1.00  0.00    -0.508 OA
ATOM     27  H   UNL     1     -24.887  18.020   0.128  1.00  0.00     0.293 HD
ENDBRANCH   8  26
TORSDOF 6
ENDMDL
MODEL 2
REMARK VINA RESULT:    -6.162      1.752      7.227
REMARK INTER + INTRA:          -7.683
REMARK INTER:                  -7.360
REMARK INTRA:                  -0.323
REMARK UNBOUND:                -0.261
REMARK SMILES O=c1c(O)c(-c2ccc(O)c(O)c2)oc2cc(O)cc(O)c12
REMARK SMILES IDX 5 1 3 2 2 3 1 4 22 5 20 6 19 7 17 8 16 9 15 10 14 11 6 12
REMARK SMILES IDX 7 13 8 14 9 15 13 16 11 17 10 18 12 20 4 22 21 24 18 26
REMARK H PARENT 10 19 12 21 4 23 21 25 18 27
REMARK Flexibility Score: inf
ROOT
ATOM      1  C   UNL     1     -18.740  16.658  -1.873  1.00  0.00     0.180 A 
ATOM      2  C   UNL     1     -18.734  15.836  -0.731  1.00  0.00     0.208 A 
ATOM      3  C   UNL     1     -18.089  14.591  -0.792  1.00  0.00     0.238 A 
ATOM      4  O   UNL     1     -18.041  13.884   0.248  1.00  0.00    -0.285 OA
ATOM      5  C   UNL     1     -17.470  14.176  -1.997  1.00  0.00     0.111 A 
ATOM      6  C   UNL     1     -16.822  12.919  -2.183  1.00  0.00     0.134 A 
ATOM      7  C   UNL     1     -16.131  12.668  -3.375  1.00  0.00     0.093 A 
ATOM      8  C   UNL     1     -16.119  13.601  -4.410  1.00  0.00     0.123 A 
ATOM      9  C   UNL     1     -16.800  14.810  -4.262  1.00  0.00     0.094 A 
ATOM     10  C   UNL     1     -17.468  15.104  -3.071  1.00  0.00     0.146 A 
ATOM     11  O   UNL     1     -18.094  16.270  -2.965  1.00  0.00    -0.452 OA
ENDROOT
BRANCH   1  12
ATOM     12  C   UNL     1     -19.421  17.973  -1.893  1.00  0.00     0.025 A 
ATOM     13  C   UNL     1     -20.778  18.042  -2.247  1.00  0.00     0.016 A 
ATOM     14  C   UNL     1     -21.446  19.268  -2.253  1.00  0.00     0.051 A 
ATOM     15  C   UNL     1     -20.776  20.441  -1.892  1.00  0.00     0.157 A 
ATOM     16  C   UNL     1     -18.753  19.150  -1.510  1.00  0.00     0.062 A 
ATOM     17  C   UNL     1     -19.424  20.382  -1.513  1.00  0.00     0.158 A 
BRANCH  15  18
ATOM     18  O   UNL     1     -21.468  21.651  -1.909  1.00  0.00    -0.504 OA
ATOM     19  H   UNL     1     -22.140  21.876  -2.633  1.00  0.00     0.293 HD
ENDBRANCH  15  18
BRANCH  17  20
ATOM     20  O   UNL     1     -18.753  21.545  -1.139  1.00  0.00    -0.504 OA
ATOM     21  H   UNL     1     -18.648  22.327  -1.776  1.00  0.00     0.293 HD
ENDBRANCH  17  20
ENDBRANCH   1  12
BRANCH   2  22
ATOM     22  O   UNL     1     -19.332  16.275   0.453  1.00  0.00    -0.502 OA
ATOM     23  H   UNL     1     -20.075  16.964   0.465  1.00  0.00     0.293 HD
ENDBRANCH   2  22
BRANCH   6  24
ATOM     24  O   UNL     1     -16.850  11.880  -1.247  1.00  0.00    -0.507 OA
ATOM     25  H   UNL     1     -17.670  11.343  -1.008  1.00  0.00     0.293 HD
ENDBRANCH   6  24
BRANCH   8  26
ATOM     26  O   UNL     1     -15.434  13.311  -5.589  1.00  0.00    -0.508 OA
ATOM     27  H   UNL     1     -14.698  13.915  -5.935  1.00  0.00     0.293 HD
ENDBRANCH   8  26
TORSDOF 6
ENDMDL
MODEL 3
REMARK VINA RESULT:    -6.136      1.359      2.960
REMARK INTER + INTRA:          -7.652
REMARK INTER:                  -7.342
REMARK INTRA:                  -0.311
REMARK UNBOUND:                -0.261
REMARK SMILES O=c1c(O)c(-c2ccc(O)c(O)c2)oc2cc(O)cc(O)c12
REMARK SMILES IDX 5 1 3 2 2 3 1 4 22 5 20 6 19 7 17 8 16 9 15 10 14 11 6 12
REMARK SMILES IDX 7 13 8 14 9 15 13 16 11 17 10 18 12 20 4 22 21 24 18 26
REMARK H PARENT 10 19 12 21 4 23 21 25 18 27
REMARK Flexibility Score: inf
ROOT
ATOM      1  C   UNL     1     -19.630  16.234  -2.543  1.00  0.00     0.180 A 
ATOM      2  C   UNL     1     -20.992  15.890  -2.601  1.00  0.00     0.208 A 
ATOM      3  C   UNL     1     -21.950  16.832  -2.191  1.00  0.00     0.238 A 
ATOM      4  O   UNL     1     -23.169  16.538  -2.297  1.00  0.00    -0.285 OA
ATOM      5  C   UNL     1     -21.533  18.098  -1.714  1.00  0.00     0.111 A 
ATOM      6  C   UNL     1     -22.415  19.113  -1.235  1.00  0.00     0.134 A 
ATOM      7  C   UNL     1     -21.903  20.375  -0.910  1.00  0.00     0.093 A 
ATOM      8  C   UNL     1     -20.536  20.638  -0.983  1.00  0.00     0.123 A 
ATOM      9  C   UNL     1     -19.657  19.634  -1.394  1.00  0.00     0.094 A 
ATOM     10  C   UNL     1     -20.142  18.377  -1.759  1.00  0.00     0.146 A 
ATOM     11  O   UNL     1     -19.275  17.452  -2.154  1.00  0.00    -0.452 OA
ENDROOT
BRANCH   1  12
ATOM     12  C   UNL     1     -18.561  15.286  -2.935  1.00  0.00     0.025 A 
ATOM     13  C   UNL     1     -17.931  15.432  -4.181  1.00  0.00     0.016 A 
ATOM     14  C   UNL     1     -16.907  14.562  -4.561  1.00  0.00     0.051 A 
ATOM     15  C   UNL     1     -16.486  13.544  -3.700  1.00  0.00     0.157 A 
ATOM     16  C   UNL     1     -18.123  14.275  -2.060  1.00  0.00     0.062 A 
ATOM     17  C   UNL     1     -17.093  13.402  -2.441  1.00  0.00     0.158 A 
BRANCH  15  18
ATOM     18  O   UNL     1     -15.463  12.690  -4.108  1.00  0.00    -0.504 OA
ATOM     19  H   UNL     1     -14.561  12.672  -3.647  1.00  0.00     0.293 HD
ENDBRANCH  15  18
BRANCH  17  20
ATOM     20  O   UNL     1     -16.670  12.398  -1.572  1.00  0.00    -0.504 OA
ATOM     21  H   UNL     1     -15.695  12.291  -1.317  1.00  0.00     0.293 HD
ENDBRANCH  17  20
ENDBRANCH   1  12
BRANCH   2  22
ATOM     22  O   UNL     1     -21.382  14.643  -3.097  1.00  0.00    -0.502 OA
ATOM     23  H   UNL     1     -22.222  14.514  -3.647  1.00  0.00     0.293 HD
ENDBRANCH   2  22
BRANCH   6  24
ATOM     24  O   UNL     1     -23.786  18.926  -1.037  1.00  0.00    -0.507 OA
ATOM     25  H   UNL     1     -24.405  18.472  -1.691  1.00  0.00     0.293 HD
ENDBRANCH   6  24
BRANCH   8  26
ATOM     26  O   UNL     1     -20.059  21.901  -0.637  1.00  0.00    -0.508 OA
ATOM     27  H   UNL     1     -20.008  22.201   0.330  1.00  0.00     0.293 HD
ENDBRANCH   8  26
TORSDOF 6
ENDMDL
MODEL 4
REMARK VINA RESULT:    -6.054      2.393      7.414
REMARK INTER + INTRA:          -7.554
REMARK INTER:                  -7.565
REMARK INTRA:                   0.011
REMARK UNBOUND:                -0.261
REMARK SMILES O=c1c(O)c(-c2ccc(O)c(O)c2)oc2cc(O)cc(O)c12
REMARK SMILES IDX 5 1 3 2 2 3 1 4 22 5 20 6 19 7 17 8 16 9 15 10 14 11 6 12
REMARK SMILES IDX 7 13 8 14 9 15 13 16 11 17 10 18 12 20 4 22 21 24 18 26
REMARK H PARENT 10 19 12 21 4 23 21 25 18 27
REMARK Flexibility Score: inf
ROOT
ATOM      1  C   UNL     1     -21.291  16.748  -2.290  1.00  0.00     0.180 A 
ATOM      2  C   UNL     1     -22.317  15.870  -2.685  1.00  0.00     0.208 A 
ATOM      3  C   UNL     1     -21.974  14.606  -3.192  1.00  0.00     0.238 A 
ATOM      4  O   UNL     1     -22.896  13.805  -3.492  1.00  0.00    -0.285 OA
ATOM      5  C   UNL     1     -20.610  14.242  -3.312  1.00  0.00     0.111 A 
ATOM      6  C   UNL     1     -20.148  13.004  -3.850  1.00  0.00     0.134 A 
ATOM      7  C   UNL     1     -18.782  12.697  -3.800  1.00  0.00     0.093 A 
ATOM      8  C   UNL     1     -17.857  13.608  -3.294  1.00  0.00     0.123 A 
ATOM      9  C   UNL     1     -18.293  14.847  -2.819  1.00  0.00     0.094 A 
ATOM     10  C   UNL     1     -19.652  15.167  -2.823  1.00  0.00     0.146 A 
ATOM     11  O   UNL     1     -20.026  16.352  -2.354  1.00  0.00    -0.452 OA
ENDROOT
BRANCH   1  12
ATOM     12  C   UNL     1     -21.574  18.106  -1.770  1.00  0.00     0.025 A 
ATOM     13  C   UNL     1     -22.465  18.262  -0.696  1.00  0.00     0.016 A 
ATOM     14  C   UNL     1     -22.730  19.531  -0.176  1.00  0.00     0.051 A 
ATOM     15  C   UNL     1     -22.100  20.660  -0.709  1.00  0.00     0.157 A 
ATOM     16  C   UNL     1     -20.925  19.239  -2.291  1.00  0.00     0.062 A 
ATOM     17  C   UNL     1     -21.188  20.514  -1.769  1.00  0.00     0.158 A 
BRANCH  15  18
ATOM     18  O   UNL     1     -22.386  21.913  -0.171  1.00  0.00    -0.504 OA
ATOM     19  H   UNL     1     -21.834  22.317   0.577  1.00  0.00     0.293 HD
ENDBRANCH  15  18
BRANCH  17  20
ATOM     20  O   UNL     1     -20.546  21.633  -2.296  1.00  0.00    -0.504 OA
ATOM     21  H   UNL     1     -19.552  21.785  -2.167  1.00  0.00     0.293 HD
ENDBRANCH  17  20
ENDBRANCH   1  12
BRANCH   2  22
ATOM     22  O   UNL     1     -23.655  16.242  -2.536  1.00  0.00    -0.502 OA
ATOM     23  H   UNL     1     -24.115  16.270  -1.634  1.00  0.00     0.293 HD
ENDBRANCH   2  22
BRANCH   6  24
ATOM     24  O   UNL     1     -20.978  12.060  -4.463  1.00  0.00    -0.507 OA
ATOM     25  H   UNL     1     -21.980  12.141  -4.542  1.00  0.00     0.293 HD
ENDBRANCH   6  24
BRANCH   8  26
ATOM     26  O   UNL     1     -16.504  13.276  -3.274  1.00  0.00    -0.508 OA
ATOM     27  H   UNL     1     -16.162  12.483  -2.743  1.00  0.00     0.293 HD
ENDBRANCH   8  26
TORSDOF 6
ENDMDL
MODEL 5
REMARK VINA RESULT:    -6.042      2.461      6.805
REMARK INTER + INTRA:          -7.539
REMARK INTER:                  -7.546
REMARK INTRA:                   0.007
REMARK UNBOUND:                -0.261
REMARK SMILES O=c1c(O)c(-c2ccc(O)c(O)c2)oc2cc(O)cc(O)c12
REMARK SMILES IDX 5 1 3 2 2 3 1 4 22 5 20 6 19 7 17 8 16 9 15 10 14 11 6 12
REMARK SMILES IDX 7 13 8 14 9 15 13 16 11 17 10 18 12 20 4 22 21 24 18 26
REMARK H PARENT 10 19 12 21 4 23 21 25 18 27
REMARK Flexibility Score: inf
ROOT
ATOM      1  C   UNL     1     -20.485  17.123  -2.182  1.00  0.00     0.180 A 
ATOM      2  C   UNL     1     -19.101  17.042  -2.418  1.00  0.00     0.208 A 
ATOM      3  C   UNL     1     -18.576  15.877  -3.000  1.00  0.00     0.238 A 
ATOM      4  O   UNL     1     -17.345  15.833  -3.258  1.00  0.00    -0.285 OA
ATOM      5  C   UNL     1     -19.438  14.802  -3.325  1.00  0.00     0.111 A 
ATOM      6  C   UNL     1     -19.009  13.560  -3.881  1.00  0.00     0.134 A 
ATOM      7  C   UNL     1     -19.964  12.618  -4.284  1.00  0.00     0.093 A 
ATOM      8  C   UNL     1     -21.326  12.844  -4.091  1.00  0.00     0.123 A 
ATOM      9  C   UNL     1     -21.753  14.031  -3.494  1.00  0.00     0.094 A 
ATOM     10  C   UNL     1     -20.827  15.005  -3.114  1.00  0.00     0.146 A 
ATOM     11  O   UNL     1     -21.275  16.125  -2.558  1.00  0.00    -0.452 OA
ENDROOT
BRANCH   1  12
ATOM     12  C   UNL     1     -21.108  18.308  -1.549  1.00  0.00     0.025 A 
ATOM     13  C   UNL     1     -21.914  18.139  -0.411  1.00  0.00     0.016 A 
ATOM     14  C   UNL     1     -22.494  19.244   0.215  1.00  0.00     0.051 A 
ATOM     15  C   UNL     1     -22.269  20.534  -0.276  1.00  0.00     0.157 A 
ATOM     16  C   UNL     1     -20.865  19.607  -2.029  1.00  0.00     0.062 A 
ATOM     17  C   UNL     1     -21.447  20.718  -1.400  1.00  0.00     0.158 A 
BRANCH  15  18
ATOM     18  O   UNL     1     -22.864  21.618   0.369  1.00  0.00    -0.504 OA
ATOM     19  H   UNL     1     -22.320  22.313   0.866  1.00  0.00     0.293 HD
ENDBRANCH  15  18
BRANCH  17  20
ATOM     20  O   UNL     1     -21.206  22.002  -1.886  1.00  0.00    -0.504 OA
ATOM     21  H   UNL     1     -20.425  22.201  -2.500  1.00  0.00     0.293 HD
ENDBRANCH  17  20
ENDBRANCH   1  12
BRANCH   2  22
ATOM     22  O   UNL     1     -18.272  18.124  -2.110  1.00  0.00    -0.502 OA
ATOM     23  H   UNL     1     -18.398  18.686  -1.276  1.00  0.00     0.293 HD
ENDBRANCH   2  22
BRANCH   6  24
ATOM     24  O   UNL     1     -17.668  13.194  -4.033  1.00  0.00    -0.507 OA
ATOM     25  H   UNL     1     -17.059  13.535  -4.761  1.00  0.00     0.293 HD
ENDBRANCH   6  24
BRANCH   8  26
ATOM     26  O   UNL     1     -22.247  11.878  -4.490  1.00  0.00    -0.508 OA
ATOM     27  H   UNL     1     -22.441  11.064  -3.917  1.00  0.00     0.293 HD
ENDBRANCH   8  26
TORSDOF 6
ENDMDL
MODEL 6
REMARK VINA RESULT:    -5.605      2.684      6.948
REMARK INTER + INTRA:          -7.013
REMARK INTER:                  -7.487
REMARK INTRA:                   0.475
REMARK UNBOUND:                -0.261
REMARK SMILES O=c1c(O)c(-c2ccc(O)c(O)c2)oc2cc(O)cc(O)c12
REMARK SMILES IDX 5 1 3 2 2 3 1 4 22 5 20 6 19 7 17 8 16 9 15 10 14 11 6 12
REMARK SMILES IDX 7 13 8 14 9 15 13 16 11 17 10 18 12 20 4 22 21 24 18 26
REMARK H PARENT 10 19 12 21 4 23 21 25 18 27
REMARK Flexibility Score: inf
ROOT
ATOM      1  C   UNL     1     -21.077  17.252  -2.203  1.00  0.00     0.180 A 
ATOM      2  C   UNL     1     -22.436  16.903  -2.302  1.00  0.00     0.208 A 
ATOM      3  C   UNL     1     -22.779  15.635  -2.796  1.00  0.00     0.238 A 
ATOM      4  O   UNL     1     -23.994  15.309  -2.831  1.00  0.00    -0.285 OA
ATOM      5  C   UNL     1     -21.761  14.736  -3.198  1.00  0.00     0.111 A 
ATOM      6  C   UNL     1     -21.996  13.442  -3.750  1.00  0.00     0.134 A 
ATOM      7  C   UNL     1     -20.913  12.587  -3.990  1.00  0.00     0.093 A 
ATOM      8  C   UNL     1     -19.602  13.003  -3.762  1.00  0.00     0.123 A 
ATOM      9  C   UNL     1     -19.358  14.289  -3.278  1.00  0.00     0.094 A 
ATOM     10  C   UNL     1     -20.419  15.152  -2.994  1.00  0.00     0.146 A 
ATOM     11  O   UNL     1     -20.145  16.363  -2.526  1.00  0.00    -0.452 OA
ENDROOT
BRANCH   1  12
ATOM     12  C   UNL     1     -20.638  18.580  -1.716  1.00  0.00     0.025 A 
ATOM     13  C   UNL     1     -19.266  18.868  -1.638  1.00  0.00     0.016 A 
ATOM     14  C   UNL     1     -18.830  20.121  -1.201  1.00  0.00     0.051 A 
ATOM     15  C   UNL     1     -19.755  21.109  -0.851  1.00  0.00     0.157 A 
ATOM     16  C   UNL     1     -21.568  19.581  -1.383  1.00  0.00     0.062 A 
ATOM     17  C   UNL     1     -21.131  20.841  -0.946  1.00  0.00     0.158 A 
BRANCH  15  18
ATOM     18  O   UNL     1     -19.290  22.350  -0.417  1.00  0.00    -0.504 OA
ATOM     19  H   UNL     1     -18.327  22.638  -0.544  1.00  0.00     0.293 HD
ENDBRANCH  15  18
BRANCH  17  20
ATOM     20  O   UNL     1     -22.059  21.826  -0.612  1.00  0.00    -0.504 OA
ATOM     21  H   UNL     1     -22.457  21.888   0.318  1.00  0.00     0.293 HD
ENDBRANCH  17  20
ENDBRANCH   1  12
BRANCH   2  22
ATOM     22  O   UNL     1     -23.423  17.797  -1.878  1.00  0.00    -0.502 OA
ATOM     23  H   UNL     1     -24.334  17.490  -1.560  1.00  0.00     0.293 HD
ENDBRANCH   2  22
BRANCH   6  24
ATOM     24  O   UNL     1     -23.261  12.960  -4.101  1.00  0.00    -0.507 OA
ATOM     25  H   UNL     1     -23.559  12.002  -4.000  1.00  0.00     0.293 HD
ENDBRANCH   6  24
BRANCH   8  26
ATOM     26  O   UNL     1     -18.548  12.132  -4.028  1.00  0.00    -0.508 OA
ATOM     27  H   UNL     1     -18.660  11.127  -3.955  1.00  0.00     0.293 HD
ENDBRANCH   8  26
TORSDOF 6
ENDMDL
MODEL 7
REMARK VINA RESULT:    -5.176      2.077      7.480
REMARK INTER + INTRA:          -6.496
REMARK INTER:                  -6.181
REMARK INTRA:                  -0.315
REMARK UNBOUND:                -0.261
REMARK SMILES O=c1c(O)c(-c2ccc(O)c(O)c2)oc2cc(O)cc(O)c12
REMARK SMILES IDX 5 1 3 2 2 3 1 4 22 5 20 6 19 7 17 8 16 9 15 10 14 11 6 12
REMARK SMILES IDX 7 13 8 14 9 15 13 16 11 17 10 18 12 20 4 22 21 24 18 26
REMARK H PARENT 10 19 12 21 4 23 21 25 18 27
REMARK Flexibility Score: inf
ROOT
ATOM      1  C   UNL     1     -19.017  15.193  -1.555  1.00  0.00     0.180 A 
ATOM      2  C   UNL     1     -18.447  14.847  -0.317  1.00  0.00     0.208 A 
ATOM      3  C   UNL     1     -17.356  13.963  -0.294  1.00  0.00     0.238 A 
ATOM      4  O   UNL     1     -16.816  13.699   0.812  1.00  0.00    -0.285 OA
ATOM      5  C   UNL     1     -16.859  13.425  -1.506  1.00  0.00     0.111 A 
ATOM      6  C   UNL     1     -15.785  12.491  -1.596  1.00  0.00     0.134 A 
ATOM      7  C   UNL     1     -15.291  12.126  -2.855  1.00  0.00     0.093 A 
ATOM      8  C   UNL     1     -15.874  12.610  -4.025  1.00  0.00     0.123 A 
ATOM      9  C   UNL     1     -16.963  13.479  -3.949  1.00  0.00     0.094 A 
ATOM     10  C   UNL     1     -17.456  13.889  -2.708  1.00  0.00     0.146 A 
ATOM     11  O   UNL     1     -18.487  14.724  -2.678  1.00  0.00    -0.452 OA
ENDROOT
BRANCH   1  12
ATOM     12  C   UNL     1     -20.185  16.099  -1.658  1.00  0.00     0.025 A 
ATOM     13  C   UNL     1     -21.479  15.579  -1.491  1.00  0.00     0.016 A 
ATOM     14  C   UNL     1     -22.593  16.418  -1.564  1.00  0.00     0.051 A 
ATOM     15  C   UNL     1     -22.433  17.789  -1.789  1.00  0.00     0.157 A 
ATOM     16  C   UNL     1     -20.024  17.481  -1.864  1.00  0.00     0.062 A 
ATOM     17  C   UNL     1     -21.142  18.325  -1.935  1.00  0.00     0.158 A 
BRANCH  15  18
ATOM     18  O   UNL     1     -23.564  18.601  -1.858  1.00  0.00    -0.504 OA
ATOM     19  H   UNL     1     -23.539  19.581  -1.602  1.00  0.00     0.293 HD
ENDBRANCH  15  18
BRANCH  17  20
ATOM     20  O   UNL     1     -20.974  19.692  -2.145  1.00  0.00    -0.504 OA
ATOM     21  H   UNL     1     -21.639  20.371  -1.791  1.00  0.00     0.293 HD
ENDBRANCH  17  20
ENDBRANCH   1  12
BRANCH   2  22
ATOM     22  O   UNL     1     -18.940  15.406   0.864  1.00  0.00    -0.502 OA
ATOM     23  H   UNL     1     -19.438  16.288   0.882  1.00  0.00     0.293 HD
ENDBRANCH   2  22
BRANCH   6  24
ATOM     24  O   UNL     1     -15.190  11.875  -0.491  1.00  0.00    -0.507 OA
ATOM     25  H   UNL     1     -15.694  11.495   0.296  1.00  0.00     0.293 HD
ENDBRANCH   6  24
BRANCH   8  26
ATOM     26  O   UNL     1     -15.366  12.215  -5.261  1.00  0.00    -0.508 OA
ATOM     27  H   UNL     1     -15.952  11.759  -5.953  1.00  0.00     0.293 HD
ENDBRANCH   8  26
TORSDOF 6
ENDMDL
MODEL 8
REMARK VINA RESULT:    -5.084      1.952      3.737
REMARK INTER + INTRA:          -6.385
REMARK INTER:                  -6.248
REMARK INTRA:                  -0.136
REMARK UNBOUND:                -0.261
REMARK SMILES O=c1c(O)c(-c2ccc(O)c(O)c2)oc2cc(O)cc(O)c12
REMARK SMILES IDX 5 1 3 2 2 3 1 4 22 5 20 6 19 7 17 8 16 9 15 10 14 11 6 12
REMARK SMILES IDX 7 13 8 14 9 15 13 16 11 17 10 18 12 20 4 22 21 24 18 26
REMARK H PARENT 10 19 12 21 4 23 21 25 18 27
REMARK Flexibility Score: inf
ROOT
ATOM      1  C   UNL     1     -21.264  16.312  -1.810  1.00  0.00     0.180 A 
ATOM      2  C   UNL     1     -22.472  15.843  -1.263  1.00  0.00     0.208 A 
ATOM      3  C   UNL     1     -23.335  16.755  -0.636  1.00  0.00     0.238 A 
ATOM      4  O   UNL     1     -24.439  16.339  -0.197  1.00  0.00    -0.285 OA
ATOM      5  C   UNL     1     -22.974  18.122  -0.551  1.00  0.00     0.111 A 
ATOM      6  C   UNL     1     -23.754  19.126   0.097  1.00  0.00     0.134 A 
ATOM      7  C   UNL     1     -23.363  20.468   0.007  1.00  0.00     0.093 A 
ATOM      8  C   UNL     1     -22.189  20.834  -0.649  1.00  0.00     0.123 A 
ATOM      9  C   UNL     1     -21.388  19.853  -1.235  1.00  0.00     0.094 A 
ATOM     10  C   UNL     1     -21.770  18.510  -1.193  1.00  0.00     0.146 A 
ATOM     11  O   UNL     1     -20.985  17.609  -1.772  1.00  0.00    -0.452 OA
ENDROOT
BRANCH   1  12
ATOM     12  C   UNL     1     -20.292  15.406  -2.464  1.00  0.00     0.025 A 
ATOM     13  C   UNL     1     -19.028  15.214  -1.882  1.00  0.00     0.016 A 
ATOM     14  C   UNL     1     -18.103  14.348  -2.470  1.00  0.00     0.051 A 
ATOM     15  C   UNL     1     -18.429  13.651  -3.638  1.00  0.00     0.157 A 
ATOM     16  C   UNL     1     -20.626  14.689  -3.627  1.00  0.00     0.062 A 
ATOM     17  C   UNL     1     -19.699  13.818  -4.217  1.00  0.00     0.158 A 
BRANCH  15  18
ATOM     18  O   UNL     1     -17.485  12.796  -4.203  1.00  0.00    -0.504 OA
ATOM     19  H   UNL     1     -17.039  12.998  -5.090  1.00  0.00     0.293 HD
ENDBRANCH  15  18
BRANCH  17  20
ATOM     20  O   UNL     1     -20.036  13.116  -5.373  1.00  0.00    -0.504 OA
ATOM     21  H   UNL     1     -20.827  13.384  -5.946  1.00  0.00     0.293 HD
ENDBRANCH  17  20
ENDBRANCH   1  12
BRANCH   2  22
ATOM     22  O   UNL     1     -22.818  14.494  -1.378  1.00  0.00    -0.502 OA
ATOM     23  H   UNL     1     -22.181  13.746  -1.132  1.00  0.00     0.293 HD
ENDBRANCH   2  22
BRANCH   6  24
ATOM     24  O   UNL     1     -24.896  18.858   0.858  1.00  0.00    -0.507 OA
ATOM     25  H   UNL     1     -25.001  18.071   1.480  1.00  0.00     0.293 HD
ENDBRANCH   6  24
BRANCH   8  26
ATOM     26  O   UNL     1     -21.823  22.177  -0.705  1.00  0.00    -0.508 OA
ATOM     27  H   UNL     1     -22.085  22.829   0.026  1.00  0.00     0.293 HD
ENDBRANCH   8  26
TORSDOF 6
ENDMDL
MODEL 9
REMARK VINA RESULT:    -5.029      2.418      2.747
REMARK INTER + INTRA:          -6.319
REMARK INTER:                  -6.784
REMARK INTRA:                   0.465
REMARK UNBOUND:                -0.261
REMARK SMILES O=c1c(O)c(-c2ccc(O)c(O)c2)oc2cc(O)cc(O)c12
REMARK SMILES IDX 5 1 3 2 2 3 1 4 22 5 20 6 19 7 17 8 16 9 15 10 14 11 6 12
REMARK SMILES IDX 7 13 8 14 9 15 13 16 11 17 10 18 12 20 4 22 21 24 18 26
REMARK H PARENT 10 19 12 21 4 23 21 25 18 27
REMARK Flexibility Score: inf
ROOT
ATOM      1  C   UNL     1     -21.109  17.099  -2.244  1.00  0.00     0.180 A 
ATOM      2  C   UNL     1     -19.938  17.872  -2.149  1.00  0.00     0.208 A 
ATOM      3  C   UNL     1     -20.020  19.168  -1.616  1.00  0.00     0.238 A 
ATOM      4  O   UNL     1     -18.960  19.834  -1.483  1.00  0.00    -0.285 OA
ATOM      5  C   UNL     1     -21.272  19.681  -1.199  1.00  0.00     0.111 A 
ATOM      6  C   UNL     1     -21.477  20.995  -0.683  1.00  0.00     0.134 A 
ATOM      7  C   UNL     1     -22.735  21.351  -0.180  1.00  0.00     0.093 A 
ATOM      8  C   UNL     1     -23.810  20.465  -0.236  1.00  0.00     0.123 A 
ATOM      9  C   UNL     1     -23.635  19.197  -0.794  1.00  0.00     0.094 A 
ATOM     10  C   UNL     1     -22.383  18.801  -1.271  1.00  0.00     0.146 A 
ATOM     11  O   UNL     1     -22.256  17.583  -1.784  1.00  0.00    -0.452 OA
ENDROOT
BRANCH   1  12
ATOM     12  C   UNL     1     -21.107  15.733  -2.818  1.00  0.00     0.025 A 
ATOM     13  C   UNL     1     -22.304  15.002  -2.864  1.00  0.00     0.016 A 
ATOM     14  C   UNL     1     -22.330  13.721  -3.420  1.00  0.00     0.051 A 
ATOM     15  C   UNL     1     -21.166  13.156  -3.951  1.00  0.00     0.157 A 
ATOM     16  C   UNL     1     -19.941  15.173  -3.371  1.00  0.00     0.062 A 
ATOM     17  C   UNL     1     -19.966  13.887  -3.932  1.00  0.00     0.158 A 
BRANCH  15  18
ATOM     18  O   UNL     1     -21.221  11.875  -4.497  1.00  0.00    -0.504 OA
ATOM     19  H   UNL     1     -21.308  11.047  -3.919  1.00  0.00     0.293 HD
ENDBRANCH  15  18
BRANCH  17  20
ATOM     20  O   UNL     1     -18.805  13.337  -4.472  1.00  0.00    -0.504 OA
ATOM     21  H   UNL     1     -18.611  12.344  -4.415  1.00  0.00     0.293 HD
ENDBRANCH  17  20
ENDBRANCH   1  12
BRANCH   2  22
ATOM     22  O   UNL     1     -18.710  17.337  -2.545  1.00  0.00    -0.502 OA
ATOM     23  H   UNL     1     -18.636  16.469  -3.063  1.00  0.00     0.293 HD
ENDBRANCH   2  22
BRANCH   6  24
ATOM     24  O   UNL     1     -20.494  21.989  -0.664  1.00  0.00    -0.507 OA
ATOM     25  H   UNL     1     -19.503  21.819  -0.744  1.00  0.00     0.293 HD
ENDBRANCH   6  24
BRANCH   8  26
ATOM     26  O   UNL     1     -25.051  20.858   0.259  1.00  0.00    -0.508 OA
ATOM     27  H   UNL     1     -25.176  21.116   1.231  1.00  0.00     0.293 HD
ENDBRANCH   8  26
TORSDOF 6
ENDMDL
