MODEL 1
REMARK VINA RESULT:    -4.039      0.000      0.000
REMARK INTER + INTRA:          -6.227
REMARK INTER:                  -5.691
REMARK INTRA:                  -0.535
REMARK UNBOUND:                -0.535
REMARK SMILES CCCCCCCCC(=O)[O-]
REMARK SMILES IDX 6 1 7 2 8 3 9 4 10 5 11 6 5 7 4 8 3 9 2 10 1 11
REMARK H PARENT
REMARK Flexibility Score: inf
ROOT
ATOM      1  C   UNL     1     -10.702 -25.735  28.097  1.00  0.00     0.000 C 
ENDROOT
BRANCH   1   2
ATOM      2  C   UNL     1      -9.244 -25.593  28.557  1.00  0.00     0.006 C 
BRANCH   2   3
ATOM      3  C   UNL     1      -8.418 -26.816  28.145  1.00  0.00     0.053 C 
BRANCH   3   4
ATOM      4  C   UNL     1      -7.354 -27.096  29.160  1.00  0.00     0.041 C 
ATOM      5  O   UNL     1      -6.171 -27.322  28.792  1.00  0.00    -0.550 OA
ATOM      6  O   UNL     1      -7.658 -27.061  30.515  1.00  0.00    -0.550 OA
ENDBRANCH   3   4
ENDBRANCH   2   3
ENDBRANCH   1   2
BRANCH   1   7
ATOM      7  C   UNL     1     -10.834 -26.483  26.761  1.00  0.00     0.000 C 
BRANCH   7   8
ATOM      8  C   UNL     1     -11.562 -25.653  25.690  1.00  0.00    -0.000 C 
BRANCH   8   9
ATOM      9  C   UNL     1     -10.813 -24.357  25.337  1.00  0.00    -0.000 C 
BRANCH   9  10
ATOM     10  C   UNL     1     -11.672 -23.100  25.542  1.00  0.00    -0.003 C 
ATOM     11  C   UNL     1     -11.075 -22.196  26.615  1.00  0.00     0.004 C 
ENDBRANCH   9  10
ENDBRANCH   8   9
ENDBRANCH   7   8
ENDBRANCH   1   7
TORSDOF 7
ENDMDL
MODEL 2
REMARK VINA RESULT:    -4.031      2.737      4.038
REMARK INTER + INTRA:          -6.216
REMARK INTER:                  -5.469
REMARK INTRA:                  -0.748
REMARK UNBOUND:                -0.535
REMARK SMILES CCCCCCCCC(=O)[O-]
REMARK SMILES IDX 6 1 7 2 8 3 9 4 10 5 11 6 5 7 4 8 3 9 2 10 1 11
REMARK H PARENT
REMARK Flexibility Score: inf
ROOT
ATOM      1  C   UNL     1      -8.609 -27.167  28.535  1.00  0.00     0.000 C 
ENDROOT
BRANCH   1   2
ATOM      2  C   UNL     1      -7.079 -27.192  28.662  1.00  0.00     0.006 C 
BRANCH   2   3
ATOM      3  C   UNL     1      -6.652 -27.259  30.131  1.00  0.00     0.053 C 
BRANCH   3   4
ATOM      4  C   UNL     1      -5.338 -26.571  30.327  1.00  0.00     0.041 C 
ATOM      5  O   UNL     1      -5.284 -25.466  30.928  1.00  0.00    -0.550 OA
ATOM      6  O   UNL     1      -4.165 -27.173  29.889  1.00  0.00    -0.550 OA
ENDBRANCH   3   4
ENDBRANCH   2   3
ENDBRANCH   1   2
BRANCH   1   7
ATOM      7  C   UNL     1      -9.147 -25.797  28.093  1.00  0.00     0.000 C 
BRANCH   7   8
ATOM      8  C   UNL     1      -9.939 -25.087  29.205  1.00  0.00    -0.000 C 
BRANCH   8   9
ATOM      9  C   UNL     1     -10.266 -26.019  30.384  1.00  0.00    -0.000 C 
BRANCH   9  10
ATOM     10  C   UNL     1      -9.708 -25.505  31.719  1.00  0.00    -0.003 C 
ATOM     11  C   UNL     1      -8.682 -24.399  31.495  1.00  0.00     0.004 C 
ENDBRANCH   9  10
ENDBRANCH   8   9
ENDBRANCH   7   8
ENDBRANCH   1   7
TORSDOF 7
ENDMDL
MODEL 3
REMARK VINA RESULT:    -3.990      1.562      1.973
REMARK INTER + INTRA:          -6.158
REMARK INTER:                  -5.586
REMARK INTRA:                  -0.572
REMARK UNBOUND:                -0.535
REMARK SMILES CCCCCCCCC(=O)[O-]
REMARK SMILES IDX 6 1 7 2 8 3 9 4 10 5 11 6 5 7 4 8 3 9 2 10 1 11
REMARK H PARENT
REMARK Flexibility Score: inf
ROOT
ATOM      1  C   UNL     1     -10.662 -27.094  28.537  1.00  0.00     0.000 C 
ENDROOT
BRANCH   1   2
ATOM      2  C   UNL     1     -10.691 -26.309  29.857  1.00  0.00     0.006 C 
BRANCH   2   3
ATOM      3  C   UNL     1      -9.892 -25.009  29.739  1.00  0.00     0.053 C 
BRANCH   3   4
ATOM      4  C   UNL     1      -8.636 -25.089  30.549  1.00  0.00     0.041 C 
ATOM      5  O   UNL     1      -7.700 -25.852  30.193  1.00  0.00    -0.550 OA
ATOM      6  O   UNL     1      -8.479 -24.285  31.671  1.00  0.00    -0.550 OA
ENDBRANCH   3   4
ENDBRANCH   2   3
ENDBRANCH   1   2
BRANCH   1   7
ATOM      7  C   UNL     1     -10.140 -26.256  27.359  1.00  0.00     0.000 C 
BRANCH   7   8
ATOM      8  C   UNL     1     -11.142 -26.188  26.194  1.00  0.00    -0.000 C 
BRANCH   8   9
ATOM      9  C   UNL     1     -11.151 -24.813  25.503  1.00  0.00    -0.000 C 
BRANCH   9  10
ATOM     10  C   UNL     1     -10.385 -23.745  26.297  1.00  0.00    -0.003 C 
ATOM     11  C   UNL     1     -11.193 -22.456  26.405  1.00  0.00     0.004 C 
ENDBRANCH   9  10
ENDBRANCH   8   9
ENDBRANCH   7   8
ENDBRANCH   1   7
TORSDOF 7
ENDMDL
MODEL 4
REMARK VINA RESULT:    -3.967      2.651      4.305
REMARK INTER + INTRA:          -6.125
REMARK INTER:                  -5.430
REMARK INTRA:                  -0.695
REMARK UNBOUND:                -0.535
REMARK SMILES CCCCCCCCC(=O)[O-]
REMARK SMILES IDX 6 1 7 2 8 3 9 4 10 5 11 6 5 7 4 8 3 9 2 10 1 11
REMARK H PARENT
REMARK Flexibility Score: inf
ROOT
ATOM      1  C   UNL     1      -9.158 -24.679  31.191  1.00  0.00     0.000 C 
ENDROOT
BRANCH   1   2
ATOM      2  C   UNL     1      -7.866 -25.351  31.678  1.00  0.00     0.006 C 
BRANCH   2   3
ATOM      3  C   UNL     1      -6.637 -24.527  31.282  1.00  0.00     0.053 C 
BRANCH   3   4
ATOM      4  C   UNL     1      -5.380 -25.237  31.677  1.00  0.00     0.041 C 
ATOM      5  O   UNL     1      -4.807 -24.955  32.762  1.00  0.00    -0.550 OA
ATOM      6  O   UNL     1      -4.867 -26.244  30.869  1.00  0.00    -0.550 OA
ENDBRANCH   3   4
ENDBRANCH   2   3
ENDBRANCH   1   2
BRANCH   1   7
ATOM      7  C   UNL     1     -10.039 -25.621  30.355  1.00  0.00     0.000 C 
BRANCH   7   8
ATOM      8  C   UNL     1     -10.211 -25.137  28.905  1.00  0.00    -0.000 C 
BRANCH   8   9
ATOM      9  C   UNL     1      -9.179 -25.758  27.949  1.00  0.00    -0.000 C 
BRANCH   9  10
ATOM     10  C   UNL     1      -8.755 -27.173  28.372  1.00  0.00    -0.003 C 
ATOM     11  C   UNL     1      -7.239 -27.274  28.503  1.00  0.00     0.004 C 
ENDBRANCH   9  10
ENDBRANCH   8   9
ENDBRANCH   7   8
ENDBRANCH   1   7
TORSDOF 7
ENDMDL
MODEL 5
REMARK VINA RESULT:    -3.957      2.880      4.597
REMARK INTER + INTRA:          -6.111
REMARK INTER:                  -5.451
REMARK INTRA:                  -0.660
REMARK UNBOUND:                -0.535
REMARK SMILES CCCCCCCCC(=O)[O-]
REMARK SMILES IDX 6 1 7 2 8 3 9 4 10 5 11 6 5 7 4 8 3 9 2 10 1 11
REMARK H PARENT
REMARK Flexibility Score: inf
ROOT
ATOM      1  C   UNL     1      -9.080 -25.817  28.569  1.00  0.00     0.000 C 
ENDROOT
BRANCH   1   2
ATOM      2  C   UNL     1      -8.551 -27.213  28.928  1.00  0.00     0.006 C 
BRANCH   2   3
ATOM      3  C   UNL     1      -7.020 -27.226  28.965  1.00  0.00     0.053 C 
BRANCH   3   4
ATOM      4  C   UNL     1      -6.529 -27.089  30.372  1.00  0.00     0.041 C 
ATOM      5  O   UNL     1      -6.833 -27.952  31.236  1.00  0.00    -0.550 OA
ATOM      6  O   UNL     1      -5.693 -26.034  30.717  1.00  0.00    -0.550 OA
ENDBRANCH   3   4
ENDBRANCH   2   3
ENDBRANCH   1   2
BRANCH   1   7
ATOM      7  C   UNL     1      -9.971 -25.217  29.668  1.00  0.00     0.000 C 
BRANCH   7   8
ATOM      8  C   UNL     1      -9.156 -24.604  30.819  1.00  0.00    -0.000 C 
BRANCH   8   9
ATOM      9  C   UNL     1      -9.368 -25.344  32.151  1.00  0.00    -0.000 C 
BRANCH   9  10
ATOM     10  C   UNL     1     -10.617 -26.238  32.141  1.00  0.00    -0.003 C 
ATOM     11  C   UNL     1     -11.415 -26.080  33.431  1.00  0.00     0.004 C 
ENDBRANCH   9  10
ENDBRANCH   8   9
ENDBRANCH   7   8
ENDBRANCH   1   7
TORSDOF 7
ENDMDL
MODEL 6
REMARK VINA RESULT:    -3.924      1.494      2.337
REMARK INTER + INTRA:          -6.065
REMARK INTER:                  -5.552
REMARK INTRA:                  -0.514
REMARK UNBOUND:                -0.535
REMARK SMILES CCCCCCCCC(=O)[O-]
REMARK SMILES IDX 6 1 7 2 8 3 9 4 10 5 11 6 5 7 4 8 3 9 2 10 1 11
REMARK H PARENT
REMARK Flexibility Score: inf
ROOT
ATOM      1  C   UNL     1      -8.521 -27.222  27.859  1.00  0.00     0.000 C 
ENDROOT
BRANCH   1   2
ATOM      2  C   UNL     1      -7.281 -27.208  28.764  1.00  0.00     0.006 C 
BRANCH   2   3
ATOM      3  C   UNL     1      -7.678 -27.065  30.236  1.00  0.00     0.053 C 
BRANCH   3   4
ATOM      4  C   UNL     1      -7.331 -25.700  30.743  1.00  0.00     0.041 C 
ATOM      5  O   UNL     1      -6.135 -25.407  31.004  1.00  0.00    -0.550 OA
ATOM      6  O   UNL     1      -8.322 -24.736  30.880  1.00  0.00    -0.550 OA
ENDBRANCH   3   4
ENDBRANCH   2   3
ENDBRANCH   1   2
BRANCH   1   7
ATOM      7  C   UNL     1      -9.837 -27.202  28.653  1.00  0.00     0.000 C 
BRANCH   7   8
ATOM      8  C   UNL     1     -10.712 -25.984  28.312  1.00  0.00    -0.000 C 
BRANCH   8   9
ATOM      9  C   UNL     1      -9.936 -24.891  27.557  1.00  0.00    -0.000 C 
BRANCH   9  10
ATOM     10  C   UNL     1     -10.678 -24.393  26.307  1.00  0.00    -0.003 C 
ATOM     11  C   UNL     1     -11.053 -22.921  26.443  1.00  0.00     0.004 C 
ENDBRANCH   9  10
ENDBRANCH   8   9
ENDBRANCH   7   8
ENDBRANCH   1   7
TORSDOF 7
ENDMDL
MODEL 7
REMARK VINA RESULT:    -3.915      3.212      5.151
REMARK INTER + INTRA:          -6.052
REMARK INTER:                  -5.293
REMARK INTRA:                  -0.759
REMARK UNBOUND:                -0.535
REMARK SMILES CCCCCCCCC(=O)[O-]
REMARK SMILES IDX 6 1 7 2 8 3 9 4 10 5 11 6 5 7 4 8 3 9 2 10 1 11
REMARK H PARENT
REMARK Flexibility Score: inf
ROOT
ATOM      1  C   UNL     1      -9.743 -27.322  28.045  1.00  0.00     0.000 C 
ENDROOT
BRANCH   1   2
ATOM      2  C   UNL     1     -10.710 -26.150  27.826  1.00  0.00     0.006 C 
BRANCH   2   3
ATOM      3  C   UNL     1      -9.959 -24.902  27.353  1.00  0.00     0.053 C 
BRANCH   3   4
ATOM      4  C   UNL     1     -10.656 -24.282  26.183  1.00  0.00     0.041 C 
ATOM      5  O   UNL     1     -10.905 -23.048  26.174  1.00  0.00    -0.550 OA
ATOM      6  O   UNL     1     -10.989 -25.059  25.080  1.00  0.00    -0.550 OA
ENDBRANCH   3   4
ENDBRANCH   2   3
ENDBRANCH   1   2
BRANCH   1   7
ATOM      7  C   UNL     1      -8.322 -26.862  28.409  1.00  0.00     0.000 C 
BRANCH   7   8
ATOM      8  C   UNL     1      -8.005 -27.051  29.902  1.00  0.00    -0.000 C 
BRANCH   8   9
ATOM      9  C   UNL     1      -7.649 -25.729  30.602  1.00  0.00    -0.000 C 
BRANCH   9  10
ATOM     10  C   UNL     1      -8.883 -24.863  30.898  1.00  0.00    -0.003 C 
ATOM     11  C   UNL     1      -9.964 -25.672  31.607  1.00  0.00     0.004 C 
ENDBRANCH   9  10
ENDBRANCH   8   9
ENDBRANCH   7   8
ENDBRANCH   1   7
TORSDOF 7
ENDMDL
MODEL 8
REMARK VINA RESULT:    -3.896      2.391      3.710
REMARK INTER + INTRA:          -6.025
REMARK INTER:                  -5.185
REMARK INTRA:                  -0.840
REMARK UNBOUND:                -0.535
REMARK SMILES CCCCCCCCC(=O)[O-]
REMARK SMILES IDX 6 1 7 2 8 3 9 4 10 5 11 6 5 7 4 8 3 9 2 10 1 11
REMARK H PARENT
REMARK Flexibility Score: inf
ROOT
ATOM      1  C   UNL     1      -9.615 -26.719  31.767  1.00  0.00     0.000 C 
ENDROOT
BRANCH   1   2
ATOM      2  C   UNL     1      -8.856 -27.970  31.299  1.00  0.00     0.006 C 
BRANCH   2   3
ATOM      3  C   UNL     1      -7.351 -27.820  31.540  1.00  0.00     0.053 C 
BRANCH   3   4
ATOM      4  C   UNL     1      -6.749 -26.891  30.533  1.00  0.00     0.041 C 
ATOM      5  O   UNL     1      -6.649 -27.241  29.327  1.00  0.00    -0.550 OA
ATOM      6  O   UNL     1      -6.340 -25.620  30.916  1.00  0.00    -0.550 OA
ENDBRANCH   3   4
ENDBRANCH   2   3
ENDBRANCH   1   2
BRANCH   1   7
ATOM      7  C   UNL     1     -10.523 -26.131  30.675  1.00  0.00     0.000 C 
BRANCH   7   8
ATOM      8  C   UNL     1      -9.819 -25.044  29.845  1.00  0.00    -0.000 C 
BRANCH   8   9
ATOM      9  C   UNL     1      -9.719 -25.413  28.355  1.00  0.00    -0.000 C 
BRANCH   9  10
ATOM     10  C   UNL     1     -10.386 -26.758  28.030  1.00  0.00    -0.003 C 
ATOM     11  C   UNL     1      -9.429 -27.677  27.278  1.00  0.00     0.004 C 
ENDBRANCH   9  10
ENDBRANCH   8   9
ENDBRANCH   7   8
ENDBRANCH   1   7
TORSDOF 7
ENDMDL
MODEL 9
REMARK VINA RESULT:    -3.877      2.816      5.401
REMARK INTER + INTRA:          -5.999
REMARK INTER:                  -5.216
REMARK INTRA:                  -0.783
REMARK UNBOUND:                -0.535
REMARK SMILES CCCCCCCCC(=O)[O-]
REMARK SMILES IDX 6 1 7 2 8 3 9 4 10 5 11 6 5 7 4 8 3 9 2 10 1 11
REMARK H PARENT
REMARK Flexibility Score: inf
ROOT
ATOM      1  C   UNL     1     -10.384 -26.001  31.216  1.00  0.00     0.000 C 
ENDROOT
BRANCH   1   2
ATOM      2  C   UNL     1     -10.524 -26.177  29.697  1.00  0.00     0.006 C 
BRANCH   2   3
ATOM      3  C   UNL     1      -9.982 -24.953  28.952  1.00  0.00     0.053 C 
BRANCH   3   4
ATOM      4  C   UNL     1      -9.978 -25.197  27.476  1.00  0.00     0.041 C 
ATOM      5  O   UNL     1     -10.007 -24.227  26.673  1.00  0.00    -0.550 OA
ATOM      6  O   UNL     1      -9.894 -26.494  26.985  1.00  0.00    -0.550 OA
ENDBRANCH   3   4
ENDBRANCH   2   3
ENDBRANCH   1   2
BRANCH   1   7
ATOM      7  C   UNL     1      -9.273 -25.012  31.601  1.00  0.00     0.000 C 
BRANCH   7   8
ATOM      8  C   UNL     1      -7.986 -25.718  32.060  1.00  0.00    -0.000 C 
BRANCH   8   9
ATOM      9  C   UNL     1      -6.922 -25.786  30.951  1.00  0.00    -0.000 C 
BRANCH   9  10
ATOM     10  C   UNL     1      -6.757 -27.199  30.373  1.00  0.00    -0.003 C 
ATOM     11  C   UNL     1      -6.979 -27.203  28.864  1.00  0.00     0.004 C 
ENDBRANCH   9  10
ENDBRANCH   8   9
ENDBRANCH   7   8
ENDBRANCH   1   7
TORSDOF 7
ENDMDL
