MODEL 1
REMARK VINA RESULT:    -6.804      0.000      0.000
REMARK INTER + INTRA:         -10.067
REMARK INTER:                  -8.992
REMARK INTRA:                  -1.074
REMARK UNBOUND:                -1.074
REMARK SMILES CC[C@H](C=C[C@H](C)[C@@H]1CC[C@@H]2C3=CC[C@H]4C[C@H](O)CC[C@@]4(C)[C@@H]3CC[C@@]21C)C(C)C
REMARK SMILES IDX 6 1 7 2 5 3 4 4 3 5 2 6 1 7 28 8 29 9 30 10 8 11 9 12 26 13
REMARK SMILES IDX 10 14 11 15 25 16 27 17 12 18 24 19 23 20 13 21 21 22 14 23
REMARK SMILES IDX 15 24 20 25 22 26 16 27 19 28 17 29 18 30
REMARK H PARENT 18 31
REMARK Flexibility Score: inf
ROOT
ATOM      1  C   UNL     1     122.152 119.107 117.684  1.00  0.00     0.012 C 
ATOM      2  C   UNL     1     123.014 117.838 117.577  1.00  0.00     0.012 C 
ENDROOT
BRANCH   1   3
ATOM      3  C   UNL     1     122.354 119.895 116.404  1.00  0.00    -0.028 C 
ATOM      4  C   UNL     1     123.167 119.461 115.424  1.00  0.00    -0.027 C 
BRANCH   4   5
ATOM      5  C   UNL     1     123.283 120.193 114.100  1.00  0.00     0.014 C 
BRANCH   5   6
ATOM      6  C   UNL     1     124.753 120.572 113.804  1.00  0.00     0.004 C 
ATOM      7  C   UNL     1     124.963 122.083 113.726  1.00  0.00     0.004 C 
ENDBRANCH   5   6
BRANCH   5   8
ATOM      8  C   UNL     1     122.647 119.381 112.928  1.00  0.00    -0.011 C 
ATOM      9  C   UNL     1     121.370 118.616 113.319  1.00  0.00     0.008 C 
ATOM     10  C   UNL     1     122.371 120.276 111.707  1.00  0.00     0.008 C 
ENDBRANCH   5   8
ENDBRANCH   4   5
ENDBRANCH   1   3
BRANCH   1  11
ATOM     11  C   UNL     1     120.638 118.759 117.929  1.00  0.00     0.002 C 
ATOM     12  C   UNL     1     119.645 119.372 116.924  1.00  0.00     0.005 C 
ATOM     13  C   UNL     1     120.020 119.132 119.313  1.00  0.00    -0.023 C 
ATOM     14  C   UNL     1     118.271 119.337 117.603  1.00  0.00     0.009 C 
ATOM     15  C   UNL     1     118.524 118.857 119.036  1.00  0.00     0.021 C 
ATOM     16  C   UNL     1     120.290 120.639 119.705  1.00  0.00     0.008 C 
ATOM     17  C   UNL     1     120.514 118.193 120.443  1.00  0.00     0.012 C 
ATOM     18  C   UNL     1     117.579 119.460 120.059  1.00  0.00    -0.067 C 
ATOM     19  C   UNL     1     119.055 121.489 120.050  1.00  0.00     0.009 C 
ATOM     20  C   UNL     1     117.967 120.717 120.822  1.00  0.00     0.021 C 
ATOM     21  C   UNL     1     116.485 118.770 120.431  1.00  0.00    -0.027 C 
ATOM     22  C   UNL     1     116.721 121.612 121.305  1.00  0.00    -0.023 C 
ATOM     23  C   UNL     1     115.574 119.314 121.487  1.00  0.00     0.031 C 
ATOM     24  C   UNL     1     115.362 120.808 121.209  1.00  0.00     0.002 C 
ATOM     25  C   UNL     1     117.003 122.043 122.784  1.00  0.00     0.010 C 
ATOM     26  C   UNL     1     116.557 122.891 120.432  1.00  0.00     0.012 C 
ATOM     27  C   UNL     1     114.204 121.394 122.055  1.00  0.00     0.036 C 
ATOM     28  C   UNL     1     115.805 122.675 123.494  1.00  0.00     0.032 C 
ATOM     29  C   UNL     1     114.615 121.716 123.496  1.00  0.00     0.114 C 
BRANCH  29  30
ATOM     30  O   UNL     1     113.546 122.318 124.174  1.00  0.00    -0.393 OA
ATOM     31  H   UNL     1     113.742 122.241 125.145  1.00  0.00     0.210 HD
ENDBRANCH  29  30
ENDBRANCH   1  11
TORSDOF 6
ENDMDL
MODEL 2
REMARK VINA RESULT:    -6.705      3.845     10.543
REMARK INTER + INTRA:          -9.935
REMARK INTER:                  -9.333
REMARK INTRA:                  -0.602
REMARK UNBOUND:                -1.074
REMARK SMILES CC[C@H](C=C[C@H](C)[C@@H]1CC[C@@H]2C3=CC[C@H]4C[C@H](O)CC[C@@]4(C)[C@@H]3CC[C@@]21C)C(C)C
REMARK SMILES IDX 6 1 7 2 5 3 4 4 3 5 2 6 1 7 28 8 29 9 30 10 8 11 9 12 26 13
REMARK SMILES IDX 10 14 11 15 25 16 27 17 12 18 24 19 23 20 13 21 21 22 14 23
REMARK SMILES IDX 15 24 20 25 22 26 16 27 19 28 17 29 18 30
REMARK H PARENT 18 31
REMARK Flexibility Score: inf
ROOT
ATOM      1  C   UNL     1     114.889 124.595 123.322  1.00  0.00     0.012 C 
ATOM      2  C   UNL     1     113.870 125.331 122.436  1.00  0.00     0.012 C 
ENDROOT
BRANCH   1   3
ATOM      3  C   UNL     1     114.610 125.000 124.757  1.00  0.00    -0.028 C 
ATOM      4  C   UNL     1     114.191 126.238 125.076  1.00  0.00    -0.027 C 
BRANCH   4   5
ATOM      5  C   UNL     1     113.806 126.610 126.496  1.00  0.00     0.014 C 
BRANCH   5   6
ATOM      6  C   UNL     1     114.935 127.412 127.183  1.00  0.00     0.004 C 
ATOM      7  C   UNL     1     116.209 127.468 126.343  1.00  0.00     0.004 C 
ENDBRANCH   5   6
BRANCH   5   8
ATOM      8  C   UNL     1     112.441 127.365 126.550  1.00  0.00    -0.011 C 
ATOM      9  C   UNL     1     112.312 128.338 127.735  1.00  0.00     0.008 C 
ATOM     10  C   UNL     1     112.151 128.103 125.230  1.00  0.00     0.008 C 
ENDBRANCH   5   8
ENDBRANCH   4   5
ENDBRANCH   1   3
BRANCH   1  11
ATOM     11  C   UNL     1     114.809 123.037 123.123  1.00  0.00     0.002 C 
ATOM     12  C   UNL     1     115.463 122.193 124.233  1.00  0.00     0.005 C 
ATOM     13  C   UNL     1     115.416 122.438 121.815  1.00  0.00    -0.023 C 
ATOM     14  C   UNL     1     115.714 120.807 123.626  1.00  0.00     0.009 C 
ATOM     15  C   UNL     1     115.350 120.928 122.142  1.00  0.00     0.021 C 
ATOM     16  C   UNL     1     116.894 122.933 121.557  1.00  0.00     0.008 C 
ATOM     17  C   UNL     1     114.533 122.733 120.577  1.00  0.00     0.012 C 
ATOM     18  C   UNL     1     116.197 120.056 121.233  1.00  0.00    -0.067 C 
ATOM     19  C   UNL     1     117.958 121.838 121.360  1.00  0.00     0.009 C 
ATOM     20  C   UNL     1     117.449 120.614 120.575  1.00  0.00     0.021 C 
ATOM     21  C   UNL     1     115.729 118.853 120.853  1.00  0.00    -0.027 C 
ATOM     22  C   UNL     1     118.573 119.512 120.245  1.00  0.00    -0.023 C 
ATOM     23  C   UNL     1     116.515 118.003 119.903  1.00  0.00     0.031 C 
ATOM     24  C   UNL     1     117.987 118.046 120.335  1.00  0.00     0.002 C 
ATOM     25  C   UNL     1     119.105 119.805 118.803  1.00  0.00     0.010 C 
ATOM     26  C   UNL     1     119.766 119.587 121.245  1.00  0.00     0.012 C 
ATOM     27  C   UNL     1     118.831 116.967 119.610  1.00  0.00     0.036 C 
ATOM     28  C   UNL     1     119.987 118.700 118.219  1.00  0.00     0.032 C 
ATOM     29  C   UNL     1     119.232 117.372 118.187  1.00  0.00     0.114 C 
BRANCH  29  30
ATOM     30  O   UNL     1     120.061 116.390 117.627  1.00  0.00    -0.393 OA
ATOM     31  H   UNL     1     119.473 115.783 117.103  1.00  0.00     0.210 HD
ENDBRANCH  29  30
ENDBRANCH   1  11
TORSDOF 6
ENDMDL
MODEL 3
REMARK VINA RESULT:    -6.635      4.097      9.663
REMARK INTER + INTRA:          -9.843
REMARK INTER:                  -8.592
REMARK INTRA:                  -1.251
REMARK UNBOUND:                -1.074
REMARK SMILES CC[C@H](C=C[C@H](C)[C@@H]1CC[C@@H]2C3=CC[C@H]4C[C@H](O)CC[C@@]4(C)[C@@H]3CC[C@@]21C)C(C)C
REMARK SMILES IDX 6 1 7 2 5 3 4 4 3 5 2 6 1 7 28 8 29 9 30 10 8 11 9 12 26 13
REMARK SMILES IDX 10 14 11 15 25 16 27 17 12 18 24 19 23 20 13 21 21 22 14 23
REMARK SMILES IDX 15 24 20 25 22 26 16 27 19 28 17 29 18 30
REMARK H PARENT 18 31
REMARK Flexibility Score: inf
ROOT
ATOM      1  C   UNL     1     115.220 123.423 124.287  1.00  0.00     0.012 C 
ATOM      2  C   UNL     1     114.988 124.890 124.685  1.00  0.00     0.012 C 
ENDROOT
BRANCH   1   3
ATOM      3  C   UNL     1     113.888 122.708 124.413  1.00  0.00    -0.028 C 
ATOM      4  C   UNL     1     113.809 121.372 124.548  1.00  0.00    -0.027 C 
BRANCH   4   5
ATOM      5  C   UNL     1     112.486 120.670 124.786  1.00  0.00     0.014 C 
BRANCH   5   6
ATOM      6  C   UNL     1     111.810 120.296 123.447  1.00  0.00     0.004 C 
ATOM      7  C   UNL     1     112.822 119.969 122.351  1.00  0.00     0.004 C 
ENDBRANCH   5   6
BRANCH   5   8
ATOM      8  C   UNL     1     112.643 119.432 125.723  1.00  0.00    -0.011 C 
ATOM      9  C   UNL     1     111.853 118.194 125.262  1.00  0.00     0.008 C 
ATOM     10  C   UNL     1     114.124 119.064 125.927  1.00  0.00     0.008 C 
ENDBRANCH   5   8
ENDBRANCH   4   5
ENDBRANCH   1   3
BRANCH   1  11
ATOM     11  C   UNL     1     115.819 123.304 122.838  1.00  0.00     0.002 C 
ATOM     12  C   UNL     1     114.792 123.081 121.713  1.00  0.00     0.005 C 
ATOM     13  C   UNL     1     116.881 122.191 122.578  1.00  0.00    -0.023 C 
ATOM     14  C   UNL     1     115.575 122.511 120.524  1.00  0.00     0.009 C 
ATOM     15  C   UNL     1     116.999 122.270 121.038  1.00  0.00     0.021 C 
ATOM     16  C   UNL     1     116.396 120.771 123.071  1.00  0.00     0.008 C 
ATOM     17  C   UNL     1     118.251 122.534 123.215  1.00  0.00     0.012 C 
ATOM     18  C   UNL     1     117.682 121.073 120.403  1.00  0.00    -0.067 C 
ATOM     19  C   UNL     1     116.420 119.638 122.029  1.00  0.00     0.009 C 
ATOM     20  C   UNL     1     117.623 119.706 121.068  1.00  0.00     0.021 C 
ATOM     21  C   UNL     1     118.507 121.265 119.357  1.00  0.00    -0.027 C 
ATOM     22  C   UNL     1     117.743 118.467 120.051  1.00  0.00    -0.023 C 
ATOM     23  C   UNL     1     119.245 120.109 118.755  1.00  0.00     0.031 C 
ATOM     24  C   UNL     1     118.267 118.933 118.633  1.00  0.00     0.002 C 
ATOM     25  C   UNL     1     118.730 117.433 120.690  1.00  0.00     0.010 C 
ATOM     26  C   UNL     1     116.367 117.773 119.823  1.00  0.00     0.012 C 
ATOM     27  C   UNL     1     118.840 117.796 117.750  1.00  0.00     0.036 C 
ATOM     28  C   UNL     1     119.171 116.315 119.743  1.00  0.00     0.032 C 
ATOM     29  C   UNL     1     119.834 116.899 118.497  1.00  0.00     0.114 C 
BRANCH  29  30
ATOM     30  O   UNL     1     120.245 115.847 117.665  1.00  0.00    -0.393 OA
ATOM     31  H   UNL     1     119.453 115.579 117.128  1.00  0.00     0.210 HD
ENDBRANCH  29  30
ENDBRANCH   1  11
TORSDOF 6
ENDMDL
MODEL 4
REMARK VINA RESULT:    -6.499      3.548      9.911
REMARK INTER + INTRA:          -9.664
REMARK INTER:                  -8.624
REMARK INTRA:                  -1.040
REMARK UNBOUND:                -1.074
REMARK SMILES CC[C@H](C=C[C@H](C)[C@@H]1CC[C@@H]2C3=CC[C@H]4C[C@H](O)CC[C@@]4(C)[C@@H]3CC[C@@]21C)C(C)C
REMARK SMILES IDX 6 1 7 2 5 3 4 4 3 5 2 6 1 7 28 8 29 9 30 10 8 11 9 12 26 13
REMARK SMILES IDX 10 14 11 15 25 16 27 17 12 18 24 19 23 20 13 21 21 22 14 23
REMARK SMILES IDX 15 24 20 25 22 26 16 27 19 28 17 29 18 30
REMARK H PARENT 18 31
REMARK Flexibility Score: inf
ROOT
ATOM      1  C   UNL     1     115.994 120.913 123.003  1.00  0.00     0.012 C 
ATOM      2  C   UNL     1     114.696 121.715 123.196  1.00  0.00     0.012 C 
ENDROOT
BRANCH   1   3
ATOM      3  C   UNL     1     116.019 119.838 124.074  1.00  0.00    -0.028 C 
ATOM      4  C   UNL     1     115.217 119.891 125.153  1.00  0.00    -0.027 C 
BRANCH   4   5
ATOM      5  C   UNL     1     115.162 118.762 126.164  1.00  0.00     0.014 C 
BRANCH   5   6
ATOM      6  C   UNL     1     116.035 119.084 127.400  1.00  0.00     0.004 C 
ATOM      7  C   UNL     1     116.624 117.830 128.043  1.00  0.00     0.004 C 
ENDBRANCH   5   6
BRANCH   5   8
ATOM      8  C   UNL     1     113.696 118.410 126.566  1.00  0.00    -0.011 C 
ATOM      9  C   UNL     1     113.252 119.017 127.908  1.00  0.00     0.008 C 
ATOM     10  C   UNL     1     112.699 118.798 125.458  1.00  0.00     0.008 C 
ENDBRANCH   5   8
ENDBRANCH   4   5
ENDBRANCH   1   3
BRANCH   1  11
ATOM     11  C   UNL     1     116.090 120.306 121.556  1.00  0.00     0.002 C 
ATOM     12  C   UNL     1     116.158 118.770 121.484  1.00  0.00     0.005 C 
ATOM     13  C   UNL     1     117.282 120.758 120.655  1.00  0.00    -0.023 C 
ATOM     14  C   UNL     1     116.733 118.429 120.104  1.00  0.00     0.009 C 
ATOM     15  C   UNL     1     117.133 119.769 119.476  1.00  0.00     0.021 C 
ATOM     16  C   UNL     1     118.675 120.615 121.385  1.00  0.00     0.008 C 
ATOM     17  C   UNL     1     117.101 122.207 120.135  1.00  0.00     0.012 C 
ATOM     18  C   UNL     1     118.352 119.683 118.577  1.00  0.00    -0.067 C 
ATOM     19  C   UNL     1     119.748 119.785 120.658  1.00  0.00     0.009 C 
ATOM     20  C   UNL     1     119.741 119.967 119.128  1.00  0.00     0.021 C 
ATOM     21  C   UNL     1     118.182 119.550 117.248  1.00  0.00    -0.027 C 
ATOM     22  C   UNL     1     120.930 119.210 118.355  1.00  0.00    -0.023 C 
ATOM     23  C   UNL     1     119.367 119.530 116.334  1.00  0.00     0.031 C 
ATOM     24  C   UNL     1     120.440 118.633 116.966  1.00  0.00     0.002 C 
ATOM     25  C   UNL     1     122.083 120.247 118.144  1.00  0.00     0.010 C 
ATOM     26  C   UNL     1     121.481 118.008 119.179  1.00  0.00     0.012 C 
ATOM     27  C   UNL     1     121.576 118.301 115.967  1.00  0.00     0.036 C 
ATOM     28  C   UNL     1     123.185 119.779 117.192  1.00  0.00     0.032 C 
ATOM     29  C   UNL     1     122.600 119.433 115.824  1.00  0.00     0.114 C 
BRANCH  29  30
ATOM     30  O   UNL     1     123.640 119.031 114.973  1.00  0.00    -0.393 OA
ATOM     31  H   UNL     1     124.208 119.831 114.815  1.00  0.00     0.210 HD
ENDBRANCH  29  30
ENDBRANCH   1  11
TORSDOF 6
ENDMDL
MODEL 5
REMARK VINA RESULT:    -6.419      4.867     11.187
REMARK INTER + INTRA:          -9.557
REMARK INTER:                  -8.458
REMARK INTRA:                  -1.100
REMARK UNBOUND:                -1.074
REMARK SMILES CC[C@H](C=C[C@H](C)[C@@H]1CC[C@@H]2C3=CC[C@H]4C[C@H](O)CC[C@@]4(C)[C@@H]3CC[C@@]21C)C(C)C
REMARK SMILES IDX 6 1 7 2 5 3 4 4 3 5 2 6 1 7 28 8 29 9 30 10 8 11 9 12 26 13
REMARK SMILES IDX 10 14 11 15 25 16 27 17 12 18 24 19 23 20 13 21 21 22 14 23
REMARK SMILES IDX 15 24 20 25 22 26 16 27 19 28 17 29 18 30
REMARK H PARENT 18 31
REMARK Flexibility Score: inf
ROOT
ATOM      1  C   UNL     1     115.227 126.164 125.036  1.00  0.00     0.012 C 
ATOM      2  C   UNL     1     115.920 127.523 125.237  1.00  0.00     0.012 C 
ENDROOT
BRANCH   1   3
ATOM      3  C   UNL     1     113.767 126.348 125.406  1.00  0.00    -0.028 C 
ATOM      4  C   UNL     1     113.205 127.567 125.497  1.00  0.00    -0.027 C 
BRANCH   4   5
ATOM      5  C   UNL     1     111.722 127.745 125.757  1.00  0.00     0.014 C 
BRANCH   5   6
ATOM      6  C   UNL     1     111.462 128.146 127.227  1.00  0.00     0.004 C 
ATOM      7  C   UNL     1     112.754 128.340 128.018  1.00  0.00     0.004 C 
ENDBRANCH   5   6
BRANCH   5   8
ATOM      8  C   UNL     1     111.072 128.753 124.757  1.00  0.00    -0.011 C 
ATOM      9  C   UNL     1     110.875 130.166 125.334  1.00  0.00     0.008 C 
ATOM     10  C   UNL     1     111.863 128.829 123.439  1.00  0.00     0.008 C 
ENDBRANCH   5   8
ENDBRANCH   4   5
ENDBRANCH   1   3
BRANCH   1  11
ATOM     11  C   UNL     1     115.401 125.638 123.565  1.00  0.00     0.002 C 
ATOM     12  C   UNL     1     114.119 125.114 122.892  1.00  0.00     0.005 C 
ATOM     13  C   UNL     1     116.428 124.488 123.320  1.00  0.00    -0.023 C 
ATOM     14  C   UNL     1     114.577 124.226 121.728  1.00  0.00     0.009 C 
ATOM     15  C   UNL     1     116.102 124.129 121.852  1.00  0.00     0.021 C 
ATOM     16  C   UNL     1     116.209 123.268 124.299  1.00  0.00     0.008 C 
ATOM     17  C   UNL     1     117.892 124.987 123.412  1.00  0.00     0.012 C 
ATOM     18  C   UNL     1     116.667 122.796 121.395  1.00  0.00    -0.067 C 
ATOM     19  C   UNL     1     116.025 121.888 123.643  1.00  0.00     0.009 C 
ATOM     20  C   UNL     1     116.901 121.673 122.394  1.00  0.00     0.021 C 
ATOM     21  C   UNL     1     117.147 122.680 120.143  1.00  0.00    -0.027 C 
ATOM     22  C   UNL     1     116.822 120.196 121.762  1.00  0.00    -0.023 C 
ATOM     23  C   UNL     1     117.771 121.396 119.691  1.00  0.00     0.031 C 
ATOM     24  C   UNL     1     116.889 120.240 120.183  1.00  0.00     0.002 C 
ATOM     25  C   UNL     1     118.023 119.377 122.342  1.00  0.00     0.010 C 
ATOM     26  C   UNL     1     115.494 119.477 122.142  1.00  0.00     0.012 C 
ATOM     27  C   UNL     1     117.276 118.896 119.515  1.00  0.00     0.036 C 
ATOM     28  C   UNL     1     118.263 118.035 121.650  1.00  0.00     0.032 C 
ATOM     29  C   UNL     1     118.503 118.238 120.155  1.00  0.00     0.114 C 
BRANCH  29  30
ATOM     30  O   UNL     1     118.742 116.992 119.558  1.00  0.00    -0.393 OA
ATOM     31  H   UNL     1     117.856 116.621 119.303  1.00  0.00     0.210 HD
ENDBRANCH  29  30
ENDBRANCH   1  11
TORSDOF 6
ENDMDL
MODEL 6
REMARK VINA RESULT:    -6.395      4.010      9.780
REMARK INTER + INTRA:          -9.526
REMARK INTER:                  -8.390
REMARK INTRA:                  -1.136
REMARK UNBOUND:                -1.074
REMARK SMILES CC[C@H](C=C[C@H](C)[C@@H]1CC[C@@H]2C3=CC[C@H]4C[C@H](O)CC[C@@]4(C)[C@@H]3CC[C@@]21C)C(C)C
REMARK SMILES IDX 6 1 7 2 5 3 4 4 3 5 2 6 1 7 28 8 29 9 30 10 8 11 9 12 26 13
REMARK SMILES IDX 10 14 11 15 25 16 27 17 12 18 24 19 23 20 13 21 21 22 14 23
REMARK SMILES IDX 15 24 20 25 22 26 16 27 19 28 17 29 18 30
REMARK H PARENT 18 31
REMARK Flexibility Score: inf
ROOT
ATOM      1  C   UNL     1     114.505 122.173 121.946  1.00  0.00     0.012 C 
ATOM      2  C   UNL     1     113.497 122.900 121.040  1.00  0.00     0.012 C 
ENDROOT
BRANCH   1   3
ATOM      3  C   UNL     1     113.704 121.338 122.927  1.00  0.00    -0.028 C 
ATOM      4  C   UNL     1     113.967 121.346 124.246  1.00  0.00    -0.027 C 
BRANCH   4   5
ATOM      5  C   UNL     1     113.096 120.599 125.239  1.00  0.00     0.014 C 
BRANCH   5   6
ATOM      6  C   UNL     1     111.745 120.202 124.600  1.00  0.00     0.004 C 
ATOM      7  C   UNL     1     111.673 118.714 124.261  1.00  0.00     0.004 C 
ENDBRANCH   5   6
BRANCH   5   8
ATOM      8  C   UNL     1     113.834 119.367 125.849  1.00  0.00    -0.011 C 
ATOM      9  C   UNL     1     115.367 119.439 125.739  1.00  0.00     0.008 C 
ATOM     10  C   UNL     1     113.423 119.132 127.314  1.00  0.00     0.008 C 
ENDBRANCH   5   8
ENDBRANCH   4   5
ENDBRANCH   1   3
BRANCH   1  11
ATOM     11  C   UNL     1     115.509 121.299 121.109  1.00  0.00     0.002 C 
ATOM     12  C   UNL     1     115.812 119.903 121.685  1.00  0.00     0.005 C 
ATOM     13  C   UNL     1     116.929 121.886 120.831  1.00  0.00    -0.023 C 
ATOM     14  C   UNL     1     117.125 119.447 121.036  1.00  0.00     0.009 C 
ATOM     15  C   UNL     1     117.631 120.648 120.228  1.00  0.00     0.021 C 
ATOM     16  C   UNL     1     117.636 122.395 122.149  1.00  0.00     0.008 C 
ATOM     17  C   UNL     1     116.893 123.020 119.776  1.00  0.00     0.012 C 
ATOM     18  C   UNL     1     119.144 120.753 120.175  1.00  0.00    -0.067 C 
ATOM     19  C   UNL     1     119.031 121.817 122.444  1.00  0.00     0.009 C 
ATOM     20  C   UNL     1     119.895 121.607 121.186  1.00  0.00     0.021 C 
ATOM     21  C   UNL     1     119.801 120.252 119.114  1.00  0.00    -0.027 C 
ATOM     22  C   UNL     1     121.401 121.122 121.476  1.00  0.00    -0.023 C 
ATOM     23  C   UNL     1     121.287 120.403 119.006  1.00  0.00     0.031 C 
ATOM     24  C   UNL     1     121.897 120.095 120.380  1.00  0.00     0.002 C 
ATOM     25  C   UNL     1     122.307 122.398 121.485  1.00  0.00     0.010 C 
ATOM     26  C   UNL     1     121.522 120.410 122.856  1.00  0.00     0.012 C 
ATOM     27  C   UNL     1     123.435 119.925 120.303  1.00  0.00     0.036 C 
ATOM     28  C   UNL     1     123.809 122.104 121.481  1.00  0.00     0.032 C 
ATOM     29  C   UNL     1     124.186 121.261 120.264  1.00  0.00     0.114 C 
BRANCH  29  30
ATOM     30  O   UNL     1     125.569 121.031 120.281  1.00  0.00    -0.393 OA
ATOM     31  H   UNL     1     126.004 121.909 120.450  1.00  0.00     0.210 HD
ENDBRANCH  29  30
ENDBRANCH   1  11
TORSDOF 6
ENDMDL
MODEL 7
REMARK VINA RESULT:    -6.369      2.371      4.080
REMARK INTER + INTRA:          -9.491
REMARK INTER:                  -8.160
REMARK INTRA:                  -1.331
REMARK UNBOUND:                -1.074
REMARK SMILES CC[C@H](C=C[C@H](C)[C@@H]1CC[C@@H]2C3=CC[C@H]4C[C@H](O)CC[C@@]4(C)[C@@H]3CC[C@@]21C)C(C)C
REMARK SMILES IDX 6 1 7 2 5 3 4 4 3 5 2 6 1 7 28 8 29 9 30 10 8 11 9 12 26 13
REMARK SMILES IDX 10 14 11 15 25 16 27 17 12 18 24 19 23 20 13 21 21 22 14 23
REMARK SMILES IDX 15 24 20 25 22 26 16 27 19 28 17 29 18 30
REMARK H PARENT 18 31
REMARK Flexibility Score: inf
ROOT
ATOM      1  C   UNL     1     125.382 118.082 116.382  1.00  0.00     0.012 C 
ATOM      2  C   UNL     1     126.649 117.228 116.210  1.00  0.00     0.012 C 
ENDROOT
BRANCH   1   3
ATOM      3  C   UNL     1     125.307 119.017 115.190  1.00  0.00    -0.028 C 
ATOM      4  C   UNL     1     125.160 120.346 115.338  1.00  0.00    -0.027 C 
BRANCH   4   5
ATOM      5  C   UNL     1     125.197 121.291 114.152  1.00  0.00     0.014 C 
BRANCH   5   6
ATOM      6  C   UNL     1     126.531 122.071 114.108  1.00  0.00     0.004 C 
ATOM      7  C   UNL     1     127.298 121.995 115.427  1.00  0.00     0.004 C 
ENDBRANCH   5   6
BRANCH   5   8
ATOM      8  C   UNL     1     124.913 120.550 112.808  1.00  0.00    -0.011 C 
ATOM      9  C   UNL     1     123.632 121.018 112.094  1.00  0.00     0.008 C 
ATOM     10  C   UNL     1     126.113 120.644 111.848  1.00  0.00     0.008 C 
ENDBRANCH   5   8
ENDBRANCH   4   5
ENDBRANCH   1   3
BRANCH   1  11
ATOM     11  C   UNL     1     124.095 117.188 116.513  1.00  0.00     0.002 C 
ATOM     12  C   UNL     1     123.163 117.183 115.288  1.00  0.00     0.005 C 
ATOM     13  C   UNL     1     123.124 117.481 117.700  1.00  0.00    -0.023 C 
ATOM     14  C   UNL     1     121.799 116.694 115.788  1.00  0.00     0.009 C 
ATOM     15  C   UNL     1     121.928 116.580 117.311  1.00  0.00     0.021 C 
ATOM     16  C   UNL     1     122.723 119.006 117.785  1.00  0.00     0.008 C 
ATOM     17  C   UNL     1     123.703 117.007 119.056  1.00  0.00     0.012 C 
ATOM     18  C   UNL     1     120.644 116.892 118.058  1.00  0.00    -0.067 C 
ATOM     19  C   UNL     1     121.216 119.320 117.787  1.00  0.00     0.009 C 
ATOM     20  C   UNL     1     120.371 118.297 118.572  1.00  0.00     0.021 C 
ATOM     21  C   UNL     1     119.841 115.881 118.437  1.00  0.00    -0.027 C 
ATOM     22  C   UNL     1     118.811 118.668 118.696  1.00  0.00    -0.023 C 
ATOM     23  C   UNL     1     118.603 116.158 119.233  1.00  0.00     0.031 C 
ATOM     24  C   UNL     1     117.903 117.375 118.614  1.00  0.00     0.002 C 
ATOM     25  C   UNL     1     118.613 119.393 120.069  1.00  0.00     0.010 C 
ATOM     26  C   UNL     1     118.352 119.621 117.554  1.00  0.00     0.012 C 
ATOM     27  C   UNL     1     116.468 117.557 119.167  1.00  0.00     0.036 C 
ATOM     28  C   UNL     1     117.150 119.581 120.477  1.00  0.00     0.032 C 
ATOM     29  C   UNL     1     116.435 118.232 120.543  1.00  0.00     0.114 C 
BRANCH  29  30
ATOM     30  O   UNL     1     115.107 118.440 120.942  1.00  0.00    -0.393 OA
ATOM     31  H   UNL     1     114.696 117.542 121.054  1.00  0.00     0.210 HD
ENDBRANCH  29  30
ENDBRANCH   1  11
TORSDOF 6
ENDMDL
MODEL 8
REMARK VINA RESULT:    -6.336      1.460      1.964
REMARK INTER + INTRA:          -9.448
REMARK INTER:                  -8.246
REMARK INTRA:                  -1.202
REMARK UNBOUND:                -1.074
REMARK SMILES CC[C@H](C=C[C@H](C)[C@@H]1CC[C@@H]2C3=CC[C@H]4C[C@H](O)CC[C@@]4(C)[C@@H]3CC[C@@]21C)C(C)C
REMARK SMILES IDX 6 1 7 2 5 3 4 4 3 5 2 6 1 7 28 8 29 9 30 10 8 11 9 12 26 13
REMARK SMILES IDX 10 14 11 15 25 16 27 17 12 18 24 19 23 20 13 21 21 22 14 23
REMARK SMILES IDX 15 24 20 25 22 26 16 27 19 28 17 29 18 30
REMARK H PARENT 18 31
REMARK Flexibility Score: inf
ROOT
ATOM      1  C   UNL     1     121.722 119.009 118.765  1.00  0.00     0.012 C 
ATOM      2  C   UNL     1     122.223 117.561 118.628  1.00  0.00     0.012 C 
ENDROOT
BRANCH   1   3
ATOM      3  C   UNL     1     122.145 119.749 117.510  1.00  0.00    -0.028 C 
ATOM      4  C   UNL     1     122.451 119.100 116.372  1.00  0.00    -0.027 C 
BRANCH   4   5
ATOM      5  C   UNL     1     122.765 119.844 115.088  1.00  0.00     0.014 C 
BRANCH   5   6
ATOM      6  C   UNL     1     124.233 119.614 114.660  1.00  0.00     0.004 C 
ATOM      7  C   UNL     1     124.793 118.290 115.176  1.00  0.00     0.004 C 
ENDBRANCH   5   6
BRANCH   5   8
ATOM      8  C   UNL     1     121.765 119.483 113.945  1.00  0.00    -0.011 C 
ATOM      9  C   UNL     1     122.345 119.650 112.530  1.00  0.00     0.008 C 
ATOM     10  C   UNL     1     121.202 118.060 114.117  1.00  0.00     0.008 C 
ENDBRANCH   5   8
ENDBRANCH   4   5
ENDBRANCH   1   3
BRANCH   1  11
ATOM     11  C   UNL     1     120.167 119.065 118.987  1.00  0.00     0.002 C 
ATOM     12  C   UNL     1     119.346 119.602 117.800  1.00  0.00     0.005 C 
ATOM     13  C   UNL     1     119.634 119.898 120.195  1.00  0.00    -0.023 C 
ATOM     14  C   UNL     1     117.992 120.033 118.374  1.00  0.00     0.009 C 
ATOM     15  C   UNL     1     118.117 119.887 119.895  1.00  0.00     0.021 C 
ATOM     16  C   UNL     1     120.228 121.361 120.225  1.00  0.00     0.008 C 
ATOM     17  C   UNL     1     119.894 119.191 121.549  1.00  0.00     0.012 C 
ATOM     18  C   UNL     1     117.319 120.916 120.675  1.00  0.00    -0.067 C 
ATOM     19  C   UNL     1     119.210 122.514 120.270  1.00  0.00     0.009 C 
ATOM     20  C   UNL     1     117.970 122.212 121.133  1.00  0.00     0.021 C 
ATOM     21  C   UNL     1     116.096 120.592 121.131  1.00  0.00    -0.027 C 
ATOM     22  C   UNL     1     116.950 123.444 121.300  1.00  0.00    -0.023 C 
ATOM     23  C   UNL     1     115.317 121.565 121.961  1.00  0.00     0.031 C 
ATOM     24  C   UNL     1     115.447 122.951 121.313  1.00  0.00     0.002 C 
ATOM     25  C   UNL     1     117.305 124.163 122.645  1.00  0.00     0.010 C 
ATOM     26  C   UNL     1     117.084 124.466 120.134  1.00  0.00     0.012 C 
ATOM     27  C   UNL     1     114.439 123.964 121.913  1.00  0.00     0.036 C 
ATOM     28  C   UNL     1     116.271 125.194 123.100  1.00  0.00     0.032 C 
ATOM     29  C   UNL     1     114.897 124.543 123.256  1.00  0.00     0.114 C 
BRANCH  29  30
ATOM     30  O   UNL     1     113.982 125.511 123.695  1.00  0.00    -0.393 OA
ATOM     31  H   UNL     1     114.408 125.983 124.459  1.00  0.00     0.210 HD
ENDBRANCH  29  30
ENDBRANCH   1  11
TORSDOF 6
ENDMDL
MODEL 9
REMARK VINA RESULT:    -6.200      3.902      9.780
REMARK INTER + INTRA:          -9.268
REMARK INTER:                  -8.003
REMARK INTRA:                  -1.265
REMARK UNBOUND:                -1.074
REMARK SMILES CC[C@H](C=C[C@H](C)[C@@H]1CC[C@@H]2C3=CC[C@H]4C[C@H](O)CC[C@@]4(C)[C@@H]3CC[C@@]21C)C(C)C
REMARK SMILES IDX 6 1 7 2 5 3 4 4 3 5 2 6 1 7 28 8 29 9 30 10 8 11 9 12 26 13
REMARK SMILES IDX 10 14 11 15 25 16 27 17 12 18 24 19 23 20 13 21 21 22 14 23
REMARK SMILES IDX 15 24 20 25 22 26 16 27 19 28 17 29 18 30
REMARK H PARENT 18 31
REMARK Flexibility Score: inf
ROOT
ATOM      1  C   UNL     1     119.050 118.958 118.480  1.00  0.00     0.012 C 
ATOM      2  C   UNL     1     118.408 117.905 119.399  1.00  0.00     0.012 C 
ENDROOT
BRANCH   1   3
ATOM      3  C   UNL     1     118.289 120.255 118.685  1.00  0.00    -0.028 C 
ATOM      4  C   UNL     1     117.744 120.578 119.872  1.00  0.00    -0.027 C 
BRANCH   4   5
ATOM      5  C   UNL     1     117.082 121.922 120.107  1.00  0.00     0.014 C 
BRANCH   5   6
ATOM      6  C   UNL     1     115.948 121.804 121.151  1.00  0.00     0.004 C 
ATOM      7  C   UNL     1     115.997 120.488 121.923  1.00  0.00     0.004 C 
ENDBRANCH   5   6
BRANCH   5   8
ATOM      8  C   UNL     1     118.118 123.022 120.497  1.00  0.00    -0.011 C 
ATOM      9  C   UNL     1     117.482 124.352 120.939  1.00  0.00     0.008 C 
ATOM     10  C   UNL     1     119.092 122.521 121.579  1.00  0.00     0.008 C 
ENDBRANCH   5   8
ENDBRANCH   4   5
ENDBRANCH   1   3
BRANCH   1  11
ATOM     11  C   UNL     1     120.586 119.123 118.772  1.00  0.00     0.002 C 
ATOM     12  C   UNL     1     121.063 120.565 119.021  1.00  0.00     0.005 C 
ATOM     13  C   UNL     1     121.591 118.595 117.700  1.00  0.00    -0.023 C 
ATOM     14  C   UNL     1     122.578 120.563 118.787  1.00  0.00     0.009 C 
ATOM     15  C   UNL     1     122.917 119.166 118.255  1.00  0.00     0.021 C 
ATOM     16  C   UNL     1     121.265 119.134 116.252  1.00  0.00     0.008 C 
ATOM     17  C   UNL     1     121.666 117.047 117.686  1.00  0.00     0.012 C 
ATOM     18  C   UNL     1     124.065 119.152 117.263  1.00  0.00    -0.067 C 
ATOM     19  C   UNL     1     122.408 119.855 115.516  1.00  0.00     0.009 C 
ATOM     20  C   UNL     1     123.796 119.235 115.768  1.00  0.00     0.021 C 
ATOM     21  C   UNL     1     125.307 118.866 117.697  1.00  0.00    -0.027 C 
ATOM     22  C   UNL     1     124.991 119.888 114.913  1.00  0.00    -0.023 C 
ATOM     23  C   UNL     1     126.444 118.781 116.727  1.00  0.00     0.031 C 
ATOM     24  C   UNL     1     126.328 119.961 115.754  1.00  0.00     0.002 C 
ATOM     25  C   UNL     1     125.190 119.003 113.638  1.00  0.00     0.010 C 
ATOM     26  C   UNL     1     124.653 121.341 114.467  1.00  0.00     0.012 C 
ATOM     27  C   UNL     1     127.615 120.139 114.908  1.00  0.00     0.036 C 
ATOM     28  C   UNL     1     126.458 119.318 112.843  1.00  0.00     0.032 C 
ATOM     29  C   UNL     1     127.695 119.166 113.726  1.00  0.00     0.114 C 
BRANCH  29  30
ATOM     30  O   UNL     1     128.837 119.440 112.960  1.00  0.00    -0.393 OA
ATOM     31  H   UNL     1     129.437 118.653 113.047  1.00  0.00     0.210 HD
ENDBRANCH  29  30
ENDBRANCH   1  11
TORSDOF 6
ENDMDL
