MODEL 1
REMARK VINA RESULT:    -4.899      0.000      0.000
REMARK INTER + INTRA:          -8.378
REMARK INTER:                  -7.477
REMARK INTRA:                  -0.901
REMARK UNBOUND:                -0.901
REMARK SMILES CCCCCCCCCCC(=O)[O-]
REMARK SMILES IDX 7 1 8 2 9 3 10 4 11 5 12 6 13 7 6 8 5 9 4 10 3 11 2 12 1 13
REMARK H PARENT
REMARK Flexibility Score: inf
ROOT
ATOM      1  C   UNL     1      21.470   5.925  -9.924  1.00  0.00     0.000 C 
ENDROOT
BRANCH   1   2
ATOM      2  C   UNL     1      21.690   7.124 -10.859  1.00  0.00     0.000 C 
BRANCH   2   3
ATOM      3  C   UNL     1      22.140   6.702 -12.269  1.00  0.00     0.006 C 
BRANCH   3   4
ATOM      4  C   UNL     1      21.846   5.222 -12.552  1.00  0.00     0.053 C 
BRANCH   4   5
ATOM      5  C   UNL     1      20.575   5.046 -13.326  1.00  0.00     0.041 C 
ATOM      6  O   UNL     1      20.247   3.906 -13.750  1.00  0.00    -0.550 OA
ATOM      7  O   UNL     1      19.774   6.143 -13.609  1.00  0.00    -0.550 OA
ENDBRANCH   4   5
ENDBRANCH   3   4
ENDBRANCH   2   3
ENDBRANCH   1   2
BRANCH   1   8
ATOM      8  C   UNL     1      20.076   5.931  -9.274  1.00  0.00     0.000 C 
BRANCH   8   9
ATOM      9  C   UNL     1      19.073   6.812 -10.037  1.00  0.00    -0.000 C 
BRANCH   9  10
ATOM     10  C   UNL     1      17.984   5.992 -10.751  1.00  0.00    -0.000 C 
BRANCH  10  11
ATOM     11  C   UNL     1      18.302   4.489 -10.779  1.00  0.00    -0.000 C 
BRANCH  11  12
ATOM     12  C   UNL     1      17.036   3.619 -10.752  1.00  0.00    -0.003 C 
ATOM     13  C   UNL     1      15.777   4.481 -10.758  1.00  0.00     0.004 C 
ENDBRANCH  11  12
ENDBRANCH  10  11
ENDBRANCH   9  10
ENDBRANCH   8   9
ENDBRANCH   1   8
TORSDOF 9
ENDMDL
MODEL 2
REMARK VINA RESULT:    -4.662      1.955      4.049
REMARK INTER + INTRA:          -8.016
REMARK INTER:                  -6.967
REMARK INTRA:                  -1.049
REMARK UNBOUND:                -0.901
REMARK SMILES CCCCCCCCCCC(=O)[O-]
REMARK SMILES IDX 7 1 8 2 9 3 10 4 11 5 12 6 13 7 6 8 5 9 4 10 3 11 2 12 1 13
REMARK H PARENT
REMARK Flexibility Score: inf
ROOT
ATOM      1  C   UNL     1      20.271   5.877  -9.320  1.00  0.00     0.000 C 
ENDROOT
BRANCH   1   2
ATOM      2  C   UNL     1      19.367   6.933  -9.973  1.00  0.00     0.000 C 
BRANCH   2   3
ATOM      3  C   UNL     1      18.229   6.310 -10.801  1.00  0.00     0.006 C 
BRANCH   3   4
ATOM      4  C   UNL     1      18.335   4.781 -10.872  1.00  0.00     0.053 C 
BRANCH   4   5
ATOM      5  C   UNL     1      16.995   4.124 -10.740  1.00  0.00     0.041 C 
ATOM      6  O   UNL     1      16.853   2.909 -11.042  1.00  0.00    -0.550 OA
ATOM      7  O   UNL     1      15.896   4.861 -10.319  1.00  0.00    -0.550 OA
ENDBRANCH   4   5
ENDBRANCH   3   4
ENDBRANCH   2   3
ENDBRANCH   1   2
BRANCH   1   8
ATOM      8  C   UNL     1      21.698   5.884  -9.895  1.00  0.00     0.000 C 
BRANCH   8   9
ATOM      9  C   UNL     1      21.978   7.125 -10.761  1.00  0.00    -0.000 C 
BRANCH   9  10
ATOM     10  C   UNL     1      22.153   6.782 -12.251  1.00  0.00    -0.000 C 
BRANCH  10  11
ATOM     11  C   UNL     1      22.251   5.270 -12.501  1.00  0.00    -0.000 C 
BRANCH  11  12
ATOM     12  C   UNL     1      21.066   4.729 -13.315  1.00  0.00    -0.003 C 
ATOM     13  C   UNL     1      20.086   5.845 -13.665  1.00  0.00     0.004 C 
ENDBRANCH  11  12
ENDBRANCH  10  11
ENDBRANCH   9  10
ENDBRANCH   8   9
ENDBRANCH   1   8
TORSDOF 9
ENDMDL
MODEL 3
REMARK VINA RESULT:    -4.597      2.297      4.989
REMARK INTER + INTRA:          -7.916
REMARK INTER:                  -7.199
REMARK INTRA:                  -0.717
REMARK UNBOUND:                -0.901
REMARK SMILES CCCCCCCCCCC(=O)[O-]
REMARK SMILES IDX 7 1 8 2 9 3 10 4 11 5 12 6 13 7 6 8 5 9 4 10 3 11 2 12 1 13
REMARK H PARENT
REMARK Flexibility Score: inf
ROOT
ATOM      1  C   UNL     1      20.544   6.219  -9.808  1.00  0.00     0.000 C 
ENDROOT
BRANCH   1   2
ATOM      2  C   UNL     1      19.175   6.905  -9.926  1.00  0.00     0.000 C 
BRANCH   2   3
ATOM      3  C   UNL     1      18.295   6.290 -11.029  1.00  0.00     0.006 C 
BRANCH   3   4
ATOM      4  C   UNL     1      18.385   4.759 -11.055  1.00  0.00     0.053 C 
BRANCH   4   5
ATOM      5  C   UNL     1      17.053   4.119 -10.808  1.00  0.00     0.041 C 
ATOM      6  O   UNL     1      16.859   2.917 -11.132  1.00  0.00    -0.550 OA
ATOM      7  O   UNL     1      16.017   4.859 -10.255  1.00  0.00    -0.550 OA
ENDBRANCH   4   5
ENDBRANCH   3   4
ENDBRANCH   2   3
ENDBRANCH   1   2
BRANCH   1   8
ATOM      8  C   UNL     1      21.699   7.120 -10.279  1.00  0.00     0.000 C 
BRANCH   8   9
ATOM      9  C   UNL     1      22.129   6.819 -11.725  1.00  0.00    -0.000 C 
BRANCH   9  10
ATOM     10  C   UNL     1      21.799   5.379 -12.156  1.00  0.00    -0.000 C 
BRANCH  10  11
ATOM     11  C   UNL     1      22.722   4.872 -13.274  1.00  0.00    -0.000 C 
BRANCH  11  12
ATOM     12  C   UNL     1      23.979   5.740 -13.441  1.00  0.00    -0.003 C 
ATOM     13  C   UNL     1      25.091   4.967 -14.144  1.00  0.00     0.004 C 
ENDBRANCH  11  12
ENDBRANCH  10  11
ENDBRANCH   9  10
ENDBRANCH   8   9
ENDBRANCH   1   8
TORSDOF 9
ENDMDL
MODEL 4
REMARK VINA RESULT:    -4.260      1.720      1.958
REMARK INTER + INTRA:          -7.402
REMARK INTER:                  -6.736
REMARK INTRA:                  -0.665
REMARK UNBOUND:                -0.901
REMARK SMILES CCCCCCCCCCC(=O)[O-]
REMARK SMILES IDX 7 1 8 2 9 3 10 4 11 5 12 6 13 7 6 8 5 9 4 10 3 11 2 12 1 13
REMARK H PARENT
REMARK Flexibility Score: inf
ROOT
ATOM      1  C   UNL     1      21.634   6.173  -9.652  1.00  0.00     0.000 C 
ENDROOT
BRANCH   1   2
ATOM      2  C   UNL     1      21.728   7.125 -10.854  1.00  0.00     0.000 C 
BRANCH   2   3
ATOM      3  C   UNL     1      21.766   6.380 -12.200  1.00  0.00     0.006 C 
BRANCH   3   4
ATOM      4  C   UNL     1      23.092   6.592 -12.942  1.00  0.00     0.053 C 
BRANCH   4   5
ATOM      5  C   UNL     1      23.686   5.295 -13.402  1.00  0.00     0.041 C 
ATOM      6  O   UNL     1      23.120   4.206 -13.121  1.00  0.00    -0.550 OA
ATOM      7  O   UNL     1      24.881   5.288 -14.108  1.00  0.00    -0.550 OA
ENDBRANCH   4   5
ENDBRANCH   3   4
ENDBRANCH   2   3
ENDBRANCH   1   2
BRANCH   1   8
ATOM      8  C   UNL     1      20.202   5.664  -9.413  1.00  0.00     0.000 C 
BRANCH   8   9
ATOM      9  C   UNL     1      19.133   6.654  -9.907  1.00  0.00    -0.000 C 
BRANCH   9  10
ATOM     10  C   UNL     1      18.109   6.001 -10.851  1.00  0.00    -0.000 C 
BRANCH  10  11
ATOM     11  C   UNL     1      18.384   4.506 -11.076  1.00  0.00    -0.000 C 
BRANCH  11  12
ATOM     12  C   UNL     1      17.145   3.634 -10.822  1.00  0.00    -0.003 C 
ATOM     13  C   UNL     1      15.885   4.489 -10.716  1.00  0.00     0.004 C 
ENDBRANCH  11  12
ENDBRANCH  10  11
ENDBRANCH   9  10
ENDBRANCH   8   9
ENDBRANCH   1   8
TORSDOF 9
ENDMDL
MODEL 5
REMARK VINA RESULT:    -3.214      3.492      6.566
REMARK INTER + INTRA:          -5.806
REMARK INTER:                  -5.589
REMARK INTRA:                  -0.217
REMARK UNBOUND:                -0.901
REMARK SMILES CCCCCCCCCCC(=O)[O-]
REMARK SMILES IDX 7 1 8 2 9 3 10 4 11 5 12 6 13 7 6 8 5 9 4 10 3 11 2 12 1 13
REMARK H PARENT
REMARK Flexibility Score: inf
ROOT
ATOM      1  C   UNL     1      22.024   5.830 -12.010  1.00  0.00     0.000 C 
ENDROOT
BRANCH   1   2
ATOM      2  C   UNL     1      21.861   6.956 -10.976  1.00  0.00     0.000 C 
BRANCH   2   3
ATOM      3  C   UNL     1      20.458   6.982 -10.344  1.00  0.00     0.006 C 
BRANCH   3   4
ATOM      4  C   UNL     1      19.904   5.571 -10.105  1.00  0.00     0.053 C 
BRANCH   4   5
ATOM      5  C   UNL     1      18.655   5.323 -10.896  1.00  0.00     0.041 C 
ATOM      6  O   UNL     1      18.252   4.146 -11.090  1.00  0.00    -0.550 OA
ATOM      7  O   UNL     1      17.958   6.389 -11.449  1.00  0.00    -0.550 OA
ENDBRANCH   4   5
ENDBRANCH   3   4
ENDBRANCH   2   3
ENDBRANCH   1   2
BRANCH   1   8
ATOM      8  C   UNL     1      23.066   6.169 -13.091  1.00  0.00     0.000 C 
BRANCH   8   9
ATOM      9  C   UNL     1      23.898   4.946 -13.510  1.00  0.00    -0.000 C 
BRANCH   9  10
ATOM     10  C   UNL     1      25.184   5.332 -14.263  1.00  0.00    -0.000 C 
BRANCH  10  11
ATOM     11  C   UNL     1      26.142   4.144 -14.442  1.00  0.00    -0.000 C 
BRANCH  11  12
ATOM     12  C   UNL     1      27.512   4.570 -14.991  1.00  0.00    -0.003 C 
ATOM     13  C   UNL     1      28.600   3.582 -14.578  1.00  0.00     0.004 C 
ENDBRANCH  11  12
ENDBRANCH  10  11
ENDBRANCH   9  10
ENDBRANCH   8   9
ENDBRANCH   1   8
TORSDOF 9
ENDMDL
MODEL 6
REMARK VINA RESULT:    -2.968      4.490      5.212
REMARK INTER + INTRA:          -5.430
REMARK INTER:                  -5.261
REMARK INTRA:                  -0.169
REMARK UNBOUND:                -0.901
REMARK SMILES CCCCCCCCCCC(=O)[O-]
REMARK SMILES IDX 7 1 8 2 9 3 10 4 11 5 12 6 13 7 6 8 5 9 4 10 3 11 2 12 1 13
REMARK H PARENT
REMARK Flexibility Score: inf
ROOT
ATOM      1  C   UNL     1      23.474   4.988 -13.145  1.00  0.00     0.000 C 
ENDROOT
BRANCH   1   2
ATOM      2  C   UNL     1      24.601   5.447 -14.085  1.00  0.00     0.000 C 
BRANCH   2   3
ATOM      3  C   UNL     1      25.776   4.455 -14.131  1.00  0.00     0.006 C 
BRANCH   3   4
ATOM      4  C   UNL     1      26.923   4.958 -15.018  1.00  0.00     0.053 C 
BRANCH   4   5
ATOM      5  C   UNL     1      28.139   4.090 -14.900  1.00  0.00     0.041 C 
ATOM      6  O   UNL     1      28.945   3.996 -15.863  1.00  0.00    -0.550 OA
ATOM      7  O   UNL     1      28.362   3.358 -13.742  1.00  0.00    -0.550 OA
ENDBRANCH   4   5
ENDBRANCH   3   4
ENDBRANCH   2   3
ENDBRANCH   1   2
BRANCH   1   8
ATOM      8  C   UNL     1      22.591   6.154 -12.669  1.00  0.00     0.000 C 
BRANCH   8   9
ATOM      9  C   UNL     1      21.502   5.704 -11.681  1.00  0.00    -0.000 C 
BRANCH   9  10
ATOM     10  C   UNL     1      20.094   5.721 -12.300  1.00  0.00    -0.000 C 
BRANCH  10  11
ATOM     11  C   UNL     1      18.983   5.731 -11.239  1.00  0.00    -0.000 C 
BRANCH  11  12
ATOM     12  C   UNL     1      18.273   4.374 -11.116  1.00  0.00    -0.003 C 
ATOM     13  C   UNL     1      16.840   4.547 -10.621  1.00  0.00     0.004 C 
ENDBRANCH  11  12
ENDBRANCH  10  11
ENDBRANCH   9  10
ENDBRANCH   8   9
ENDBRANCH   1   8
TORSDOF 9
ENDMDL
MODEL 7
REMARK VINA RESULT:    -2.620     21.405     23.601
REMARK INTER + INTRA:          -4.900
REMARK INTER:                  -4.573
REMARK INTRA:                  -0.326
REMARK UNBOUND:                -0.901
REMARK SMILES CCCCCCCCCCC(=O)[O-]
REMARK SMILES IDX 7 1 8 2 9 3 10 4 11 5 12 6 13 7 6 8 5 9 4 10 3 11 2 12 1 13
REMARK H PARENT
REMARK Flexibility Score: inf
ROOT
ATOM      1  C   UNL     1      29.934 -11.747 -25.980  1.00  0.00     0.000 C 
ENDROOT
BRANCH   1   2
ATOM      2  C   UNL     1      29.320 -13.109 -26.342  1.00  0.00     0.000 C 
BRANCH   2   3
ATOM      3  C   UNL     1      27.782 -13.070 -26.398  1.00  0.00     0.006 C 
BRANCH   3   4
ATOM      4  C   UNL     1      27.209 -11.830 -25.700  1.00  0.00     0.053 C 
BRANCH   4   5
ATOM      5  C   UNL     1      25.990 -11.311 -26.401  1.00  0.00     0.041 C 
ATOM      6  O   UNL     1      25.158 -10.599 -25.779  1.00  0.00    -0.550 OA
ATOM      7  O   UNL     1      25.756 -11.644 -27.728  1.00  0.00    -0.550 OA
ENDBRANCH   4   5
ENDBRANCH   3   4
ENDBRANCH   2   3
ENDBRANCH   1   2
BRANCH   1   8
ATOM      8  C   UNL     1      30.641 -11.763 -24.614  1.00  0.00     0.000 C 
BRANCH   8   9
ATOM      9  C   UNL     1      30.355 -10.498 -23.787  1.00  0.00    -0.000 C 
BRANCH   9  10
ATOM     10  C   UNL     1      31.334 -10.321 -22.613  1.00  0.00    -0.000 C 
BRANCH  10  11
ATOM     11  C   UNL     1      31.489  -8.853 -22.190  1.00  0.00    -0.000 C 
BRANCH  11  12
ATOM     12  C   UNL     1      32.590  -8.656 -21.138  1.00  0.00    -0.003 C 
ATOM     13  C   UNL     1      32.944  -7.179 -20.983  1.00  0.00     0.004 C 
ENDBRANCH  11  12
ENDBRANCH  10  11
ENDBRANCH   9  10
ENDBRANCH   8   9
ENDBRANCH   1   8
TORSDOF 9
ENDMDL
MODEL 8
REMARK VINA RESULT:    -2.506     21.074     23.037
REMARK INTER + INTRA:          -4.725
REMARK INTER:                  -4.379
REMARK INTRA:                  -0.347
REMARK UNBOUND:                -0.901
REMARK SMILES CCCCCCCCCCC(=O)[O-]
REMARK SMILES IDX 7 1 8 2 9 3 10 4 11 5 12 6 13 7 6 8 5 9 4 10 3 11 2 12 1 13
REMARK H PARENT
REMARK Flexibility Score: inf
ROOT
ATOM      1  C   UNL     1      30.339 -10.550 -24.021  1.00  0.00     0.000 C 
ENDROOT
BRANCH   1   2
ATOM      2  C   UNL     1      31.117 -10.420 -22.703  1.00  0.00     0.000 C 
BRANCH   2   3
ATOM      3  C   UNL     1      31.667  -9.000 -22.475  1.00  0.00     0.006 C 
BRANCH   3   4
ATOM      4  C   UNL     1      32.479  -8.895 -21.177  1.00  0.00     0.053 C 
BRANCH   4   5
ATOM      5  C   UNL     1      32.868  -7.479 -20.878  1.00  0.00     0.041 C 
ATOM      6  O   UNL     1      32.972  -6.641 -21.812  1.00  0.00    -0.550 OA
ATOM      7  O   UNL     1      33.152  -7.096 -19.574  1.00  0.00    -0.550 OA
ENDBRANCH   4   5
ENDBRANCH   3   4
ENDBRANCH   2   3
ENDBRANCH   1   2
BRANCH   1   8
ATOM      8  C   UNL     1      30.628 -11.875 -24.748  1.00  0.00     0.000 C 
BRANCH   8   9
ATOM      9  C   UNL     1      30.024 -11.916 -26.162  1.00  0.00    -0.000 C 
BRANCH   9  10
ATOM     10  C   UNL     1      29.097 -13.125 -26.378  1.00  0.00    -0.000 C 
BRANCH  10  11
ATOM     11  C   UNL     1      27.629 -12.716 -26.574  1.00  0.00    -0.000 C 
BRANCH  11  12
ATOM     12  C   UNL     1      27.147 -11.721 -25.508  1.00  0.00    -0.003 C 
ATOM     13  C   UNL     1      25.861 -11.027 -25.947  1.00  0.00     0.004 C 
ENDBRANCH  11  12
ENDBRANCH  10  11
ENDBRANCH   9  10
ENDBRANCH   8   9
ENDBRANCH   1   8
TORSDOF 9
ENDMDL
MODEL 9
REMARK VINA RESULT:    -2.441     12.003     13.957
REMARK INTER + INTRA:          -4.626
REMARK INTER:                  -3.918
REMARK INTRA:                  -0.708
REMARK UNBOUND:                -0.901
REMARK SMILES CCCCCCCCCCC(=O)[O-]
REMARK SMILES IDX 7 1 8 2 9 3 10 4 11 5 12 6 13 7 6 8 5 9 4 10 3 11 2 12 1 13
REMARK H PARENT
REMARK Flexibility Score: inf
ROOT
ATOM      1  C   UNL     1      25.049  -2.615 -20.415  1.00  0.00     0.000 C 
ENDROOT
BRANCH   1   2
ATOM      2  C   UNL     1      26.332  -3.370 -20.795  1.00  0.00     0.000 C 
BRANCH   2   3
ATOM      3  C   UNL     1      26.110  -4.382 -21.933  1.00  0.00     0.006 C 
BRANCH   3   4
ATOM      4  C   UNL     1      26.816  -5.718 -21.665  1.00  0.00     0.053 C 
BRANCH   4   5
ATOM      5  C   UNL     1      25.905  -6.705 -21.000  1.00  0.00     0.041 C 
ATOM      6  O   UNL     1      25.713  -6.650 -19.757  1.00  0.00    -0.550 OA
ATOM      7  O   UNL     1      25.298  -7.705 -21.747  1.00  0.00    -0.550 OA
ENDBRANCH   4   5
ENDBRANCH   3   4
ENDBRANCH   2   3
ENDBRANCH   1   2
BRANCH   1   8
ATOM      8  C   UNL     1      24.064  -3.489 -19.619  1.00  0.00     0.000 C 
BRANCH   8   9
ATOM      9  C   UNL     1      24.644  -3.957 -18.274  1.00  0.00    -0.000 C 
BRANCH   9  10
ATOM     10  C   UNL     1      25.287  -2.811 -17.473  1.00  0.00    -0.000 C 
BRANCH  10  11
ATOM     11  C   UNL     1      24.294  -2.128 -16.519  1.00  0.00    -0.000 C 
BRANCH  11  12
ATOM     12  C   UNL     1      24.182  -0.617 -16.768  1.00  0.00    -0.003 C 
ATOM     13  C   UNL     1      23.434  -0.328 -18.067  1.00  0.00     0.004 C 
ENDBRANCH  11  12
ENDBRANCH  10  11
ENDBRANCH   9  10
ENDBRANCH   8   9
ENDBRANCH   1   8
TORSDOF 9
ENDMDL
