MODEL 1
REMARK VINA RESULT:    -5.743      0.000      0.000
REMARK INTER + INTRA:          -7.064
REMARK INTER:                  -6.750
REMARK INTRA:                  -0.314
REMARK UNBOUND:                -0.314
REMARK SMILES O=c1cc(-c2ccc(O)c(O)c2)oc2cc(O)cc(O)c12
REMARK SMILES IDX 4 1 3 2 2 3 1 4 21 5 19 6 18 7 16 8 15 9 14 10 13 11 5 12
REMARK SMILES IDX 6 13 7 14 8 15 12 16 10 17 9 18 11 20 20 22 17 24
REMARK H PARENT 9 19 11 21 20 23 17 25
REMARK Flexibility Score: inf
ROOT
ATOM      1  C   UNL     1     181.514 170.354 167.848  1.00  0.00     0.138 A 
ATOM      2  C   UNL     1     181.283 171.210 168.932  1.00  0.00     0.100 A 
ATOM      3  C   UNL     1     180.887 170.678 170.159  1.00  0.00     0.197 A 
ATOM      4  O   UNL     1     180.741 171.466 171.128  1.00  0.00    -0.289 OA
ATOM      5  C   UNL     1     180.686 169.282 170.290  1.00  0.00     0.107 A 
ATOM      6  C   UNL     1     180.250 168.630 171.483  1.00  0.00     0.134 A 
ATOM      7  C   UNL     1     180.183 167.231 171.520  1.00  0.00     0.093 A 
ATOM      8  C   UNL     1     180.479 166.465 170.390  1.00  0.00     0.123 A 
ATOM      9  C   UNL     1     180.858 167.094 169.207  1.00  0.00     0.094 A 
ATOM     10  C   UNL     1     180.968 168.486 169.148  1.00  0.00     0.146 A 
ATOM     11  O   UNL     1     181.349 169.044 168.004  1.00  0.00    -0.456 OA
ENDROOT
BRANCH   1  12
ATOM     12  C   UNL     1     181.934 170.865 166.518  1.00  0.00     0.021 A 
ATOM     13  C   UNL     1     182.417 172.180 166.404  1.00  0.00     0.016 A 
ATOM     14  C   UNL     1     182.814 172.688 165.165  1.00  0.00     0.051 A 
ATOM     15  C   UNL     1     182.724 171.893 164.015  1.00  0.00     0.157 A 
ATOM     16  C   UNL     1     181.835 170.076 165.354  1.00  0.00     0.062 A 
ATOM     17  C   UNL     1     182.232 170.586 164.110  1.00  0.00     0.158 A 
BRANCH  15  18
ATOM     18  O   UNL     1     183.120 172.396 162.777  1.00  0.00    -0.504 OA
ATOM     19  H   UNL     1     183.182 171.801 161.958  1.00  0.00     0.293 HD
ENDBRANCH  15  18
BRANCH  17  20
ATOM     20  O   UNL     1     182.134 169.801 162.962  1.00  0.00    -0.504 OA
ATOM     21  H   UNL     1     182.194 168.791 163.003  1.00  0.00     0.293 HD
ENDBRANCH  17  20
ENDBRANCH   1  12
BRANCH   6  22
ATOM     22  O   UNL     1     179.852 169.302 172.644  1.00  0.00    -0.507 OA
ATOM     23  H   UNL     1     180.372 169.326 173.506  1.00  0.00     0.293 HD
ENDBRANCH   6  22
BRANCH   8  24
ATOM     24  O   UNL     1     180.395 165.076 170.432  1.00  0.00    -0.508 OA
ATOM     25  H   UNL     1     180.500 164.564 171.300  1.00  0.00     0.293 HD
ENDBRANCH   8  24
TORSDOF 5
ENDMDL
MODEL 2
REMARK VINA RESULT:    -5.624     17.829     18.595
REMARK INTER + INTRA:          -6.924
REMARK INTER:                  -6.606
REMARK INTRA:                  -0.318
REMARK UNBOUND:                -0.314
REMARK SMILES O=c1cc(-c2ccc(O)c(O)c2)oc2cc(O)cc(O)c12
REMARK SMILES IDX 4 1 3 2 2 3 1 4 21 5 19 6 18 7 16 8 15 9 14 10 13 11 5 12
REMARK SMILES IDX 6 13 7 14 8 15 12 16 10 17 9 18 11 20 20 22 17 24
REMARK H PARENT 9 19 11 21 20 23 17 25
REMARK Flexibility Score: inf
ROOT
ATOM      1  C   UNL     1     164.225 175.258 167.577  1.00  0.00     0.138 A 
ATOM      2  C   UNL     1     164.377 174.398 168.673  1.00  0.00     0.100 A 
ATOM      3  C   UNL     1     164.715 174.923 169.921  1.00  0.00     0.197 A 
ATOM      4  O   UNL     1     164.790 174.132 170.896  1.00  0.00    -0.289 OA
ATOM      5  C   UNL     1     164.938 176.314 170.063  1.00  0.00     0.107 A 
ATOM      6  C   UNL     1     165.320 176.959 171.278  1.00  0.00     0.134 A 
ATOM      7  C   UNL     1     165.415 178.355 171.319  1.00  0.00     0.093 A 
ATOM      8  C   UNL     1     165.198 179.127 170.175  1.00  0.00     0.123 A 
ATOM      9  C   UNL     1     164.873 178.505 168.972  1.00  0.00     0.094 A 
ATOM     10  C   UNL     1     164.736 177.115 168.906  1.00  0.00     0.146 A 
ATOM     11  O   UNL     1     164.408 176.564 167.743  1.00  0.00    -0.456 OA
ENDROOT
BRANCH   1  12
ATOM     12  C   UNL     1     163.869 174.755 166.226  1.00  0.00     0.021 A 
ATOM     13  C   UNL     1     163.647 173.380 166.038  1.00  0.00     0.016 A 
ATOM     14  C   UNL     1     163.316 172.879 164.776  1.00  0.00     0.051 A 
ATOM     15  C   UNL     1     163.213 173.743 163.678  1.00  0.00     0.157 A 
ATOM     16  C   UNL     1     163.775 175.616 165.114  1.00  0.00     0.062 A 
ATOM     17  C   UNL     1     163.445 175.113 163.848  1.00  0.00     0.158 A 
BRANCH  15  18
ATOM     18  O   UNL     1     162.882 173.247 162.419  1.00  0.00    -0.504 OA
ATOM     19  H   UNL     1     163.376 173.545 161.585  1.00  0.00     0.293 HD
ENDBRANCH  15  18
BRANCH  17  20
ATOM     20  O   UNL     1     163.352 175.968 162.752  1.00  0.00    -0.504 OA
ATOM     21  H   UNL     1     162.475 176.116 162.266  1.00  0.00     0.293 HD
ENDBRANCH  17  20
ENDBRANCH   1  12
BRANCH   6  22
ATOM     22  O   UNL     1     165.638 176.279 172.459  1.00  0.00    -0.507 OA
ATOM     23  H   UNL     1     166.128 176.679 173.243  1.00  0.00     0.293 HD
ENDBRANCH   6  22
BRANCH   8  24
ATOM     24  O   UNL     1     165.309 180.514 170.222  1.00  0.00    -0.508 OA
ATOM     25  H   UNL     1     165.092 181.035 171.063  1.00  0.00     0.293 HD
ENDBRANCH   8  24
TORSDOF 5
ENDMDL
MODEL 3
REMARK VINA RESULT:    -5.465      7.661      9.731
REMARK INTER + INTRA:          -6.738
REMARK INTER:                  -6.462
REMARK INTRA:                  -0.276
REMARK UNBOUND:                -0.314
REMARK SMILES O=c1cc(-c2ccc(O)c(O)c2)oc2cc(O)cc(O)c12
REMARK SMILES IDX 4 1 3 2 2 3 1 4 21 5 19 6 18 7 16 8 15 9 14 10 13 11 5 12
REMARK SMILES IDX 6 13 7 14 8 15 12 16 10 17 9 18 11 20 20 22 17 24
REMARK H PARENT 9 19 11 21 20 23 17 25
REMARK Flexibility Score: inf
ROOT
ATOM      1  C   UNL     1     179.650 165.904 159.170  1.00  0.00     0.138 A 
ATOM      2  C   UNL     1     178.638 166.494 159.938  1.00  0.00     0.100 A 
ATOM      3  C   UNL     1     178.573 166.238 161.308  1.00  0.00     0.197 A 
ATOM      4  O   UNL     1     177.686 166.826 161.979  1.00  0.00    -0.289 OA
ATOM      5  C   UNL     1     179.506 165.357 161.905  1.00  0.00     0.107 A 
ATOM      6  C   UNL     1     179.517 164.994 163.286  1.00  0.00     0.134 A 
ATOM      7  C   UNL     1     180.551 164.190 163.781  1.00  0.00     0.093 A 
ATOM      8  C   UNL     1     181.543 163.688 162.934  1.00  0.00     0.123 A 
ATOM      9  C   UNL     1     181.514 163.996 161.576  1.00  0.00     0.094 A 
ATOM     10  C   UNL     1     180.514 164.824 161.057  1.00  0.00     0.146 A 
ATOM     11  O   UNL     1     180.534 165.106 159.760  1.00  0.00    -0.456 OA
ENDROOT
BRANCH   1  12
ATOM     12  C   UNL     1     179.766 166.139 157.708  1.00  0.00     0.021 A 
ATOM     13  C   UNL     1     178.721 165.738 156.859  1.00  0.00     0.016 A 
ATOM     14  C   UNL     1     178.807 165.941 155.479  1.00  0.00     0.051 A 
ATOM     15  C   UNL     1     179.945 166.540 154.924  1.00  0.00     0.157 A 
ATOM     16  C   UNL     1     180.913 166.730 157.140  1.00  0.00     0.062 A 
ATOM     17  C   UNL     1     181.000 166.933 155.755  1.00  0.00     0.158 A 
BRANCH  15  18
ATOM     18  O   UNL     1     180.034 166.746 153.549  1.00  0.00    -0.504 OA
ATOM     19  H   UNL     1     179.206 166.792 152.964  1.00  0.00     0.293 HD
ENDBRANCH  15  18
BRANCH  17  20
ATOM     20  O   UNL     1     182.135 167.519 155.199  1.00  0.00    -0.504 OA
ATOM     21  H   UNL     1     182.297 168.517 155.251  1.00  0.00     0.293 HD
ENDBRANCH  17  20
ENDBRANCH   1  12
BRANCH   6  22
ATOM     22  O   UNL     1     178.531 165.374 164.203  1.00  0.00    -0.507 OA
ATOM     23  H   UNL     1     177.762 165.994 164.004  1.00  0.00     0.293 HD
ENDBRANCH   6  22
BRANCH   8  24
ATOM     24  O   UNL     1     182.558 162.877 163.432  1.00  0.00    -0.508 OA
ATOM     25  H   UNL     1     183.462 162.817 162.976  1.00  0.00     0.293 HD
ENDBRANCH   8  24
TORSDOF 5
ENDMDL
MODEL 4
REMARK VINA RESULT:    -5.452     19.823     21.011
REMARK INTER + INTRA:          -6.723
REMARK INTER:                  -6.445
REMARK INTRA:                  -0.277
REMARK UNBOUND:                -0.314
REMARK SMILES O=c1cc(-c2ccc(O)c(O)c2)oc2cc(O)cc(O)c12
REMARK SMILES IDX 4 1 3 2 2 3 1 4 21 5 19 6 18 7 16 8 15 9 14 10 13 11 5 12
REMARK SMILES IDX 6 13 7 14 8 15 12 16 10 17 9 18 11 20 20 22 17 24
REMARK H PARENT 9 19 11 21 20 23 17 25
REMARK Flexibility Score: inf
ROOT
ATOM      1  C   UNL     1     165.904 179.791 159.263  1.00  0.00     0.138 A 
ATOM      2  C   UNL     1     166.814 179.160 160.122  1.00  0.00     0.100 A 
ATOM      3  C   UNL     1     166.790 179.452 161.486  1.00  0.00     0.197 A 
ATOM      4  O   UNL     1     167.582 178.829 162.240  1.00  0.00    -0.289 OA
ATOM      5  C   UNL     1     165.875 180.409 161.987  1.00  0.00     0.107 A 
ATOM      6  C   UNL     1     165.782 180.813 163.353  1.00  0.00     0.134 A 
ATOM      7  C   UNL     1     164.769 181.696 163.745  1.00  0.00     0.093 A 
ATOM      8  C   UNL     1     163.881 182.235 162.811  1.00  0.00     0.123 A 
ATOM      9  C   UNL     1     163.993 181.887 161.467  1.00  0.00     0.094 A 
ATOM     10  C   UNL     1     164.972 180.980 161.049  1.00  0.00     0.146 A 
ATOM     11  O   UNL     1     165.033 180.662 159.762  1.00  0.00    -0.456 OA
ENDROOT
BRANCH   1  12
ATOM     12  C   UNL     1     165.886 179.521 157.802  1.00  0.00     0.021 A 
ATOM     13  C   UNL     1     167.026 179.805 157.032  1.00  0.00     0.016 A 
ATOM     14  C   UNL     1     167.033 179.565 155.656  1.00  0.00     0.051 A 
ATOM     15  C   UNL     1     165.895 179.048 155.024  1.00  0.00     0.157 A 
ATOM     16  C   UNL     1     164.741 179.012 157.157  1.00  0.00     0.062 A 
ATOM     17  C   UNL     1     164.747 178.773 155.775  1.00  0.00     0.158 A 
BRANCH  15  18
ATOM     18  O   UNL     1     165.899 178.807 153.652  1.00  0.00    -0.504 OA
ATOM     19  H   UNL     1     165.809 179.560 152.980  1.00  0.00     0.293 HD
ENDBRANCH  15  18
BRANCH  17  20
ATOM     20  O   UNL     1     163.613 178.268 155.142  1.00  0.00    -0.504 OA
ATOM     21  H   UNL     1     163.212 177.375 155.403  1.00  0.00     0.293 HD
ENDBRANCH  17  20
ENDBRANCH   1  12
BRANCH   6  22
ATOM     22  O   UNL     1     166.667 180.398 164.354  1.00  0.00    -0.507 OA
ATOM     23  H   UNL     1     166.489 179.657 165.014  1.00  0.00     0.293 HD
ENDBRANCH   6  22
BRANCH   8  24
ATOM     24  O   UNL     1     162.886 183.125 163.208  1.00  0.00    -0.508 OA
ATOM     25  H   UNL     1     162.869 184.084 162.879  1.00  0.00     0.293 HD
ENDBRANCH   8  24
TORSDOF 5
ENDMDL
MODEL 5
REMARK VINA RESULT:    -5.432     20.287     21.367
REMARK INTER + INTRA:          -6.699
REMARK INTER:                  -6.433
REMARK INTRA:                  -0.266
REMARK UNBOUND:                -0.314
REMARK SMILES O=c1cc(-c2ccc(O)c(O)c2)oc2cc(O)cc(O)c12
REMARK SMILES IDX 4 1 3 2 2 3 1 4 21 5 19 6 18 7 16 8 15 9 14 10 13 11 5 12
REMARK SMILES IDX 6 13 7 14 8 15 12 16 10 17 9 18 11 20 20 22 17 24
REMARK H PARENT 9 19 11 21 20 23 17 25
REMARK Flexibility Score: inf
ROOT
ATOM      1  C   UNL     1     165.011 180.439 159.159  1.00  0.00     0.138 A 
ATOM      2  C   UNL     1     164.176 181.559 159.262  1.00  0.00     0.100 A 
ATOM      3  C   UNL     1     163.881 182.086 160.520  1.00  0.00     0.197 A 
ATOM      4  O   UNL     1     163.174 183.125 160.576  1.00  0.00    -0.289 OA
ATOM      5  C   UNL     1     164.396 181.464 161.683  1.00  0.00     0.107 A 
ATOM      6  C   UNL     1     164.135 181.892 163.020  1.00  0.00     0.134 A 
ATOM      7  C   UNL     1     164.782 181.257 164.087  1.00  0.00     0.093 A 
ATOM      8  C   UNL     1     165.635 180.171 163.870  1.00  0.00     0.123 A 
ATOM      9  C   UNL     1     165.858 179.714 162.574  1.00  0.00     0.094 A 
ATOM     10  C   UNL     1     165.255 180.350 161.484  1.00  0.00     0.146 A 
ATOM     11  O   UNL     1     165.508 179.892 160.263  1.00  0.00    -0.456 OA
ENDROOT
BRANCH   1  12
ATOM     12  C   UNL     1     165.357 179.834 157.847  1.00  0.00     0.021 A 
ATOM     13  C   UNL     1     166.698 179.811 157.428  1.00  0.00     0.016 A 
ATOM     14  C   UNL     1     167.050 179.254 156.197  1.00  0.00     0.051 A 
ATOM     15  C   UNL     1     166.065 178.720 155.356  1.00  0.00     0.157 A 
ATOM     16  C   UNL     1     164.370 179.306 156.990  1.00  0.00     0.062 A 
ATOM     17  C   UNL     1     164.723 178.749 155.753  1.00  0.00     0.158 A 
BRANCH  15  18
ATOM     18  O   UNL     1     166.412 178.163 154.128  1.00  0.00    -0.504 OA
ATOM     19  H   UNL     1     166.864 177.258 154.064  1.00  0.00     0.293 HD
ENDBRANCH  15  18
BRANCH  17  20
ATOM     20  O   UNL     1     163.744 178.226 154.910  1.00  0.00    -0.504 OA
ATOM     21  H   UNL     1     162.814 178.008 155.247  1.00  0.00     0.293 HD
ENDBRANCH  17  20
ENDBRANCH   1  12
BRANCH   6  22
ATOM     22  O   UNL     1     163.239 182.913 163.355  1.00  0.00    -0.507 OA
ATOM     23  H   UNL     1     163.361 183.888 163.128  1.00  0.00     0.293 HD
ENDBRANCH   6  22
BRANCH   8  24
ATOM     24  O   UNL     1     166.261 179.536 164.939  1.00  0.00    -0.508 OA
ATOM     25  H   UNL     1     166.203 179.902 165.882  1.00  0.00     0.293 HD
ENDBRANCH   8  24
TORSDOF 5
ENDMDL
MODEL 6
REMARK VINA RESULT:    -5.385      7.544      9.939
REMARK INTER + INTRA:          -6.643
REMARK INTER:                  -6.381
REMARK INTRA:                  -0.263
REMARK UNBOUND:                -0.314
REMARK SMILES O=c1cc(-c2ccc(O)c(O)c2)oc2cc(O)cc(O)c12
REMARK SMILES IDX 4 1 3 2 2 3 1 4 21 5 19 6 18 7 16 8 15 9 14 10 13 11 5 12
REMARK SMILES IDX 6 13 7 14 8 15 12 16 10 17 9 18 11 20 20 22 17 24
REMARK H PARENT 9 19 11 21 20 23 17 25
REMARK Flexibility Score: inf
ROOT
ATOM      1  C   UNL     1     180.498 165.383 159.111  1.00  0.00     0.138 A 
ATOM      2  C   UNL     1     181.347 164.294 159.347  1.00  0.00     0.100 A 
ATOM      3  C   UNL     1     181.610 163.896 160.658  1.00  0.00     0.197 A 
ATOM      4  O   UNL     1     182.332 162.881 160.836  1.00  0.00    -0.289 OA
ATOM      5  C   UNL     1     181.048 164.616 161.740  1.00  0.00     0.107 A 
ATOM      6  C   UNL     1     181.272 164.323 163.119  1.00  0.00     0.134 A 
ATOM      7  C   UNL     1     180.581 165.045 164.100  1.00  0.00     0.093 A 
ATOM      8  C   UNL     1     179.718 166.087 163.754  1.00  0.00     0.123 A 
ATOM      9  C   UNL     1     179.530 166.414 162.413  1.00  0.00     0.094 A 
ATOM     10  C   UNL     1     180.178 165.689 161.409  1.00  0.00     0.146 A 
ATOM     11  O   UNL     1     179.957 166.023 160.142  1.00  0.00    -0.456 OA
ENDROOT
BRANCH   1  12
ATOM     12  C   UNL     1     180.185 165.852 157.737  1.00  0.00     0.021 A 
ATOM     13  C   UNL     1     178.882 165.699 157.235  1.00  0.00     0.016 A 
ATOM     14  C   UNL     1     178.562 166.126 155.944  1.00  0.00     0.051 A 
ATOM     15  C   UNL     1     179.543 166.705 155.128  1.00  0.00     0.157 A 
ATOM     16  C   UNL     1     181.169 166.424 156.906  1.00  0.00     0.062 A 
ATOM     17  C   UNL     1     180.849 166.851 155.610  1.00  0.00     0.158 A 
BRANCH  15  18
ATOM     18  O   UNL     1     179.227 167.133 153.841  1.00  0.00    -0.504 OA
ATOM     19  H   UNL     1     179.905 167.095 153.088  1.00  0.00     0.293 HD
ENDBRANCH  15  18
BRANCH  17  20
ATOM     20  O   UNL     1     181.826 167.417 154.792  1.00  0.00    -0.504 OA
ATOM     21  H   UNL     1     181.785 167.336 153.783  1.00  0.00     0.293 HD
ENDBRANCH  17  20
ENDBRANCH   1  12
BRANCH   6  22
ATOM     22  O   UNL     1     182.174 163.356 163.578  1.00  0.00    -0.507 OA
ATOM     23  H   UNL     1     181.971 162.373 163.672  1.00  0.00     0.293 HD
ENDBRANCH   6  22
BRANCH   8  24
ATOM     24  O   UNL     1     179.047 166.810 164.737  1.00  0.00    -0.508 OA
ATOM     25  H   UNL     1     179.001 167.822 164.712  1.00  0.00     0.293 HD
ENDBRANCH   8  24
TORSDOF 5
ENDMDL
MODEL 7
REMARK VINA RESULT:    -5.357      1.418      6.807
REMARK INTER + INTRA:          -6.610
REMARK INTER:                  -6.317
REMARK INTRA:                  -0.293
REMARK UNBOUND:                -0.314
REMARK SMILES O=c1cc(-c2ccc(O)c(O)c2)oc2cc(O)cc(O)c12
REMARK SMILES IDX 4 1 3 2 2 3 1 4 21 5 19 6 18 7 16 8 15 9 14 10 13 11 5 12
REMARK SMILES IDX 6 13 7 14 8 15 12 16 10 17 9 18 11 20 20 22 17 24
REMARK H PARENT 9 19 11 21 20 23 17 25
REMARK Flexibility Score: inf
ROOT
ATOM      1  C   UNL     1     181.442 169.993 167.819  1.00  0.00     0.138 A 
ATOM      2  C   UNL     1     182.216 171.143 167.614  1.00  0.00     0.100 A 
ATOM      3  C   UNL     1     182.474 171.579 166.314  1.00  0.00     0.197 A 
ATOM      4  O   UNL     1     183.125 172.645 166.164  1.00  0.00    -0.289 OA
ATOM      5  C   UNL     1     181.983 170.837 165.212  1.00  0.00     0.107 A 
ATOM      6  C   UNL     1     182.211 171.166 163.842  1.00  0.00     0.134 A 
ATOM      7  C   UNL     1     181.591 170.412 162.838  1.00  0.00     0.093 A 
ATOM      8  C   UNL     1     180.797 169.305 163.154  1.00  0.00     0.123 A 
ATOM      9  C   UNL     1     180.609 168.946 164.486  1.00  0.00     0.094 A 
ATOM     10  C   UNL     1     181.186 169.700 165.512  1.00  0.00     0.146 A 
ATOM     11  O   UNL     1     180.966 169.332 166.769  1.00  0.00    -0.456 OA
ENDROOT
BRANCH   1  12
ATOM     12  C   UNL     1     181.138 169.482 169.181  1.00  0.00     0.021 A 
ATOM     13  C   UNL     1     180.767 170.386 170.191  1.00  0.00     0.016 A 
ATOM     14  C   UNL     1     180.482 169.933 171.481  1.00  0.00     0.051 A 
ATOM     15  C   UNL     1     180.574 168.569 171.787  1.00  0.00     0.157 A 
ATOM     16  C   UNL     1     181.241 168.113 169.499  1.00  0.00     0.062 A 
ATOM     17  C   UNL     1     180.956 167.659 170.794  1.00  0.00     0.158 A 
BRANCH  15  18
ATOM     18  O   UNL     1     180.290 168.113 173.072  1.00  0.00    -0.504 OA
ATOM     19  H   UNL     1     179.772 167.255 173.228  1.00  0.00     0.293 HD
ENDBRANCH  15  18
BRANCH  17  20
ATOM     20  O   UNL     1     181.057 166.303 171.104  1.00  0.00    -0.504 OA
ATOM     21  H   UNL     1     180.350 165.830 171.653  1.00  0.00     0.293 HD
ENDBRANCH  17  20
ENDBRANCH   1  12
BRANCH   6  22
ATOM     22  O   UNL     1     183.050 172.201 163.413  1.00  0.00    -0.507 OA
ATOM     23  H   UNL     1     183.982 172.370 163.756  1.00  0.00     0.293 HD
ENDBRANCH   6  22
BRANCH   8  24
ATOM     24  O   UNL     1     180.197 168.552 162.148  1.00  0.00    -0.508 OA
ATOM     25  H   UNL     1     179.408 167.945 162.340  1.00  0.00     0.293 HD
ENDBRANCH   8  24
TORSDOF 5
ENDMDL
MODEL 8
REMARK VINA RESULT:    -5.355      3.523      5.032
REMARK INTER + INTRA:          -6.608
REMARK INTER:                  -6.345
REMARK INTRA:                  -0.263
REMARK UNBOUND:                -0.314
REMARK SMILES O=c1cc(-c2ccc(O)c(O)c2)oc2cc(O)cc(O)c12
REMARK SMILES IDX 4 1 3 2 2 3 1 4 21 5 19 6 18 7 16 8 15 9 14 10 13 11 5 12
REMARK SMILES IDX 6 13 7 14 8 15 12 16 10 17 9 18 11 20 20 22 17 24
REMARK H PARENT 9 19 11 21 20 23 17 25
REMARK Flexibility Score: inf
ROOT
ATOM      1  C   UNL     1     179.791 168.767 166.235  1.00  0.00     0.138 A 
ATOM      2  C   UNL     1     180.718 169.722 165.797  1.00  0.00     0.100 A 
ATOM      3  C   UNL     1     181.295 170.596 166.719  1.00  0.00     0.197 A 
ATOM      4  O   UNL     1     182.165 171.405 166.305  1.00  0.00    -0.289 OA
ATOM      5  C   UNL     1     180.912 170.538 168.081  1.00  0.00     0.107 A 
ATOM      6  C   UNL     1     181.407 171.401 169.105  1.00  0.00     0.134 A 
ATOM      7  C   UNL     1     181.028 171.182 170.435  1.00  0.00     0.093 A 
ATOM      8  C   UNL     1     180.127 170.168 170.771  1.00  0.00     0.123 A 
ATOM      9  C   UNL     1     179.600 169.352 169.774  1.00  0.00     0.094 A 
ATOM     10  C   UNL     1     179.985 169.522 168.441  1.00  0.00     0.146 A 
ATOM     11  O   UNL     1     179.471 168.711 167.523  1.00  0.00    -0.456 OA
ENDROOT
BRANCH   1  12
ATOM     12  C   UNL     1     179.144 167.813 165.298  1.00  0.00     0.021 A 
ATOM     13  C   UNL     1     177.865 168.100 164.792  1.00  0.00     0.016 A 
ATOM     14  C   UNL     1     177.232 167.217 163.914  1.00  0.00     0.051 A 
ATOM     15  C   UNL     1     177.862 166.025 163.535  1.00  0.00     0.157 A 
ATOM     16  C   UNL     1     179.766 166.605 164.922  1.00  0.00     0.062 A 
ATOM     17  C   UNL     1     179.130 165.718 164.042  1.00  0.00     0.158 A 
BRANCH  15  18
ATOM     18  O   UNL     1     177.235 165.143 162.659  1.00  0.00    -0.504 OA
ATOM     19  H   UNL     1     176.497 164.521 162.970  1.00  0.00     0.293 HD
ENDBRANCH  15  18
BRANCH  17  20
ATOM     20  O   UNL     1     179.750 164.526 163.672  1.00  0.00    -0.504 OA
ATOM     21  H   UNL     1     179.644 164.138 162.742  1.00  0.00     0.293 HD
ENDBRANCH  17  20
ENDBRANCH   1  12
BRANCH   6  22
ATOM     22  O   UNL     1     182.248 172.494 168.869  1.00  0.00    -0.507 OA
ATOM     23  H   UNL     1     182.287 173.020 168.011  1.00  0.00     0.293 HD
ENDBRANCH   6  22
BRANCH   8  24
ATOM     24  O   UNL     1     179.744 169.968 172.095  1.00  0.00    -0.508 OA
ATOM     25  H   UNL     1     179.699 170.736 172.756  1.00  0.00     0.293 HD
ENDBRANCH   8  24
TORSDOF 5
ENDMDL
MODEL 9
REMARK VINA RESULT:    -5.314     16.821     17.352
REMARK INTER + INTRA:          -6.560
REMARK INTER:                  -6.297
REMARK INTRA:                  -0.263
REMARK UNBOUND:                -0.314
REMARK SMILES O=c1cc(-c2ccc(O)c(O)c2)oc2cc(O)cc(O)c12
REMARK SMILES IDX 4 1 3 2 2 3 1 4 21 5 19 6 18 7 16 8 15 9 14 10 13 11 5 12
REMARK SMILES IDX 6 13 7 14 8 15 12 16 10 17 9 18 11 20 20 22 17 24
REMARK H PARENT 9 19 11 21 20 23 17 25
REMARK Flexibility Score: inf
ROOT
ATOM      1  C   UNL     1     165.917 176.953 166.136  1.00  0.00     0.138 A 
ATOM      2  C   UNL     1     165.022 175.958 165.724  1.00  0.00     0.100 A 
ATOM      3  C   UNL     1     164.462 175.098 166.669  1.00  0.00     0.197 A 
ATOM      4  O   UNL     1     163.619 174.251 166.275  1.00  0.00    -0.289 OA
ATOM      5  C   UNL     1     164.830 175.214 168.032  1.00  0.00     0.107 A 
ATOM      6  C   UNL     1     164.350 174.372 169.080  1.00  0.00     0.134 A 
ATOM      7  C   UNL     1     164.709 174.646 170.405  1.00  0.00     0.093 A 
ATOM      8  C   UNL     1     165.577 175.697 170.714  1.00  0.00     0.123 A 
ATOM      9  C   UNL     1     166.090 176.494 169.694  1.00  0.00     0.094 A 
ATOM     10  C   UNL     1     165.723 176.267 168.365  1.00  0.00     0.146 A 
ATOM     11  O   UNL     1     166.222 177.062 167.425  1.00  0.00    -0.456 OA
ENDROOT
BRANCH   1  12
ATOM     12  C   UNL     1     166.545 177.894 165.173  1.00  0.00     0.021 A 
ATOM     13  C   UNL     1     167.818 177.603 164.654  1.00  0.00     0.016 A 
ATOM     14  C   UNL     1     168.434 178.474 163.751  1.00  0.00     0.051 A 
ATOM     15  C   UNL     1     167.792 179.655 163.360  1.00  0.00     0.157 A 
ATOM     16  C   UNL     1     165.911 179.091 164.785  1.00  0.00     0.062 A 
ATOM     17  C   UNL     1     166.530 179.965 163.880  1.00  0.00     0.158 A 
BRANCH  15  18
ATOM     18  O   UNL     1     168.402 180.525 162.459  1.00  0.00    -0.504 OA
ATOM     19  H   UNL     1     168.179 180.508 161.471  1.00  0.00     0.293 HD
ENDBRANCH  15  18
BRANCH  17  20
ATOM     20  O   UNL     1     165.898 181.147 163.497  1.00  0.00    -0.504 OA
ATOM     21  H   UNL     1     166.218 181.687 162.702  1.00  0.00     0.293 HD
ENDBRANCH  17  20
ENDBRANCH   1  12
BRANCH   6  22
ATOM     22  O   UNL     1     163.543 173.247 168.875  1.00  0.00    -0.507 OA
ATOM     23  H   UNL     1     163.865 172.293 168.890  1.00  0.00     0.293 HD
ENDBRANCH   6  22
BRANCH   8  24
ATOM     24  O   UNL     1     165.941 175.952 172.034  1.00  0.00    -0.508 OA
ATOM     25  H   UNL     1     166.404 175.252 172.602  1.00  0.00     0.293 HD
ENDBRANCH   8  24
TORSDOF 5
ENDMDL
