MODEL 1
REMARK VINA RESULT:    -3.194      0.000      0.000
REMARK INTER + INTRA:          -8.564
REMARK INTER:                  -6.929
REMARK INTRA:                  -1.635
REMARK UNBOUND:                -1.635
REMARK SMILES CCCCCCCCCCCCCCCCCCCCCC(=O)[O-]
REMARK SMILES IDX 12 1 11 2 10 3 9 4 8 5 7 6 6 7 5 8 4 9 3 10 2 11 1 12 13 13
REMARK SMILES IDX 14 14 15 15 16 16 17 17 18 18 19 19 20 20 21 21 22 22 23 23
REMARK SMILES IDX 24 24
REMARK H PARENT
REMARK Flexibility Score: inf
ROOT
ATOM      1  C   UNL     1       1.634  -5.140 -11.399  1.00  0.00     0.000 C 
ENDROOT
BRANCH   1   2
ATOM      2  C   UNL     1       0.778  -3.994 -10.839  1.00  0.00     0.000 C 
BRANCH   2   3
ATOM      3  C   UNL     1      -0.714  -4.255 -11.079  1.00  0.00     0.000 C 
BRANCH   3   4
ATOM      4  C   UNL     1      -0.929  -5.594 -11.802  1.00  0.00    -0.000 C 
BRANCH   4   5
ATOM      5  C   UNL     1      -1.348  -6.724 -10.848  1.00  0.00    -0.000 C 
BRANCH   5   6
ATOM      6  C   UNL     1      -1.173  -8.120 -11.472  1.00  0.00    -0.000 C 
BRANCH   6   7
ATOM      7  C   UNL     1      -1.185  -9.242 -10.421  1.00  0.00    -0.000 C 
BRANCH   7   8
ATOM      8  C   UNL     1      -2.471 -10.081 -10.464  1.00  0.00    -0.000 C 
BRANCH   8   9
ATOM      9  C   UNL     1      -2.148 -11.581 -10.388  1.00  0.00    -0.000 C 
BRANCH   9  10
ATOM     10  C   UNL     1      -1.346 -11.961  -9.130  1.00  0.00    -0.000 C 
BRANCH  10  11
ATOM     11  C   UNL     1      -0.319 -13.088  -9.333  1.00  0.00    -0.003 C 
ATOM     12  C   UNL     1       0.554 -12.884 -10.570  1.00  0.00     0.004 C 
ENDBRANCH  10  11
ENDBRANCH   9  10
ENDBRANCH   8   9
ENDBRANCH   7   8
ENDBRANCH   6   7
ENDBRANCH   5   6
ENDBRANCH   4   5
ENDBRANCH   3   4
ENDBRANCH   2   3
ENDBRANCH   1   2
BRANCH   1  13
ATOM     13  C   UNL     1       2.203  -6.050 -10.298  1.00  0.00     0.000 C 
BRANCH  13  14
ATOM     14  C   UNL     1       2.462  -7.484 -10.793  1.00  0.00     0.000 C 
BRANCH  14  15
ATOM     15  C   UNL     1       3.429  -7.540 -11.990  1.00  0.00     0.000 C 
BRANCH  15  16
ATOM     16  C   UNL     1       4.738  -8.310 -11.736  1.00  0.00     0.000 C 
BRANCH  16  17
ATOM     17  C   UNL     1       5.990  -7.506 -12.125  1.00  0.00     0.000 C 
BRANCH  17  18
ATOM     18  C   UNL     1       7.174  -7.763 -11.179  1.00  0.00     0.000 C 
BRANCH  18  19
ATOM     19  C   UNL     1       8.370  -8.408 -11.893  1.00  0.00     0.000 C 
BRANCH  19  20
ATOM     20  C   UNL     1       8.614  -9.832 -11.379  1.00  0.00     0.006 C 
BRANCH  20  21
ATOM     21  C   UNL     1       8.215  -9.961  -9.906  1.00  0.00     0.053 C 
BRANCH  21  22
ATOM     22  C   UNL     1       7.345 -11.162  -9.702  1.00  0.00     0.041 C 
ATOM     23  O   UNL     1       6.454 -11.449 -10.543  1.00  0.00    -0.550 OA
ATOM     24  O   UNL     1       7.553 -11.992  -8.607  1.00  0.00    -0.550 OA
ENDBRANCH  21  22
ENDBRANCH  20  21
ENDBRANCH  19  20
ENDBRANCH  18  19
ENDBRANCH  17  18
ENDBRANCH  16  17
ENDBRANCH  15  16
ENDBRANCH  14  15
ENDBRANCH  13  14
ENDBRANCH   1  13
TORSDOF 20
ENDMDL
MODEL 2
REMARK VINA RESULT:    -2.352      2.936      6.558
REMARK INTER + INTRA:          -6.737
REMARK INTER:                  -5.140
REMARK INTRA:                  -1.597
REMARK UNBOUND:                -1.635
REMARK SMILES CCCCCCCCCCCCCCCCCCCCCC(=O)[O-]
REMARK SMILES IDX 12 1 11 2 10 3 9 4 8 5 7 6 6 7 5 8 4 9 3 10 2 11 1 12 13 13
REMARK SMILES IDX 14 14 15 15 16 16 17 17 18 18 19 19 20 20 21 21 22 22 23 23
REMARK SMILES IDX 24 24
REMARK H PARENT
REMARK Flexibility Score: inf
ROOT
ATOM      1  C   UNL     1      -1.211  -7.206 -10.554  1.00  0.00     0.000 C 
ENDROOT
BRANCH   1   2
ATOM      2  C   UNL     1      -1.187  -5.699 -10.259  1.00  0.00     0.000 C 
BRANCH   2   3
ATOM      3  C   UNL     1      -1.523  -4.888 -11.516  1.00  0.00     0.000 C 
BRANCH   3   4
ATOM      4  C   UNL     1      -0.314  -4.059 -11.976  1.00  0.00    -0.000 C 
BRANCH   4   5
ATOM      5  C   UNL     1       0.597  -3.638 -10.811  1.00  0.00    -0.000 C 
BRANCH   5   6
ATOM      6  C   UNL     1       1.454  -2.405 -11.146  1.00  0.00    -0.000 C 
BRANCH   6   7
ATOM      7  C   UNL     1       2.653  -2.747 -12.047  1.00  0.00    -0.000 C 
BRANCH   7   8
ATOM      8  C   UNL     1       3.703  -1.627 -12.086  1.00  0.00    -0.000 C 
BRANCH   8   9
ATOM      9  C   UNL     1       4.944  -2.011 -11.265  1.00  0.00    -0.000 C 
BRANCH   9  10
ATOM     10  C   UNL     1       6.237  -2.021 -12.100  1.00  0.00    -0.000 C 
BRANCH  10  11
ATOM     11  C   UNL     1       7.363  -1.122 -11.559  1.00  0.00    -0.003 C 
ATOM     12  C   UNL     1       7.106  -0.636 -10.134  1.00  0.00     0.004 C 
ENDBRANCH  10  11
ENDBRANCH   9  10
ENDBRANCH   8   9
ENDBRANCH   7   8
ENDBRANCH   6   7
ENDBRANCH   5   6
ENDBRANCH   4   5
ENDBRANCH   3   4
ENDBRANCH   2   3
ENDBRANCH   1   2
BRANCH   1  13
ATOM     13  C   UNL     1      -0.250  -8.004  -9.659  1.00  0.00     0.000 C 
BRANCH  13  14
ATOM     14  C   UNL     1       0.967  -8.543 -10.431  1.00  0.00     0.000 C 
BRANCH  14  15
ATOM     15  C   UNL     1       1.456  -7.579 -11.527  1.00  0.00     0.000 C 
BRANCH  15  16
ATOM     16  C   UNL     1       2.738  -6.798 -11.184  1.00  0.00     0.000 C 
BRANCH  16  17
ATOM     17  C   UNL     1       3.910  -7.129 -12.123  1.00  0.00     0.000 C 
BRANCH  17  18
ATOM     18  C   UNL     1       4.770  -8.294 -11.607  1.00  0.00     0.000 C 
BRANCH  18  19
ATOM     19  C   UNL     1       6.227  -8.208 -12.083  1.00  0.00     0.000 C 
BRANCH  19  20
ATOM     20  C   UNL     1       7.182  -8.022 -10.898  1.00  0.00     0.006 C 
BRANCH  20  21
ATOM     21  C   UNL     1       7.192  -9.263 -10.000  1.00  0.00     0.053 C 
BRANCH  21  22
ATOM     22  C   UNL     1       8.512  -9.400  -9.309  1.00  0.00     0.041 C 
ATOM     23  O   UNL     1       9.070  -8.391  -8.804  1.00  0.00    -0.550 OA
ATOM     24  O   UNL     1       9.102 -10.651  -9.180  1.00  0.00    -0.550 OA
ENDBRANCH  21  22
ENDBRANCH  20  21
ENDBRANCH  19  20
ENDBRANCH  18  19
ENDBRANCH  17  18
ENDBRANCH  16  17
ENDBRANCH  15  16
ENDBRANCH  14  15
ENDBRANCH  13  14
ENDBRANCH   1  13
TORSDOF 20
ENDMDL
MODEL 3
REMARK VINA RESULT:    -2.128      4.850      6.559
REMARK INTER + INTRA:          -6.250
REMARK INTER:                  -4.637
REMARK INTRA:                  -1.612
REMARK UNBOUND:                -1.635
REMARK SMILES CCCCCCCCCCCCCCCCCCCCCC(=O)[O-]
REMARK SMILES IDX 12 1 11 2 10 3 9 4 8 5 7 6 6 7 5 8 4 9 3 10 2 11 1 12 13 13
REMARK SMILES IDX 14 14 15 15 16 16 17 17 18 18 19 19 20 20 21 21 22 22 23 23
REMARK SMILES IDX 24 24
REMARK H PARENT
REMARK Flexibility Score: inf
ROOT
ATOM      1  C   UNL     1       0.220  -6.883 -12.054  1.00  0.00     0.000 C 
ENDROOT
BRANCH   1   2
ATOM      2  C   UNL     1       0.091  -8.370 -11.688  1.00  0.00     0.000 C 
BRANCH   2   3
ATOM      3  C   UNL     1       0.543  -8.620 -10.244  1.00  0.00     0.000 C 
BRANCH   3   4
ATOM      4  C   UNL     1      -0.520  -9.408  -9.463  1.00  0.00    -0.000 C 
BRANCH   4   5
ATOM      5  C   UNL     1      -0.705 -10.840  -9.988  1.00  0.00    -0.000 C 
BRANCH   5   6
ATOM      6  C   UNL     1      -1.222 -11.805  -8.907  1.00  0.00    -0.000 C 
BRANCH   6   7
ATOM      7  C   UNL     1      -1.750 -13.124  -9.496  1.00  0.00    -0.000 C 
BRANCH   7   8
ATOM      8  C   UNL     1      -2.006 -13.037 -11.008  1.00  0.00    -0.000 C 
BRANCH   8   9
ATOM      9  C   UNL     1      -3.509 -12.922 -11.303  1.00  0.00    -0.000 C 
BRANCH   9  10
ATOM     10  C   UNL     1      -3.868 -11.665 -12.116  1.00  0.00    -0.000 C 
BRANCH  10  11
ATOM     11  C   UNL     1      -3.902 -10.359 -11.305  1.00  0.00    -0.003 C 
ATOM     12  C   UNL     1      -3.300  -9.173 -12.057  1.00  0.00     0.004 C 
ENDBRANCH  10  11
ENDBRANCH   9  10
ENDBRANCH   8   9
ENDBRANCH   7   8
ENDBRANCH   6   7
ENDBRANCH   5   6
ENDBRANCH   4   5
ENDBRANCH   3   4
ENDBRANCH   2   3
ENDBRANCH   1   2
BRANCH   1  13
ATOM     13  C   UNL     1       0.394  -5.979 -10.823  1.00  0.00     0.000 C 
BRANCH  13  14
ATOM     14  C   UNL     1      -0.949  -5.601 -10.173  1.00  0.00     0.000 C 
BRANCH  14  15
ATOM     15  C   UNL     1      -1.365  -4.148 -10.461  1.00  0.00     0.000 C 
BRANCH  15  16
ATOM     16  C   UNL     1      -1.242  -3.713 -11.932  1.00  0.00     0.000 C 
BRANCH  16  17
ATOM     17  C   UNL     1      -0.295  -2.516 -12.125  1.00  0.00     0.000 C 
BRANCH  17  18
ATOM     18  C   UNL     1       1.187  -2.921 -12.073  1.00  0.00     0.000 C 
BRANCH  18  19
ATOM     19  C   UNL     1       2.130  -1.709 -12.065  1.00  0.00     0.000 C 
BRANCH  19  20
ATOM     20  C   UNL     1       3.550  -2.121 -11.659  1.00  0.00     0.006 C 
BRANCH  20  21
ATOM     21  C   UNL     1       4.545  -0.984 -11.913  1.00  0.00     0.053 C 
BRANCH  21  22
ATOM     22  C   UNL     1       5.869  -1.298 -11.290  1.00  0.00     0.041 C 
ATOM     23  O   UNL     1       6.384  -0.502 -10.461  1.00  0.00    -0.550 OA
ATOM     24  O   UNL     1       6.512  -2.493 -11.588  1.00  0.00    -0.550 OA
ENDBRANCH  21  22
ENDBRANCH  20  21
ENDBRANCH  19  20
ENDBRANCH  18  19
ENDBRANCH  17  18
ENDBRANCH  16  17
ENDBRANCH  15  16
ENDBRANCH  14  15
ENDBRANCH  13  14
ENDBRANCH   1  13
TORSDOF 20
ENDMDL
MODEL 4
REMARK VINA RESULT:    -1.908      4.664      5.889
REMARK INTER + INTRA:          -5.774
REMARK INTER:                  -4.360
REMARK INTRA:                  -1.413
REMARK UNBOUND:                -1.635
REMARK SMILES CCCCCCCCCCCCCCCCCCCCCC(=O)[O-]
REMARK SMILES IDX 12 1 11 2 10 3 9 4 8 5 7 6 6 7 5 8 4 9 3 10 2 11 1 12 13 13
REMARK SMILES IDX 14 14 15 15 16 16 17 17 18 18 19 19 20 20 21 21 22 22 23 23
REMARK SMILES IDX 24 24
REMARK H PARENT
REMARK Flexibility Score: inf
ROOT
ATOM      1  C   UNL     1       0.415  -6.832 -12.104  1.00  0.00     0.000 C 
ENDROOT
BRANCH   1   2
ATOM      2  C   UNL     1      -0.024  -8.240 -11.671  1.00  0.00     0.000 C 
BRANCH   2   3
ATOM      3  C   UNL     1       0.717  -8.679 -10.402  1.00  0.00     0.000 C 
BRANCH   3   4
ATOM      4  C   UNL     1      -0.248  -8.790  -9.212  1.00  0.00    -0.000 C 
BRANCH   4   5
ATOM      5  C   UNL     1      -1.190  -9.999  -9.320  1.00  0.00    -0.000 C 
BRANCH   5   6
ATOM      6  C   UNL     1      -2.403  -9.726 -10.227  1.00  0.00    -0.000 C 
BRANCH   6   7
ATOM      7  C   UNL     1      -3.203 -11.001 -10.542  1.00  0.00    -0.000 C 
BRANCH   7   8
ATOM      8  C   UNL     1      -2.315 -12.252 -10.631  1.00  0.00    -0.000 C 
BRANCH   8   9
ATOM      9  C   UNL     1      -1.782 -12.444 -12.059  1.00  0.00    -0.000 C 
BRANCH   9  10
ATOM     10  C   UNL     1      -0.322 -12.933 -12.095  1.00  0.00    -0.000 C 
BRANCH  10  11
ATOM     11  C   UNL     1       0.714 -11.911 -11.597  1.00  0.00    -0.003 C 
ATOM     12  C   UNL     1       1.368 -12.317 -10.277  1.00  0.00     0.004 C 
ENDBRANCH  10  11
ENDBRANCH   9  10
ENDBRANCH   8   9
ENDBRANCH   7   8
ENDBRANCH   6   7
ENDBRANCH   5   6
ENDBRANCH   4   5
ENDBRANCH   3   4
ENDBRANCH   2   3
ENDBRANCH   1   2
BRANCH   1  13
ATOM     13  C   UNL     1       0.804  -5.938 -10.916  1.00  0.00     0.000 C 
BRANCH  13  14
ATOM     14  C   UNL     1      -0.346  -5.018 -10.469  1.00  0.00     0.000 C 
BRANCH  14  15
ATOM     15  C   UNL     1      -0.224  -3.590 -11.032  1.00  0.00     0.000 C 
BRANCH  15  16
ATOM     16  C   UNL     1       0.847  -3.408 -12.123  1.00  0.00     0.000 C 
BRANCH  16  17
ATOM     17  C   UNL     1       1.772  -2.208 -11.859  1.00  0.00     0.000 C 
BRANCH  17  18
ATOM     18  C   UNL     1       3.179  -2.635 -11.411  1.00  0.00     0.000 C 
BRANCH  18  19
ATOM     19  C   UNL     1       4.134  -1.443 -11.249  1.00  0.00     0.000 C 
BRANCH  19  20
ATOM     20  C   UNL     1       5.522  -1.770 -11.811  1.00  0.00     0.006 C 
BRANCH  20  21
ATOM     21  C   UNL     1       6.554  -0.729 -11.369  1.00  0.00     0.053 C 
BRANCH  21  22
ATOM     22  C   UNL     1       7.688  -1.387 -10.649  1.00  0.00     0.041 C 
ATOM     23  O   UNL     1       7.492  -1.955  -9.542  1.00  0.00    -0.550 OA
ATOM     24  O   UNL     1       8.953  -1.417 -11.224  1.00  0.00    -0.550 OA
ENDBRANCH  21  22
ENDBRANCH  20  21
ENDBRANCH  19  20
ENDBRANCH  18  19
ENDBRANCH  17  18
ENDBRANCH  16  17
ENDBRANCH  15  16
ENDBRANCH  14  15
ENDBRANCH  13  14
ENDBRANCH   1  13
TORSDOF 20
ENDMDL
MODEL 5
REMARK VINA RESULT:    -1.787      4.532      8.946
REMARK INTER + INTRA:          -5.512
REMARK INTER:                  -4.503
REMARK INTRA:                  -1.008
REMARK UNBOUND:                -1.635
REMARK SMILES CCCCCCCCCCCCCCCCCCCCCC(=O)[O-]
REMARK SMILES IDX 12 1 11 2 10 3 9 4 8 5 7 6 6 7 5 8 4 9 3 10 2 11 1 12 13 13
REMARK SMILES IDX 14 14 15 15 16 16 17 17 18 18 19 19 20 20 21 21 22 22 23 23
REMARK SMILES IDX 24 24
REMARK H PARENT
REMARK Flexibility Score: inf
ROOT
ATOM      1  C   UNL     1       2.086  -4.578 -10.299  1.00  0.00     0.000 C 
ENDROOT
BRANCH   1   2
ATOM      2  C   UNL     1       2.769  -3.647 -11.312  1.00  0.00     0.000 C 
BRANCH   2   3
ATOM      3  C   UNL     1       2.375  -2.185 -11.067  1.00  0.00     0.000 C 
BRANCH   3   4
ATOM      4  C   UNL     1       3.281  -1.229 -11.857  1.00  0.00    -0.000 C 
BRANCH   4   5
ATOM      5  C   UNL     1       4.767  -1.617 -11.779  1.00  0.00    -0.000 C 
BRANCH   5   6
ATOM      6  C   UNL     1       5.703  -0.446 -12.124  1.00  0.00    -0.000 C 
BRANCH   6   7
ATOM      7  C   UNL     1       6.950  -0.402 -11.225  1.00  0.00    -0.000 C 
BRANCH   7   8
ATOM      8  C   UNL     1       7.236  -1.747 -10.542  1.00  0.00    -0.000 C 
BRANCH   8   9
ATOM      9  C   UNL     1       8.748  -1.978 -10.399  1.00  0.00    -0.000 C 
BRANCH   9  10
ATOM     10  C   UNL     1       9.121  -3.468 -10.293  1.00  0.00    -0.000 C 
BRANCH  10  11
ATOM     11  C   UNL     1       8.419  -4.384 -11.311  1.00  0.00    -0.003 C 
ATOM     12  C   UNL     1       8.439  -5.856 -10.902  1.00  0.00     0.004 C 
ENDBRANCH  10  11
ENDBRANCH   9  10
ENDBRANCH   8   9
ENDBRANCH   7   8
ENDBRANCH   6   7
ENDBRANCH   5   6
ENDBRANCH   4   5
ENDBRANCH   3   4
ENDBRANCH   2   3
ENDBRANCH   1   2
BRANCH   1  13
ATOM     13  C   UNL     1       1.615  -5.899 -10.928  1.00  0.00     0.000 C 
BRANCH  13  14
ATOM     14  C   UNL     1       2.761  -6.674 -11.603  1.00  0.00     0.000 C 
BRANCH  14  15
ATOM     15  C   UNL     1       2.907  -8.111 -11.072  1.00  0.00     0.000 C 
BRANCH  15  16
ATOM     16  C   UNL     1       2.720  -9.218 -12.125  1.00  0.00     0.000 C 
BRANCH  16  17
ATOM     17  C   UNL     1       1.339  -9.890 -12.047  1.00  0.00     0.000 C 
BRANCH  17  18
ATOM     18  C   UNL     1       1.425 -11.375 -11.661  1.00  0.00     0.000 C 
BRANCH  18  19
ATOM     19  C   UNL     1       0.215 -11.844 -10.840  1.00  0.00     0.000 C 
BRANCH  19  20
ATOM     20  C   UNL     1      -0.993 -12.109 -11.746  1.00  0.00     0.006 C 
BRANCH  20  21
ATOM     21  C   UNL     1      -1.947 -10.911 -11.754  1.00  0.00     0.053 C 
BRANCH  21  22
ATOM     22  C   UNL     1      -3.234 -11.261 -11.075  1.00  0.00     0.041 C 
ATOM     23  O   UNL     1      -3.638 -12.454 -11.059  1.00  0.00    -0.550 OA
ATOM     24  O   UNL     1      -3.963 -10.278 -10.417  1.00  0.00    -0.550 OA
ENDBRANCH  21  22
ENDBRANCH  20  21
ENDBRANCH  19  20
ENDBRANCH  18  19
ENDBRANCH  17  18
ENDBRANCH  16  17
ENDBRANCH  15  16
ENDBRANCH  14  15
ENDBRANCH  13  14
ENDBRANCH   1  13
TORSDOF 20
ENDMDL
MODEL 6
REMARK VINA RESULT:    -1.496      5.287      9.943
REMARK INTER + INTRA:          -4.879
REMARK INTER:                  -4.499
REMARK INTRA:                  -0.380
REMARK UNBOUND:                -1.635
REMARK SMILES CCCCCCCCCCCCCCCCCCCCCC(=O)[O-]
REMARK SMILES IDX 12 1 11 2 10 3 9 4 8 5 7 6 6 7 5 8 4 9 3 10 2 11 1 12 13 13
REMARK SMILES IDX 14 14 15 15 16 16 17 17 18 18 19 19 20 20 21 21 22 22 23 23
REMARK SMILES IDX 24 24
REMARK H PARENT
REMARK Flexibility Score: inf
ROOT
ATOM      1  C   UNL     1       2.245  -2.788 -11.879  1.00  0.00     0.000 C 
ENDROOT
BRANCH   1   2
ATOM      2  C   UNL     1       3.301  -1.996 -11.093  1.00  0.00     0.000 C 
BRANCH   2   3
ATOM      3  C   UNL     1       4.412  -1.491 -12.022  1.00  0.00     0.000 C 
BRANCH   3   4
ATOM      4  C   UNL     1       5.670  -1.117 -11.225  1.00  0.00    -0.000 C 
BRANCH   4   5
ATOM      5  C   UNL     1       6.840  -0.687 -12.125  1.00  0.00    -0.000 C 
BRANCH   5   6
ATOM      6  C   UNL     1       8.158  -1.391 -11.758  1.00  0.00    -0.000 C 
BRANCH   6   7
ATOM      7  C   UNL     1       8.929  -0.658 -10.648  1.00  0.00    -0.000 C 
BRANCH   7   8
ATOM      8  C   UNL     1       8.012  -0.147  -9.527  1.00  0.00    -0.000 C 
BRANCH   8   9
ATOM      9  C   UNL     1       8.144  -1.021  -8.271  1.00  0.00    -0.000 C 
BRANCH   9  10
ATOM     10  C   UNL     1       8.780  -0.276  -7.083  1.00  0.00    -0.000 C 
BRANCH  10  11
ATOM     11  C   UNL     1       9.124  -1.161  -5.873  1.00  0.00    -0.003 C 
ATOM     12  C   UNL     1       9.007  -2.655  -6.174  1.00  0.00     0.004 C 
ENDBRANCH  10  11
ENDBRANCH   9  10
ENDBRANCH   8   9
ENDBRANCH   7   8
ENDBRANCH   6   7
ENDBRANCH   5   6
ENDBRANCH   4   5
ENDBRANCH   3   4
ENDBRANCH   2   3
ENDBRANCH   1   2
BRANCH   1  13
ATOM     13  C   UNL     1       2.603  -4.276 -12.024  1.00  0.00     0.000 C 
BRANCH  13  14
ATOM     14  C   UNL     1       1.488  -5.204 -11.510  1.00  0.00     0.000 C 
BRANCH  14  15
ATOM     15  C   UNL     1       1.952  -6.663 -11.346  1.00  0.00     0.000 C 
BRANCH  15  16
ATOM     16  C   UNL     1       0.868  -7.641 -10.855  1.00  0.00     0.000 C 
BRANCH  16  17
ATOM     17  C   UNL     1      -0.439  -6.934 -10.459  1.00  0.00     0.000 C 
BRANCH  17  18
ATOM     18  C   UNL     1      -1.684  -7.630 -11.033  1.00  0.00     0.000 C 
BRANCH  18  19
ATOM     19  C   UNL     1      -1.454  -9.124 -11.301  1.00  0.00     0.000 C 
BRANCH  19  20
ATOM     20  C   UNL     1      -2.781  -9.893 -11.297  1.00  0.00     0.006 C 
BRANCH  20  21
ATOM     21  C   UNL     1      -2.542 -11.400 -11.439  1.00  0.00     0.053 C 
BRANCH  21  22
ATOM     22  C   UNL     1      -1.695 -11.904 -10.314  1.00  0.00     0.041 C 
ATOM     23  O   UNL     1      -0.448 -12.010 -10.458  1.00  0.00    -0.550 OA
ATOM     24  O   UNL     1      -2.275 -12.211  -9.089  1.00  0.00    -0.550 OA
ENDBRANCH  21  22
ENDBRANCH  20  21
ENDBRANCH  19  20
ENDBRANCH  18  19
ENDBRANCH  17  18
ENDBRANCH  16  17
ENDBRANCH  15  16
ENDBRANCH  14  15
ENDBRANCH  13  14
ENDBRANCH   1  13
TORSDOF 20
ENDMDL
MODEL 7
REMARK VINA RESULT:    -1.323      3.386      7.593
REMARK INTER + INTRA:          -4.504
REMARK INTER:                  -4.153
REMARK INTRA:                  -0.350
REMARK UNBOUND:                -1.635
REMARK SMILES CCCCCCCCCCCCCCCCCCCCCC(=O)[O-]
REMARK SMILES IDX 12 1 11 2 10 3 9 4 8 5 7 6 6 7 5 8 4 9 3 10 2 11 1 12 13 13
REMARK SMILES IDX 14 14 15 15 16 16 17 17 18 18 19 19 20 20 21 21 22 22 23 23
REMARK SMILES IDX 24 24
REMARK H PARENT
REMARK Flexibility Score: inf
ROOT
ATOM      1  C   UNL     1      -0.544  -8.216 -11.438  1.00  0.00     0.000 C 
ENDROOT
BRANCH   1   2
ATOM      2  C   UNL     1      -0.708  -6.839 -12.100  1.00  0.00     0.000 C 
BRANCH   2   3
ATOM      3  C   UNL     1      -1.265  -5.815 -11.104  1.00  0.00     0.000 C 
BRANCH   3   4
ATOM      4  C   UNL     1      -0.527  -4.473 -11.223  1.00  0.00    -0.000 C 
BRANCH   4   5
ATOM      5  C   UNL     1       0.970  -4.642 -11.528  1.00  0.00    -0.000 C 
BRANCH   5   6
ATOM      6  C   UNL     1       1.600  -3.372 -12.125  1.00  0.00    -0.000 C 
BRANCH   6   7
ATOM      7  C   UNL     1       1.517  -2.168 -11.172  1.00  0.00    -0.000 C 
BRANCH   7   8
ATOM      8  C   UNL     1       2.899  -1.670 -10.724  1.00  0.00    -0.000 C 
BRANCH   8   9
ATOM      9  C   UNL     1       3.865  -1.591 -11.915  1.00  0.00    -0.000 C 
BRANCH   9  10
ATOM     10  C   UNL     1       5.277  -1.127 -11.514  1.00  0.00    -0.000 C 
BRANCH  10  11
ATOM     11  C   UNL     1       6.404  -2.117 -11.858  1.00  0.00    -0.003 C 
ATOM     12  C   UNL     1       7.730  -1.771 -11.182  1.00  0.00     0.004 C 
ENDBRANCH  10  11
ENDBRANCH   9  10
ENDBRANCH   8   9
ENDBRANCH   7   8
ENDBRANCH   6   7
ENDBRANCH   5   6
ENDBRANCH   4   5
ENDBRANCH   3   4
ENDBRANCH   2   3
ENDBRANCH   1   2
BRANCH   1  13
ATOM     13  C   UNL     1      -1.889  -8.871 -11.085  1.00  0.00     0.000 C 
BRANCH  13  14
ATOM     14  C   UNL     1      -1.883  -9.517  -9.688  1.00  0.00     0.000 C 
BRANCH  14  15
ATOM     15  C   UNL     1      -0.916 -10.710  -9.583  1.00  0.00     0.000 C 
BRANCH  15  16
ATOM     16  C   UNL     1      -1.164 -11.841 -10.598  1.00  0.00     0.000 C 
BRANCH  16  17
ATOM     17  C   UNL     1      -0.427 -11.621 -11.931  1.00  0.00     0.000 C 
BRANCH  17  18
ATOM     18  C   UNL     1       0.745 -12.595 -12.125  1.00  0.00     0.000 C 
BRANCH  18  19
ATOM     19  C   UNL     1       2.112 -11.912 -11.974  1.00  0.00     0.000 C 
BRANCH  19  20
ATOM     20  C   UNL     1       1.982 -10.389 -12.098  1.00  0.00     0.006 C 
BRANCH  20  21
ATOM     21  C   UNL     1       2.015  -9.720 -10.721  1.00  0.00     0.053 C 
BRANCH  21  22
ATOM     22  C   UNL     1       2.542  -8.324 -10.828  1.00  0.00     0.041 C 
ATOM     23  O   UNL     1       2.270  -7.474  -9.940  1.00  0.00    -0.550 OA
ATOM     24  O   UNL     1       3.376  -7.975 -11.884  1.00  0.00    -0.550 OA
ENDBRANCH  21  22
ENDBRANCH  20  21
ENDBRANCH  19  20
ENDBRANCH  18  19
ENDBRANCH  17  18
ENDBRANCH  16  17
ENDBRANCH  15  16
ENDBRANCH  14  15
ENDBRANCH  13  14
ENDBRANCH   1  13
TORSDOF 20
ENDMDL
MODEL 8
REMARK VINA RESULT:    -1.163      9.088     13.354
REMARK INTER + INTRA:          -4.158
REMARK INTER:                  -3.216
REMARK INTRA:                  -0.941
REMARK UNBOUND:                -1.635
REMARK SMILES CCCCCCCCCCCCCCCCCCCCCC(=O)[O-]
REMARK SMILES IDX 12 1 11 2 10 3 9 4 8 5 7 6 6 7 5 8 4 9 3 10 2 11 1 12 13 13
REMARK SMILES IDX 14 14 15 15 16 16 17 17 18 18 19 19 20 20 21 21 22 22 23 23
REMARK SMILES IDX 24 24
REMARK H PARENT
REMARK Flexibility Score: inf
ROOT
ATOM      1  C   UNL     1      -3.462  -1.861 -12.090  1.00  0.00     0.000 C 
ENDROOT
BRANCH   1   2
ATOM      2  C   UNL     1      -3.560  -3.394 -12.125  1.00  0.00     0.000 C 
BRANCH   2   3
ATOM      3  C   UNL     1      -2.209  -4.038 -11.791  1.00  0.00     0.000 C 
BRANCH   3   4
ATOM      4  C   UNL     1      -2.227  -5.544 -12.093  1.00  0.00    -0.000 C 
BRANCH   4   5
ATOM      5  C   UNL     1      -1.274  -6.343 -11.190  1.00  0.00    -0.000 C 
BRANCH   5   6
ATOM      6  C   UNL     1      -0.476  -7.406 -11.965  1.00  0.00    -0.000 C 
BRANCH   6   7
ATOM      7  C   UNL     1      -0.581  -8.803 -11.330  1.00  0.00    -0.000 C 
BRANCH   7   8
ATOM      8  C   UNL     1       0.730  -9.598 -11.427  1.00  0.00    -0.000 C 
BRANCH   8   9
ATOM      9  C   UNL     1       0.447 -11.095 -11.630  1.00  0.00    -0.000 C 
BRANCH   9  10
ATOM     10  C   UNL     1      -1.047 -11.401 -11.842  1.00  0.00    -0.000 C 
BRANCH  10  11
ATOM     11  C   UNL     1      -1.682 -12.295 -10.763  1.00  0.00    -0.003 C 
ATOM     12  C   UNL     1      -1.627 -11.676  -9.367  1.00  0.00     0.004 C 
ENDBRANCH  10  11
ENDBRANCH   9  10
ENDBRANCH   8   9
ENDBRANCH   7   8
ENDBRANCH   6   7
ENDBRANCH   5   6
ENDBRANCH   4   5
ENDBRANCH   3   4
ENDBRANCH   2   3
ENDBRANCH   1   2
BRANCH   1  13
ATOM     13  C   UNL     1      -4.837  -1.175 -12.124  1.00  0.00     0.000 C 
BRANCH  13  14
ATOM     14  C   UNL     1      -4.752   0.334 -11.836  1.00  0.00     0.000 C 
BRANCH  14  15
ATOM     15  C   UNL     1      -5.038   0.680 -10.364  1.00  0.00     0.000 C 
BRANCH  15  16
ATOM     16  C   UNL     1      -6.459   0.340  -9.879  1.00  0.00     0.000 C 
BRANCH  16  17
ATOM     17  C   UNL     1      -7.526   1.301 -10.432  1.00  0.00     0.000 C 
BRANCH  17  18
ATOM     18  C   UNL     1      -8.922   1.033  -9.846  1.00  0.00     0.000 C 
BRANCH  18  19
ATOM     19  C   UNL     1      -9.334   2.079  -8.800  1.00  0.00     0.000 C 
BRANCH  19  20
ATOM     20  C   UNL     1      -8.340   3.247  -8.770  1.00  0.00     0.006 C 
BRANCH  20  21
ATOM     21  C   UNL     1      -9.072   4.587  -8.653  1.00  0.00     0.053 C 
BRANCH  21  22
ATOM     22  C   UNL     1      -8.362   5.643  -9.441  1.00  0.00     0.041 C 
ATOM     23  O   UNL     1      -7.892   5.376 -10.578  1.00  0.00    -0.550 OA
ATOM     24  O   UNL     1      -8.261   6.934  -8.939  1.00  0.00    -0.550 OA
ENDBRANCH  21  22
ENDBRANCH  20  21
ENDBRANCH  19  20
ENDBRANCH  18  19
ENDBRANCH  17  18
ENDBRANCH  16  17
ENDBRANCH  15  16
ENDBRANCH  14  15
ENDBRANCH  13  14
ENDBRANCH   1  13
TORSDOF 20
ENDMDL
