MODEL 1
REMARK VINA RESULT:    -4.491      0.000      0.000
REMARK INTER + INTRA:          -6.803
REMARK INTER:                  -6.197
REMARK INTRA:                  -0.606
REMARK UNBOUND:                -0.606
REMARK SMILES OC[C@@H](O)[C@@H](O)[C@@H](O)CO
REMARK SMILES IDX 5 1 3 2 2 3 1 4 4 6 7 8 9 9 10 10 8 12 6 14
REMARK H PARENT 1 5 4 7 10 11 8 13 6 15
REMARK Flexibility Score: inf
ROOT
ATOM      1  C   UNL     1     -32.926 -21.985  27.806  1.00  0.00     0.176 C 
ENDROOT
BRANCH   1   2
ATOM      2  C   UNL     1     -33.700 -23.331  27.799  1.00  0.00     0.171 C 
BRANCH   2   3
ATOM      3  C   UNL     1     -34.980 -23.311  26.937  1.00  0.00     0.190 C 
BRANCH   3   4
ATOM      4  O   UNL     1     -36.109 -23.124  27.746  1.00  0.00    -0.394 OA
ATOM      5  H   UNL     1     -35.818 -22.544  28.497  1.00  0.00     0.210 HD
ENDBRANCH   3   4
ENDBRANCH   2   3
BRANCH   2   6
ATOM      6  O   UNL     1     -32.834 -24.324  27.307  1.00  0.00    -0.388 OA
ATOM      7  H   UNL     1     -32.552 -24.042  26.396  1.00  0.00     0.211 HD
ENDBRANCH   2   6
ENDBRANCH   1   2
BRANCH   1   8
ATOM      8  C   UNL     1     -31.834 -21.832  28.902  1.00  0.00     0.171 C 
BRANCH   8   9
ATOM      9  C   UNL     1     -31.529 -20.364  29.238  1.00  0.00     0.190 C 
BRANCH   9  10
ATOM     10  O   UNL     1     -32.551 -19.824  30.032  1.00  0.00    -0.394 OA
ATOM     11  H   UNL     1     -32.550 -18.844  29.873  1.00  0.00     0.210 HD
ENDBRANCH   9  10
ENDBRANCH   8   9
BRANCH   8  12
ATOM     12  O   UNL     1     -30.649 -22.492  28.538  1.00  0.00    -0.388 OA
ATOM     13  H   UNL     1     -29.997 -22.350  29.274  1.00  0.00     0.211 HD
ENDBRANCH   8  12
ENDBRANCH   1   8
BRANCH   1  14
ATOM     14  O   UNL     1     -33.841 -20.920  27.888  1.00  0.00    -0.388 OA
ATOM     15  H   UNL     1     -34.602 -21.231  28.446  1.00  0.00     0.211 HD
ENDBRANCH   1  14
TORSDOF 9
ENDMDL
MODEL 2
REMARK VINA RESULT:    -4.339      1.421      3.977
REMARK INTER + INTRA:          -6.593
REMARK INTER:                  -6.079
REMARK INTRA:                  -0.515
REMARK UNBOUND:                -0.606
REMARK SMILES OC[C@@H](O)[C@@H](O)[C@@H](O)CO
REMARK SMILES IDX 5 1 3 2 2 3 1 4 4 6 7 8 9 9 10 10 8 12 6 14
REMARK H PARENT 1 5 4 7 10 11 8 13 6 15
REMARK Flexibility Score: inf
ROOT
ATOM      1  C   UNL     1     -32.076 -22.182  27.922  1.00  0.00     0.176 C 
ENDROOT
BRANCH   1   2
ATOM      2  C   UNL     1     -33.076 -21.523  28.910  1.00  0.00     0.171 C 
BRANCH   2   3
ATOM      3  C   UNL     1     -32.702 -20.080  29.308  1.00  0.00     0.190 C 
BRANCH   3   4
ATOM      4  O   UNL     1     -31.343 -20.003  29.640  1.00  0.00    -0.394 OA
ATOM      5  H   UNL     1     -31.303 -19.601  30.547  1.00  0.00     0.210 HD
ENDBRANCH   3   4
ENDBRANCH   2   3
BRANCH   2   6
ATOM      6  O   UNL     1     -34.344 -21.515  28.301  1.00  0.00    -0.388 OA
ATOM      7  H   UNL     1     -34.206 -21.289  27.343  1.00  0.00     0.211 HD
ENDBRANCH   2   6
ENDBRANCH   1   2
BRANCH   1   8
ATOM      8  C   UNL     1     -32.644 -23.329  27.040  1.00  0.00     0.171 C 
BRANCH   8   9
ATOM      9  C   UNL     1     -33.205 -22.829  25.700  1.00  0.00     0.190 C 
BRANCH   9  10
ATOM     10  O   UNL     1     -34.606 -22.900  25.702  1.00  0.00    -0.394 OA
ATOM     11  H   UNL     1     -34.881 -23.154  24.783  1.00  0.00     0.210 HD
ENDBRANCH   9  10
ENDBRANCH   8   9
BRANCH   8  12
ATOM     12  O   UNL     1     -33.628 -24.060  27.724  1.00  0.00    -0.388 OA
ATOM     13  H   UNL     1     -33.536 -23.845  28.689  1.00  0.00     0.211 HD
ENDBRANCH   8  12
ENDBRANCH   1   8
BRANCH   1  14
ATOM     14  O   UNL     1     -30.948 -22.634  28.630  1.00  0.00    -0.388 OA
ATOM     15  H   UNL     1     -30.454 -23.251  28.029  1.00  0.00     0.211 HD
ENDBRANCH   1  14
TORSDOF 9
ENDMDL
MODEL 3
REMARK VINA RESULT:    -4.270      0.973      1.647
REMARK INTER + INTRA:          -6.498
REMARK INTER:                  -5.978
REMARK INTRA:                  -0.521
REMARK UNBOUND:                -0.606
REMARK SMILES OC[C@@H](O)[C@@H](O)[C@@H](O)CO
REMARK SMILES IDX 5 1 3 2 2 3 1 4 4 6 7 8 9 9 10 10 8 12 6 14
REMARK H PARENT 1 5 4 7 10 11 8 13 6 15
REMARK Flexibility Score: inf
ROOT
ATOM      1  C   UNL     1     -32.979 -21.951  27.469  1.00  0.00     0.176 C 
ENDROOT
BRANCH   1   2
ATOM      2  C   UNL     1     -33.630 -23.326  27.777  1.00  0.00     0.171 C 
BRANCH   2   3
ATOM      3  C   UNL     1     -35.017 -23.520  27.130  1.00  0.00     0.190 C 
BRANCH   3   4
ATOM      4  O   UNL     1     -35.982 -22.764  27.809  1.00  0.00    -0.394 OA
ATOM      5  H   UNL     1     -36.035 -21.894  27.336  1.00  0.00     0.210 HD
ENDBRANCH   3   4
ENDBRANCH   2   3
BRANCH   2   6
ATOM      6  O   UNL     1     -32.763 -24.329  27.306  1.00  0.00    -0.388 OA
ATOM      7  H   UNL     1     -31.899 -24.217  27.786  1.00  0.00     0.211 HD
ENDBRANCH   2   6
ENDBRANCH   1   2
BRANCH   1   8
ATOM      8  C   UNL     1     -32.985 -20.918  28.631  1.00  0.00     0.171 C 
BRANCH   8   9
ATOM      9  C   UNL     1     -31.608 -20.760  29.294  1.00  0.00     0.190 C 
BRANCH   9  10
ATOM     10  O   UNL     1     -30.857 -21.934  29.144  1.00  0.00    -0.394 OA
ATOM     11  H   UNL     1     -31.078 -22.304  28.250  1.00  0.00     0.210 HD
ENDBRANCH   9  10
ENDBRANCH   8   9
BRANCH   8  12
ATOM     12  O   UNL     1     -33.944 -21.247  29.602  1.00  0.00    -0.388 OA
ATOM     13  H   UNL     1     -34.454 -20.418  29.802  1.00  0.00     0.211 HD
ENDBRANCH   8  12
ENDBRANCH   1   8
BRANCH   1  14
ATOM     14  O   UNL     1     -33.584 -21.392  26.328  1.00  0.00    -0.388 OA
ATOM     15  H   UNL     1     -33.474 -20.407  26.392  1.00  0.00     0.211 HD
ENDBRANCH   1  14
TORSDOF 9
ENDMDL
MODEL 4
REMARK VINA RESULT:    -4.268      1.291      3.881
REMARK INTER + INTRA:          -6.496
REMARK INTER:                  -5.842
REMARK INTRA:                  -0.653
REMARK UNBOUND:                -0.606
REMARK SMILES OC[C@@H](O)[C@@H](O)[C@@H](O)CO
REMARK SMILES IDX 5 1 3 2 2 3 1 4 4 6 7 8 9 9 10 10 8 12 6 14
REMARK H PARENT 1 5 4 7 10 11 8 13 6 15
REMARK Flexibility Score: inf
ROOT
ATOM      1  C   UNL     1     -33.110 -21.180  28.406  1.00  0.00     0.176 C 
ENDROOT
BRANCH   1   2
ATOM      2  C   UNL     1     -31.888 -20.385  28.940  1.00  0.00     0.171 C 
BRANCH   2   3
ATOM      3  C   UNL     1     -32.261 -19.063  29.642  1.00  0.00     0.190 C 
BRANCH   3   4
ATOM      4  O   UNL     1     -32.426 -18.039  28.700  1.00  0.00    -0.394 OA
ATOM      5  H   UNL     1     -32.951 -17.329  29.152  1.00  0.00     0.210 HD
ENDBRANCH   3   4
ENDBRANCH   2   3
BRANCH   2   6
ATOM      6  O   UNL     1     -31.201 -21.208  29.849  1.00  0.00    -0.388 OA
ATOM      7  H   UNL     1     -30.747 -20.609  30.500  1.00  0.00     0.211 HD
ENDBRANCH   2   6
ENDBRANCH   1   2
BRANCH   1   8
ATOM      8  C   UNL     1     -32.786 -22.435  27.548  1.00  0.00     0.171 C 
BRANCH   8   9
ATOM      9  C   UNL     1     -34.035 -23.264  27.209  1.00  0.00     0.190 C 
BRANCH   9  10
ATOM     10  O   UNL     1     -35.138 -22.805  27.943  1.00  0.00    -0.394 OA
ATOM     11  H   UNL     1     -34.782 -22.218  28.660  1.00  0.00     0.210 HD
ENDBRANCH   9  10
ENDBRANCH   8   9
BRANCH   8  12
ATOM     12  O   UNL     1     -31.831 -23.250  28.175  1.00  0.00    -0.388 OA
ATOM     13  H   UNL     1     -31.078 -23.363  27.537  1.00  0.00     0.211 HD
ENDBRANCH   8  12
ENDBRANCH   1   8
BRANCH   1  14
ATOM     14  O   UNL     1     -33.955 -20.313  27.690  1.00  0.00    -0.388 OA
ATOM     15  H   UNL     1     -34.861 -20.392  28.090  1.00  0.00     0.211 HD
ENDBRANCH   1  14
TORSDOF 9
ENDMDL
MODEL 5
REMARK VINA RESULT:    -4.248      1.463      1.503
REMARK INTER + INTRA:          -6.469
REMARK INTER:                  -6.011
REMARK INTRA:                  -0.458
REMARK UNBOUND:                -0.606
REMARK SMILES OC[C@@H](O)[C@@H](O)[C@@H](O)CO
REMARK SMILES IDX 5 1 3 2 2 3 1 4 4 6 7 8 9 9 10 10 8 12 6 14
REMARK H PARENT 1 5 4 7 10 11 8 13 6 15
REMARK Flexibility Score: inf
ROOT
ATOM      1  C   UNL     1     -32.890 -21.238  28.022  1.00  0.00     0.176 C 
ENDROOT
BRANCH   1   2
ATOM      2  C   UNL     1     -33.378 -22.711  28.035  1.00  0.00     0.171 C 
BRANCH   2   3
ATOM      3  C   UNL     1     -34.412 -23.036  26.937  1.00  0.00     0.190 C 
BRANCH   3   4
ATOM      4  O   UNL     1     -34.011 -22.486  25.712  1.00  0.00    -0.394 OA
ATOM      5  H   UNL     1     -33.642 -21.588  25.919  1.00  0.00     0.210 HD
ENDBRANCH   3   4
ENDBRANCH   2   3
BRANCH   2   6
ATOM      6  O   UNL     1     -32.255 -23.540  27.864  1.00  0.00    -0.388 OA
ATOM      7  H   UNL     1     -31.456 -22.949  27.847  1.00  0.00     0.211 HD
ENDBRANCH   2   6
ENDBRANCH   1   2
BRANCH   1   8
ATOM      8  C   UNL     1     -32.269 -20.713  29.347  1.00  0.00     0.171 C 
BRANCH   8   9
ATOM      9  C   UNL     1     -32.197 -19.180  29.406  1.00  0.00     0.190 C 
BRANCH   9  10
ATOM     10  O   UNL     1     -30.863 -18.757  29.493  1.00  0.00    -0.394 OA
ATOM     11  H   UNL     1     -30.300 -19.525  29.212  1.00  0.00     0.210 HD
ENDBRANCH   9  10
ENDBRANCH   8   9
BRANCH   8  12
ATOM     12  O   UNL     1     -30.993 -21.257  29.564  1.00  0.00    -0.388 OA
ATOM     13  H   UNL     1     -30.333 -20.604  29.209  1.00  0.00     0.211 HD
ENDBRANCH   8  12
ENDBRANCH   1   8
BRANCH   1  14
ATOM     14  O   UNL     1     -33.946 -20.398  27.622  1.00  0.00    -0.388 OA
ATOM     15  H   UNL     1     -34.036 -20.492  26.638  1.00  0.00     0.211 HD
ENDBRANCH   1  14
TORSDOF 9
ENDMDL
MODEL 6
REMARK VINA RESULT:    -4.247      1.377      4.199
REMARK INTER + INTRA:          -6.467
REMARK INTER:                  -6.364
REMARK INTRA:                  -0.103
REMARK UNBOUND:                -0.606
REMARK SMILES OC[C@@H](O)[C@@H](O)[C@@H](O)CO
REMARK SMILES IDX 5 1 3 2 2 3 1 4 4 6 7 8 9 9 10 10 8 12 6 14
REMARK H PARENT 1 5 4 7 10 11 8 13 6 15
REMARK Flexibility Score: inf
ROOT
ATOM      1  C   UNL     1     -33.767 -21.188  28.311  1.00  0.00     0.176 C 
ENDROOT
BRANCH   1   2
ATOM      2  C   UNL     1     -32.577 -20.885  29.262  1.00  0.00     0.171 C 
BRANCH   2   3
ATOM      3  C   UNL     1     -31.247 -21.529  28.821  1.00  0.00     0.190 C 
BRANCH   3   4
ATOM      4  O   UNL     1     -30.454 -21.824  29.939  1.00  0.00    -0.394 OA
ATOM      5  H   UNL     1     -30.912 -22.564  30.415  1.00  0.00     0.210 HD
ENDBRANCH   3   4
ENDBRANCH   2   3
BRANCH   2   6
ATOM      6  O   UNL     1     -32.413 -19.490  29.317  1.00  0.00    -0.388 OA
ATOM      7  H   UNL     1     -32.275 -19.249  30.272  1.00  0.00     0.211 HD
ENDBRANCH   2   6
ENDBRANCH   1   2
BRANCH   1   8
ATOM      8  C   UNL     1     -33.862 -22.646  27.781  1.00  0.00     0.171 C 
BRANCH   8   9
ATOM      9  C   UNL     1     -33.220 -22.820  26.395  1.00  0.00     0.190 C 
BRANCH   9  10
ATOM     10  O   UNL     1     -34.205 -22.811  25.397  1.00  0.00    -0.394 OA
ATOM     11  H   UNL     1     -34.879 -23.493  25.653  1.00  0.00     0.210 HD
ENDBRANCH   9  10
ENDBRANCH   8   9
BRANCH   8  12
ATOM     12  O   UNL     1     -35.193 -23.091  27.746  1.00  0.00    -0.388 OA
ATOM     13  H   UNL     1     -35.740 -22.350  27.376  1.00  0.00     0.211 HD
ENDBRANCH   8  12
ENDBRANCH   1   8
BRANCH   1  14
ATOM     14  O   UNL     1     -33.745 -20.285  27.232  1.00  0.00    -0.388 OA
ATOM     15  H   UNL     1     -33.610 -19.379  27.613  1.00  0.00     0.211 HD
ENDBRANCH   1  14
TORSDOF 9
ENDMDL
MODEL 7
REMARK VINA RESULT:    -4.185      1.562      3.951
REMARK INTER + INTRA:          -6.382
REMARK INTER:                  -5.883
REMARK INTRA:                  -0.498
REMARK UNBOUND:                -0.606
REMARK SMILES OC[C@@H](O)[C@@H](O)[C@@H](O)CO
REMARK SMILES IDX 5 1 3 2 2 3 1 4 4 6 7 8 9 9 10 10 8 12 6 14
REMARK H PARENT 1 5 4 7 10 11 8 13 6 15
REMARK Flexibility Score: inf
ROOT
ATOM      1  C   UNL     1     -33.497 -21.665  28.572  1.00  0.00     0.176 C 
ENDROOT
BRANCH   1   2
ATOM      2  C   UNL     1     -33.480 -20.117  28.687  1.00  0.00     0.171 C 
BRANCH   2   3
ATOM      3  C   UNL     1     -32.208 -19.555  29.353  1.00  0.00     0.190 C 
BRANCH   3   4
ATOM      4  O   UNL     1     -32.305 -18.164  29.495  1.00  0.00    -0.394 OA
ATOM      5  H   UNL     1     -33.153 -17.995  29.982  1.00  0.00     0.210 HD
ENDBRANCH   3   4
ENDBRANCH   2   3
BRANCH   2   6
ATOM      6  O   UNL     1     -33.590 -19.586  27.390  1.00  0.00    -0.388 OA
ATOM      7  H   UNL     1     -33.358 -18.622  27.448  1.00  0.00     0.211 HD
ENDBRANCH   2   6
ENDBRANCH   1   2
BRANCH   1   8
ATOM      8  C   UNL     1     -32.508 -22.284  27.544  1.00  0.00     0.171 C 
BRANCH   8   9
ATOM      9  C   UNL     1     -33.219 -23.063  26.427  1.00  0.00     0.190 C 
BRANCH   9  10
ATOM     10  O   UNL     1     -34.058 -22.210  25.697  1.00  0.00    -0.394 OA
ATOM     11  H   UNL     1     -34.905 -22.704  25.542  1.00  0.00     0.210 HD
ENDBRANCH   9  10
ENDBRANCH   8   9
BRANCH   8  12
ATOM     12  O   UNL     1     -31.567 -23.112  28.176  1.00  0.00    -0.388 OA
ATOM     13  H   UNL     1     -30.833 -22.527  28.501  1.00  0.00     0.211 HD
ENDBRANCH   8  12
ENDBRANCH   1   8
BRANCH   1  14
ATOM     14  O   UNL     1     -34.807 -22.100  28.299  1.00  0.00    -0.388 OA
ATOM     15  H   UNL     1     -35.293 -21.330  27.903  1.00  0.00     0.211 HD
ENDBRANCH   1  14
TORSDOF 9
ENDMDL
MODEL 8
REMARK VINA RESULT:    -3.986      1.827      4.311
REMARK INTER + INTRA:          -6.107
REMARK INTER:                  -5.479
REMARK INTRA:                  -0.628
REMARK UNBOUND:                -0.606
REMARK SMILES OC[C@@H](O)[C@@H](O)[C@@H](O)CO
REMARK SMILES IDX 5 1 3 2 2 3 1 4 4 6 7 8 9 9 10 10 8 12 6 14
REMARK H PARENT 1 5 4 7 10 11 8 13 6 15
REMARK Flexibility Score: inf
ROOT
ATOM      1  C   UNL     1     -32.723 -20.753  28.436  1.00  0.00     0.176 C 
ENDROOT
BRANCH   1   2
ATOM      2  C   UNL     1     -33.438 -19.450  27.984  1.00  0.00     0.171 C 
BRANCH   2   3
ATOM      3  C   UNL     1     -32.597 -18.173  28.190  1.00  0.00     0.190 C 
BRANCH   3   4
ATOM      4  O   UNL     1     -32.437 -17.910  29.557  1.00  0.00    -0.394 OA
ATOM      5  H   UNL     1     -33.285 -18.186  29.992  1.00  0.00     0.210 HD
ENDBRANCH   3   4
ENDBRANCH   2   3
BRANCH   2   6
ATOM      6  O   UNL     1     -33.746 -19.579  26.618  1.00  0.00    -0.388 OA
ATOM      7  H   UNL     1     -33.974 -20.533  26.458  1.00  0.00     0.211 HD
ENDBRANCH   2   6
ENDBRANCH   1   2
BRANCH   1   8
ATOM      8  C   UNL     1     -33.505 -22.076  28.204  1.00  0.00     0.171 C 
BRANCH   8   9
ATOM      9  C   UNL     1     -33.116 -22.776  26.893  1.00  0.00     0.190 C 
BRANCH   9  10
ATOM     10  O   UNL     1     -33.928 -22.328  25.841  1.00  0.00    -0.394 OA
ATOM     11  H   UNL     1     -33.328 -22.147  25.072  1.00  0.00     0.210 HD
ENDBRANCH   9  10
ENDBRANCH   8   9
BRANCH   8  12
ATOM     12  O   UNL     1     -34.892 -21.862  28.234  1.00  0.00    -0.388 OA
ATOM     13  H   UNL     1     -35.325 -22.707  27.944  1.00  0.00     0.211 HD
ENDBRANCH   8  12
ENDBRANCH   1   8
BRANCH   1  14
ATOM     14  O   UNL     1     -32.360 -20.641  29.791  1.00  0.00    -0.388 OA
ATOM     15  H   UNL     1     -33.186 -20.420  30.296  1.00  0.00     0.211 HD
ENDBRANCH   1  14
TORSDOF 9
ENDMDL
MODEL 9
REMARK VINA RESULT:    -3.942      1.845      2.767
REMARK INTER + INTRA:          -6.045
REMARK INTER:                  -5.569
REMARK INTRA:                  -0.476
REMARK UNBOUND:                -0.606
REMARK SMILES OC[C@@H](O)[C@@H](O)[C@@H](O)CO
REMARK SMILES IDX 5 1 3 2 2 3 1 4 4 6 7 8 9 9 10 10 8 12 6 14
REMARK H PARENT 1 5 4 7 10 11 8 13 6 15
REMARK Flexibility Score: inf
ROOT
ATOM      1  C   UNL     1     -33.335 -20.701  28.318  1.00  0.00     0.176 C 
ENDROOT
BRANCH   1   2
ATOM      2  C   UNL     1     -33.150 -21.862  27.303  1.00  0.00     0.171 C 
BRANCH   2   3
ATOM      3  C   UNL     1     -33.845 -23.174  27.722  1.00  0.00     0.190 C 
BRANCH   3   4
ATOM      4  O   UNL     1     -33.002 -24.268  27.489  1.00  0.00    -0.394 OA
ATOM      5  H   UNL     1     -33.507 -25.073  27.776  1.00  0.00     0.210 HD
ENDBRANCH   3   4
ENDBRANCH   2   3
BRANCH   2   6
ATOM      6  O   UNL     1     -33.673 -21.442  26.067  1.00  0.00    -0.388 OA
ATOM      7  H   UNL     1     -33.151 -20.644  25.785  1.00  0.00     0.211 HD
ENDBRANCH   2   6
ENDBRANCH   1   2
BRANCH   1   8
ATOM      8  C   UNL     1     -32.899 -19.291  27.829  1.00  0.00     0.171 C 
BRANCH   8   9
ATOM      9  C   UNL     1     -32.585 -18.330  28.986  1.00  0.00     0.190 C 
BRANCH   9  10
ATOM     10  O   UNL     1     -31.327 -18.619  29.532  1.00  0.00    -0.394 OA
ATOM     11  H   UNL     1     -31.472 -18.834  30.490  1.00  0.00     0.210 HD
ENDBRANCH   9  10
ENDBRANCH   8   9
BRANCH   8  12
ATOM     12  O   UNL     1     -33.867 -18.721  26.987  1.00  0.00    -0.388 OA
ATOM     13  H   UNL     1     -33.422 -17.990  26.484  1.00  0.00     0.211 HD
ENDBRANCH   8  12
ENDBRANCH   1   8
BRANCH   1  14
ATOM     14  O   UNL     1     -32.673 -21.019  29.518  1.00  0.00    -0.388 OA
ATOM     15  H   UNL     1     -33.239 -21.680  29.997  1.00  0.00     0.211 HD
ENDBRANCH   1  14
TORSDOF 9
ENDMDL
