MODEL 1
REMARK VINA RESULT:    -3.472      0.000      0.000
REMARK INTER + INTRA:          -4.422
REMARK INTER:                  -4.283
REMARK INTRA:                  -0.138
REMARK UNBOUND:                -0.138
REMARK SMILES CCCCCC(=O)[O-]
REMARK SMILES IDX 4 1 5 2 6 3 7 4 8 5 3 6 2 7 1 8
REMARK H PARENT
REMARK Flexibility Score: inf
ROOT
ATOM      1  C   UNL     1      -5.493   3.211  16.132  1.00  0.00     0.006 C 
ENDROOT
BRANCH   1   2
ATOM      2  C   UNL     1      -6.978   2.939  16.420  1.00  0.00     0.053 C 
BRANCH   2   3
ATOM      3  C   UNL     1      -7.841   4.109  16.061  1.00  0.00     0.041 C 
ATOM      4  O   UNL     1      -7.931   5.094  16.841  1.00  0.00    -0.550 OA
ATOM      5  O   UNL     1      -8.569   4.099  14.879  1.00  0.00    -0.550 OA
ENDBRANCH   2   3
ENDBRANCH   1   2
BRANCH   1   6
ATOM      6  C   UNL     1      -4.848   2.237  15.124  1.00  0.00     0.000 C 
BRANCH   6   7
ATOM      7  C   UNL     1      -5.562   2.144  13.765  1.00  0.00    -0.003 C 
ATOM      8  C   UNL     1      -5.197   0.882  12.984  1.00  0.00     0.004 C 
ENDBRANCH   6   7
ENDBRANCH   1   6
TORSDOF 4
ENDMDL
MODEL 2
REMARK VINA RESULT:    -3.459      0.148      1.145
REMARK INTER + INTRA:          -4.407
REMARK INTER:                  -4.273
REMARK INTRA:                  -0.134
REMARK UNBOUND:                -0.138
REMARK SMILES CCCCCC(=O)[O-]
REMARK SMILES IDX 4 1 5 2 6 3 7 4 8 5 3 6 2 7 1 8
REMARK H PARENT
REMARK Flexibility Score: inf
ROOT
ATOM      1  C   UNL     1      -5.545   3.219  16.176  1.00  0.00     0.006 C 
ENDROOT
BRANCH   1   2
ATOM      2  C   UNL     1      -7.026   2.905  16.436  1.00  0.00     0.053 C 
BRANCH   2   3
ATOM      3  C   UNL     1      -7.910   4.073  16.119  1.00  0.00     0.041 C 
ATOM      4  O   UNL     1      -8.720   4.012  15.158  1.00  0.00    -0.550 OA
ATOM      5  O   UNL     1      -7.815   5.238  16.868  1.00  0.00    -0.550 OA
ENDBRANCH   2   3
ENDBRANCH   1   2
BRANCH   1   6
ATOM      6  C   UNL     1      -4.869   2.303  15.135  1.00  0.00     0.000 C 
BRANCH   6   7
ATOM      7  C   UNL     1      -5.610   2.191  13.791  1.00  0.00    -0.003 C 
ATOM      8  C   UNL     1      -5.216   0.949  12.993  1.00  0.00     0.004 C 
ENDBRANCH   6   7
ENDBRANCH   1   6
TORSDOF 4
ENDMDL
MODEL 3
REMARK VINA RESULT:    -3.365      8.233      9.133
REMARK INTER + INTRA:          -4.291
REMARK INTER:                  -4.082
REMARK INTRA:                  -0.209
REMARK UNBOUND:                -0.138
REMARK SMILES CCCCCC(=O)[O-]
REMARK SMILES IDX 4 1 5 2 6 3 7 4 8 5 3 6 2 7 1 8
REMARK H PARENT
REMARK Flexibility Score: inf
ROOT
ATOM      1  C   UNL     1      -3.153  -3.920   9.057  1.00  0.00     0.006 C 
ENDROOT
BRANCH   1   2
ATOM      2  C   UNL     1      -2.817  -2.519   8.523  1.00  0.00     0.053 C 
BRANCH   2   3
ATOM      3  C   UNL     1      -3.745  -1.476   9.065  1.00  0.00     0.041 C 
ATOM      4  O   UNL     1      -4.920  -1.380   8.623  1.00  0.00    -0.550 OA
ATOM      5  O   UNL     1      -3.302  -0.589  10.037  1.00  0.00    -0.550 OA
ENDBRANCH   2   3
ENDBRANCH   1   2
BRANCH   1   6
ATOM      6  C   UNL     1      -3.272  -4.008  10.593  1.00  0.00     0.000 C 
BRANCH   6   7
ATOM      7  C   UNL     1      -4.509  -4.766  11.105  1.00  0.00    -0.003 C 
ATOM      8  C   UNL     1      -5.499  -5.113   9.993  1.00  0.00     0.004 C 
ENDBRANCH   6   7
ENDBRANCH   1   6
TORSDOF 4
ENDMDL
MODEL 4
REMARK VINA RESULT:    -3.330     10.767     11.703
REMARK INTER + INTRA:          -4.247
REMARK INTER:                  -4.149
REMARK INTRA:                  -0.098
REMARK UNBOUND:                -0.138
REMARK SMILES CCCCCC(=O)[O-]
REMARK SMILES IDX 4 1 5 2 6 3 7 4 8 5 3 6 2 7 1 8
REMARK H PARENT
REMARK Flexibility Score: inf
ROOT
ATOM      1  C   UNL     1      -3.269   8.071   5.060  1.00  0.00     0.006 C 
ENDROOT
BRANCH   1   2
ATOM      2  C   UNL     1      -2.151   8.609   5.966  1.00  0.00     0.053 C 
BRANCH   2   3
ATOM      3  C   UNL     1      -1.966  10.087   5.809  1.00  0.00     0.041 C 
ATOM      4  O   UNL     1      -2.197  10.641   4.702  1.00  0.00    -0.550 OA
ATOM      5  O   UNL     1      -1.508  10.848   6.877  1.00  0.00    -0.550 OA
ENDBRANCH   2   3
ENDBRANCH   1   2
BRANCH   1   6
ATOM      6  C   UNL     1      -3.961   6.796   5.585  1.00  0.00     0.000 C 
BRANCH   6   7
ATOM      7  C   UNL     1      -4.387   6.851   7.062  1.00  0.00    -0.003 C 
ATOM      8  C   UNL     1      -3.604   5.882   7.946  1.00  0.00     0.004 C 
ENDBRANCH   6   7
ENDBRANCH   1   6
TORSDOF 4
ENDMDL
MODEL 5
REMARK VINA RESULT:    -3.290      8.872      9.788
REMARK INTER + INTRA:          -4.198
REMARK INTER:                  -3.997
REMARK INTRA:                  -0.201
REMARK UNBOUND:                -0.138
REMARK SMILES CCCCCC(=O)[O-]
REMARK SMILES IDX 4 1 5 2 6 3 7 4 8 5 3 6 2 7 1 8
REMARK H PARENT
REMARK Flexibility Score: inf
ROOT
ATOM      1  C   UNL     1      -4.426   6.623   7.090  1.00  0.00     0.006 C 
ENDROOT
BRANCH   1   2
ATOM      2  C   UNL     1      -3.527   5.820   8.044  1.00  0.00     0.053 C 
BRANCH   2   3
ATOM      3  C   UNL     1      -2.919   6.689   9.102  1.00  0.00     0.041 C 
ATOM      4  O   UNL     1      -3.210   7.912   9.164  1.00  0.00    -0.550 OA
ATOM      5  O   UNL     1      -2.007   6.152  10.001  1.00  0.00    -0.550 OA
ENDBRANCH   2   3
ENDBRANCH   1   2
BRANCH   1   6
ATOM      6  C   UNL     1      -3.971   6.609   5.616  1.00  0.00     0.000 C 
BRANCH   6   7
ATOM      7  C   UNL     1      -3.476   7.962   5.078  1.00  0.00    -0.003 C 
ATOM      8  C   UNL     1      -2.222   8.466   5.792  1.00  0.00     0.004 C 
ENDBRANCH   6   7
ENDBRANCH   1   6
TORSDOF 4
ENDMDL
MODEL 6
REMARK VINA RESULT:    -3.276      7.943      8.949
REMARK INTER + INTRA:          -4.180
REMARK INTER:                  -3.943
REMARK INTRA:                  -0.237
REMARK UNBOUND:                -0.138
REMARK SMILES CCCCCC(=O)[O-]
REMARK SMILES IDX 4 1 5 2 6 3 7 4 8 5 3 6 2 7 1 8
REMARK H PARENT
REMARK Flexibility Score: inf
ROOT
ATOM      1  C   UNL     1      -0.256  -0.233  18.667  1.00  0.00     0.006 C 
ENDROOT
BRANCH   1   2
ATOM      2  C   UNL     1      -0.496   0.780  17.536  1.00  0.00     0.053 C 
BRANCH   2   3
ATOM      3  C   UNL     1       0.659   0.841  16.584  1.00  0.00     0.041 C 
ATOM      4  O   UNL     1       1.603   0.013  16.679  1.00  0.00    -0.550 OA
ATOM      5  O   UNL     1       0.706   1.831  15.612  1.00  0.00    -0.550 OA
ENDBRANCH   2   3
ENDBRANCH   1   2
BRANCH   1   6
ATOM      6  C   UNL     1       0.057   0.401  20.038  1.00  0.00     0.000 C 
BRANCH   6   7
ATOM      7  C   UNL     1       1.529   0.308  20.474  1.00  0.00    -0.003 C 
ATOM      8  C   UNL     1       2.409   1.384  19.839  1.00  0.00     0.004 C 
ENDBRANCH   6   7
ENDBRANCH   1   6
TORSDOF 4
ENDMDL
MODEL 7
REMARK VINA RESULT:    -3.265      2.437      3.762
REMARK INTER + INTRA:          -4.167
REMARK INTER:                  -3.971
REMARK INTRA:                  -0.197
REMARK UNBOUND:                -0.138
REMARK SMILES CCCCCC(=O)[O-]
REMARK SMILES IDX 4 1 5 2 6 3 7 4 8 5 3 6 2 7 1 8
REMARK H PARENT
REMARK Flexibility Score: inf
ROOT
ATOM      1  C   UNL     1      -5.523   3.274  16.078  1.00  0.00     0.006 C 
ENDROOT
BRANCH   1   2
ATOM      2  C   UNL     1      -4.911   2.130  15.254  1.00  0.00     0.053 C 
BRANCH   2   3
ATOM      3  C   UNL     1      -5.110   2.333  13.783  1.00  0.00     0.041 C 
ATOM      4  O   UNL     1      -4.710   3.390  13.228  1.00  0.00    -0.550 OA
ATOM      5  O   UNL     1      -5.765   1.366  13.031  1.00  0.00    -0.550 OA
ENDBRANCH   2   3
ENDBRANCH   1   2
BRANCH   1   6
ATOM      6  C   UNL     1      -7.006   3.072  16.453  1.00  0.00     0.000 C 
BRANCH   6   7
ATOM      7  C   UNL     1      -7.939   4.227  16.053  1.00  0.00    -0.003 C 
ATOM      8  C   UNL     1      -8.456   4.107  14.620  1.00  0.00     0.004 C 
ENDBRANCH   6   7
ENDBRANCH   1   6
TORSDOF 4
ENDMDL
MODEL 8
REMARK VINA RESULT:    -3.257      7.014      7.915
REMARK INTER + INTRA:          -4.157
REMARK INTER:                  -4.020
REMARK INTRA:                  -0.137
REMARK UNBOUND:                -0.138
REMARK SMILES CCCCCC(=O)[O-]
REMARK SMILES IDX 4 1 5 2 6 3 7 4 8 5 3 6 2 7 1 8
REMARK H PARENT
REMARK Flexibility Score: inf
ROOT
ATOM      1  C   UNL     1       0.850   0.125  17.693  1.00  0.00     0.006 C 
ENDROOT
BRANCH   1   2
ATOM      2  C   UNL     1      -0.296  -0.216  18.659  1.00  0.00     0.053 C 
BRANCH   2   3
ATOM      3  C   UNL     1      -0.032   0.294  20.042  1.00  0.00     0.041 C 
ATOM      4  O   UNL     1       1.145   0.344  20.486  1.00  0.00    -0.550 OA
ATOM      5  O   UNL     1      -1.090   0.686  20.852  1.00  0.00    -0.550 OA
ENDBRANCH   2   3
ENDBRANCH   1   2
BRANCH   1   6
ATOM      6  C   UNL     1       0.437   1.005  16.495  1.00  0.00     0.000 C 
BRANCH   6   7
ATOM      7  C   UNL     1      -1.034   1.456  16.498  1.00  0.00    -0.003 C 
ATOM      8  C   UNL     1      -1.767   1.113  15.202  1.00  0.00     0.004 C 
ENDBRANCH   6   7
ENDBRANCH   1   6
TORSDOF 4
ENDMDL
MODEL 9
REMARK VINA RESULT:    -3.248      7.411      9.078
REMARK INTER + INTRA:          -4.146
REMARK INTER:                  -3.942
REMARK INTRA:                  -0.204
REMARK UNBOUND:                -0.138
REMARK SMILES CCCCCC(=O)[O-]
REMARK SMILES IDX 4 1 5 2 6 3 7 4 8 5 3 6 2 7 1 8
REMARK H PARENT
REMARK Flexibility Score: inf
ROOT
ATOM      1  C   UNL     1      -3.120  -2.572   8.877  1.00  0.00     0.006 C 
ENDROOT
BRANCH   1   2
ATOM      2  C   UNL     1      -3.625  -4.022   8.945  1.00  0.00     0.053 C 
BRANCH   2   3
ATOM      3  C   UNL     1      -4.225  -4.343  10.280  1.00  0.00     0.041 C 
ATOM      4  O   UNL     1      -3.671  -3.942  11.337  1.00  0.00    -0.550 OA
ATOM      5  O   UNL     1      -5.378  -5.112  10.356  1.00  0.00    -0.550 OA
ENDBRANCH   2   3
ENDBRANCH   1   2
BRANCH   1   6
ATOM      6  C   UNL     1      -4.234  -1.510   8.769  1.00  0.00     0.000 C 
BRANCH   6   7
ATOM      7  C   UNL     1      -3.968  -0.210   9.547  1.00  0.00    -0.003 C 
ATOM      8  C   UNL     1      -3.692  -0.449  11.031  1.00  0.00     0.004 C 
ENDBRANCH   6   7
ENDBRANCH   1   6
TORSDOF 4
ENDMDL
