MODEL 1
REMARK VINA RESULT:    -3.229      0.000      0.000
REMARK INTER + INTRA:          -4.222
REMARK INTER:                  -4.550
REMARK INTRA:                   0.328
REMARK UNBOUND:                 0.328
REMARK SMILES CC1=CCC(=C(C)C)C(=O)CC(C)=CCC1
REMARK SMILES IDX 12 1 14 2 13 3 15 4 16 5 2 6 1 7 3 8 11 10 9 11 10 12 5 13
REMARK SMILES IDX 6 14 7 15 8 16 4 17
REMARK H PARENT
REMARK Flexibility Score: 60.00
ROOT
ATOM      1  C   UNL     1      15.177  23.529  14.252  1.00  0.00    -0.070 C 
ATOM      2  C   UNL     1      16.358  24.174  14.403  1.00  0.00    -0.027 C 
ATOM      3  C   UNL     1      15.134  22.063  14.610  1.00  0.00     0.039 C 
ENDROOT
BRANCH   2   4
ATOM      4  C   UNL     1      16.602  25.651  14.208  1.00  0.00     0.032 C 
BRANCH   4   5
ATOM      5  C   UNL     1      16.253  26.479  15.459  1.00  0.00     0.034 C 
BRANCH   5   6
ATOM      6  C   UNL     1      15.423  27.703  15.122  1.00  0.00    -0.077 C 
ATOM      7  C   UNL     1      16.097  28.852  14.416  1.00  0.00     0.039 C 
ATOM      8  C   UNL     1      14.117  27.834  15.444  1.00  0.00    -0.023 CG0
ATOM      9  G   UNL     1      13.281  26.814  16.179  1.00  0.00     0.000 G0
ENDBRANCH   5   6
ENDBRANCH   4   5
ENDBRANCH   2   4
BRANCH   1  10
ATOM     10  C   UNL     1      13.893  24.211  13.811  1.00  0.00     0.111 C 
BRANCH  10  11
ATOM     11  C   UNL     1      13.012  24.551  14.987  1.00  0.00     0.163 C 
ATOM     12  O   UNL     1      12.675  23.620  15.766  1.00  0.00    -0.294 OA
BRANCH  11  13
ATOM     13  C   UNL     1      12.496  25.939  15.214  1.00  0.00    -0.002 C 
ATOM     14  C   UNL     1      11.343  26.381  14.626  1.00  0.00    -0.069 C 
ATOM     15  C   UNL     1      10.849  27.797  14.829  1.00  0.00     0.039 C 
ATOM     16  C   UNL     1      10.489  25.471  13.772  1.00  0.00     0.039 C 
BRANCH  13  17
ATOM     17  C   UNL     1      13.267  26.812  16.186  1.00  0.00     0.066 CG0
ATOM     18  G   UNL     1      14.104  27.811  15.425  1.00  0.00     0.000 G0
ENDBRANCH  13  17
ENDBRANCH  11  13
ENDBRANCH  10  11
ENDBRANCH   1  10
TORSDOF 0
ENDMDL
MODEL 2
REMARK VINA RESULT:    -3.173      7.021      9.647
REMARK INTER + INTRA:          -4.144
REMARK INTER:                  -4.896
REMARK INTRA:                   0.752
REMARK UNBOUND:                 0.328
REMARK SMILES CC1=CCC(=C(C)C)C(=O)CC(C)=CCC1
REMARK SMILES IDX 12 1 14 2 13 3 15 4 16 5 2 6 1 7 3 8 11 10 9 11 10 12 5 13
REMARK SMILES IDX 6 14 7 15 8 16 4 17
REMARK H PARENT
REMARK Flexibility Score: 60.00
ROOT
ATOM      1  C   UNL     1       6.675  26.457  15.962  1.00  0.00    -0.070 C 
ATOM      2  C   UNL     1       5.482  25.947  15.572  1.00  0.00    -0.027 C 
ATOM      3  C   UNL     1       7.890  26.092  15.144  1.00  0.00     0.039 C 
ENDROOT
BRANCH   2   4
ATOM      4  C   UNL     1       4.135  26.262  16.174  1.00  0.00     0.032 C 
BRANCH   4   5
ATOM      5  C   UNL     1       3.198  26.982  15.185  1.00  0.00     0.034 C 
BRANCH   5   6
ATOM      6  C   UNL     1       3.029  28.451  15.523  1.00  0.00    -0.077 C 
ATOM      7  C   UNL     1       1.766  28.882  16.226  1.00  0.00     0.039 C 
ATOM      8  C   UNL     1       3.935  29.402  15.207  1.00  0.00    -0.023 CG0
ATOM      9  G   UNL     1       5.236  29.175  14.476  1.00  0.00     0.000 G0
ENDBRANCH   5   6
ENDBRANCH   4   5
ENDBRANCH   2   4
BRANCH   1  10
ATOM     10  C   UNL     1       6.840  27.420  17.126  1.00  0.00     0.111 C 
BRANCH  10  11
ATOM     11  C   UNL     1       6.297  28.788  16.796  1.00  0.00     0.163 C 
ATOM     12  O   UNL     1       5.683  29.417  17.699  1.00  0.00    -0.294 OA
BRANCH  11  13
ATOM     13  C   UNL     1       6.424  29.381  15.427  1.00  0.00    -0.002 C 
ATOM     14  C   UNL     1       7.564  30.018  15.023  1.00  0.00    -0.069 C 
ATOM     15  C   UNL     1       7.670  30.649  13.651  1.00  0.00     0.039 C 
ATOM     16  C   UNL     1       8.786  30.095  15.910  1.00  0.00     0.039 C 
BRANCH  13  17
ATOM     17  C   UNL     1       5.257  29.179  14.477  1.00  0.00     0.066 CG0
ATOM     18  G   UNL     1       3.956  29.405  15.209  1.00  0.00     0.000 G0
ENDBRANCH  13  17
ENDBRANCH  11  13
ENDBRANCH  10  11
ENDBRANCH   1  10
TORSDOF 0
ENDMDL
MODEL 3
REMARK VINA RESULT:    -3.137      6.835      9.015
REMARK INTER + INTRA:          -4.092
REMARK INTER:                  -4.414
REMARK INTRA:                   0.321
REMARK UNBOUND:                 0.328
REMARK SMILES CC1=CCC(=C(C)C)C(=O)CC(C)=CCC1
REMARK SMILES IDX 12 1 14 2 13 3 15 4 16 5 2 6 1 7 3 8 11 10 9 11 10 12 5 13
REMARK SMILES IDX 6 14 7 15 8 16 4 17
REMARK H PARENT
REMARK Flexibility Score: 60.00
ROOT
ATOM      1  C   UNL     1       7.812  29.718  15.730  1.00  0.00    -0.070 C 
ATOM      2  C   UNL     1       8.716  28.789  15.337  1.00  0.00    -0.027 C 
ATOM      3  C   UNL     1       8.331  30.917  16.486  1.00  0.00     0.039 C 
ENDROOT
BRANCH   2   4
ATOM      4  C   UNL     1       8.437  27.574  14.486  1.00  0.00     0.032 C 
BRANCH   4   5
ATOM      5  C   UNL     1       7.952  26.369  15.315  1.00  0.00     0.034 C 
BRANCH   5   6
ATOM      6  C   UNL     1       6.680  25.763  14.753  1.00  0.00    -0.077 C 
ATOM      7  C   UNL     1       6.758  25.027  13.438  1.00  0.00     0.039 C 
ATOM      8  C   UNL     1       5.473  25.866  15.350  1.00  0.00    -0.023 CG0
ATOM      9  G   UNL     1       5.186  26.589  16.644  1.00  0.00     0.000 G0
ENDBRANCH   5   6
ENDBRANCH   4   5
ENDBRANCH   2   4
BRANCH   1  10
ATOM     10  C   UNL     1       6.332  29.649  15.396  1.00  0.00     0.111 C 
BRANCH  10  11
ATOM     11  C   UNL     1       5.525  29.117  16.555  1.00  0.00     0.163 C 
ATOM     12  O   UNL     1       5.687  29.649  17.685  1.00  0.00    -0.294 OA
BRANCH  11  13
ATOM     13  C   UNL     1       4.592  27.956  16.402  1.00  0.00    -0.002 C 
ATOM     14  C   UNL     1       3.300  28.122  15.988  1.00  0.00    -0.069 C 
ATOM     15  C   UNL     1       2.352  26.948  15.874  1.00  0.00     0.039 C 
ATOM     16  C   UNL     1       2.764  29.480  15.590  1.00  0.00     0.039 C 
BRANCH  13  17
ATOM     17  C   UNL     1       5.164  26.574  16.657  1.00  0.00     0.066 CG0
ATOM     18  G   UNL     1       5.459  25.891  15.343  1.00  0.00     0.000 G0
ENDBRANCH  13  17
ENDBRANCH  11  13
ENDBRANCH  10  11
ENDBRANCH   1  10
TORSDOF 0
ENDMDL
MODEL 4
REMARK VINA RESULT:    -3.047      1.750      3.209
REMARK INTER + INTRA:          -3.966
REMARK INTER:                  -4.351
REMARK INTRA:                   0.386
REMARK UNBOUND:                 0.328
REMARK SMILES CC1=CCC(=C(C)C)C(=O)CC(C)=CCC1
REMARK SMILES IDX 12 1 14 2 13 3 15 4 16 5 2 6 1 7 3 8 11 10 9 11 10 12 5 13
REMARK SMILES IDX 6 14 7 15 8 16 4 17
REMARK H PARENT
REMARK Flexibility Score: 60.00
ROOT
ATOM      1  C   UNL     1      13.328  23.960  15.158  1.00  0.00    -0.070 C 
ATOM      2  C   UNL     1      14.389  23.118  15.170  1.00  0.00    -0.027 C 
ATOM      3  C   UNL     1      12.158  23.619  16.049  1.00  0.00     0.039 C 
ENDROOT
BRANCH   2   4
ATOM      4  C   UNL     1      15.697  23.318  14.445  1.00  0.00     0.032 C 
BRANCH   4   5
ATOM      5  C   UNL     1      16.660  24.249  15.205  1.00  0.00     0.034 C 
BRANCH   5   6
ATOM      6  C   UNL     1      17.275  25.299  14.299  1.00  0.00    -0.077 C 
ATOM      7  C   UNL     1      18.269  24.851  13.257  1.00  0.00     0.039 C 
ATOM      8  C   UNL     1      17.004  26.620  14.391  1.00  0.00    -0.023 CG0
ATOM      9  G   UNL     1      16.070  27.263  15.387  1.00  0.00     0.000 G0
ENDBRANCH   5   6
ENDBRANCH   4   5
ENDBRANCH   2   4
BRANCH   1  10
ATOM     10  C   UNL     1      13.283  25.249  14.354  1.00  0.00     0.111 C 
BRANCH  10  11
ATOM     11  C   UNL     1      13.627  26.446  15.205  1.00  0.00     0.163 C 
ATOM     12  O   UNL     1      12.967  26.634  16.262  1.00  0.00    -0.294 OA
BRANCH  11  13
ATOM     13  C   UNL     1      14.682  27.429  14.799  1.00  0.00    -0.002 C 
ATOM     14  C   UNL     1      14.403  28.482  13.974  1.00  0.00    -0.069 C 
ATOM     15  C   UNL     1      15.484  29.448  13.537  1.00  0.00     0.039 C 
ATOM     16  C   UNL     1      12.998  28.756  13.484  1.00  0.00     0.039 C 
BRANCH  13  17
ATOM     17  C   UNL     1      16.062  27.248  15.404  1.00  0.00     0.066 CG0
ATOM     18  G   UNL     1      16.988  26.619  14.391  1.00  0.00     0.000 G0
ENDBRANCH  13  17
ENDBRANCH  11  13
ENDBRANCH  10  11
ENDBRANCH   1  10
TORSDOF 0
ENDMDL
MODEL 5
REMARK VINA RESULT:    -3.038      6.219      8.169
REMARK INTER + INTRA:          -3.953
REMARK INTER:                  -4.678
REMARK INTRA:                   0.725
REMARK UNBOUND:                 0.328
REMARK SMILES CC1=CCC(=C(C)C)C(=O)CC(C)=CCC1
REMARK SMILES IDX 12 1 14 2 13 3 15 4 16 5 2 6 1 7 3 8 11 10 9 11 10 12 5 13
REMARK SMILES IDX 6 14 7 15 8 16 4 17
REMARK H PARENT
REMARK Flexibility Score: 60.00
ROOT
ATOM      1  C   UNL     1       6.422  26.441  15.711  1.00  0.00    -0.070 C 
ATOM      2  C   UNL     1       7.401  26.329  14.782  1.00  0.00    -0.027 C 
ATOM      3  C   UNL     1       5.188  25.591  15.530  1.00  0.00     0.039 C 
ENDROOT
BRANCH   2   4
ATOM      4  C   UNL     1       8.753  26.999  14.820  1.00  0.00     0.032 C 
BRANCH   4   5
ATOM      5  C   UNL     1       8.828  28.232  13.901  1.00  0.00     0.034 C 
BRANCH   5   6
ATOM      6  C   UNL     1       8.666  29.530  14.669  1.00  0.00    -0.077 C 
ATOM      7  C   UNL     1       9.887  30.139  15.312  1.00  0.00     0.039 C 
ATOM      8  C   UNL     1       7.482  30.161  14.834  1.00  0.00    -0.023 CG0
ATOM      9  G   UNL     1       6.150  29.692  14.300  1.00  0.00     0.000 G0
ENDBRANCH   5   6
ENDBRANCH   4   5
ENDBRANCH   2   4
BRANCH   1  10
ATOM     10  C   UNL     1       6.530  27.319  16.947  1.00  0.00     0.111 C 
BRANCH  10  11
ATOM     11  C   UNL     1       6.025  28.716  16.681  1.00  0.00     0.163 C 
ATOM     12  O   UNL     1       6.174  29.583  17.583  1.00  0.00    -0.294 OA
BRANCH  11  13
ATOM     13  C   UNL     1       5.314  29.072  15.412  1.00  0.00    -0.002 C 
ATOM     14  C   UNL     1       3.963  28.914  15.275  1.00  0.00    -0.069 C 
ATOM     15  C   UNL     1       3.260  29.240  13.976  1.00  0.00     0.039 C 
ATOM     16  C   UNL     1       3.101  28.438  16.424  1.00  0.00     0.039 C 
BRANCH  13  17
ATOM     17  C   UNL     1       6.149  29.690  14.305  1.00  0.00     0.066 CG0
ATOM     18  G   UNL     1       7.482  30.136  14.856  1.00  0.00     0.000 G0
ENDBRANCH  13  17
ENDBRANCH  11  13
ENDBRANCH  10  11
ENDBRANCH   1  10
TORSDOF 0
ENDMDL
MODEL 6
REMARK VINA RESULT:    -3.019      1.964      4.403
REMARK INTER + INTRA:          -3.926
REMARK INTER:                  -4.692
REMARK INTRA:                   0.766
REMARK UNBOUND:                 0.328
REMARK SMILES CC1=CCC(=C(C)C)C(=O)CC(C)=CCC1
REMARK SMILES IDX 12 1 14 2 13 3 15 4 16 5 2 6 1 7 3 8 11 10 9 11 10 12 5 13
REMARK SMILES IDX 6 14 7 15 8 16 4 17
REMARK H PARENT
REMARK Flexibility Score: 60.00
ROOT
ATOM      1  C   UNL     1      12.002  24.683  15.161  1.00  0.00    -0.070 C 
ATOM      2  C   UNL     1      10.930  25.104  14.447  1.00  0.00    -0.027 C 
ATOM      3  C   UNL     1      11.751  23.706  16.283  1.00  0.00     0.039 C 
ENDROOT
BRANCH   2   4
ATOM      4  C   UNL     1      10.962  25.990  13.225  1.00  0.00     0.032 C 
BRANCH   4   5
ATOM      5  C   UNL     1       9.991  27.181  13.333  1.00  0.00     0.034 C 
BRANCH   5   6
ATOM      6  C   UNL     1      10.487  28.239  14.300  1.00  0.00    -0.077 C 
ATOM      7  C   UNL     1       9.481  28.923  15.191  1.00  0.00     0.039 C 
ATOM      8  C   UNL     1      11.780  28.623  14.391  1.00  0.00    -0.023 CG0
ATOM      9  G   UNL     1      12.922  28.085  13.564  1.00  0.00     0.000 G0
ENDBRANCH   5   6
ENDBRANCH   4   5
ENDBRANCH   2   4
BRANCH   1  10
ATOM     10  C   UNL     1      13.433  25.088  14.851  1.00  0.00     0.111 C 
BRANCH  10  11
ATOM     11  C   UNL     1      13.749  26.464  15.384  1.00  0.00     0.163 C 
ATOM     12  O   UNL     1      13.698  26.645  16.630  1.00  0.00    -0.294 OA
BRANCH  11  13
ATOM     13  C   UNL     1      14.063  27.612  14.475  1.00  0.00    -0.002 C 
ATOM     14  C   UNL     1      15.314  28.159  14.415  1.00  0.00    -0.069 C 
ATOM     15  C   UNL     1      15.613  29.344  13.522  1.00  0.00     0.039 C 
ATOM     16  C   UNL     1      16.468  27.588  15.209  1.00  0.00     0.039 C 
BRANCH  13  17
ATOM     17  C   UNL     1      12.948  28.095  13.566  1.00  0.00     0.066 CG0
ATOM     18  G   UNL     1      11.801  28.620  14.395  1.00  0.00     0.000 G0
ENDBRANCH  13  17
ENDBRANCH  11  13
ENDBRANCH  10  11
ENDBRANCH   1  10
TORSDOF 0
ENDMDL
MODEL 7
REMARK VINA RESULT:    -2.976      1.817      4.474
REMARK INTER + INTRA:          -3.866
REMARK INTER:                  -4.273
REMARK INTRA:                   0.407
REMARK UNBOUND:                 0.328
REMARK SMILES CC1=CCC(=C(C)C)C(=O)CC(C)=CCC1
REMARK SMILES IDX 12 1 14 2 13 3 15 4 16 5 2 6 1 7 3 8 11 10 9 11 10 12 5 13
REMARK SMILES IDX 6 14 7 15 8 16 4 17
REMARK H PARENT
REMARK Flexibility Score: 60.00
ROOT
ATOM      1  C   UNL     1      10.263  25.824  14.386  1.00  0.00    -0.070 C 
ATOM      2  C   UNL     1      10.349  24.534  14.789  1.00  0.00    -0.027 C 
ATOM      3  C   UNL     1       8.993  26.572  14.712  1.00  0.00     0.039 C 
ENDROOT
BRANCH   2   4
ATOM      4  C   UNL     1      11.556  23.636  14.663  1.00  0.00     0.032 C 
BRANCH   4   5
ATOM      5  C   UNL     1      12.524  23.778  15.853  1.00  0.00     0.034 C 
BRANCH   5   6
ATOM      6  C   UNL     1      13.950  24.033  15.403  1.00  0.00    -0.077 C 
ATOM      7  C   UNL     1      14.745  22.876  14.852  1.00  0.00     0.039 C 
ATOM      8  C   UNL     1      14.560  25.236  15.492  1.00  0.00    -0.023 CG0
ATOM      9  G   UNL     1      13.946  26.499  16.045  1.00  0.00     0.000 G0
ENDBRANCH   5   6
ENDBRANCH   4   5
ENDBRANCH   2   4
BRANCH   1  10
ATOM     10  C   UNL     1      11.390  26.568  13.691  1.00  0.00     0.111 C 
BRANCH  10  11
ATOM     11  C   UNL     1      12.080  27.531  14.626  1.00  0.00     0.163 C 
ATOM     12  O   UNL     1      11.396  28.460  15.132  1.00  0.00    -0.294 OA
BRANCH  11  13
ATOM     13  C   UNL     1      13.546  27.439  14.917  1.00  0.00    -0.002 C 
ATOM     14  C   UNL     1      14.461  28.202  14.247  1.00  0.00    -0.069 C 
ATOM     15  C   UNL     1      15.944  28.074  14.520  1.00  0.00     0.039 C 
ATOM     16  C   UNL     1      14.037  29.233  13.226  1.00  0.00     0.039 C 
BRANCH  13  17
ATOM     17  C   UNL     1      13.968  26.514  16.044  1.00  0.00     0.066 CG0
ATOM     18  G   UNL     1      14.569  25.252  15.474  1.00  0.00     0.000 G0
ENDBRANCH  13  17
ENDBRANCH  11  13
ENDBRANCH  10  11
ENDBRANCH   1  10
TORSDOF 0
ENDMDL
MODEL 8
REMARK VINA RESULT:    -2.945      1.678      3.553
REMARK INTER + INTRA:          -3.822
REMARK INTER:                  -4.153
REMARK INTRA:                   0.330
REMARK UNBOUND:                 0.328
REMARK SMILES CC1=CCC(=C(C)C)C(=O)CC(C)=CCC1
REMARK SMILES IDX 12 1 14 2 13 3 15 4 16 5 2 6 1 7 3 8 11 10 9 11 10 12 5 13
REMARK SMILES IDX 6 14 7 15 8 16 4 17
REMARK H PARENT
REMARK Flexibility Score: 60.00
ROOT
ATOM      1  C   UNL     1      16.270  27.330  14.240  1.00  0.00    -0.070 C 
ATOM      2  C   UNL     1      17.087  26.278  14.480  1.00  0.00    -0.027 C 
ATOM      3  C   UNL     1      16.823  28.713  14.487  1.00  0.00     0.039 C 
ENDROOT
BRANCH   2   4
ATOM      4  C   UNL     1      16.780  24.826  14.205  1.00  0.00     0.032 C 
BRANCH   4   5
ATOM      5  C   UNL     1      15.911  24.186  15.304  1.00  0.00     0.034 C 
BRANCH   5   6
ATOM      6  C   UNL     1      14.670  23.523  14.739  1.00  0.00    -0.077 C 
ATOM      7  C   UNL     1      14.844  22.326  13.838  1.00  0.00     0.039 C 
ATOM      8  C   UNL     1      13.413  23.960  14.975  1.00  0.00    -0.023 CG0
ATOM      9  G   UNL     1      13.038  25.157  15.816  1.00  0.00     0.000 G0
ENDBRANCH   5   6
ENDBRANCH   4   5
ENDBRANCH   2   4
BRANCH   1  10
ATOM     10  C   UNL     1      14.864  27.196  13.680  1.00  0.00     0.111 C 
BRANCH  10  11
ATOM     11  C   UNL     1      13.819  27.359  14.756  1.00  0.00     0.163 C 
ATOM     12  O   UNL     1      13.915  28.346  15.533  1.00  0.00    -0.294 OA
BRANCH  11  13
ATOM     13  C   UNL     1      12.721  26.360  14.951  1.00  0.00    -0.002 C 
ATOM     14  C   UNL     1      11.515  26.485  14.319  1.00  0.00    -0.069 C 
ATOM     15  C   UNL     1      10.397  25.492  14.551  1.00  0.00     0.039 C 
ATOM     16  C   UNL     1      11.250  27.600  13.331  1.00  0.00     0.039 C 
BRANCH  13  17
ATOM     17  C   UNL     1      13.029  25.158  15.824  1.00  0.00     0.066 CG0
ATOM     18  G   UNL     1      13.402  23.978  14.960  1.00  0.00     0.000 G0
ENDBRANCH  13  17
ENDBRANCH  11  13
ENDBRANCH  10  11
ENDBRANCH   1  10
TORSDOF 0
ENDMDL
MODEL 9
REMARK VINA RESULT:    -2.916      6.533      9.382
REMARK INTER + INTRA:          -3.780
REMARK INTER:                  -4.472
REMARK INTRA:                   0.692
REMARK UNBOUND:                 0.328
REMARK SMILES CC1=CCC(=C(C)C)C(=O)CC(C)=CCC1
REMARK SMILES IDX 12 1 14 2 13 3 15 4 16 5 2 6 1 7 3 8 11 10 9 11 10 12 5 13
REMARK SMILES IDX 6 14 7 15 8 16 4 17
REMARK H PARENT
REMARK Flexibility Score: 60.00
ROOT
ATOM      1  C   UNL     1       6.105  29.165  17.204  1.00  0.00    -0.070 C 
ATOM      2  C   UNL     1       4.773  29.258  16.981  1.00  0.00    -0.027 C 
ATOM      3  C   UNL     1       6.803  30.378  17.770  1.00  0.00     0.039 C 
ENDROOT
BRANCH   2   4
ATOM      4  C   UNL     1       3.863  28.145  16.524  1.00  0.00     0.032 C 
BRANCH   4   5
ATOM      5  C   UNL     1       3.455  28.283  15.044  1.00  0.00     0.034 C 
BRANCH   5   6
ATOM      6  C   UNL     1       4.291  27.403  14.135  1.00  0.00    -0.077 C 
ATOM      7  C   UNL     1       3.804  26.006  13.844  1.00  0.00     0.039 C 
ATOM      8  C   UNL     1       5.466  27.791  13.590  1.00  0.00    -0.023 CG0
ATOM      9  G   UNL     1       6.134  29.130  13.792  1.00  0.00     0.000 G0
ENDBRANCH   5   6
ENDBRANCH   4   5
ENDBRANCH   2   4
BRANCH   1  10
ATOM     10  C   UNL     1       6.912  27.897  16.979  1.00  0.00     0.111 C 
BRANCH  10  11
ATOM     11  C   UNL     1       7.450  27.824  15.572  1.00  0.00     0.163 C 
ATOM     12  O   UNL     1       8.002  26.754  15.201  1.00  0.00    -0.294 OA
BRANCH  11  13
ATOM     13  C   UNL     1       7.391  28.995  14.640  1.00  0.00    -0.002 C 
ATOM     14  C   UNL     1       8.446  29.852  14.495  1.00  0.00    -0.069 C 
ATOM     15  C   UNL     1       8.363  31.055  13.580  1.00  0.00     0.039 C 
ATOM     16  C   UNL     1       9.757  29.623  15.213  1.00  0.00     0.039 C 
BRANCH  13  17
ATOM     17  C   UNL     1       6.133  29.147  13.804  1.00  0.00     0.066 CG0
ATOM     18  G   UNL     1       5.482  27.800  13.606  1.00  0.00     0.000 G0
ENDBRANCH  13  17
ENDBRANCH  11  13
ENDBRANCH  10  11
ENDBRANCH   1  10
TORSDOF 0
ENDMDL
