MODEL 1
REMARK VINA RESULT:    -3.563      0.000      0.000
REMARK INTER + INTRA:          -5.398
REMARK INTER:                  -5.021
REMARK INTRA:                  -0.377
REMARK UNBOUND:                -0.377
REMARK SMILES CCCCCCCCC(=O)[O-]
REMARK SMILES IDX 6 1 7 2 8 3 9 4 10 5 11 6 5 7 4 8 3 9 2 10 1 11
REMARK H PARENT
REMARK Flexibility Score: inf
ROOT
ATOM      1  C   UNL     1      58.595  35.987  50.197  1.00  0.00     0.000 C 
ENDROOT
BRANCH   1   2
ATOM      2  C   UNL     1      59.228  35.677  48.832  1.00  0.00     0.006 C 
BRANCH   2   3
ATOM      3  C   UNL     1      60.661  36.212  48.758  1.00  0.00     0.053 C 
BRANCH   3   4
ATOM      4  C   UNL     1      60.704  37.492  47.985  1.00  0.00     0.041 C 
ATOM      5  O   UNL     1      61.690  38.267  48.099  1.00  0.00    -0.550 OA
ATOM      6  O   UNL     1      59.634  37.853  47.178  1.00  0.00    -0.550 OA
ENDBRANCH   3   4
ENDBRANCH   2   3
ENDBRANCH   1   2
BRANCH   1   7
ATOM      7  C   UNL     1      59.080  35.035  51.301  1.00  0.00     0.000 C 
BRANCH   7   8
ATOM      8  C   UNL     1      58.381  35.288  52.649  1.00  0.00    -0.000 C 
BRANCH   8   9
ATOM      9  C   UNL     1      57.423  36.497  52.590  1.00  0.00    -0.000 C 
BRANCH   9  10
ATOM     10  C   UNL     1      57.626  37.501  53.737  1.00  0.00    -0.003 C 
ATOM     11  C   UNL     1      58.664  37.042  54.759  1.00  0.00     0.004 C 
ENDBRANCH   9  10
ENDBRANCH   8   9
ENDBRANCH   7   8
ENDBRANCH   1   7
TORSDOF 7
ENDMDL
MODEL 2
REMARK VINA RESULT:    -3.393      4.425      6.192
REMARK INTER + INTRA:          -5.158
REMARK INTER:                  -4.512
REMARK INTRA:                  -0.646
REMARK UNBOUND:                -0.377
REMARK SMILES CCCCCCCCC(=O)[O-]
REMARK SMILES IDX 6 1 7 2 8 3 9 4 10 5 11 6 5 7 4 8 3 9 2 10 1 11
REMARK H PARENT
REMARK Flexibility Score: inf
ROOT
ATOM      1  C   UNL     1      60.642  37.425  55.593  1.00  0.00     0.000 C 
ENDROOT
BRANCH   1   2
ATOM      2  C   UNL     1      59.441  36.603  55.102  1.00  0.00     0.006 C 
BRANCH   2   3
ATOM      3  C   UNL     1      58.303  37.518  54.643  1.00  0.00     0.053 C 
BRANCH   3   4
ATOM      4  C   UNL     1      57.520  36.870  53.544  1.00  0.00     0.041 C 
ATOM      5  O   UNL     1      56.850  37.575  52.745  1.00  0.00    -0.550 OA
ATOM      6  O   UNL     1      57.492  35.487  53.433  1.00  0.00    -0.550 OA
ENDBRANCH   3   4
ENDBRANCH   2   3
ENDBRANCH   1   2
BRANCH   1   7
ATOM      7  C   UNL     1      61.122  36.993  56.988  1.00  0.00     0.000 C 
BRANCH   7   8
ATOM      8  C   UNL     1      60.614  37.925  58.103  1.00  0.00    -0.000 C 
BRANCH   8   9
ATOM      9  C   UNL     1      59.300  37.418  58.733  1.00  0.00    -0.000 C 
BRANCH   9  10
ATOM     10  C   UNL     1      58.237  38.515  58.910  1.00  0.00    -0.003 C 
ATOM     11  C   UNL     1      58.257  39.554  57.790  1.00  0.00     0.004 C 
ENDBRANCH   9  10
ENDBRANCH   8   9
ENDBRANCH   7   8
ENDBRANCH   1   7
TORSDOF 7
ENDMDL
MODEL 3
REMARK VINA RESULT:    -3.330      3.840      6.148
REMARK INTER + INTRA:          -5.070
REMARK INTER:                  -4.745
REMARK INTRA:                  -0.325
REMARK UNBOUND:                -0.377
REMARK SMILES CCCCCCCCC(=O)[O-]
REMARK SMILES IDX 6 1 7 2 8 3 9 4 10 5 11 6 5 7 4 8 3 9 2 10 1 11
REMARK H PARENT
REMARK Flexibility Score: inf
ROOT
ATOM      1  C   UNL     1      57.522  37.196  53.663  1.00  0.00     0.000 C 
ENDROOT
BRANCH   1   2
ATOM      2  C   UNL     1      58.689  36.841  54.596  1.00  0.00     0.006 C 
BRANCH   2   3
ATOM      3  C   UNL     1      58.859  37.900  55.688  1.00  0.00     0.053 C 
BRANCH   3   4
ATOM      4  C   UNL     1      60.137  37.683  56.436  1.00  0.00     0.041 C 
ATOM      5  O   UNL     1      60.201  37.938  57.667  1.00  0.00    -0.550 OA
ATOM      6  O   UNL     1      61.270  37.244  55.764  1.00  0.00    -0.550 OA
ENDBRANCH   3   4
ENDBRANCH   2   3
ENDBRANCH   1   2
BRANCH   1   7
ATOM      7  C   UNL     1      57.625  36.497  52.298  1.00  0.00     0.000 C 
BRANCH   7   8
ATOM      8  C   UNL     1      58.581  35.290  52.322  1.00  0.00    -0.000 C 
BRANCH   8   9
ATOM      9  C   UNL     1      59.155  34.975  50.924  1.00  0.00    -0.000 C 
BRANCH   9  10
ATOM     10  C   UNL     1      58.598  35.878  49.811  1.00  0.00    -0.003 C 
ATOM     11  C   UNL     1      59.652  36.280  48.781  1.00  0.00     0.004 C 
ENDBRANCH   9  10
ENDBRANCH   8   9
ENDBRANCH   7   8
ENDBRANCH   1   7
TORSDOF 7
ENDMDL
MODEL 4
REMARK VINA RESULT:    -3.286     11.109     12.909
REMARK INTER + INTRA:          -5.008
REMARK INTER:                  -4.628
REMARK INTRA:                  -0.380
REMARK UNBOUND:                -0.377
REMARK SMILES CCCCCCCCC(=O)[O-]
REMARK SMILES IDX 6 1 7 2 8 3 9 4 10 5 11 6 5 7 4 8 3 9 2 10 1 11
REMARK H PARENT
REMARK Flexibility Score: inf
ROOT
ATOM      1  C   UNL     1      65.699  43.268  56.783  1.00  0.00     0.000 C 
ENDROOT
BRANCH   1   2
ATOM      2  C   UNL     1      66.798  42.644  57.656  1.00  0.00     0.006 C 
BRANCH   2   3
ATOM      3  C   UNL     1      66.191  41.787  58.771  1.00  0.00     0.053 C 
BRANCH   3   4
ATOM      4  C   UNL     1      65.628  40.519  58.211  1.00  0.00     0.041 C 
ATOM      5  O   UNL     1      66.395  39.641  57.736  1.00  0.00    -0.550 OA
ATOM      6  O   UNL     1      64.253  40.329  58.168  1.00  0.00    -0.550 OA
ENDBRANCH   3   4
ENDBRANCH   2   3
ENDBRANCH   1   2
BRANCH   1   7
ATOM      7  C   UNL     1      65.671  44.802  56.878  1.00  0.00     0.000 C 
BRANCH   7   8
ATOM      8  C   UNL     1      64.804  45.306  58.046  1.00  0.00    -0.000 C 
BRANCH   8   9
ATOM      9  C   UNL     1      65.516  46.402  58.868  1.00  0.00    -0.000 C 
BRANCH   9  10
ATOM     10  C   UNL     1      65.514  47.782  58.188  1.00  0.00    -0.003 C 
ATOM     11  C   UNL     1      66.918  48.342  57.966  1.00  0.00     0.004 C 
ENDBRANCH   9  10
ENDBRANCH   8   9
ENDBRANCH   7   8
ENDBRANCH   1   7
TORSDOF 7
ENDMDL
MODEL 5
REMARK VINA RESULT:    -3.219     12.593     14.301
REMARK INTER + INTRA:          -4.914
REMARK INTER:                  -4.674
REMARK INTRA:                  -0.240
REMARK UNBOUND:                -0.377
REMARK SMILES CCCCCCCCC(=O)[O-]
REMARK SMILES IDX 6 1 7 2 8 3 9 4 10 5 11 6 5 7 4 8 3 9 2 10 1 11
REMARK H PARENT
REMARK Flexibility Score: inf
ROOT
ATOM      1  C   UNL     1      64.867  45.341  58.143  1.00  0.00     0.000 C 
ENDROOT
BRANCH   1   2
ATOM      2  C   UNL     1      65.761  44.799  57.017  1.00  0.00     0.006 C 
BRANCH   2   3
ATOM      3  C   UNL     1      65.544  43.297  56.820  1.00  0.00     0.053 C 
BRANCH   3   4
ATOM      4  C   UNL     1      66.656  42.519  57.451  1.00  0.00     0.041 C 
ATOM      5  O   UNL     1      66.910  41.349  57.062  1.00  0.00    -0.550 OA
ATOM      6  O   UNL     1      67.380  43.068  58.501  1.00  0.00    -0.550 OA
ENDBRANCH   3   4
ENDBRANCH   2   3
ENDBRANCH   1   2
BRANCH   1   7
ATOM      7  C   UNL     1      65.125  46.827  58.438  1.00  0.00     0.000 C 
BRANCH   7   8
ATOM      8  C   UNL     1      66.344  47.378  57.676  1.00  0.00    -0.000 C 
BRANCH   8   9
ATOM      9  C   UNL     1      66.701  48.815  58.110  1.00  0.00    -0.000 C 
BRANCH   9  10
ATOM     10  C   UNL     1      68.204  49.130  58.024  1.00  0.00    -0.003 C 
ATOM     11  C   UNL     1      68.746  49.077  56.597  1.00  0.00     0.004 C 
ENDBRANCH   9  10
ENDBRANCH   8   9
ENDBRANCH   7   8
ENDBRANCH   1   7
TORSDOF 7
ENDMDL
MODEL 6
REMARK VINA RESULT:    -3.203     17.830     19.413
REMARK INTER + INTRA:          -4.891
REMARK INTER:                  -4.262
REMARK INTRA:                  -0.629
REMARK UNBOUND:                -0.377
REMARK SMILES CCCCCCCCC(=O)[O-]
REMARK SMILES IDX 6 1 7 2 8 3 9 4 10 5 11 6 5 7 4 8 3 9 2 10 1 11
REMARK H PARENT
REMARK Flexibility Score: inf
ROOT
ATOM      1  C   UNL     1      68.003  52.982  49.710  1.00  0.00     0.000 C 
ENDROOT
BRANCH   1   2
ATOM      2  C   UNL     1      68.622  54.218  49.039  1.00  0.00     0.006 C 
BRANCH   2   3
ATOM      3  C   UNL     1      69.705  53.812  48.036  1.00  0.00     0.053 C 
BRANCH   3   4
ATOM      4  C   UNL     1      69.284  54.153  46.642  1.00  0.00     0.041 C 
ATOM      5  O   UNL     1      68.222  54.800  46.442  1.00  0.00    -0.550 OA
ATOM      6  O   UNL     1      70.037  53.715  45.561  1.00  0.00    -0.550 OA
ENDBRANCH   3   4
ENDBRANCH   2   3
ENDBRANCH   1   2
BRANCH   1   7
ATOM      7  C   UNL     1      68.914  51.746  49.623  1.00  0.00     0.000 C 
BRANCH   7   8
ATOM      8  C   UNL     1      68.737  50.796  50.821  1.00  0.00    -0.000 C 
BRANCH   8   9
ATOM      9  C   UNL     1      69.649  51.178  52.006  1.00  0.00    -0.000 C 
BRANCH   9  10
ATOM     10  C   UNL     1      70.954  51.873  51.581  1.00  0.00    -0.003 C 
ATOM     11  C   UNL     1      71.031  53.330  52.032  1.00  0.00     0.004 C 
ENDBRANCH   9  10
ENDBRANCH   8   9
ENDBRANCH   7   8
ENDBRANCH   1   7
TORSDOF 7
ENDMDL
MODEL 7
REMARK VINA RESULT:    -3.187     17.958     19.433
REMARK INTER + INTRA:          -4.868
REMARK INTER:                  -4.312
REMARK INTRA:                  -0.557
REMARK UNBOUND:                -0.377
REMARK SMILES CCCCCCCCC(=O)[O-]
REMARK SMILES IDX 6 1 7 2 8 3 9 4 10 5 11 6 5 7 4 8 3 9 2 10 1 11
REMARK H PARENT
REMARK Flexibility Score: inf
ROOT
ATOM      1  C   UNL     1      69.216  51.059  51.430  1.00  0.00     0.000 C 
ENDROOT
BRANCH   1   2
ATOM      2  C   UNL     1      70.610  51.689  51.573  1.00  0.00     0.006 C 
BRANCH   2   3
ATOM      3  C   UNL     1      71.282  51.241  52.874  1.00  0.00     0.053 C 
BRANCH   3   4
ATOM      4  C   UNL     1      70.505  51.723  54.059  1.00  0.00     0.041 C 
ATOM      5  O   UNL     1      70.304  52.954  54.226  1.00  0.00    -0.550 OA
ATOM      6  O   UNL     1      70.044  50.815  55.003  1.00  0.00    -0.550 OA
ENDBRANCH   3   4
ENDBRANCH   2   3
ENDBRANCH   1   2
BRANCH   1   7
ATOM      7  C   UNL     1      68.601  51.299  50.042  1.00  0.00     0.000 C 
BRANCH   7   8
ATOM      8  C   UNL     1      68.989  52.666  49.451  1.00  0.00    -0.000 C 
BRANCH   8   9
ATOM      9  C   UNL     1      67.779  53.618  49.343  1.00  0.00    -0.000 C 
BRANCH   9  10
ATOM     10  C   UNL     1      68.016  54.993  49.990  1.00  0.00    -0.003 C 
ATOM     11  C   UNL     1      69.059  54.958  51.106  1.00  0.00     0.004 C 
ENDBRANCH   9  10
ENDBRANCH   8   9
ENDBRANCH   7   8
ENDBRANCH   1   7
TORSDOF 7
ENDMDL
MODEL 8
REMARK VINA RESULT:    -3.141     11.735     13.326
REMARK INTER + INTRA:          -4.803
REMARK INTER:                  -4.394
REMARK INTRA:                  -0.409
REMARK UNBOUND:                -0.377
REMARK SMILES CCCCCCCCC(=O)[O-]
REMARK SMILES IDX 6 1 7 2 8 3 9 4 10 5 11 6 5 7 4 8 3 9 2 10 1 11
REMARK H PARENT
REMARK Flexibility Score: inf
ROOT
ATOM      1  C   UNL     1      65.725  44.775  56.741  1.00  0.00     0.000 C 
ENDROOT
BRANCH   1   2
ATOM      2  C   UNL     1      65.178  45.547  57.951  1.00  0.00     0.006 C 
BRANCH   2   3
ATOM      3  C   UNL     1      66.264  46.428  58.574  1.00  0.00     0.053 C 
BRANCH   3   4
ATOM      4  C   UNL     1      66.330  47.751  57.878  1.00  0.00     0.041 C 
ATOM      5  O   UNL     1      67.262  47.994  57.067  1.00  0.00    -0.550 OA
ATOM      6  O   UNL     1      65.390  48.733  58.161  1.00  0.00    -0.550 OA
ENDBRANCH   3   4
ENDBRANCH   2   3
ENDBRANCH   1   2
BRANCH   1   7
ATOM      7  C   UNL     1      65.544  43.255  56.881  1.00  0.00     0.000 C 
BRANCH   7   8
ATOM      8  C   UNL     1      66.835  42.544  57.324  1.00  0.00    -0.000 C 
BRANCH   8   9
ATOM      9  C   UNL     1      66.765  42.070  58.791  1.00  0.00    -0.000 C 
BRANCH   9  10
ATOM     10  C   UNL     1      65.765  40.925  59.022  1.00  0.00    -0.003 C 
ATOM     11  C   UNL     1      66.011  39.722  58.114  1.00  0.00     0.004 C 
ENDBRANCH   9  10
ENDBRANCH   8   9
ENDBRANCH   7   8
ENDBRANCH   1   7
TORSDOF 7
ENDMDL
MODEL 9
REMARK VINA RESULT:    -3.119     17.161     18.865
REMARK INTER + INTRA:          -4.773
REMARK INTER:                  -4.186
REMARK INTRA:                  -0.587
REMARK UNBOUND:                -0.377
REMARK SMILES CCCCCCCCC(=O)[O-]
REMARK SMILES IDX 6 1 7 2 8 3 9 4 10 5 11 6 5 7 4 8 3 9 2 10 1 11
REMARK H PARENT
REMARK Flexibility Score: inf
ROOT
ATOM      1  C   UNL     1      70.234  52.649  54.129  1.00  0.00     0.000 C 
ENDROOT
BRANCH   1   2
ATOM      2  C   UNL     1      70.179  51.138  54.401  1.00  0.00     0.006 C 
BRANCH   2   3
ATOM      3  C   UNL     1      68.744  50.683  54.676  1.00  0.00     0.053 C 
BRANCH   3   4
ATOM      4  C   UNL     1      68.628  50.112  56.054  1.00  0.00     0.041 C 
ATOM      5  O   UNL     1      67.800  50.593  56.872  1.00  0.00    -0.550 OA
ATOM      6  O   UNL     1      69.469  49.081  56.452  1.00  0.00    -0.550 OA
ENDBRANCH   3   4
ENDBRANCH   2   3
ENDBRANCH   1   2
BRANCH   1   7
ATOM      7  C   UNL     1      70.631  52.973  52.680  1.00  0.00     0.000 C 
BRANCH   7   8
ATOM      8  C   UNL     1      70.901  51.708  51.844  1.00  0.00    -0.000 C 
BRANCH   8   9
ATOM      9  C   UNL     1      70.475  51.883  50.371  1.00  0.00    -0.000 C 
BRANCH   9  10
ATOM     10  C   UNL     1      69.000  51.536  50.111  1.00  0.00    -0.003 C 
ATOM     11  C   UNL     1      68.502  50.364  50.954  1.00  0.00     0.004 C 
ENDBRANCH   9  10
ENDBRANCH   8   9
ENDBRANCH   7   8
ENDBRANCH   1   7
TORSDOF 7
ENDMDL
