MODEL 1
REMARK VINA RESULT:    -5.112      0.000      0.000
REMARK INTER + INTRA:          -5.112
REMARK INTER:                  -5.112
REMARK INTRA:                   0.000
REMARK UNBOUND:                 0.000
REMARK SMILES CC(C)=C1CC[C@@H](C)CC1=O
REMARK SMILES IDX 8 1 7 2 6 3 5 4 4 5 2 6 1 7 3 8 10 9 11 10 9 11
REMARK H PARENT
REMARK Flexibility Score: inf
ROOT
ATOM      1  C   UNL     1       7.137 -18.995 -22.819  1.00  0.00     0.008 C 
ATOM      2  C   UNL     1       8.359 -18.245 -22.280  1.00  0.00    -0.006 C 
ATOM      3  C   UNL     1       9.466 -18.180 -23.345  1.00  0.00     0.008 C 
ATOM      4  C   UNL     1      10.659 -17.345 -22.860  1.00  0.00     0.039 C 
ATOM      5  C   UNL     1      11.178 -17.802 -21.504  1.00  0.00    -0.006 C 
ATOM      6  C   UNL     1      12.500 -17.695 -21.178  1.00  0.00    -0.070 C 
ATOM      7  C   UNL     1      13.500 -17.102 -22.144  1.00  0.00     0.039 C 
ATOM      8  C   UNL     1      13.037 -18.197 -19.857  1.00  0.00     0.039 C 
ATOM      9  C   UNL     1      10.145 -18.258 -20.525  1.00  0.00     0.159 C 
ATOM     10  O   UNL     1      10.298 -18.088 -19.286  1.00  0.00    -0.295 OA
ATOM     11  C   UNL     1       8.892 -18.926 -21.011  1.00  0.00     0.084 C 
ENDROOT
TORSDOF 0
ENDMDL
MODEL 2
REMARK VINA RESULT:    -4.841      7.447      8.772
REMARK INTER + INTRA:          -4.841
REMARK INTER:                  -4.841
REMARK INTRA:                   0.000
REMARK UNBOUND:                 0.000
REMARK SMILES CC(C)=C1CC[C@@H](C)CC1=O
REMARK SMILES IDX 8 1 7 2 6 3 5 4 4 5 2 6 1 7 3 8 10 9 11 10 9 11
REMARK H PARENT
REMARK Flexibility Score: inf
ROOT
ATOM      1  C   UNL     1      14.338 -20.518 -22.161  1.00  0.00     0.008 C 
ATOM      2  C   UNL     1      15.004 -21.687 -22.895  1.00  0.00    -0.006 C 
ATOM      3  C   UNL     1      15.711 -22.619 -21.898  1.00  0.00     0.008 C 
ATOM      4  C   UNL     1      16.298 -23.849 -22.604  1.00  0.00     0.039 C 
ATOM      5  C   UNL     1      17.182 -23.477 -23.787  1.00  0.00    -0.006 C 
ATOM      6  C   UNL     1      18.253 -24.247 -24.140  1.00  0.00    -0.070 C 
ATOM      7  C   UNL     1      18.595 -25.509 -23.383  1.00  0.00     0.039 C 
ATOM      8  C   UNL     1      19.172 -23.858 -25.277  1.00  0.00     0.039 C 
ATOM      9  C   UNL     1      16.738 -22.301 -24.594  1.00  0.00     0.159 C 
ATOM     10  O   UNL     1      16.957 -22.238 -25.833  1.00  0.00    -0.295 OA
ATOM     11  C   UNL     1      16.010 -21.167 -23.932  1.00  0.00     0.084 C 
ENDROOT
TORSDOF 0
ENDMDL
MODEL 3
REMARK VINA RESULT:    -4.770      1.300      4.292
REMARK INTER + INTRA:          -4.770
REMARK INTER:                  -4.770
REMARK INTRA:                   0.000
REMARK UNBOUND:                 0.000
REMARK SMILES CC(C)=C1CC[C@@H](C)CC1=O
REMARK SMILES IDX 8 1 7 2 6 3 5 4 4 5 2 6 1 7 3 8 10 9 11 10 9 11
REMARK H PARENT
REMARK Flexibility Score: inf
ROOT
ATOM      1  C   UNL     1      14.646 -17.517 -18.550  1.00  0.00     0.008 C 
ATOM      2  C   UNL     1      13.684 -18.072 -19.606  1.00  0.00    -0.006 C 
ATOM      3  C   UNL     1      14.065 -17.562 -21.005  1.00  0.00     0.008 C 
ATOM      4  C   UNL     1      13.176 -18.187 -22.088  1.00  0.00     0.039 C 
ATOM      5  C   UNL     1      11.691 -18.024 -21.790  1.00  0.00    -0.006 C 
ATOM      6  C   UNL     1      10.776 -17.897 -22.795  1.00  0.00    -0.070 C 
ATOM      7  C   UNL     1      11.197 -17.931 -24.247  1.00  0.00     0.039 C 
ATOM      8  C   UNL     1       9.307 -17.678 -22.511  1.00  0.00     0.039 C 
ATOM      9  C   UNL     1      11.295 -18.129 -20.353  1.00  0.00     0.159 C 
ATOM     10  O   UNL     1      10.177 -18.602 -20.016  1.00  0.00    -0.295 OA
ATOM     11  C   UNL     1      12.238 -17.673 -19.278  1.00  0.00     0.084 C 
ENDROOT
TORSDOF 0
ENDMDL
MODEL 4
REMARK VINA RESULT:    -4.764      5.208      6.157
REMARK INTER + INTRA:          -4.764
REMARK INTER:                  -4.764
REMARK INTRA:                   0.000
REMARK UNBOUND:                 0.000
REMARK SMILES CC(C)=C1CC[C@@H](C)CC1=O
REMARK SMILES IDX 8 1 7 2 6 3 5 4 4 5 2 6 1 7 3 8 10 9 11 10 9 11
REMARK H PARENT
REMARK Flexibility Score: inf
ROOT
ATOM      1  C   UNL     1      14.528 -19.105 -16.233  1.00  0.00     0.008 C 
ATOM      2  C   UNL     1      15.209 -18.975 -17.600  1.00  0.00    -0.006 C 
ATOM      3  C   UNL     1      15.151 -17.522 -18.097  1.00  0.00     0.008 C 
ATOM      4  C   UNL     1      15.916 -17.353 -19.416  1.00  0.00     0.039 C 
ATOM      5  C   UNL     1      15.477 -18.352 -20.478  1.00  0.00    -0.006 C 
ATOM      6  C   UNL     1      15.501 -18.033 -21.806  1.00  0.00    -0.070 C 
ATOM      7  C   UNL     1      15.982 -16.679 -22.277  1.00  0.00     0.039 C 
ATOM      8  C   UNL     1      15.015 -18.996 -22.865  1.00  0.00     0.039 C 
ATOM      9  C   UNL     1      15.137 -19.722 -19.989  1.00  0.00     0.159 C 
ATOM     10  O   UNL     1      15.345 -20.741 -20.700  1.00  0.00    -0.295 OA
ATOM     11  C   UNL     1      14.543 -19.906 -18.623  1.00  0.00     0.084 C 
ENDROOT
TORSDOF 0
ENDMDL
MODEL 5
REMARK VINA RESULT:    -4.733      8.471      9.821
REMARK INTER + INTRA:          -4.733
REMARK INTER:                  -4.733
REMARK INTRA:                   0.000
REMARK UNBOUND:                 0.000
REMARK SMILES CC(C)=C1CC[C@@H](C)CC1=O
REMARK SMILES IDX 8 1 7 2 6 3 5 4 4 5 2 6 1 7 3 8 10 9 11 10 9 11
REMARK H PARENT
REMARK Flexibility Score: inf
ROOT
ATOM      1  C   UNL     1      17.313 -25.348 -21.700  1.00  0.00     0.008 C 
ATOM      2  C   UNL     1      17.315 -24.744 -23.108  1.00  0.00    -0.006 C 
ATOM      3  C   UNL     1      18.755 -24.563 -23.616  1.00  0.00     0.008 C 
ATOM      4  C   UNL     1      18.775 -24.054 -25.064  1.00  0.00     0.039 C 
ATOM      5  C   UNL     1      17.926 -22.804 -25.255  1.00  0.00    -0.006 C 
ATOM      6  C   UNL     1      18.261 -21.853 -26.176  1.00  0.00    -0.070 C 
ATOM      7  C   UNL     1      19.480 -22.010 -27.056  1.00  0.00     0.039 C 
ATOM      8  C   UNL     1      17.458 -20.582 -26.336  1.00  0.00     0.039 C 
ATOM      9  C   UNL     1      16.659 -22.745 -24.467  1.00  0.00     0.159 C 
ATOM     10  O   UNL     1      15.636 -22.163 -24.915  1.00  0.00    -0.295 OA
ATOM     11  C   UNL     1      16.583 -23.394 -23.115  1.00  0.00     0.084 C 
ENDROOT
TORSDOF 0
ENDMDL
MODEL 6
REMARK VINA RESULT:    -4.729      3.295      6.649
REMARK INTER + INTRA:          -4.729
REMARK INTER:                  -4.729
REMARK INTRA:                   0.000
REMARK UNBOUND:                 0.000
REMARK SMILES CC(C)=C1CC[C@@H](C)CC1=O
REMARK SMILES IDX 8 1 7 2 6 3 5 4 4 5 2 6 1 7 3 8 10 9 11 10 9 11
REMARK H PARENT
REMARK Flexibility Score: inf
ROOT
ATOM      1  C   UNL     1      18.469 -17.893 -18.785  1.00  0.00     0.008 C 
ATOM      2  C   UNL     1      17.058 -17.429 -19.165  1.00  0.00    -0.006 C 
ATOM      3  C   UNL     1      16.021 -17.989 -18.178  1.00  0.00     0.008 C 
ATOM      4  C   UNL     1      14.616 -17.453 -18.483  1.00  0.00     0.039 C 
ATOM      5  C   UNL     1      14.213 -17.663 -19.937  1.00  0.00    -0.006 C 
ATOM      6  C   UNL     1      12.911 -17.875 -20.288  1.00  0.00    -0.070 C 
ATOM      7  C   UNL     1      11.812 -17.893 -19.250  1.00  0.00     0.039 C 
ATOM      8  C   UNL     1      12.507 -18.141 -21.721  1.00  0.00     0.039 C 
ATOM      9  C   UNL     1      15.302 -17.506 -20.948  1.00  0.00     0.159 C 
ATOM     10  O   UNL     1      15.062 -17.064 -22.103  1.00  0.00    -0.295 OA
ATOM     11  C   UNL     1      16.714 -17.871 -20.595  1.00  0.00     0.084 C 
ENDROOT
TORSDOF 0
ENDMDL
MODEL 7
REMARK VINA RESULT:    -4.703      5.371      6.212
REMARK INTER + INTRA:          -4.703
REMARK INTER:                  -4.703
REMARK INTRA:                   0.000
REMARK UNBOUND:                 0.000
REMARK SMILES CC(C)=C1CC[C@@H](C)CC1=O
REMARK SMILES IDX 8 1 7 2 6 3 5 4 4 5 2 6 1 7 3 8 10 9 11 10 9 11
REMARK H PARENT
REMARK Flexibility Score: inf
ROOT
ATOM      1  C   UNL     1      14.735 -21.570 -23.448  1.00  0.00     0.008 C 
ATOM      2  C   UNL     1      15.215 -21.165 -22.050  1.00  0.00    -0.006 C 
ATOM      3  C   UNL     1      14.017 -20.931 -21.115  1.00  0.00     0.008 C 
ATOM      4  C   UNL     1      14.479 -20.624 -19.684  1.00  0.00     0.039 C 
ATOM      5  C   UNL     1      15.494 -19.490 -19.629  1.00  0.00    -0.006 C 
ATOM      6  C   UNL     1      15.558 -18.647 -18.556  1.00  0.00    -0.070 C 
ATOM      7  C   UNL     1      14.635 -18.816 -17.370  1.00  0.00     0.039 C 
ATOM      8  C   UNL     1      16.523 -17.484 -18.514  1.00  0.00     0.039 C 
ATOM      9  C   UNL     1      16.476 -19.434 -20.752  1.00  0.00     0.159 C 
ATOM     10  O   UNL     1      17.649 -19.008 -20.575  1.00  0.00    -0.295 OA
ATOM     11  C   UNL     1      16.077 -19.896 -22.124  1.00  0.00     0.084 C 
ENDROOT
TORSDOF 0
ENDMDL
MODEL 8
REMARK VINA RESULT:    -4.661      2.538      4.229
REMARK INTER + INTRA:          -4.661
REMARK INTER:                  -4.661
REMARK INTRA:                   0.000
REMARK UNBOUND:                 0.000
REMARK SMILES CC(C)=C1CC[C@@H](C)CC1=O
REMARK SMILES IDX 8 1 7 2 6 3 5 4 4 5 2 6 1 7 3 8 10 9 11 10 9 11
REMARK H PARENT
REMARK Flexibility Score: inf
ROOT
ATOM      1  C   UNL     1      10.115 -18.200 -20.689  1.00  0.00     0.008 C 
ATOM      2  C   UNL     1      11.594 -18.506 -20.428  1.00  0.00    -0.006 C 
ATOM      3  C   UNL     1      12.092 -17.745 -19.189  1.00  0.00     0.008 C 
ATOM      4  C   UNL     1      13.542 -18.117 -18.851  1.00  0.00     0.039 C 
ATOM      5  C   UNL     1      14.476 -17.966 -20.045  1.00  0.00    -0.006 C 
ATOM      6  C   UNL     1      15.786 -17.615 -19.881  1.00  0.00    -0.070 C 
ATOM      7  C   UNL     1      16.367 -17.379 -18.505  1.00  0.00     0.039 C 
ATOM      8  C   UNL     1      16.708 -17.409 -21.061  1.00  0.00     0.039 C 
ATOM      9  C   UNL     1      13.906 -18.338 -21.375  1.00  0.00     0.159 C 
ATOM     10  O   UNL     1      14.628 -18.831 -22.281  1.00  0.00    -0.295 OA
ATOM     11  C   UNL     1      12.445 -18.132 -21.650  1.00  0.00     0.084 C 
ENDROOT
TORSDOF 0
ENDMDL
MODEL 9
REMARK VINA RESULT:    -4.533      3.588      5.377
REMARK INTER + INTRA:          -4.533
REMARK INTER:                  -4.533
REMARK INTRA:                   0.000
REMARK UNBOUND:                 0.000
REMARK SMILES CC(C)=C1CC[C@@H](C)CC1=O
REMARK SMILES IDX 8 1 7 2 6 3 5 4 4 5 2 6 1 7 3 8 10 9 11 10 9 11
REMARK H PARENT
REMARK Flexibility Score: inf
ROOT
ATOM      1  C   UNL     1      14.650 -18.935 -16.882  1.00  0.00     0.008 C 
ATOM      2  C   UNL     1      14.652 -18.831 -18.412  1.00  0.00    -0.006 C 
ATOM      3  C   UNL     1      15.805 -17.935 -18.891  1.00  0.00     0.008 C 
ATOM      4  C   UNL     1      15.884 -17.900 -20.423  1.00  0.00     0.039 C 
ATOM      5  C   UNL     1      14.554 -17.537 -21.069  1.00  0.00    -0.006 C 
ATOM      6  C   UNL     1      14.502 -16.847 -22.246  1.00  0.00    -0.070 C 
ATOM      7  C   UNL     1      15.764 -16.432 -22.967  1.00  0.00     0.039 C 
ATOM      8  C   UNL     1      13.188 -16.431 -22.868  1.00  0.00     0.039 C 
ATOM      9  C   UNL     1      13.332 -18.078 -20.402  1.00  0.00     0.159 C 
ATOM     10  O   UNL     1      12.305 -18.383 -21.065  1.00  0.00    -0.295 OA
ATOM     11  C   UNL     1      13.312 -18.274 -18.913  1.00  0.00     0.084 C 
ENDROOT
TORSDOF 0
ENDMDL
