MODEL 1
REMARK VINA RESULT:    -2.484      0.000      0.000
REMARK INTER + INTRA:          -2.940
REMARK INTER:                  -2.630
REMARK INTRA:                  -0.311
REMARK UNBOUND:                -0.311
REMARK SMILES CC1=C[C@H]2C(=C(C)CC[C@@H]2C(C)C)CC1
REMARK SMILES IDX 1 1 2 2 3 3 4 4 10 5 9 6 8 7 6 8 5 9 14 10 15 11 7 12 11 13
REMARK SMILES IDX 12 14 13 15
REMARK H PARENT
REMARK Flexibility Score: inf
ROOT
ATOM      1  C   UNL     1     161.228 159.622 137.294  1.00  0.00     0.039 C 
ATOM      2  C   UNL     1     162.351 158.944 138.030  1.00  0.00    -0.076 C 
ATOM      3  C   UNL     1     162.232 158.704 139.349  1.00  0.00    -0.020 C 
ATOM      4  C   UNL     1     163.311 158.015 140.168  1.00  0.00     0.041 C 
ATOM      5  C   UNL     1     164.089 159.018 141.075  1.00  0.00     0.003 C 
ATOM      6  C   UNL     1     165.281 158.324 141.823  1.00  0.00     0.009 C 
ATOM      7  C   UNL     1     165.504 156.854 141.425  1.00  0.00     0.031 C 
ATOM      8  C   UNL     1     165.371 156.670 139.930  1.00  0.00    -0.073 C 
ATOM      9  C   UNL     1     164.313 157.250 139.306  1.00  0.00    -0.064 C 
ATOM     10  C   UNL     1     164.102 157.180 137.806  1.00  0.00     0.036 C 
ATOM     11  C   UNL     1     163.601 158.529 137.293  1.00  0.00     0.035 C 
ATOM     12  C   UNL     1     166.416 155.876 139.187  1.00  0.00     0.039 C 
ENDROOT
BRANCH   5  13
ATOM     13  C   UNL     1     163.169 159.853 142.026  1.00  0.00    -0.013 C 
ATOM     14  C   UNL     1     163.445 161.362 141.908  1.00  0.00     0.007 C 
ATOM     15  C   UNL     1     163.231 159.407 143.497  1.00  0.00     0.007 C 
ENDBRANCH   5  13
TORSDOF 1
ENDMDL
MODEL 2
REMARK VINA RESULT:    -2.480     13.642     16.344
REMARK INTER + INTRA:          -2.935
REMARK INTER:                  -2.625
REMARK INTRA:                  -0.310
REMARK UNBOUND:                -0.311
REMARK SMILES CC1=C[C@H]2C(=C(C)CC[C@@H]2C(C)C)CC1
REMARK SMILES IDX 1 1 2 2 3 3 4 4 10 5 9 6 8 7 6 8 5 9 14 10 15 11 7 12 11 13
REMARK SMILES IDX 12 14 13 15
REMARK H PARENT
REMARK Flexibility Score: inf
ROOT
ATOM      1  C   UNL     1     170.808 172.375 137.434  1.00  0.00     0.039 C 
ATOM      2  C   UNL     1     169.673 173.061 138.144  1.00  0.00    -0.076 C 
ATOM      3  C   UNL     1     169.776 173.329 139.459  1.00  0.00    -0.020 C 
ATOM      4  C   UNL     1     168.684 174.027 140.252  1.00  0.00     0.041 C 
ATOM      5  C   UNL     1     167.903 173.038 141.171  1.00  0.00     0.003 C 
ATOM      6  C   UNL     1     166.698 173.739 141.892  1.00  0.00     0.009 C 
ATOM      7  C   UNL     1     166.470 175.200 141.461  1.00  0.00     0.031 C 
ATOM      8  C   UNL     1     166.618 175.353 139.964  1.00  0.00    -0.073 C 
ATOM      9  C   UNL     1     167.686 174.767 139.363  1.00  0.00    -0.064 C 
ATOM     10  C   UNL     1     167.913 174.808 137.864  1.00  0.00     0.036 C 
ATOM     11  C   UNL     1     168.429 173.452 137.386  1.00  0.00     0.035 C 
ATOM     12  C   UNL     1     165.576 176.125 139.193  1.00  0.00     0.039 C 
ENDROOT
BRANCH   5  13
ATOM     13  C   UNL     1     168.817 172.230 142.149  1.00  0.00    -0.013 C 
ATOM     14  C   UNL     1     168.608 170.712 142.005  1.00  0.00     0.007 C 
ATOM     15  C   UNL     1     168.681 172.655 143.621  1.00  0.00     0.007 C 
ENDBRANCH   5  13
TORSDOF 1
ENDMDL
MODEL 3
REMARK VINA RESULT:    -2.366      2.185      3.696
REMARK INTER + INTRA:          -2.815
REMARK INTER:                  -2.555
REMARK INTRA:                  -0.260
REMARK UNBOUND:                -0.311
REMARK SMILES CC1=C[C@H]2C(=C(C)CC[C@@H]2C(C)C)CC1
REMARK SMILES IDX 1 1 2 2 3 3 4 4 10 5 9 6 8 7 6 8 5 9 14 10 15 11 7 12 11 13
REMARK SMILES IDX 12 14 13 15
REMARK H PARENT
REMARK Flexibility Score: inf
ROOT
ATOM      1  C   UNL     1     165.982 162.528 139.166  1.00  0.00     0.039 C 
ATOM      2  C   UNL     1     165.746 161.042 139.148  1.00  0.00    -0.076 C 
ATOM      3  C   UNL     1     164.734 160.539 138.417  1.00  0.00    -0.020 C 
ATOM      4  C   UNL     1     164.431 159.052 138.333  1.00  0.00     0.041 C 
ATOM      5  C   UNL     1     163.169 158.664 139.165  1.00  0.00     0.003 C 
ATOM      6  C   UNL     1     162.934 157.112 139.177  1.00  0.00     0.009 C 
ATOM      7  C   UNL     1     164.040 156.302 138.476  1.00  0.00     0.031 C 
ATOM      8  C   UNL     1     165.410 156.837 138.827  1.00  0.00    -0.073 C 
ATOM      9  C   UNL     1     165.603 158.181 138.779  1.00  0.00    -0.064 C 
ATOM     10  C   UNL     1     166.916 158.838 139.158  1.00  0.00     0.036 C 
ATOM     11  C   UNL     1     166.641 160.122 139.940  1.00  0.00     0.035 C 
ATOM     12  C   UNL     1     166.498 155.875 139.235  1.00  0.00     0.039 C 
ENDROOT
BRANCH   5  13
ATOM     13  C   UNL     1     161.888 159.477 138.786  1.00  0.00    -0.013 C 
ATOM     14  C   UNL     1     160.672 159.052 139.627  1.00  0.00     0.007 C 
ATOM     15  C   UNL     1     161.548 159.435 137.287  1.00  0.00     0.007 C 
ENDBRANCH   5  13
TORSDOF 1
ENDMDL
MODEL 4
REMARK VINA RESULT:    -2.362     13.164     15.955
REMARK INTER + INTRA:          -2.811
REMARK INTER:                  -2.559
REMARK INTRA:                  -0.252
REMARK UNBOUND:                -0.311
REMARK SMILES CC1=C[C@H]2C(=C(C)CC[C@@H]2C(C)C)CC1
REMARK SMILES IDX 1 1 2 2 3 3 4 4 10 5 9 6 8 7 6 8 5 9 14 10 15 11 7 12 11 13
REMARK SMILES IDX 12 14 13 15
REMARK H PARENT
REMARK Flexibility Score: inf
ROOT
ATOM      1  C   UNL     1     166.201 169.500 139.440  1.00  0.00     0.039 C 
ATOM      2  C   UNL     1     166.376 170.992 139.353  1.00  0.00    -0.076 C 
ATOM      3  C   UNL     1     167.341 171.503 138.566  1.00  0.00    -0.020 C 
ATOM      4  C   UNL     1     167.580 172.995 138.410  1.00  0.00     0.041 C 
ATOM      5  C   UNL     1     168.853 173.469 139.178  1.00  0.00     0.003 C 
ATOM      6  C   UNL     1     169.025 175.027 139.117  1.00  0.00     0.009 C 
ATOM      7  C   UNL     1     167.863 175.763 138.425  1.00  0.00     0.031 C 
ATOM      8  C   UNL     1     166.530 175.189 138.847  1.00  0.00    -0.073 C 
ATOM      9  C   UNL     1     166.389 173.839 138.861  1.00  0.00    -0.064 C 
ATOM     10  C   UNL     1     165.118 173.147 139.314  1.00  0.00     0.036 C 
ATOM     11  C   UNL     1     165.472 171.910 140.138  1.00  0.00     0.035 C 
ATOM     12  C   UNL     1     165.418 176.125 139.255  1.00  0.00     0.039 C 
ENDROOT
BRANCH   5  13
ATOM     13  C   UNL     1     170.152 172.691 138.787  1.00  0.00    -0.013 C 
ATOM     14  C   UNL     1     171.383 173.216 139.545  1.00  0.00     0.007 C 
ATOM     15  C   UNL     1     170.425 172.660 137.273  1.00  0.00     0.007 C 
ENDBRANCH   5  13
TORSDOF 1
ENDMDL
MODEL 5
REMARK VINA RESULT:    -2.361     13.809     15.681
REMARK INTER + INTRA:          -2.810
REMARK INTER:                  -2.498
REMARK INTRA:                  -0.311
REMARK UNBOUND:                -0.311
REMARK SMILES CC1=C[C@H]2C(=C(C)CC[C@@H]2C(C)C)CC1
REMARK SMILES IDX 1 1 2 2 3 3 4 4 10 5 9 6 8 7 6 8 5 9 14 10 15 11 7 12 11 13
REMARK SMILES IDX 12 14 13 15
REMARK H PARENT
REMARK Flexibility Score: inf
ROOT
ATOM      1  C   UNL     1     165.472 176.125 139.404  1.00  0.00     0.039 C 
ATOM      2  C   UNL     1     166.619 175.165 139.246  1.00  0.00    -0.076 C 
ATOM      3  C   UNL     1     166.595 173.988 139.899  1.00  0.00    -0.020 C 
ATOM      4  C   UNL     1     167.705 172.955 139.789  1.00  0.00     0.041 C 
ATOM      5  C   UNL     1     168.595 172.913 141.069  1.00  0.00     0.003 C 
ATOM      6  C   UNL     1     169.812 171.936 140.901  1.00  0.00     0.009 C 
ATOM      7  C   UNL     1     169.938 171.323 139.495  1.00  0.00     0.031 C 
ATOM      8  C   UNL     1     169.677 172.359 138.425  1.00  0.00    -0.073 C 
ATOM      9  C   UNL     1     168.600 173.173 138.572  1.00  0.00    -0.064 C 
ATOM     10  C   UNL     1     168.267 174.283 137.593  1.00  0.00     0.036 C 
ATOM     11  C   UNL     1     167.786 175.515 138.357  1.00  0.00     0.035 C 
ATOM     12  C   UNL     1     170.624 172.468 137.255  1.00  0.00     0.039 C 
ENDROOT
BRANCH   5  13
ATOM     13  C   UNL     1     167.792 172.673 142.390  1.00  0.00    -0.013 C 
ATOM     14  C   UNL     1     168.622 173.028 143.636  1.00  0.00     0.007 C 
ATOM     15  C   UNL     1     167.213 171.254 142.514  1.00  0.00     0.007 C 
ENDBRANCH   5  13
TORSDOF 1
ENDMDL
MODEL 6
REMARK VINA RESULT:    -2.298     16.928     19.214
REMARK INTER + INTRA:          -2.743
REMARK INTER:                  -2.433
REMARK INTRA:                  -0.309
REMARK UNBOUND:                -0.311
REMARK SMILES CC1=C[C@H]2C(=C(C)CC[C@@H]2C(C)C)CC1
REMARK SMILES IDX 1 1 2 2 3 3 4 4 10 5 9 6 8 7 6 8 5 9 14 10 15 11 7 12 11 13
REMARK SMILES IDX 12 14 13 15
REMARK H PARENT
REMARK Flexibility Score: inf
ROOT
ATOM      1  C   UNL     1     174.655 174.662 143.361  1.00  0.00     0.039 C 
ATOM      2  C   UNL     1     174.702 174.650 141.857  1.00  0.00    -0.076 C 
ATOM      3  C   UNL     1     173.874 173.839 141.173  1.00  0.00    -0.020 C 
ATOM      4  C   UNL     1     173.846 173.771 139.655  1.00  0.00     0.041 C 
ATOM      5  C   UNL     1     174.520 172.472 139.115  1.00  0.00     0.003 C 
ATOM      6  C   UNL     1     174.601 172.466 137.548  1.00  0.00     0.009 C 
ATOM      7  C   UNL     1     174.114 173.768 136.886  1.00  0.00     0.031 C 
ATOM      8  C   UNL     1     174.613 174.979 137.640  1.00  0.00    -0.073 C 
ATOM      9  C   UNL     1     174.504 174.980 138.994  1.00  0.00    -0.064 C 
ATOM     10  C   UNL     1     175.016 176.115 139.861  1.00  0.00     0.036 C 
ATOM     11  C   UNL     1     175.667 175.545 141.120  1.00  0.00     0.035 C 
ATOM     12  C   UNL     1     175.229 176.125 136.875  1.00  0.00     0.039 C 
ENDROOT
BRANCH   5  13
ATOM     13  C   UNL     1     173.917 171.155 139.704  1.00  0.00    -0.013 C 
ATOM     14  C   UNL     1     174.987 170.301 140.407  1.00  0.00     0.007 C 
ATOM     15  C   UNL     1     173.144 170.312 138.676  1.00  0.00     0.007 C 
ENDBRANCH   5  13
TORSDOF 1
ENDMDL
MODEL 7
REMARK VINA RESULT:    -2.284     14.298     16.414
REMARK INTER + INTRA:          -2.728
REMARK INTER:                  -2.419
REMARK INTRA:                  -0.309
REMARK UNBOUND:                -0.311
REMARK SMILES CC1=C[C@H]2C(=C(C)CC[C@@H]2C(C)C)CC1
REMARK SMILES IDX 1 1 2 2 3 3 4 4 10 5 9 6 8 7 6 8 5 9 14 10 15 11 7 12 11 13
REMARK SMILES IDX 12 14 13 15
REMARK H PARENT
REMARK Flexibility Score: inf
ROOT
ATOM      1  C   UNL     1     168.172 176.124 139.230  1.00  0.00     0.039 C 
ATOM      2  C   UNL     1     168.794 174.812 138.835  1.00  0.00    -0.076 C 
ATOM      3  C   UNL     1     169.736 174.259 139.622  1.00  0.00    -0.020 C 
ATOM      4  C   UNL     1     170.408 172.933 139.306  1.00  0.00     0.041 C 
ATOM      5  C   UNL     1     171.868 173.125 138.792  1.00  0.00     0.003 C 
ATOM      6  C   UNL     1     172.513 171.765 138.349  1.00  0.00     0.009 C 
ATOM      7  C   UNL     1     171.551 170.564 138.403  1.00  0.00     0.031 C 
ATOM      8  C   UNL     1     170.188 170.936 137.867  1.00  0.00    -0.073 C 
ATOM      9  C   UNL     1     169.631 172.102 138.288  1.00  0.00    -0.064 C 
ATOM     10  C   UNL     1     168.294 172.606 137.781  1.00  0.00     0.036 C 
ATOM     11  C   UNL     1     168.362 174.117 137.568  1.00  0.00     0.035 C 
ATOM     12  C   UNL     1     169.508 170.023 136.876  1.00  0.00     0.039 C 
ENDROOT
BRANCH   5  13
ATOM     13  C   UNL     1     172.777 173.948 139.763  1.00  0.00    -0.013 C 
ATOM     14  C   UNL     1     173.839 174.759 139.002  1.00  0.00     0.007 C 
ATOM     15  C   UNL     1     173.433 173.101 140.867  1.00  0.00     0.007 C 
ENDBRANCH   5  13
TORSDOF 1
ENDMDL
MODEL 8
REMARK VINA RESULT:    -2.173      2.472      4.089
REMARK INTER + INTRA:          -2.611
REMARK INTER:                  -2.352
REMARK INTRA:                  -0.259
REMARK UNBOUND:                -0.311
REMARK SMILES CC1=C[C@H]2C(=C(C)CC[C@@H]2C(C)C)CC1
REMARK SMILES IDX 1 1 2 2 3 3 4 4 10 5 9 6 8 7 6 8 5 9 14 10 15 11 7 12 11 13
REMARK SMILES IDX 12 14 13 15
REMARK H PARENT
REMARK Flexibility Score: inf
ROOT
ATOM      1  C   UNL     1     161.088 159.645 137.009  1.00  0.00     0.039 C 
ATOM      2  C   UNL     1     162.499 159.904 137.460  1.00  0.00    -0.076 C 
ATOM      3  C   UNL     1     163.445 158.968 137.255  1.00  0.00    -0.020 C 
ATOM      4  C   UNL     1     164.896 159.149 137.668  1.00  0.00     0.041 C 
ATOM      5  C   UNL     1     165.255 158.311 138.933  1.00  0.00     0.003 C 
ATOM      6  C   UNL     1     166.716 158.598 139.428  1.00  0.00     0.009 C 
ATOM      7  C   UNL     1     167.438 159.711 138.648  1.00  0.00     0.031 C 
ATOM      8  C   UNL     1     166.512 160.877 138.384  1.00  0.00    -0.073 C 
ATOM      9  C   UNL     1     165.262 160.610 137.924  1.00  0.00    -0.064 C 
ATOM     10  C   UNL     1     164.229 161.691 137.671  1.00  0.00     0.036 C 
ATOM     11  C   UNL     1     162.855 161.206 138.133  1.00  0.00     0.035 C 
ATOM     12  C   UNL     1     166.993 162.281 138.657  1.00  0.00     0.039 C 
ENDROOT
BRANCH   5  13
ATOM     13  C   UNL     1     164.943 156.785 138.789  1.00  0.00    -0.013 C 
ATOM     14  C   UNL     1     163.726 156.367 139.631  1.00  0.00     0.007 C 
ATOM     15  C   UNL     1     166.146 155.875 139.092  1.00  0.00     0.007 C 
ENDBRANCH   5  13
TORSDOF 1
ENDMDL
MODEL 9
REMARK VINA RESULT:    -2.113     14.966     16.047
REMARK INTER + INTRA:          -2.548
REMARK INTER:                  -2.238
REMARK INTRA:                  -0.309
REMARK UNBOUND:                -0.311
REMARK SMILES CC1=C[C@H]2C(=C(C)CC[C@@H]2C(C)C)CC1
REMARK SMILES IDX 1 1 2 2 3 3 4 4 10 5 9 6 8 7 6 8 5 9 14 10 15 11 7 12 11 13
REMARK SMILES IDX 12 14 13 15
REMARK H PARENT
REMARK Flexibility Score: inf
ROOT
ATOM      1  C   UNL     1     171.414 172.383 137.209  1.00  0.00     0.039 C 
ATOM      2  C   UNL     1     170.667 172.485 138.511  1.00  0.00    -0.076 C 
ATOM      3  C   UNL     1     169.328 172.626 138.500  1.00  0.00    -0.020 C 
ATOM      4  C   UNL     1     168.494 172.726 139.766  1.00  0.00     0.041 C 
ATOM      5  C   UNL     1     167.999 174.182 140.029  1.00  0.00     0.003 C 
ATOM      6  C   UNL     1     167.246 174.304 141.400  1.00  0.00     0.009 C 
ATOM      7  C   UNL     1     167.251 173.012 142.238  1.00  0.00     0.031 C 
ATOM      8  C   UNL     1     168.609 172.350 142.206  1.00  0.00    -0.073 C 
ATOM      9  C   UNL     1     169.232 172.224 141.005  1.00  0.00    -0.064 C 
ATOM     10  C   UNL     1     170.616 171.625 140.854  1.00  0.00     0.036 C 
ATOM     11  C   UNL     1     171.412 172.424 139.822  1.00  0.00     0.035 C 
ATOM     12  C   UNL     1     169.232 171.876 143.496  1.00  0.00     0.039 C 
ENDROOT
BRANCH   5  13
ATOM     13  C   UNL     1     167.206 174.806 138.834  1.00  0.00    -0.013 C 
ATOM     14  C   UNL     1     167.836 176.125 138.356  1.00  0.00     0.007 C 
ATOM     15  C   UNL     1     165.706 174.996 139.118  1.00  0.00     0.007 C 
ENDBRANCH   5  13
TORSDOF 1
ENDMDL
