MODEL 1
REMARK VINA RESULT:    -3.654      0.000      0.000
REMARK INTER + INTRA:         -10.657
REMARK INTER:                  -7.926
REMARK INTRA:                  -2.731
REMARK UNBOUND:                -2.731
REMARK SMILES CCCCCCCCCCCCCCCCCCCCCC(=O)[O-]
REMARK SMILES IDX 12 1 11 2 10 3 9 4 8 5 7 6 6 7 5 8 4 9 3 10 2 11 1 12 13 13
REMARK SMILES IDX 14 14 15 15 16 16 17 17 18 18 19 19 20 20 21 21 22 22 23 23
REMARK SMILES IDX 24 24
REMARK H PARENT
REMARK Flexibility Score: inf
ROOT
ATOM      1  C   UNL     1      59.385  26.097  51.637  1.00  0.00     0.000 C 
ENDROOT
BRANCH   1   2
ATOM      2  C   UNL     1      59.067  25.863  50.146  1.00  0.00     0.000 C 
BRANCH   2   3
ATOM      3  C   UNL     1      59.320  27.071  49.225  1.00  0.00     0.000 C 
BRANCH   3   4
ATOM      4  C   UNL     1      60.461  27.976  49.719  1.00  0.00    -0.000 C 
BRANCH   4   5
ATOM      5  C   UNL     1      60.017  29.433  49.937  1.00  0.00    -0.000 C 
BRANCH   5   6
ATOM      6  C   UNL     1      58.519  29.676  49.655  1.00  0.00    -0.000 C 
BRANCH   6   7
ATOM      7  C   UNL     1      57.674  29.639  50.938  1.00  0.00    -0.000 C 
BRANCH   7   8
ATOM      8  C   UNL     1      56.376  28.845  50.722  1.00  0.00    -0.000 C 
BRANCH   8   9
ATOM      9  C   UNL     1      56.144  27.789  51.814  1.00  0.00    -0.000 C 
BRANCH   9  10
ATOM     10  C   UNL     1      55.258  26.626  51.335  1.00  0.00    -0.000 C 
BRANCH  10  11
ATOM     11  C   UNL     1      55.469  26.302  49.848  1.00  0.00    -0.003 C 
ATOM     12  C   UNL     1      54.173  25.907  49.141  1.00  0.00     0.004 C 
ENDBRANCH  10  11
ENDBRANCH   9  10
ENDBRANCH   8   9
ENDBRANCH   7   8
ENDBRANCH   6   7
ENDBRANCH   5   6
ENDBRANCH   4   5
ENDBRANCH   3   4
ENDBRANCH   2   3
ENDBRANCH   1   2
BRANCH   1  13
ATOM     13  C   UNL     1      59.144  24.884  52.558  1.00  0.00     0.000 C 
BRANCH  13  14
ATOM     14  C   UNL     1      59.167  23.513  51.852  1.00  0.00     0.000 C 
BRANCH  14  15
ATOM     15  C   UNL     1      60.300  22.571  52.294  1.00  0.00     0.000 C 
BRANCH  15  16
ATOM     16  C   UNL     1      61.310  22.284  51.169  1.00  0.00     0.000 C 
BRANCH  16  17
ATOM     17  C   UNL     1      60.925  22.964  49.844  1.00  0.00     0.000 C 
BRANCH  17  18
ATOM     18  C   UNL     1      60.928  21.989  48.653  1.00  0.00     0.000 C 
BRANCH  18  19
ATOM     19  C   UNL     1      60.987  20.517  49.092  1.00  0.00     0.000 C 
BRANCH  19  20
ATOM     20  C   UNL     1      59.697  19.749  48.758  1.00  0.00     0.006 C 
BRANCH  20  21
ATOM     21  C   UNL     1      58.942  19.306  50.019  1.00  0.00     0.053 C 
BRANCH  21  22
ATOM     22  C   UNL     1      58.149  18.057  49.784  1.00  0.00     0.041 C 
ATOM     23  O   UNL     1      57.150  17.795  50.504  1.00  0.00    -0.550 OA
ATOM     24  O   UNL     1      58.502  17.192  48.755  1.00  0.00    -0.550 OA
ENDBRANCH  21  22
ENDBRANCH  20  21
ENDBRANCH  19  20
ENDBRANCH  18  19
ENDBRANCH  17  18
ENDBRANCH  16  17
ENDBRANCH  15  16
ENDBRANCH  14  15
ENDBRANCH  13  14
ENDBRANCH   1  13
TORSDOF 20
ENDMDL
MODEL 2
REMARK VINA RESULT:    -3.539      1.718      3.439
REMARK INTER + INTRA:         -10.409
REMARK INTER:                  -8.666
REMARK INTRA:                  -1.743
REMARK UNBOUND:                -2.731
REMARK SMILES CCCCCCCCCCCCCCCCCCCCCC(=O)[O-]
REMARK SMILES IDX 12 1 11 2 10 3 9 4 8 5 7 6 6 7 5 8 4 9 3 10 2 11 1 12 13 13
REMARK SMILES IDX 14 14 15 15 16 16 17 17 18 18 19 19 20 20 21 21 22 22 23 23
REMARK SMILES IDX 24 24
REMARK H PARENT
REMARK Flexibility Score: inf
ROOT
ATOM      1  C   UNL     1      60.564  23.451  49.913  1.00  0.00     0.000 C 
ENDROOT
BRANCH   1   2
ATOM      2  C   UNL     1      59.987  24.229  51.113  1.00  0.00     0.000 C 
BRANCH   2   3
ATOM      3  C   UNL     1      59.884  25.753  50.918  1.00  0.00     0.000 C 
BRANCH   3   4
ATOM      4  C   UNL     1      59.567  26.153  49.467  1.00  0.00    -0.000 C 
BRANCH   4   5
ATOM      5  C   UNL     1      59.290  27.659  49.309  1.00  0.00    -0.000 C 
BRANCH   5   6
ATOM      6  C   UNL     1      59.047  28.390  50.647  1.00  0.00    -0.000 C 
BRANCH   6   7
ATOM      7  C   UNL     1      57.723  29.171  50.649  1.00  0.00    -0.000 C 
BRANCH   7   8
ATOM      8  C   UNL     1      56.595  28.345  51.286  1.00  0.00    -0.000 C 
BRANCH   8   9
ATOM      9  C   UNL     1      55.548  27.888  50.259  1.00  0.00    -0.000 C 
BRANCH   9  10
ATOM     10  C   UNL     1      55.677  26.397  49.903  1.00  0.00    -0.000 C 
BRANCH  10  11
ATOM     11  C   UNL     1      54.321  25.754  49.572  1.00  0.00    -0.003 C 
ATOM     12  C   UNL     1      53.205  26.785  49.404  1.00  0.00     0.004 C 
ENDBRANCH  10  11
ENDBRANCH   9  10
ENDBRANCH   8   9
ENDBRANCH   7   8
ENDBRANCH   6   7
ENDBRANCH   5   6
ENDBRANCH   4   5
ENDBRANCH   3   4
ENDBRANCH   2   3
ENDBRANCH   1   2
BRANCH   1  13
ATOM     13  C   UNL     1      60.443  21.917  50.006  1.00  0.00     0.000 C 
BRANCH  13  14
ATOM     14  C   UNL     1      60.723  21.157  48.693  1.00  0.00     0.000 C 
BRANCH  14  15
ATOM     15  C   UNL     1      59.808  19.947  48.432  1.00  0.00     0.000 C 
BRANCH  15  16
ATOM     16  C   UNL     1      60.195  18.716  49.270  1.00  0.00     0.000 C 
BRANCH  16  17
ATOM     17  C   UNL     1      59.697  17.400  48.650  1.00  0.00     0.000 C 
BRANCH  17  18
ATOM     18  C   UNL     1      58.219  17.112  48.973  1.00  0.00     0.000 C 
BRANCH  18  19
ATOM     19  C   UNL     1      57.903  17.250  50.470  1.00  0.00     0.000 C 
BRANCH  19  20
ATOM     20  C   UNL     1      56.799  18.286  50.747  1.00  0.00     0.006 C 
BRANCH  20  21
ATOM     21  C   UNL     1      57.321  19.490  51.543  1.00  0.00     0.053 C 
BRANCH  21  22
ATOM     22  C   UNL     1      56.763  19.523  52.933  1.00  0.00     0.041 C 
ATOM     23  O   UNL     1      57.116  20.424  53.738  1.00  0.00    -0.550 OA
ATOM     24  O   UNL     1      55.838  18.566  53.334  1.00  0.00    -0.550 OA
ENDBRANCH  21  22
ENDBRANCH  20  21
ENDBRANCH  19  20
ENDBRANCH  18  19
ENDBRANCH  17  18
ENDBRANCH  16  17
ENDBRANCH  15  16
ENDBRANCH  14  15
ENDBRANCH  13  14
ENDBRANCH   1  13
TORSDOF 20
ENDMDL
MODEL 3
REMARK VINA RESULT:    -3.509      6.161      8.999
REMARK INTER + INTRA:         -10.343
REMARK INTER:                  -6.869
REMARK INTRA:                  -3.474
REMARK UNBOUND:                -2.731
REMARK SMILES CCCCCCCCCCCCCCCCCCCCCC(=O)[O-]
REMARK SMILES IDX 12 1 11 2 10 3 9 4 8 5 7 6 6 7 5 8 4 9 3 10 2 11 1 12 13 13
REMARK SMILES IDX 14 14 15 15 16 16 17 17 18 18 19 19 20 20 21 21 22 22 23 23
REMARK SMILES IDX 24 24
REMARK H PARENT
REMARK Flexibility Score: inf
ROOT
ATOM      1  C   UNL     1      59.572  28.169  49.082  1.00  0.00     0.000 C 
ENDROOT
BRANCH   1   2
ATOM      2  C   UNL     1      61.027  28.019  49.572  1.00  0.00     0.000 C 
BRANCH   2   3
ATOM      3  C   UNL     1      61.213  27.112  50.803  1.00  0.00     0.000 C 
BRANCH   3   4
ATOM      4  C   UNL     1      60.087  26.078  50.964  1.00  0.00    -0.000 C 
BRANCH   4   5
ATOM      5  C   UNL     1      59.253  26.297  52.238  1.00  0.00    -0.000 C 
BRANCH   5   6
ATOM      6  C   UNL     1      57.732  26.375  51.981  1.00  0.00    -0.000 C 
BRANCH   6   7
ATOM      7  C   UNL     1      57.351  25.832  50.594  1.00  0.00    -0.000 C 
BRANCH   7   8
ATOM      8  C   UNL     1      56.097  26.536  50.052  1.00  0.00    -0.000 C 
BRANCH   8   9
ATOM      9  C   UNL     1      55.239  27.153  51.167  1.00  0.00    -0.000 C 
BRANCH   9  10
ATOM     10  C   UNL     1      53.779  27.377  50.738  1.00  0.00    -0.000 C 
BRANCH  10  11
ATOM     11  C   UNL     1      53.570  28.743  50.064  1.00  0.00    -0.003 C 
ATOM     12  C   UNL     1      54.398  29.853  50.712  1.00  0.00     0.004 C 
ENDBRANCH  10  11
ENDBRANCH   9  10
ENDBRANCH   8   9
ENDBRANCH   7   8
ENDBRANCH   6   7
ENDBRANCH   5   6
ENDBRANCH   4   5
ENDBRANCH   3   4
ENDBRANCH   2   3
ENDBRANCH   1   2
BRANCH   1  13
ATOM     13  C   UNL     1      58.927  29.543  49.350  1.00  0.00     0.000 C 
BRANCH  13  14
ATOM     14  C   UNL     1      58.108  29.639  50.654  1.00  0.00     0.000 C 
BRANCH  14  15
ATOM     15  C   UNL     1      58.930  29.932  51.921  1.00  0.00     0.000 C 
BRANCH  15  16
ATOM     16  C   UNL     1      59.932  31.083  51.728  1.00  0.00     0.000 C 
BRANCH  16  17
ATOM     17  C   UNL     1      61.301  30.786  52.363  1.00  0.00     0.000 C 
BRANCH  17  18
ATOM     18  C   UNL     1      62.456  30.851  51.347  1.00  0.00     0.000 C 
BRANCH  18  19
ATOM     19  C   UNL     1      62.039  31.503  50.019  1.00  0.00     0.000 C 
BRANCH  19  20
ATOM     20  C   UNL     1      63.247  31.910  49.157  1.00  0.00     0.006 C 
BRANCH  20  21
ATOM     21  C   UNL     1      63.785  33.297  49.531  1.00  0.00     0.053 C 
BRANCH  21  22
ATOM     22  C   UNL     1      63.244  34.366  48.632  1.00  0.00     0.041 C 
ATOM     23  O   UNL     1      63.992  34.922  47.785  1.00  0.00    -0.550 OA
ATOM     24  O   UNL     1      61.908  34.736  48.718  1.00  0.00    -0.550 OA
ENDBRANCH  21  22
ENDBRANCH  20  21
ENDBRANCH  19  20
ENDBRANCH  18  19
ENDBRANCH  17  18
ENDBRANCH  16  17
ENDBRANCH  15  16
ENDBRANCH  14  15
ENDBRANCH  13  14
ENDBRANCH   1  13
TORSDOF 20
ENDMDL
MODEL 4
REMARK VINA RESULT:    -3.507      2.800      7.967
REMARK INTER + INTRA:         -10.339
REMARK INTER:                  -7.754
REMARK INTRA:                  -2.585
REMARK UNBOUND:                -2.731
REMARK SMILES CCCCCCCCCCCCCCCCCCCCCC(=O)[O-]
REMARK SMILES IDX 12 1 11 2 10 3 9 4 8 5 7 6 6 7 5 8 4 9 3 10 2 11 1 12 13 13
REMARK SMILES IDX 14 14 15 15 16 16 17 17 18 18 19 19 20 20 21 21 22 22 23 23
REMARK SMILES IDX 24 24
REMARK H PARENT
REMARK Flexibility Score: inf
ROOT
ATOM      1  C   UNL     1      59.770  24.034  51.096  1.00  0.00     0.000 C 
ENDROOT
BRANCH   1   2
ATOM      2  C   UNL     1      61.274  23.824  50.823  1.00  0.00     0.000 C 
BRANCH   2   3
ATOM      3  C   UNL     1      61.645  22.462  50.209  1.00  0.00     0.000 C 
BRANCH   3   4
ATOM      4  C   UNL     1      60.832  22.129  48.947  1.00  0.00    -0.000 C 
BRANCH   4   5
ATOM      5  C   UNL     1      61.025  20.677  48.477  1.00  0.00    -0.000 C 
BRANCH   5   6
ATOM      6  C   UNL     1      59.714  19.863  48.417  1.00  0.00    -0.000 C 
BRANCH   6   7
ATOM      7  C   UNL     1      59.895  18.431  48.945  1.00  0.00    -0.000 C 
BRANCH   7   8
ATOM      8  C   UNL     1      58.604  17.915  49.599  1.00  0.00    -0.000 C 
BRANCH   8   9
ATOM      9  C   UNL     1      58.560  18.184  51.110  1.00  0.00    -0.000 C 
BRANCH   9  10
ATOM     10  C   UNL     1      57.802  19.476  51.462  1.00  0.00    -0.000 C 
BRANCH  10  11
ATOM     11  C   UNL     1      58.725  20.558  52.044  1.00  0.00    -0.003 C 
ATOM     12  C   UNL     1      60.099  20.013  52.434  1.00  0.00     0.004 C 
ENDBRANCH  10  11
ENDBRANCH   9  10
ENDBRANCH   8   9
ENDBRANCH   7   8
ENDBRANCH   6   7
ENDBRANCH   5   6
ENDBRANCH   4   5
ENDBRANCH   3   4
ENDBRANCH   2   3
ENDBRANCH   1   2
BRANCH   1  13
ATOM     13  C   UNL     1      59.197  25.382  50.616  1.00  0.00     0.000 C 
BRANCH  13  14
ATOM     14  C   UNL     1      60.102  26.606  50.871  1.00  0.00     0.000 C 
BRANCH  14  15
ATOM     15  C   UNL     1      60.461  27.423  49.618  1.00  0.00     0.000 C 
BRANCH  15  16
ATOM     16  C   UNL     1      59.278  28.249  49.085  1.00  0.00     0.000 C 
BRANCH  16  17
ATOM     17  C   UNL     1      58.978  29.481  49.955  1.00  0.00     0.000 C 
BRANCH  17  18
ATOM     18  C   UNL     1      57.499  29.569  50.373  1.00  0.00     0.000 C 
BRANCH  18  19
ATOM     19  C   UNL     1      57.203  28.797  51.669  1.00  0.00     0.000 C 
BRANCH  19  20
ATOM     20  C   UNL     1      56.361  27.533  51.425  1.00  0.00     0.006 C 
BRANCH  20  21
ATOM     21  C   UNL     1      55.438  27.678  50.208  1.00  0.00     0.053 C 
BRANCH  21  22
ATOM     22  C   UNL     1      54.582  26.464  50.011  1.00  0.00     0.041 C 
ATOM     23  O   UNL     1      54.614  25.834  48.922  1.00  0.00    -0.550 OA
ATOM     24  O   UNL     1      53.760  26.018  51.039  1.00  0.00    -0.550 OA
ENDBRANCH  21  22
ENDBRANCH  20  21
ENDBRANCH  19  20
ENDBRANCH  18  19
ENDBRANCH  17  18
ENDBRANCH  16  17
ENDBRANCH  15  16
ENDBRANCH  14  15
ENDBRANCH  13  14
ENDBRANCH   1  13
TORSDOF 20
ENDMDL
MODEL 5
REMARK VINA RESULT:    -3.484      5.299      7.479
REMARK INTER + INTRA:         -10.289
REMARK INTER:                  -6.564
REMARK INTRA:                  -3.724
REMARK UNBOUND:                -2.731
REMARK SMILES CCCCCCCCCCCCCCCCCCCCCC(=O)[O-]
REMARK SMILES IDX 12 1 11 2 10 3 9 4 8 5 7 6 6 7 5 8 4 9 3 10 2 11 1 12 13 13
REMARK SMILES IDX 14 14 15 15 16 16 17 17 18 18 19 19 20 20 21 21 22 22 23 23
REMARK SMILES IDX 24 24
REMARK H PARENT
REMARK Flexibility Score: inf
ROOT
ATOM      1  C   UNL     1      57.708  29.628  50.108  1.00  0.00     0.000 C 
ENDROOT
BRANCH   1   2
ATOM      2  C   UNL     1      59.116  29.480  49.496  1.00  0.00     0.000 C 
BRANCH   2   3
ATOM      3  C   UNL     1      59.521  28.041  49.125  1.00  0.00     0.000 C 
BRANCH   3   4
ATOM      4  C   UNL     1      60.200  27.290  50.282  1.00  0.00    -0.000 C 
BRANCH   4   5
ATOM      5  C   UNL     1      59.236  26.360  51.039  1.00  0.00    -0.000 C 
BRANCH   5   6
ATOM      6  C   UNL     1      58.034  25.888  50.192  1.00  0.00    -0.000 C 
BRANCH   6   7
ATOM      7  C   UNL     1      56.690  26.225  50.857  1.00  0.00    -0.000 C 
BRANCH   7   8
ATOM      8  C   UNL     1      55.571  26.343  49.810  1.00  0.00    -0.000 C 
BRANCH   8   9
ATOM      9  C   UNL     1      54.623  27.520  50.092  1.00  0.00    -0.000 C 
BRANCH   9  10
ATOM     10  C   UNL     1      54.530  27.861  51.589  1.00  0.00    -0.000 C 
BRANCH  10  11
ATOM     11  C   UNL     1      53.977  29.274  51.834  1.00  0.00    -0.003 C 
ATOM     12  C   UNL     1      53.926  30.117  50.560  1.00  0.00     0.004 C 
ENDBRANCH  10  11
ENDBRANCH   9  10
ENDBRANCH   8   9
ENDBRANCH   7   8
ENDBRANCH   6   7
ENDBRANCH   5   6
ENDBRANCH   4   5
ENDBRANCH   3   4
ENDBRANCH   2   3
ENDBRANCH   1   2
BRANCH   1  13
ATOM     13  C   UNL     1      57.672  29.817  51.637  1.00  0.00     0.000 C 
BRANCH  13  14
ATOM     14  C   UNL     1      58.963  30.394  52.255  1.00  0.00     0.000 C 
BRANCH  14  15
ATOM     15  C   UNL     1      59.643  29.494  53.302  1.00  0.00     0.000 C 
BRANCH  15  16
ATOM     16  C   UNL     1      61.155  29.341  53.065  1.00  0.00     0.000 C 
BRANCH  16  17
ATOM     17  C   UNL     1      61.689  30.321  52.006  1.00  0.00     0.000 C 
BRANCH  17  18
ATOM     18  C   UNL     1      63.225  30.312  51.908  1.00  0.00     0.000 C 
BRANCH  18  19
ATOM     19  C   UNL     1      63.745  29.320  50.856  1.00  0.00     0.000 C 
BRANCH  19  20
ATOM     20  C   UNL     1      63.070  29.504  49.486  1.00  0.00     0.006 C 
BRANCH  20  21
ATOM     21  C   UNL     1      63.651  28.563  48.422  1.00  0.00     0.053 C 
BRANCH  21  22
ATOM     22  C   UNL     1      64.750  29.216  47.642  1.00  0.00     0.041 C 
ATOM     23  O   UNL     1      65.353  28.578  46.739  1.00  0.00    -0.550 OA
ATOM     24  O   UNL     1      65.097  30.536  47.900  1.00  0.00    -0.550 OA
ENDBRANCH  21  22
ENDBRANCH  20  21
ENDBRANCH  19  20
ENDBRANCH  18  19
ENDBRANCH  17  18
ENDBRANCH  16  17
ENDBRANCH  15  16
ENDBRANCH  14  15
ENDBRANCH  13  14
ENDBRANCH   1  13
TORSDOF 20
ENDMDL
MODEL 6
REMARK VINA RESULT:    -3.447      1.809      2.895
REMARK INTER + INTRA:         -10.208
REMARK INTER:                  -6.985
REMARK INTRA:                  -3.223
REMARK UNBOUND:                -2.731
REMARK SMILES CCCCCCCCCCCCCCCCCCCCCC(=O)[O-]
REMARK SMILES IDX 12 1 11 2 10 3 9 4 8 5 7 6 6 7 5 8 4 9 3 10 2 11 1 12 13 13
REMARK SMILES IDX 14 14 15 15 16 16 17 17 18 18 19 19 20 20 21 21 22 22 23 23
REMARK SMILES IDX 24 24
REMARK H PARENT
REMARK Flexibility Score: inf
ROOT
ATOM      1  C   UNL     1      59.348  24.838  51.870  1.00  0.00     0.000 C 
ENDROOT
BRANCH   1   2
ATOM      2  C   UNL     1      58.347  25.388  50.833  1.00  0.00     0.000 C 
BRANCH   2   3
ATOM      3  C   UNL     1      58.981  26.105  49.626  1.00  0.00     0.000 C 
BRANCH   3   4
ATOM      4  C   UNL     1      60.365  26.697  49.937  1.00  0.00    -0.000 C 
BRANCH   4   5
ATOM      5  C   UNL     1      60.483  28.180  49.545  1.00  0.00    -0.000 C 
BRANCH   5   6
ATOM      6  C   UNL     1      59.176  28.780  48.981  1.00  0.00    -0.000 C 
BRANCH   6   7
ATOM      7  C   UNL     1      58.509  29.750  49.969  1.00  0.00    -0.000 C 
BRANCH   7   8
ATOM      8  C   UNL     1      57.161  29.199  50.459  1.00  0.00    -0.000 C 
BRANCH   8   9
ATOM      9  C   UNL     1      57.216  28.722  51.919  1.00  0.00    -0.000 C 
BRANCH   9  10
ATOM     10  C   UNL     1      58.457  29.238  52.666  1.00  0.00    -0.000 C 
BRANCH  10  11
ATOM     11  C   UNL     1      59.171  28.129  53.454  1.00  0.00    -0.003 C 
ATOM     12  C   UNL     1      60.688  28.158  53.270  1.00  0.00     0.004 C 
ENDBRANCH  10  11
ENDBRANCH   9  10
ENDBRANCH   8   9
ENDBRANCH   7   8
ENDBRANCH   6   7
ENDBRANCH   5   6
ENDBRANCH   4   5
ENDBRANCH   3   4
ENDBRANCH   2   3
ENDBRANCH   1   2
BRANCH   1  13
ATOM     13  C   UNL     1      59.442  23.301  51.940  1.00  0.00     0.000 C 
BRANCH  13  14
ATOM     14  C   UNL     1      60.845  22.718  51.673  1.00  0.00     0.000 C 
BRANCH  14  15
ATOM     15  C   UNL     1      61.507  23.186  50.365  1.00  0.00     0.000 C 
BRANCH  15  16
ATOM     16  C   UNL     1      60.848  22.581  49.114  1.00  0.00     0.000 C 
BRANCH  16  17
ATOM     17  C   UNL     1      61.345  21.156  48.816  1.00  0.00     0.000 C 
BRANCH  17  18
ATOM     18  C   UNL     1      60.203  20.196  48.434  1.00  0.00     0.000 C 
BRANCH  18  19
ATOM     19  C   UNL     1      59.906  19.164  49.533  1.00  0.00     0.000 C 
BRANCH  19  20
ATOM     20  C   UNL     1      58.418  19.126  49.921  1.00  0.00     0.006 C 
BRANCH  20  21
ATOM     21  C   UNL     1      58.201  18.571  51.335  1.00  0.00     0.053 C 
BRANCH  21  22
ATOM     22  C   UNL     1      57.044  19.229  52.021  1.00  0.00     0.041 C 
ATOM     23  O   UNL     1      55.927  18.651  52.077  1.00  0.00    -0.550 OA
ATOM     24  O   UNL     1      57.204  20.474  52.616  1.00  0.00    -0.550 OA
ENDBRANCH  21  22
ENDBRANCH  20  21
ENDBRANCH  19  20
ENDBRANCH  18  19
ENDBRANCH  17  18
ENDBRANCH  16  17
ENDBRANCH  15  16
ENDBRANCH  14  15
ENDBRANCH  13  14
ENDBRANCH   1  13
TORSDOF 20
ENDMDL
MODEL 7
REMARK VINA RESULT:    -3.421      1.539      3.215
REMARK INTER + INTRA:         -10.152
REMARK INTER:                  -7.179
REMARK INTRA:                  -2.974
REMARK UNBOUND:                -2.731
REMARK SMILES CCCCCCCCCCCCCCCCCCCCCC(=O)[O-]
REMARK SMILES IDX 12 1 11 2 10 3 9 4 8 5 7 6 6 7 5 8 4 9 3 10 2 11 1 12 13 13
REMARK SMILES IDX 14 14 15 15 16 16 17 17 18 18 19 19 20 20 21 21 22 22 23 23
REMARK SMILES IDX 24 24
REMARK H PARENT
REMARK Flexibility Score: inf
ROOT
ATOM      1  C   UNL     1      60.440  22.970  52.691  1.00  0.00     0.000 C 
ENDROOT
BRANCH   1   2
ATOM      2  C   UNL     1      59.454  24.016  53.249  1.00  0.00     0.000 C 
BRANCH   2   3
ATOM      3  C   UNL     1      58.339  24.450  52.278  1.00  0.00     0.000 C 
BRANCH   3   4
ATOM      4  C   UNL     1      58.424  25.935  51.890  1.00  0.00    -0.000 C 
BRANCH   4   5
ATOM      5  C   UNL     1      59.816  26.540  52.141  1.00  0.00    -0.000 C 
BRANCH   5   6
ATOM      6  C   UNL     1      60.619  26.811  50.850  1.00  0.00    -0.000 C 
BRANCH   6   7
ATOM      7  C   UNL     1      59.706  26.996  49.628  1.00  0.00    -0.000 C 
BRANCH   7   8
ATOM      8  C   UNL     1      59.852  28.407  49.038  1.00  0.00    -0.000 C 
BRANCH   8   9
ATOM      9  C   UNL     1      58.605  29.275  49.271  1.00  0.00    -0.000 C 
BRANCH   9  10
ATOM     10  C   UNL     1      58.532  29.837  50.701  1.00  0.00    -0.000 C 
BRANCH  10  11
ATOM     11  C   UNL     1      57.204  29.500  51.396  1.00  0.00    -0.003 C 
ATOM     12  C   UNL     1      56.293  28.626  50.536  1.00  0.00     0.004 C 
ENDBRANCH  10  11
ENDBRANCH   9  10
ENDBRANCH   8   9
ENDBRANCH   7   8
ENDBRANCH   6   7
ENDBRANCH   5   6
ENDBRANCH   4   5
ENDBRANCH   3   4
ENDBRANCH   2   3
ENDBRANCH   1   2
BRANCH   1  13
ATOM     13  C   UNL     1      61.750  23.543  52.116  1.00  0.00     0.000 C 
BRANCH  13  14
ATOM     14  C   UNL     1      61.974  23.283  50.612  1.00  0.00     0.000 C 
BRANCH  14  15
ATOM     15  C   UNL     1      60.691  23.058  49.792  1.00  0.00     0.000 C 
BRANCH  15  16
ATOM     16  C   UNL     1      60.761  21.799  48.911  1.00  0.00     0.000 C 
BRANCH  16  17
ATOM     17  C   UNL     1      60.241  20.544  49.632  1.00  0.00     0.000 C 
BRANCH  17  18
ATOM     18  C   UNL     1      61.267  19.396  49.645  1.00  0.00     0.000 C 
BRANCH  18  19
ATOM     19  C   UNL     1      60.617  18.020  49.432  1.00  0.00     0.000 C 
BRANCH  19  20
ATOM     20  C   UNL     1      59.241  18.115  48.750  1.00  0.00     0.006 C 
BRANCH  20  21
ATOM     21  C   UNL     1      58.169  17.306  49.492  1.00  0.00     0.053 C 
BRANCH  21  22
ATOM     22  C   UNL     1      57.415  18.148  50.474  1.00  0.00     0.041 C 
ATOM     23  O   UNL     1      56.218  18.466  50.250  1.00  0.00    -0.550 OA
ATOM     24  O   UNL     1      58.030  18.568  51.647  1.00  0.00    -0.550 OA
ENDBRANCH  21  22
ENDBRANCH  20  21
ENDBRANCH  19  20
ENDBRANCH  18  19
ENDBRANCH  17  18
ENDBRANCH  16  17
ENDBRANCH  15  16
ENDBRANCH  14  15
ENDBRANCH  13  14
ENDBRANCH   1  13
TORSDOF 20
ENDMDL
MODEL 8
REMARK VINA RESULT:    -3.404      4.910      7.414
REMARK INTER + INTRA:         -10.116
REMARK INTER:                  -6.139
REMARK INTRA:                  -3.977
REMARK UNBOUND:                -2.731
REMARK SMILES CCCCCCCCCCCCCCCCCCCCCC(=O)[O-]
REMARK SMILES IDX 12 1 11 2 10 3 9 4 8 5 7 6 6 7 5 8 4 9 3 10 2 11 1 12 13 13
REMARK SMILES IDX 14 14 15 15 16 16 17 17 18 18 19 19 20 20 21 21 22 22 23 23
REMARK SMILES IDX 24 24
REMARK H PARENT
REMARK Flexibility Score: inf
ROOT
ATOM      1  C   UNL     1      55.998  26.339  50.025  1.00  0.00     0.000 C 
ENDROOT
BRANCH   1   2
ATOM      2  C   UNL     1      55.269  27.698  50.024  1.00  0.00     0.000 C 
BRANCH   2   3
ATOM      3  C   UNL     1      53.731  27.618  50.043  1.00  0.00     0.000 C 
BRANCH   3   4
ATOM      4  C   UNL     1      53.057  28.997  50.130  1.00  0.00    -0.000 C 
BRANCH   4   5
ATOM      5  C   UNL     1      54.053  30.130  50.436  1.00  0.00    -0.000 C 
BRANCH   5   6
ATOM      6  C   UNL     1      53.639  31.016  51.631  1.00  0.00    -0.000 C 
BRANCH   6   7
ATOM      7  C   UNL     1      53.716  30.260  52.967  1.00  0.00    -0.000 C 
BRANCH   7   8
ATOM      8  C   UNL     1      55.174  29.965  53.351  1.00  0.00    -0.000 C 
BRANCH   8   9
ATOM      9  C   UNL     1      55.426  28.469  53.596  1.00  0.00    -0.000 C 
BRANCH   9  10
ATOM     10  C   UNL     1      56.200  28.204  54.900  1.00  0.00    -0.000 C 
BRANCH  10  11
ATOM     11  C   UNL     1      57.659  28.679  54.822  1.00  0.00    -0.003 C 
ATOM     12  C   UNL     1      58.661  27.532  54.949  1.00  0.00     0.004 C 
ENDBRANCH  10  11
ENDBRANCH   9  10
ENDBRANCH   8   9
ENDBRANCH   7   8
ENDBRANCH   6   7
ENDBRANCH   5   6
ENDBRANCH   4   5
ENDBRANCH   3   4
ENDBRANCH   2   3
ENDBRANCH   1   2
BRANCH   1  13
ATOM     13  C   UNL     1      56.472  25.850  51.408  1.00  0.00     0.000 C 
BRANCH  13  14
ATOM     14  C   UNL     1      57.987  25.991  51.668  1.00  0.00     0.000 C 
BRANCH  14  15
ATOM     15  C   UNL     1      58.889  25.185  50.716  1.00  0.00     0.000 C 
BRANCH  15  16
ATOM     16  C   UNL     1      59.710  26.081  49.773  1.00  0.00     0.000 C 
BRANCH  16  17
ATOM     17  C   UNL     1      59.766  27.543  50.246  1.00  0.00     0.000 C 
BRANCH  17  18
ATOM     18  C   UNL     1      59.350  28.541  49.150  1.00  0.00     0.000 C 
BRANCH  18  19
ATOM     19  C   UNL     1      58.419  29.645  49.676  1.00  0.00     0.000 C 
BRANCH  19  20
ATOM     20  C   UNL     1      58.167  29.533  51.189  1.00  0.00     0.006 C 
BRANCH  20  21
ATOM     21  C   UNL     1      58.711  30.745  51.958  1.00  0.00     0.053 C 
BRANCH  21  22
ATOM     22  C   UNL     1      60.184  30.631  52.208  1.00  0.00     0.041 C 
ATOM     23  O   UNL     1      60.621  29.825  53.071  1.00  0.00    -0.550 OA
ATOM     24  O   UNL     1      61.076  31.402  51.473  1.00  0.00    -0.550 OA
ENDBRANCH  21  22
ENDBRANCH  20  21
ENDBRANCH  19  20
ENDBRANCH  18  19
ENDBRANCH  17  18
ENDBRANCH  16  17
ENDBRANCH  15  16
ENDBRANCH  14  15
ENDBRANCH  13  14
ENDBRANCH   1  13
TORSDOF 20
ENDMDL
MODEL 9
REMARK VINA RESULT:    -3.366      4.798      7.205
REMARK INTER + INTRA:         -10.032
REMARK INTER:                  -6.528
REMARK INTRA:                  -3.504
REMARK UNBOUND:                -2.731
REMARK SMILES CCCCCCCCCCCCCCCCCCCCCC(=O)[O-]
REMARK SMILES IDX 12 1 11 2 10 3 9 4 8 5 7 6 6 7 5 8 4 9 3 10 2 11 1 12 13 13
REMARK SMILES IDX 14 14 15 15 16 16 17 17 18 18 19 19 20 20 21 21 22 22 23 23
REMARK SMILES IDX 24 24
REMARK H PARENT
REMARK Flexibility Score: inf
ROOT
ATOM      1  C   UNL     1      59.198  27.029  49.278  1.00  0.00     0.000 C 
ENDROOT
BRANCH   1   2
ATOM      2  C   UNL     1      60.285  26.412  50.181  1.00  0.00     0.000 C 
BRANCH   2   3
ATOM      3  C   UNL     1      59.787  25.877  51.537  1.00  0.00     0.000 C 
BRANCH   3   4
ATOM      4  C   UNL     1      58.294  25.507  51.525  1.00  0.00    -0.000 C 
BRANCH   4   5
ATOM      5  C   UNL     1      57.472  26.304  52.553  1.00  0.00    -0.000 C 
BRANCH   5   6
ATOM      6  C   UNL     1      56.124  26.820  52.005  1.00  0.00    -0.000 C 
BRANCH   6   7
ATOM      7  C   UNL     1      55.511  25.859  50.973  1.00  0.00    -0.000 C 
BRANCH   7   8
ATOM      8  C   UNL     1      55.018  26.621  49.734  1.00  0.00    -0.000 C 
BRANCH   8   9
ATOM      9  C   UNL     1      54.703  28.094  50.035  1.00  0.00    -0.000 C 
BRANCH   9  10
ATOM     10  C   UNL     1      53.196  28.400  49.994  1.00  0.00    -0.000 C 
BRANCH  10  11
ATOM     11  C   UNL     1      52.876  29.835  50.440  1.00  0.00    -0.003 C 
ATOM     12  C   UNL     1      54.059  30.516  51.128  1.00  0.00     0.004 C 
ENDBRANCH  10  11
ENDBRANCH   9  10
ENDBRANCH   8   9
ENDBRANCH   7   8
ENDBRANCH   6   7
ENDBRANCH   5   6
ENDBRANCH   4   5
ENDBRANCH   3   4
ENDBRANCH   2   3
ENDBRANCH   1   2
BRANCH   1  13
ATOM     13  C   UNL     1      59.211  28.567  49.191  1.00  0.00     0.000 C 
BRANCH  13  14
ATOM     14  C   UNL     1      58.124  29.279  50.023  1.00  0.00     0.000 C 
BRANCH  14  15
ATOM     15  C   UNL     1      58.654  30.189  51.146  1.00  0.00     0.000 C 
BRANCH  15  16
ATOM     16  C   UNL     1      58.868  29.438  52.471  1.00  0.00     0.000 C 
BRANCH  16  17
ATOM     17  C   UNL     1      60.356  29.209  52.786  1.00  0.00     0.000 C 
BRANCH  17  18
ATOM     18  C   UNL     1      61.291  29.871  51.758  1.00  0.00     0.000 C 
BRANCH  18  19
ATOM     19  C   UNL     1      62.776  29.713  52.121  1.00  0.00     0.000 C 
BRANCH  19  20
ATOM     20  C   UNL     1      63.557  28.903  51.072  1.00  0.00     0.006 C 
BRANCH  20  21
ATOM     21  C   UNL     1      63.006  29.106  49.654  1.00  0.00     0.053 C 
BRANCH  21  22
ATOM     22  C   UNL     1      63.916  28.526  48.615  1.00  0.00     0.041 C 
ATOM     23  O   UNL     1      64.485  27.421  48.814  1.00  0.00    -0.550 OA
ATOM     24  O   UNL     1      64.120  29.199  47.416  1.00  0.00    -0.550 OA
ENDBRANCH  21  22
ENDBRANCH  20  21
ENDBRANCH  19  20
ENDBRANCH  18  19
ENDBRANCH  17  18
ENDBRANCH  16  17
ENDBRANCH  15  16
ENDBRANCH  14  15
ENDBRANCH  13  14
ENDBRANCH   1  13
TORSDOF 20
ENDMDL
