MODEL 1
REMARK VINA RESULT:    -4.109      0.000      0.000
REMARK INTER + INTRA:          -4.758
REMARK INTER:                  -4.709
REMARK INTRA:                  -0.049
REMARK UNBOUND:                -0.049
REMARK SMILES O=C([O-])c1cc(O)c(O)c(O)c1
REMARK SMILES IDX 4 1 5 2 12 3 6 4 10 5 8 6 2 7 1 8 3 9 7 10 11 12 9 14
REMARK H PARENT 7 11 11 13 9 15
REMARK Flexibility Score: inf
ROOT
ATOM      1  C   UNL     1       4.376 107.741 182.757  1.00  0.00     0.005 A 
ATOM      2  C   UNL     1       3.337 108.526 183.286  1.00  0.00     0.060 A 
ATOM      3  C   UNL     1       4.256 107.246 181.447  1.00  0.00     0.060 A 
ATOM      4  C   UNL     1       2.200 108.814 182.525  1.00  0.00     0.162 A 
ATOM      5  C   UNL     1       3.120 107.530 180.677  1.00  0.00     0.162 A 
ATOM      6  C   UNL     1       2.087 108.316 181.215  1.00  0.00     0.200 A 
ENDROOT
BRANCH   1   7
ATOM      7  C   UNL     1       5.578 107.437 183.564  1.00  0.00     0.072 C 
ATOM      8  O   UNL     1       6.082 106.283 183.552  1.00  0.00    -0.545 OA
ATOM      9  O   UNL     1       6.169 108.423 184.347  1.00  0.00    -0.545 OA
ENDBRANCH   1   7
BRANCH   4  10
ATOM     10  O   UNL     1       1.191 109.597 183.086  1.00  0.00    -0.504 OA
ATOM     11  H   UNL     1       1.257 110.606 183.138  1.00  0.00     0.293 HD
ENDBRANCH   4  10
BRANCH   5  12
ATOM     12  O   UNL     1       3.014 107.034 179.379  1.00  0.00    -0.504 OA
ATOM     13  H   UNL     1       3.812 107.010 178.752  1.00  0.00     0.293 HD
ENDBRANCH   5  12
BRANCH   6  14
ATOM     14  O   UNL     1       0.949 108.608 180.462  1.00  0.00    -0.502 OA
ATOM     15  H   UNL     1       0.470 107.905 179.913  1.00  0.00     0.293 HD
ENDBRANCH   6  14
TORSDOF 4
ENDMDL
MODEL 2
REMARK VINA RESULT:    -4.101      0.077      2.430
REMARK INTER + INTRA:          -4.749
REMARK INTER:                  -4.700
REMARK INTRA:                  -0.049
REMARK UNBOUND:                -0.049
REMARK SMILES O=C([O-])c1cc(O)c(O)c(O)c1
REMARK SMILES IDX 4 1 5 2 12 3 6 4 10 5 8 6 2 7 1 8 3 9 7 10 11 12 9 14
REMARK H PARENT 7 11 11 13 9 15
REMARK Flexibility Score: inf
ROOT
ATOM      1  C   UNL     1       4.382 107.779 182.791  1.00  0.00     0.005 A 
ATOM      2  C   UNL     1       4.234 107.240 181.501  1.00  0.00     0.060 A 
ATOM      3  C   UNL     1       3.358 108.586 183.314  1.00  0.00     0.060 A 
ATOM      4  C   UNL     1       3.086 107.500 180.746  1.00  0.00     0.162 A 
ATOM      5  C   UNL     1       2.205 108.852 182.564  1.00  0.00     0.162 A 
ATOM      6  C   UNL     1       2.065 108.309 181.275  1.00  0.00     0.200 A 
ENDROOT
BRANCH   1   7
ATOM      7  C   UNL     1       5.597 107.503 183.588  1.00  0.00     0.072 C 
ATOM      8  O   UNL     1       6.112 106.353 183.596  1.00  0.00    -0.545 OA
ATOM      9  O   UNL     1       6.190 108.511 184.342  1.00  0.00    -0.545 OA
ENDBRANCH   1   7
BRANCH   4  10
ATOM     10  O   UNL     1       2.977 106.947 179.470  1.00  0.00    -0.504 OA
ATOM     11  H   UNL     1       3.728 107.003 178.792  1.00  0.00     0.293 HD
ENDBRANCH   4  10
BRANCH   5  12
ATOM     12  O   UNL     1       1.195 109.654 183.095  1.00  0.00    -0.504 OA
ATOM     13  H   UNL     1       0.509 109.283 183.743  1.00  0.00     0.293 HD
ENDBRANCH   5  12
BRANCH   6  14
ATOM     14  O   UNL     1       0.923 108.563 180.515  1.00  0.00    -0.502 OA
ATOM     15  H   UNL     1       0.304 109.340 180.714  1.00  0.00     0.293 HD
ENDBRANCH   6  14
TORSDOF 4
ENDMDL
MODEL 3
REMARK VINA RESULT:    -4.066      1.917      3.370
REMARK INTER + INTRA:          -4.709
REMARK INTER:                  -4.662
REMARK INTRA:                  -0.047
REMARK UNBOUND:                -0.049
REMARK SMILES O=C([O-])c1cc(O)c(O)c(O)c1
REMARK SMILES IDX 4 1 5 2 12 3 6 4 10 5 8 6 2 7 1 8 3 9 7 10 11 12 9 14
REMARK H PARENT 7 11 11 13 9 15
REMARK Flexibility Score: inf
ROOT
ATOM      1  C   UNL     1       4.269 108.229 182.739  1.00  0.00     0.005 A 
ATOM      2  C   UNL     1       5.129 109.325 182.921  1.00  0.00     0.060 A 
ATOM      3  C   UNL     1       2.887 108.411 182.912  1.00  0.00     0.060 A 
ATOM      4  C   UNL     1       4.622 110.582 183.268  1.00  0.00     0.162 A 
ATOM      5  C   UNL     1       2.370 109.666 183.259  1.00  0.00     0.162 A 
ATOM      6  C   UNL     1       3.238 110.757 183.439  1.00  0.00     0.200 A 
ENDROOT
BRANCH   1   7
ATOM      7  C   UNL     1       4.808 106.900 182.373  1.00  0.00     0.072 C 
ATOM      8  O   UNL     1       4.355 106.278 181.376  1.00  0.00    -0.545 OA
ATOM      9  O   UNL     1       5.823 106.319 183.125  1.00  0.00    -0.545 OA
ENDBRANCH   1   7
BRANCH   4  10
ATOM     10  O   UNL     1       5.508 111.644 183.439  1.00  0.00    -0.504 OA
ATOM     11  H   UNL     1       6.505 111.544 183.291  1.00  0.00     0.293 HD
ENDBRANCH   4  10
BRANCH   5  12
ATOM     12  O   UNL     1       0.996 109.834 183.426  1.00  0.00    -0.504 OA
ATOM     13  H   UNL     1       0.616 110.618 183.946  1.00  0.00     0.293 HD
ENDBRANCH   5  12
BRANCH   6  14
ATOM     14  O   UNL     1       2.739 112.013 183.785  1.00  0.00    -0.502 OA
ATOM     15  H   UNL     1       2.708 112.337 184.744  1.00  0.00     0.293 HD
ENDBRANCH   6  14
TORSDOF 4
ENDMDL
MODEL 4
REMARK VINA RESULT:    -4.064      1.902      3.221
REMARK INTER + INTRA:          -4.706
REMARK INTER:                  -4.659
REMARK INTRA:                  -0.047
REMARK UNBOUND:                -0.049
REMARK SMILES O=C([O-])c1cc(O)c(O)c(O)c1
REMARK SMILES IDX 4 1 5 2 12 3 6 4 10 5 8 6 2 7 1 8 3 9 7 10 11 12 9 14
REMARK H PARENT 7 11 11 13 9 15
REMARK Flexibility Score: inf
ROOT
ATOM      1  C   UNL     1       4.258 108.210 182.718  1.00  0.00     0.005 A 
ATOM      2  C   UNL     1       2.874 108.392 182.879  1.00  0.00     0.060 A 
ATOM      3  C   UNL     1       5.116 109.305 182.910  1.00  0.00     0.060 A 
ATOM      4  C   UNL     1       2.353 109.643 183.225  1.00  0.00     0.162 A 
ATOM      5  C   UNL     1       4.603 110.562 183.257  1.00  0.00     0.162 A 
ATOM      6  C   UNL     1       3.217 110.735 183.415  1.00  0.00     0.200 A 
ENDROOT
BRANCH   1   7
ATOM      7  C   UNL     1       4.807 106.886 182.351  1.00  0.00     0.072 C 
ATOM      8  O   UNL     1       4.355 106.257 181.358  1.00  0.00    -0.545 OA
ATOM      9  O   UNL     1       5.832 106.316 183.099  1.00  0.00    -0.545 OA
ENDBRANCH   1   7
BRANCH   4  10
ATOM     10  O   UNL     1       0.974 109.782 183.374  1.00  0.00    -0.504 OA
ATOM     11  H   UNL     1       0.456 109.286 184.089  1.00  0.00     0.293 HD
ENDBRANCH   4  10
BRANCH   5  12
ATOM     12  O   UNL     1       5.465 111.642 183.446  1.00  0.00    -0.504 OA
ATOM     13  H   UNL     1       6.109 111.676 184.229  1.00  0.00     0.293 HD
ENDBRANCH   5  12
BRANCH   6  14
ATOM     14  O   UNL     1       2.690 111.979 183.761  1.00  0.00    -0.502 OA
ATOM     15  H   UNL     1       2.701 112.767 183.123  1.00  0.00     0.293 HD
ENDBRANCH   6  14
TORSDOF 4
ENDMDL
MODEL 5
REMARK VINA RESULT:    -4.009      1.770      2.636
REMARK INTER + INTRA:          -4.644
REMARK INTER:                  -4.591
REMARK INTRA:                  -0.053
REMARK UNBOUND:                -0.049
REMARK SMILES O=C([O-])c1cc(O)c(O)c(O)c1
REMARK SMILES IDX 4 1 5 2 12 3 6 4 10 5 8 6 2 7 1 8 3 9 7 10 11 12 9 14
REMARK H PARENT 7 11 11 13 9 15
REMARK Flexibility Score: inf
ROOT
ATOM      1  C   UNL     1       3.500 107.103 181.431  1.00  0.00     0.005 A 
ATOM      2  C   UNL     1       2.572 108.039 180.942  1.00  0.00     0.060 A 
ATOM      3  C   UNL     1       3.568 105.834 180.833  1.00  0.00     0.060 A 
ATOM      4  C   UNL     1       1.726 107.715 179.877  1.00  0.00     0.162 A 
ATOM      5  C   UNL     1       2.723 105.501 179.766  1.00  0.00     0.162 A 
ATOM      6  C   UNL     1       1.798 106.443 179.283  1.00  0.00     0.200 A 
ENDROOT
BRANCH   1   7
ATOM      7  C   UNL     1       4.395 107.447 182.558  1.00  0.00     0.072 C 
ATOM      8  O   UNL     1       4.243 108.525 183.191  1.00  0.00    -0.545 OA
ATOM      9  O   UNL     1       5.417 106.583 182.936  1.00  0.00    -0.545 OA
ENDBRANCH   1   7
BRANCH   4  10
ATOM     10  O   UNL     1       0.818 108.671 179.421  1.00  0.00    -0.504 OA
ATOM     11  H   UNL     1       1.058 109.653 179.354  1.00  0.00     0.293 HD
ENDBRANCH   4  10
BRANCH   5  12
ATOM     12  O   UNL     1       2.800 104.238 179.180  1.00  0.00    -0.504 OA
ATOM     13  H   UNL     1       3.263 104.093 178.290  1.00  0.00     0.293 HD
ENDBRANCH   5  12
BRANCH   6  14
ATOM     14  O   UNL     1       0.950 106.129 178.221  1.00  0.00    -0.502 OA
ATOM     15  H   UNL     1       1.302 105.878 177.305  1.00  0.00     0.293 HD
ENDBRANCH   6  14
TORSDOF 4
ENDMDL
MODEL 6
REMARK VINA RESULT:    -4.005      1.779      3.312
REMARK INTER + INTRA:          -4.639
REMARK INTER:                  -4.586
REMARK INTRA:                  -0.053
REMARK UNBOUND:                -0.049
REMARK SMILES O=C([O-])c1cc(O)c(O)c(O)c1
REMARK SMILES IDX 4 1 5 2 12 3 6 4 10 5 8 6 2 7 1 8 3 9 7 10 11 12 9 14
REMARK H PARENT 7 11 11 13 9 15
REMARK Flexibility Score: inf
ROOT
ATOM      1  C   UNL     1       3.536 107.050 181.402  1.00  0.00     0.005 A 
ATOM      2  C   UNL     1       3.571 105.787 180.787  1.00  0.00     0.060 A 
ATOM      3  C   UNL     1       2.621 108.009 180.937  1.00  0.00     0.060 A 
ATOM      4  C   UNL     1       2.710 105.483 179.728  1.00  0.00     0.162 A 
ATOM      5  C   UNL     1       1.754 107.714 179.876  1.00  0.00     0.162 A 
ATOM      6  C   UNL     1       1.797 106.447 179.267  1.00  0.00     0.200 A 
ENDROOT
BRANCH   1   7
ATOM      7  C   UNL     1       4.447 107.370 182.523  1.00  0.00     0.072 C 
ATOM      8  O   UNL     1       4.316 108.442 183.170  1.00  0.00    -0.545 OA
ATOM      9  O   UNL     1       5.464 106.490 182.877  1.00  0.00    -0.545 OA
ENDBRANCH   1   7
BRANCH   4  10
ATOM     10  O   UNL     1       2.777 104.218 179.145  1.00  0.00    -0.504 OA
ATOM     11  H   UNL     1       2.008 103.560 179.195  1.00  0.00     0.293 HD
ENDBRANCH   4  10
BRANCH   5  12
ATOM     12  O   UNL     1       0.850 108.673 179.423  1.00  0.00    -0.504 OA
ATOM     13  H   UNL     1      -0.116 108.680 179.732  1.00  0.00     0.293 HD
ENDBRANCH   5  12
BRANCH   6  14
ATOM     14  O   UNL     1       0.941 106.137 178.210  1.00  0.00    -0.502 OA
ATOM     15  H   UNL     1       1.268 106.063 177.254  1.00  0.00     0.293 HD
ENDBRANCH   6  14
TORSDOF 4
ENDMDL
MODEL 7
REMARK VINA RESULT:    -3.926      1.748      3.193
REMARK INTER + INTRA:          -4.549
REMARK INTER:                  -4.499
REMARK INTRA:                  -0.050
REMARK UNBOUND:                -0.049
REMARK SMILES O=C([O-])c1cc(O)c(O)c(O)c1
REMARK SMILES IDX 4 1 5 2 12 3 6 4 10 5 8 6 2 7 1 8 3 9 7 10 11 12 9 14
REMARK H PARENT 7 11 11 13 9 15
REMARK Flexibility Score: inf
ROOT
ATOM      1  C   UNL     1       3.972 106.553 180.404  1.00  0.00     0.005 A 
ATOM      2  C   UNL     1       4.293 106.847 181.740  1.00  0.00     0.060 A 
ATOM      3  C   UNL     1       2.845 107.160 179.825  1.00  0.00     0.060 A 
ATOM      4  C   UNL     1       3.507 107.731 182.487  1.00  0.00     0.162 A 
ATOM      5  C   UNL     1       2.052 108.047 180.565  1.00  0.00     0.162 A 
ATOM      6  C   UNL     1       2.381 108.335 181.901  1.00  0.00     0.200 A 
ENDROOT
BRANCH   1   7
ATOM      7  C   UNL     1       4.804 105.618 179.616  1.00  0.00     0.072 C 
ATOM      8  O   UNL     1       4.278 104.858 178.760  1.00  0.00    -0.545 OA
ATOM      9  O   UNL     1       6.180 105.563 179.810  1.00  0.00    -0.545 OA
ENDBRANCH   1   7
BRANCH   4  10
ATOM     10  O   UNL     1       3.860 107.996 183.809  1.00  0.00    -0.504 OA
ATOM     11  H   UNL     1       4.384 108.822 184.073  1.00  0.00     0.293 HD
ENDBRANCH   4  10
BRANCH   5  12
ATOM     12  O   UNL     1       0.937 108.644 179.979  1.00  0.00    -0.504 OA
ATOM     13  H   UNL     1       0.580 109.537 180.303  1.00  0.00     0.293 HD
ENDBRANCH   5  12
BRANCH   6  14
ATOM     14  O   UNL     1       1.602 109.215 182.652  1.00  0.00    -0.502 OA
ATOM     15  H   UNL     1       0.689 108.960 183.009  1.00  0.00     0.293 HD
ENDBRANCH   6  14
TORSDOF 4
ENDMDL
MODEL 8
REMARK VINA RESULT:    -3.839      1.973      3.960
REMARK INTER + INTRA:          -4.449
REMARK INTER:                  -4.402
REMARK INTRA:                  -0.047
REMARK UNBOUND:                -0.049
REMARK SMILES O=C([O-])c1cc(O)c(O)c(O)c1
REMARK SMILES IDX 4 1 5 2 12 3 6 4 10 5 8 6 2 7 1 8 3 9 7 10 11 12 9 14
REMARK H PARENT 7 11 11 13 9 15
REMARK Flexibility Score: inf
ROOT
ATOM      1  C   UNL     1       3.658 106.155 179.801  1.00  0.00     0.005 A 
ATOM      2  C   UNL     1       2.597 106.948 179.331  1.00  0.00     0.060 A 
ATOM      3  C   UNL     1       4.121 106.347 181.114  1.00  0.00     0.060 A 
ATOM      4  C   UNL     1       2.008 107.915 180.152  1.00  0.00     0.162 A 
ATOM      5  C   UNL     1       3.538 107.314 181.943  1.00  0.00     0.162 A 
ATOM      6  C   UNL     1       2.477 108.102 181.464  1.00  0.00     0.200 A 
ENDROOT
BRANCH   1   7
ATOM      7  C   UNL     1       4.280 105.133 178.931  1.00  0.00     0.072 C 
ATOM      8  O   UNL     1       5.507 105.188 178.656  1.00  0.00    -0.545 OA
ATOM      9  O   UNL     1       3.517 104.097 178.404  1.00  0.00    -0.545 OA
ENDBRANCH   1   7
BRANCH   4  10
ATOM     10  O   UNL     1       0.958 108.682 179.647  1.00  0.00    -0.504 OA
ATOM     11  H   UNL     1       1.070 109.660 179.411  1.00  0.00     0.293 HD
ENDBRANCH   4  10
BRANCH   5  12
ATOM     12  O   UNL     1       4.006 107.494 183.244  1.00  0.00    -0.504 OA
ATOM     13  H   UNL     1       3.743 106.865 183.995  1.00  0.00     0.293 HD
ENDBRANCH   5  12
BRANCH   6  14
ATOM     14  O   UNL     1       1.884 109.069 182.277  1.00  0.00    -0.502 OA
ATOM     15  H   UNL     1       0.881 109.122 182.409  1.00  0.00     0.293 HD
ENDBRANCH   6  14
TORSDOF 4
ENDMDL
MODEL 9
REMARK VINA RESULT:    -3.501      2.453      4.696
REMARK INTER + INTRA:          -4.062
REMARK INTER:                  -4.009
REMARK INTRA:                  -0.053
REMARK UNBOUND:                -0.049
REMARK SMILES O=C([O-])c1cc(O)c(O)c(O)c1
REMARK SMILES IDX 4 1 5 2 12 3 6 4 10 5 8 6 2 7 1 8 3 9 7 10 11 12 9 14
REMARK H PARENT 7 11 11 13 9 15
REMARK Flexibility Score: inf
ROOT
ATOM      1  C   UNL     1       2.696 105.828 178.886  1.00  0.00     0.005 A 
ATOM      2  C   UNL     1       3.427 105.898 180.084  1.00  0.00     0.060 A 
ATOM      3  C   UNL     1       1.697 106.785 178.640  1.00  0.00     0.060 A 
ATOM      4  C   UNL     1       3.169 106.903 181.021  1.00  0.00     0.162 A 
ATOM      5  C   UNL     1       1.431 107.795 179.573  1.00  0.00     0.162 A 
ATOM      6  C   UNL     1       2.168 107.857 180.769  1.00  0.00     0.200 A 
ENDROOT
BRANCH   1   7
ATOM      7  C   UNL     1       2.971 104.764 177.895  1.00  0.00     0.072 C 
ATOM      8  O   UNL     1       2.264 104.655 176.859  1.00  0.00    -0.545 OA
ATOM      9  O   UNL     1       4.014 103.866 178.096  1.00  0.00    -0.545 OA
ENDBRANCH   1   7
BRANCH   4  10
ATOM     10  O   UNL     1       3.916 106.938 182.198  1.00  0.00    -0.504 OA
ATOM     11  H   UNL     1       4.153 107.807 182.661  1.00  0.00     0.293 HD
ENDBRANCH   4  10
BRANCH   5  12
ATOM     12  O   UNL     1       0.438 108.740 179.318  1.00  0.00    -0.504 OA
ATOM     13  H   UNL     1       0.281 109.526 179.938  1.00  0.00     0.293 HD
ENDBRANCH   5  12
BRANCH   6  14
ATOM     14  O   UNL     1       1.916 108.857 181.709  1.00  0.00    -0.502 OA
ATOM     15  H   UNL     1       0.976 109.116 181.983  1.00  0.00     0.293 HD
ENDBRANCH   6  14
TORSDOF 4
ENDMDL
