MODEL 1
REMARK VINA RESULT:    -5.451      0.000      0.000
REMARK INTER + INTRA:          -6.361
REMARK INTER:                  -6.248
REMARK INTRA:                  -0.113
REMARK UNBOUND:                -0.113
REMARK SMILES COc1ccc(C(C)=O)cc1O
REMARK SMILES IDX 6 1 10 2 11 3 3 4 4 5 5 6 7 7 8 8 9 9 12 10 2 12 1 13
REMARK H PARENT 12 11
REMARK Flexibility Score: inf
ROOT
ATOM      1  C   UNL     1      17.933 -10.932  67.075  1.00  0.00     0.021 A 
ATOM      2  C   UNL     1      18.454  -9.914  67.897  1.00  0.00     0.062 A 
ATOM      3  C   UNL     1      19.386 -10.209  68.902  1.00  0.00     0.158 A 
ATOM      4  C   UNL     1      19.813 -11.528  69.103  1.00  0.00     0.160 A 
ATOM      5  C   UNL     1      19.298 -12.549  68.285  1.00  0.00     0.051 A 
ATOM      6  C   UNL     1      18.369 -12.254  67.284  1.00  0.00     0.016 A 
ENDROOT
BRANCH   1   7
ATOM      7  C   UNL     1      16.945 -10.601  66.014  1.00  0.00     0.159 C 
ATOM      8  C   UNL     1      15.749 -11.465  65.747  1.00  0.00     0.093 C 
ATOM      9  O   UNL     1      17.106  -9.567  65.309  1.00  0.00    -0.295 OA
ENDBRANCH   1   7
BRANCH   3  10
ATOM     10  O   UNL     1      19.893  -9.192  69.708  1.00  0.00    -0.504 OA
ATOM     11  H   UNL     1      20.569  -8.523  69.358  1.00  0.00     0.293 HD
ENDBRANCH   3  10
BRANCH   4  12
ATOM     12  O   UNL     1      20.748 -11.782  70.119  1.00  0.00    -0.493 OA
ATOM     13  C   UNL     1      21.609 -12.916  70.157  1.00  0.00     0.278 C 
ENDBRANCH   4  12
TORSDOF 3
ENDMDL
MODEL 2
REMARK VINA RESULT:    -5.215      2.197      3.054
REMARK INTER + INTRA:          -6.091
REMARK INTER:                  -5.971
REMARK INTRA:                  -0.120
REMARK UNBOUND:                -0.113
REMARK SMILES COc1ccc(C(C)=O)cc1O
REMARK SMILES IDX 6 1 10 2 11 3 3 4 4 5 5 6 7 7 8 8 9 9 12 10 2 12 1 13
REMARK H PARENT 12 11
REMARK Flexibility Score: inf
ROOT
ATOM      1  C   UNL     1      17.862 -10.247  64.803  1.00  0.00     0.021 A 
ATOM      2  C   UNL     1      19.192  -9.852  65.041  1.00  0.00     0.062 A 
ATOM      3  C   UNL     1      19.629  -9.546  66.337  1.00  0.00     0.158 A 
ATOM      4  C   UNL     1      18.743  -9.629  67.419  1.00  0.00     0.160 A 
ATOM      5  C   UNL     1      17.413 -10.023  67.188  1.00  0.00     0.051 A 
ATOM      6  C   UNL     1      16.979 -10.328  65.896  1.00  0.00     0.016 A 
ENDROOT
BRANCH   1   7
ATOM      7  C   UNL     1      17.416 -10.569  63.421  1.00  0.00     0.159 C 
ATOM      8  C   UNL     1      16.569  -9.625  62.621  1.00  0.00     0.093 C 
ATOM      9  O   UNL     1      17.750 -11.666  62.894  1.00  0.00    -0.295 OA
ENDBRANCH   1   7
BRANCH   3  10
ATOM     10  O   UNL     1      20.949  -9.155  66.559  1.00  0.00    -0.504 OA
ATOM     11  H   UNL     1      21.701  -9.458  65.951  1.00  0.00     0.293 HD
ENDBRANCH   3  10
BRANCH   4  12
ATOM     12  O   UNL     1      19.219  -9.314  68.702  1.00  0.00    -0.493 OA
ATOM     13  C   UNL     1      19.579 -10.278  69.686  1.00  0.00     0.278 C 
ENDBRANCH   4  12
TORSDOF 3
ENDMDL
MODEL 3
REMARK VINA RESULT:    -5.072      1.570      5.113
REMARK INTER + INTRA:          -5.927
REMARK INTER:                  -5.815
REMARK INTRA:                  -0.112
REMARK UNBOUND:                -0.113
REMARK SMILES COc1ccc(C(C)=O)cc1O
REMARK SMILES IDX 6 1 10 2 11 3 3 4 4 5 5 6 7 7 8 8 9 9 12 10 2 12 1 13
REMARK H PARENT 12 11
REMARK Flexibility Score: inf
ROOT
ATOM      1  C   UNL     1      18.859 -11.155  68.116  1.00  0.00     0.021 A 
ATOM      2  C   UNL     1      18.641 -12.354  67.411  1.00  0.00     0.062 A 
ATOM      3  C   UNL     1      17.755 -12.398  66.325  1.00  0.00     0.158 A 
ATOM      4  C   UNL     1      17.071 -11.243  65.926  1.00  0.00     0.160 A 
ATOM      5  C   UNL     1      17.285 -10.042  66.625  1.00  0.00     0.051 A 
ATOM      6  C   UNL     1      18.168 -10.000  67.707  1.00  0.00     0.016 A 
ENDROOT
BRANCH   1   7
ATOM      7  C   UNL     1      19.803 -11.127  69.265  1.00  0.00     0.159 C 
ATOM      8  C   UNL     1      20.785 -12.232  69.512  1.00  0.00     0.093 C 
ATOM      9  O   UNL     1      19.786 -10.151  70.065  1.00  0.00    -0.295 OA
ENDBRANCH   1   7
BRANCH   3  10
ATOM     10  O   UNL     1      17.548 -13.592  65.637  1.00  0.00    -0.504 OA
ATOM     11  H   UNL     1      17.406 -13.609  64.634  1.00  0.00     0.293 HD
ENDBRANCH   3  10
BRANCH   4  12
ATOM     12  O   UNL     1      16.193 -11.328  64.834  1.00  0.00    -0.493 OA
ATOM     13  C   UNL     1      14.783 -11.501  64.945  1.00  0.00     0.278 C 
ENDBRANCH   4  12
TORSDOF 3
ENDMDL
MODEL 4
REMARK VINA RESULT:    -4.953      2.072      5.019
REMARK INTER + INTRA:          -5.790
REMARK INTER:                  -5.696
REMARK INTRA:                  -0.095
REMARK UNBOUND:                -0.113
REMARK SMILES COc1ccc(C(C)=O)cc1O
REMARK SMILES IDX 6 1 10 2 11 3 3 4 4 5 5 6 7 7 8 8 9 9 12 10 2 12 1 13
REMARK H PARENT 12 11
REMARK Flexibility Score: inf
ROOT
ATOM      1  C   UNL     1      19.388 -10.255  67.783  1.00  0.00     0.021 A 
ATOM      2  C   UNL     1      20.386  -9.968  66.833  1.00  0.00     0.062 A 
ATOM      3  C   UNL     1      20.051  -9.707  65.497  1.00  0.00     0.158 A 
ATOM      4  C   UNL     1      18.712  -9.727  65.088  1.00  0.00     0.160 A 
ATOM      5  C   UNL     1      17.710 -10.012  66.032  1.00  0.00     0.051 A 
ATOM      6  C   UNL     1      18.044 -10.273  67.363  1.00  0.00     0.016 A 
ENDROOT
BRANCH   1   7
ATOM      7  C   UNL     1      19.761 -10.530  69.197  1.00  0.00     0.159 C 
ATOM      8  C   UNL     1      20.352 -11.841  69.620  1.00  0.00     0.093 C 
ATOM      9  O   UNL     1      19.579  -9.644  70.077  1.00  0.00    -0.295 OA
ENDBRANCH   1   7
BRANCH   3  10
ATOM     10  O   UNL     1      21.050  -9.425  64.566  1.00  0.00    -0.504 OA
ATOM     11  H   UNL     1      20.973  -8.645  63.925  1.00  0.00     0.293 HD
ENDBRANCH   3  10
BRANCH   4  12
ATOM     12  O   UNL     1      18.418  -9.459  63.741  1.00  0.00    -0.493 OA
ATOM     13  C   UNL     1      17.104  -9.444  63.191  1.00  0.00     0.278 C 
ENDBRANCH   4  12
TORSDOF 3
ENDMDL
MODEL 5
REMARK VINA RESULT:    -4.803      2.619      4.334
REMARK INTER + INTRA:          -5.618
REMARK INTER:                  -5.507
REMARK INTRA:                  -0.111
REMARK UNBOUND:                -0.113
REMARK SMILES COc1ccc(C(C)=O)cc1O
REMARK SMILES IDX 6 1 10 2 11 3 3 4 4 5 5 6 7 7 8 8 9 9 12 10 2 12 1 13
REMARK H PARENT 12 11
REMARK Flexibility Score: inf
ROOT
ATOM      1  C   UNL     1      16.762 -11.459  63.765  1.00  0.00     0.021 A 
ATOM      2  C   UNL     1      16.194 -11.964  64.950  1.00  0.00     0.062 A 
ATOM      3  C   UNL     1      16.479 -11.375  66.190  1.00  0.00     0.158 A 
ATOM      4  C   UNL     1      17.339 -10.271  66.266  1.00  0.00     0.160 A 
ATOM      5  C   UNL     1      17.909  -9.762  65.086  1.00  0.00     0.051 A 
ATOM      6  C   UNL     1      17.624 -10.350  63.852  1.00  0.00     0.016 A 
ENDROOT
BRANCH   1   7
ATOM      7  C   UNL     1      16.448 -12.096  62.458  1.00  0.00     0.159 C 
ATOM      8  C   UNL     1      15.197 -11.773  61.698  1.00  0.00     0.093 C 
ATOM      9  O   UNL     1      17.249 -12.937  61.963  1.00  0.00    -0.295 OA
ENDBRANCH   1   7
BRANCH   3  10
ATOM     10  O   UNL     1      15.911 -11.885  67.356  1.00  0.00    -0.504 OA
ATOM     11  H   UNL     1      16.002 -12.862  67.609  1.00  0.00     0.293 HD
ENDBRANCH   3  10
BRANCH   4  12
ATOM     12  O   UNL     1      17.599  -9.710  67.527  1.00  0.00    -0.493 OA
ATOM     13  C   UNL     1      18.882  -9.678  68.145  1.00  0.00     0.278 C 
ENDBRANCH   4  12
TORSDOF 3
ENDMDL
MODEL 6
REMARK VINA RESULT:    -4.760      2.190      5.469
REMARK INTER + INTRA:          -5.568
REMARK INTER:                  -5.455
REMARK INTRA:                  -0.113
REMARK UNBOUND:                -0.113
REMARK SMILES COc1ccc(C(C)=O)cc1O
REMARK SMILES IDX 6 1 10 2 11 3 3 4 4 5 5 6 7 7 8 8 9 9 12 10 2 12 1 13
REMARK H PARENT 12 11
REMARK Flexibility Score: inf
ROOT
ATOM      1  C   UNL     1      18.740 -10.116  66.765  1.00  0.00     0.021 A 
ATOM      2  C   UNL     1      19.566  -9.956  65.636  1.00  0.00     0.062 A 
ATOM      3  C   UNL     1      19.017  -9.896  64.348  1.00  0.00     0.158 A 
ATOM      4  C   UNL     1      17.631  -9.996  64.166  1.00  0.00     0.160 A 
ATOM      5  C   UNL     1      16.801 -10.155  65.289  1.00  0.00     0.051 A 
ATOM      6  C   UNL     1      17.349 -10.215  66.573  1.00  0.00     0.016 A 
ENDROOT
BRANCH   1   7
ATOM      7  C   UNL     1      19.340 -10.178  68.125  1.00  0.00     0.159 C 
ATOM      8  C   UNL     1      20.181 -11.337  68.569  1.00  0.00     0.093 C 
ATOM      9  O   UNL     1      19.143  -9.234  68.940  1.00  0.00    -0.295 OA
ENDBRANCH   1   7
BRANCH   3  10
ATOM     10  O   UNL     1      19.845  -9.738  63.239  1.00  0.00    -0.504 OA
ATOM     11  H   UNL     1      20.788 -10.110  63.223  1.00  0.00     0.293 HD
ENDBRANCH   3  10
BRANCH   4  12
ATOM     12  O   UNL     1      17.120  -9.931  62.860  1.00  0.00    -0.493 OA
ATOM     13  C   UNL     1      16.420  -8.813  62.323  1.00  0.00     0.278 C 
ENDBRANCH   4  12
TORSDOF 3
ENDMDL
MODEL 7
REMARK VINA RESULT:    -4.726      2.354      3.132
REMARK INTER + INTRA:          -5.530
REMARK INTER:                  -5.414
REMARK INTRA:                  -0.116
REMARK UNBOUND:                -0.113
REMARK SMILES COc1ccc(C(C)=O)cc1O
REMARK SMILES IDX 6 1 10 2 11 3 3 4 4 5 5 6 7 7 8 8 9 9 12 10 2 12 1 13
REMARK H PARENT 12 11
REMARK Flexibility Score: inf
ROOT
ATOM      1  C   UNL     1      17.296 -11.806  64.337  1.00  0.00     0.021 A 
ATOM      2  C   UNL     1      17.141 -10.617  65.074  1.00  0.00     0.062 A 
ATOM      3  C   UNL     1      17.554 -10.542  66.412  1.00  0.00     0.158 A 
ATOM      4  C   UNL     1      18.130 -11.656  67.036  1.00  0.00     0.160 A 
ATOM      5  C   UNL     1      18.289 -12.847  66.305  1.00  0.00     0.051 A 
ATOM      6  C   UNL     1      17.876 -12.920  64.972  1.00  0.00     0.016 A 
ENDROOT
BRANCH   1   7
ATOM      7  C   UNL     1      16.852 -11.867  62.919  1.00  0.00     0.159 C 
ATOM      8  C   UNL     1      15.836 -10.915  62.364  1.00  0.00     0.093 C 
ATOM      9  O   UNL     1      17.334 -12.743  62.149  1.00  0.00    -0.295 OA
ENDBRANCH   1   7
BRANCH   3  10
ATOM     10  O   UNL     1      17.395  -9.359  67.130  1.00  0.00    -0.504 OA
ATOM     11  H   UNL     1      17.160  -8.486  66.671  1.00  0.00     0.293 HD
ENDBRANCH   3  10
BRANCH   4  12
ATOM     12  O   UNL     1      18.531 -11.541  68.377  1.00  0.00    -0.493 OA
ATOM     13  C   UNL     1      19.885 -11.429  68.805  1.00  0.00     0.278 C 
ENDBRANCH   4  12
TORSDOF 3
ENDMDL
MODEL 8
REMARK VINA RESULT:    -4.711      1.874      2.549
REMARK INTER + INTRA:          -5.513
REMARK INTER:                  -5.375
REMARK INTRA:                  -0.138
REMARK UNBOUND:                -0.113
REMARK SMILES COc1ccc(C(C)=O)cc1O
REMARK SMILES IDX 6 1 10 2 11 3 3 4 4 5 5 6 7 7 8 8 9 9 12 10 2 12 1 13
REMARK H PARENT 12 11
REMARK Flexibility Score: inf
ROOT
ATOM      1  C   UNL     1      17.202 -10.558  65.918  1.00  0.00     0.021 A 
ATOM      2  C   UNL     1      16.855 -11.670  66.707  1.00  0.00     0.062 A 
ATOM      3  C   UNL     1      17.621 -12.023  67.828  1.00  0.00     0.158 A 
ATOM      4  C   UNL     1      18.747 -11.267  68.178  1.00  0.00     0.160 A 
ATOM      5  C   UNL     1      19.099 -10.154  67.394  1.00  0.00     0.051 A 
ATOM      6  C   UNL     1      18.335  -9.805  66.278  1.00  0.00     0.016 A 
ENDROOT
BRANCH   1   7
ATOM      7  C   UNL     1      16.378 -10.199  64.732  1.00  0.00     0.159 C 
ATOM      8  C   UNL     1      16.853  -9.215  63.706  1.00  0.00     0.093 C 
ATOM      9  O   UNL     1      15.244 -10.729  64.574  1.00  0.00    -0.295 OA
ENDBRANCH   1   7
BRANCH   3  10
ATOM     10  O   UNL     1      17.267 -13.127  68.600  1.00  0.00    -0.504 OA
ATOM     11  H   UNL     1      17.765 -14.006  68.529  1.00  0.00     0.293 HD
ENDBRANCH   3  10
BRANCH   4  12
ATOM     12  O   UNL     1      19.488 -11.652  69.307  1.00  0.00    -0.493 OA
ATOM     13  C   UNL     1      20.715 -12.373  69.259  1.00  0.00     0.278 C 
ENDBRANCH   4  12
TORSDOF 3
ENDMDL
MODEL 9
REMARK VINA RESULT:    -4.704      3.085      4.045
REMARK INTER + INTRA:          -5.504
REMARK INTER:                  -5.368
REMARK INTRA:                  -0.136
REMARK UNBOUND:                -0.113
REMARK SMILES COc1ccc(C(C)=O)cc1O
REMARK SMILES IDX 6 1 10 2 11 3 3 4 4 5 5 6 7 7 8 8 9 9 12 10 2 12 1 13
REMARK H PARENT 12 11
REMARK Flexibility Score: inf
ROOT
ATOM      1  C   UNL     1      16.699 -10.468  64.478  1.00  0.00     0.021 A 
ATOM      2  C   UNL     1      17.754 -10.252  63.572  1.00  0.00     0.062 A 
ATOM      3  C   UNL     1      19.039  -9.925  64.030  1.00  0.00     0.158 A 
ATOM      4  C   UNL     1      19.289  -9.809  65.403  1.00  0.00     0.160 A 
ATOM      5  C   UNL     1      18.239 -10.023  66.314  1.00  0.00     0.051 A 
ATOM      6  C   UNL     1      16.960 -10.348  65.855  1.00  0.00     0.016 A 
ENDROOT
BRANCH   1   7
ATOM      7  C   UNL     1      15.343 -10.813  63.973  1.00  0.00     0.159 C 
ATOM      8  C   UNL     1      14.319 -11.478  64.844  1.00  0.00     0.093 C 
ATOM      9  O   UNL     1      15.031 -10.546  62.780  1.00  0.00    -0.295 OA
ENDBRANCH   1   7
BRANCH   3  10
ATOM     10  O   UNL     1      20.075  -9.714  63.122  1.00  0.00    -0.504 OA
ATOM     11  H   UNL     1      20.161  -8.845  62.609  1.00  0.00     0.293 HD
ENDBRANCH   3  10
BRANCH   4  12
ATOM     12  O   UNL     1      20.588  -9.480  65.822  1.00  0.00    -0.493 OA
ATOM     13  C   UNL     1      21.473 -10.380  66.484  1.00  0.00     0.278 C 
ENDBRANCH   4  12
TORSDOF 3
ENDMDL
