MODEL 1
REMARK VINA RESULT:    -4.806      0.000      0.000
REMARK INTER + INTRA:          -6.124
REMARK INTER:                  -5.789
REMARK INTRA:                  -0.335
REMARK UNBOUND:                -0.335
REMARK SMILES O=c1c(O)c(-c2ccc(O)c(O)c2)oc2cc(O)cc(O)c12
REMARK SMILES IDX 5 1 3 2 2 3 1 4 22 5 20 6 19 7 17 8 16 9 15 10 14 11 6 12
REMARK SMILES IDX 7 13 8 14 9 15 13 16 11 17 10 18 12 20 4 22 21 24 18 26
REMARK H PARENT 10 19 12 21 4 23 21 25 18 27
REMARK Flexibility Score: inf
ROOT
ATOM      1  C   UNL     1     101.531 101.543  93.364  1.00  0.00     0.180 A 
ATOM      2  C   UNL     1     100.558 100.587  93.703  1.00  0.00     0.208 A 
ATOM      3  C   UNL     1     100.930  99.235  93.783  1.00  0.00     0.238 A 
ATOM      4  O   UNL     1     100.044  98.379  94.033  1.00  0.00    -0.285 OA
ATOM      5  C   UNL     1     102.273  98.859  93.538  1.00  0.00     0.111 A 
ATOM      6  C   UNL     1     102.769  97.525  93.630  1.00  0.00     0.134 A 
ATOM      7  C   UNL     1     104.087  97.249  93.241  1.00  0.00     0.093 A 
ATOM      8  C   UNL     1     104.943  98.270  92.824  1.00  0.00     0.123 A 
ATOM      9  C   UNL     1     104.484  99.586  92.788  1.00  0.00     0.094 A 
ATOM     10  C   UNL     1     103.165  99.887  93.136  1.00  0.00     0.146 A 
ATOM     11  O   UNL     1     102.767 101.151  93.077  1.00  0.00    -0.452 OA
ENDROOT
BRANCH   1  12
ATOM     12  C   UNL     1     101.221 102.989  93.285  1.00  0.00     0.025 A 
ATOM     13  C   UNL     1     100.859 103.552  92.051  1.00  0.00     0.016 A 
ATOM     14  C   UNL     1     100.582 104.917  91.949  1.00  0.00     0.051 A 
ATOM     15  C   UNL     1     100.677 105.744  93.073  1.00  0.00     0.157 A 
ATOM     16  C   UNL     1     101.337 103.826  94.410  1.00  0.00     0.062 A 
ATOM     17  C   UNL     1     101.061 105.197  94.309  1.00  0.00     0.158 A 
BRANCH  15  18
ATOM     18  O   UNL     1     100.393 107.102  92.941  1.00  0.00    -0.504 OA
ATOM     19  H   UNL     1      99.510 107.498  93.239  1.00  0.00     0.293 HD
ENDBRANCH  15  18
BRANCH  17  20
ATOM     20  O   UNL     1     101.172 106.018  95.430  1.00  0.00    -0.504 OA
ATOM     21  H   UNL     1     101.329 105.635  96.355  1.00  0.00     0.293 HD
ENDBRANCH  17  20
ENDBRANCH   1  12
BRANCH   2  22
ATOM     22  O   UNL     1      99.233 100.978  93.918  1.00  0.00    -0.502 OA
ATOM     23  H   UNL     1      98.973 101.940  94.102  1.00  0.00     0.293 HD
ENDBRANCH   2  22
BRANCH   6  24
ATOM     24  O   UNL     1     102.027  96.447  94.121  1.00  0.00    -0.507 OA
ATOM     25  H   UNL     1     101.435  96.481  94.938  1.00  0.00     0.293 HD
ENDBRANCH   6  24
BRANCH   8  26
ATOM     26  O   UNL     1     106.256  97.990  92.452  1.00  0.00    -0.508 OA
ATOM     27  H   UNL     1     106.974  98.704  92.461  1.00  0.00     0.293 HD
ENDBRANCH   8  26
TORSDOF 6
ENDMDL
MODEL 2
REMARK VINA RESULT:    -4.698      1.672      3.283
REMARK INTER + INTRA:          -5.994
REMARK INTER:                  -5.675
REMARK INTRA:                  -0.319
REMARK UNBOUND:                -0.335
REMARK SMILES O=c1c(O)c(-c2ccc(O)c(O)c2)oc2cc(O)cc(O)c12
REMARK SMILES IDX 5 1 3 2 2 3 1 4 22 5 20 6 19 7 17 8 16 9 15 10 14 11 6 12
REMARK SMILES IDX 7 13 8 14 9 15 13 16 11 17 10 18 12 20 4 22 21 24 18 26
REMARK H PARENT 10 19 12 21 4 23 21 25 18 27
REMARK Flexibility Score: inf
ROOT
ATOM      1  C   UNL     1     103.283 102.213  92.730  1.00  0.00     0.180 A 
ATOM      2  C   UNL     1     104.553 102.392  92.154  1.00  0.00     0.208 A 
ATOM      3  C   UNL     1     105.365 101.269  91.934  1.00  0.00     0.238 A 
ATOM      4  O   UNL     1     106.522 101.441  91.469  1.00  0.00    -0.285 OA
ATOM      5  C   UNL     1     104.893  99.979  92.278  1.00  0.00     0.111 A 
ATOM      6  C   UNL     1     105.615  98.768  92.063  1.00  0.00     0.134 A 
ATOM      7  C   UNL     1     105.105  97.561  92.561  1.00  0.00     0.093 A 
ATOM      8  C   UNL     1     103.869  97.516  93.209  1.00  0.00     0.123 A 
ATOM      9  C   UNL     1     103.128  98.685  93.371  1.00  0.00     0.094 A 
ATOM     10  C   UNL     1     103.627  99.908  92.917  1.00  0.00     0.146 A 
ATOM     11  O   UNL     1     102.894 100.999  93.101  1.00  0.00    -0.452 OA
ENDROOT
BRANCH   1  12
ATOM     12  C   UNL     1     102.360 103.346  92.969  1.00  0.00     0.025 A 
ATOM     13  C   UNL     1     101.528 103.792  91.929  1.00  0.00     0.016 A 
ATOM     14  C   UNL     1     100.664 104.872  92.127  1.00  0.00     0.051 A 
ATOM     15  C   UNL     1     100.629 105.533  93.358  1.00  0.00     0.157 A 
ATOM     16  C   UNL     1     102.339 104.026  94.200  1.00  0.00     0.062 A 
ATOM     17  C   UNL     1     101.474 105.112  94.400  1.00  0.00     0.158 A 
BRANCH  15  18
ATOM     18  O   UNL     1      99.756 106.607  93.526  1.00  0.00    -0.504 OA
ATOM     19  H   UNL     1      99.751 107.169  94.369  1.00  0.00     0.293 HD
ENDBRANCH  15  18
BRANCH  17  20
ATOM     20  O   UNL     1     101.454 105.777  95.625  1.00  0.00    -0.504 OA
ATOM     21  H   UNL     1     101.417 106.788  95.680  1.00  0.00     0.293 HD
ENDBRANCH  17  20
ENDBRANCH   1  12
BRANCH   2  22
ATOM     22  O   UNL     1     105.009 103.677  91.843  1.00  0.00    -0.502 OA
ATOM     23  H   UNL     1     105.087 104.409  92.539  1.00  0.00     0.293 HD
ENDBRANCH   2  22
BRANCH   6  24
ATOM     24  O   UNL     1     106.813  98.689  91.347  1.00  0.00    -0.507 OA
ATOM     25  H   UNL     1     107.729  98.622  91.765  1.00  0.00     0.293 HD
ENDBRANCH   6  24
BRANCH   8  26
ATOM     26  O   UNL     1     103.362  96.309  93.687  1.00  0.00    -0.508 OA
ATOM     27  H   UNL     1     103.915  95.697  94.274  1.00  0.00     0.293 HD
ENDBRANCH   8  26
TORSDOF 6
ENDMDL
MODEL 3
REMARK VINA RESULT:    -4.558      4.006      8.068
REMARK INTER + INTRA:          -5.825
REMARK INTER:                  -5.704
REMARK INTRA:                  -0.121
REMARK UNBOUND:                -0.335
REMARK SMILES O=c1c(O)c(-c2ccc(O)c(O)c2)oc2cc(O)cc(O)c12
REMARK SMILES IDX 5 1 3 2 2 3 1 4 22 5 20 6 19 7 17 8 16 9 15 10 14 11 6 12
REMARK SMILES IDX 7 13 8 14 9 15 13 16 11 17 10 18 12 20 4 22 21 24 18 26
REMARK H PARENT 10 19 12 21 4 23 21 25 18 27
REMARK Flexibility Score: inf
ROOT
ATOM      1  C   UNL     1     103.842 105.035  92.757  1.00  0.00     0.180 A 
ATOM      2  C   UNL     1     102.955 104.688  93.790  1.00  0.00     0.208 A 
ATOM      3  C   UNL     1     101.943 105.592  94.151  1.00  0.00     0.238 A 
ATOM      4  O   UNL     1     101.186 105.299  95.113  1.00  0.00    -0.285 OA
ATOM      5  C   UNL     1     101.821 106.824  93.465  1.00  0.00     0.111 A 
ATOM      6  C   UNL     1     100.810 107.797  93.721  1.00  0.00     0.134 A 
ATOM      7  C   UNL     1     100.863 109.037  93.071  1.00  0.00     0.093 A 
ATOM      8  C   UNL     1     101.854 109.312  92.127  1.00  0.00     0.123 A 
ATOM      9  C   UNL     1     102.812 108.346  91.827  1.00  0.00     0.094 A 
ATOM     10  C   UNL     1     102.806 107.114  92.485  1.00  0.00     0.146 A 
ATOM     11  O   UNL     1     103.743 106.226  92.176  1.00  0.00    -0.452 OA
ENDROOT
BRANCH   1  12
ATOM     12  C   UNL     1     104.918 104.125  92.303  1.00  0.00     0.025 A 
ATOM     13  C   UNL     1     104.585 102.859  91.794  1.00  0.00     0.016 A 
ATOM     14  C   UNL     1     105.585 101.976  91.380  1.00  0.00     0.051 A 
ATOM     15  C   UNL     1     106.932 102.336  91.481  1.00  0.00     0.157 A 
ATOM     16  C   UNL     1     106.275 104.476  92.424  1.00  0.00     0.062 A 
ATOM     17  C   UNL     1     107.280 103.590  92.011  1.00  0.00     0.158 A 
BRANCH  15  18
ATOM     18  O   UNL     1     107.908 101.434  91.058  1.00  0.00    -0.504 OA
ATOM     19  H   UNL     1     108.744 101.254  91.600  1.00  0.00     0.293 HD
ENDBRANCH  15  18
BRANCH  17  20
ATOM     20  O   UNL     1     108.623 103.949  92.128  1.00  0.00    -0.504 OA
ATOM     21  H   UNL     1     109.030 104.194  93.023  1.00  0.00     0.293 HD
ENDBRANCH  17  20
ENDBRANCH   1  12
BRANCH   2  22
ATOM     22  O   UNL     1     103.108 103.476  94.470  1.00  0.00    -0.502 OA
ATOM     23  H   UNL     1     102.357 103.053  95.003  1.00  0.00     0.293 HD
ENDBRANCH   2  22
BRANCH   6  24
ATOM     24  O   UNL     1      99.723 107.588  94.575  1.00  0.00    -0.507 OA
ATOM     25  H   UNL     1      99.792 107.230  95.516  1.00  0.00     0.293 HD
ENDBRANCH   6  24
BRANCH   8  26
ATOM     26  O   UNL     1     101.891 110.542  91.473  1.00  0.00    -0.508 OA
ATOM     27  H   UNL     1     101.246 110.765  90.725  1.00  0.00     0.293 HD
ENDBRANCH   8  26
TORSDOF 6
ENDMDL
MODEL 4
REMARK VINA RESULT:    -4.530      5.080      6.644
REMARK INTER + INTRA:          -5.792
REMARK INTER:                  -5.476
REMARK INTRA:                  -0.316
REMARK UNBOUND:                -0.335
REMARK SMILES O=c1c(O)c(-c2ccc(O)c(O)c2)oc2cc(O)cc(O)c12
REMARK SMILES IDX 5 1 3 2 2 3 1 4 22 5 20 6 19 7 17 8 16 9 15 10 14 11 6 12
REMARK SMILES IDX 7 13 8 14 9 15 13 16 11 17 10 18 12 20 4 22 21 24 18 26
REMARK H PARENT 10 19 12 21 4 23 21 25 18 27
REMARK Flexibility Score: inf
ROOT
ATOM      1  C   UNL     1     101.850 106.357  92.967  1.00  0.00     0.180 A 
ATOM      2  C   UNL     1     102.430 105.352  93.759  1.00  0.00     0.208 A 
ATOM      3  C   UNL     1     103.804 105.091  93.630  1.00  0.00     0.238 A 
ATOM      4  O   UNL     1     104.307 104.154  94.302  1.00  0.00    -0.285 OA
ATOM      5  C   UNL     1     104.582 105.850  92.723  1.00  0.00     0.111 A 
ATOM      6  C   UNL     1     105.989 105.699  92.539  1.00  0.00     0.134 A 
ATOM      7  C   UNL     1     106.634 106.413  91.521  1.00  0.00     0.093 A 
ATOM      8  C   UNL     1     105.933 107.320  90.723  1.00  0.00     0.123 A 
ATOM      9  C   UNL     1     104.571 107.518  90.934  1.00  0.00     0.094 A 
ATOM     10  C   UNL     1     103.893 106.794  91.918  1.00  0.00     0.146 A 
ATOM     11  O   UNL     1     102.593 107.006  92.079  1.00  0.00    -0.452 OA
ENDROOT
BRANCH   1  12
ATOM     12  C   UNL     1     100.413 106.706  93.065  1.00  0.00     0.025 A 
ATOM     13  C   UNL     1     100.008 107.726  93.940  1.00  0.00     0.016 A 
ATOM     14  C   UNL     1      98.656 108.057  94.064  1.00  0.00     0.051 A 
ATOM     15  C   UNL     1      97.689 107.366  93.329  1.00  0.00     0.157 A 
ATOM     16  C   UNL     1      99.437 105.997  92.342  1.00  0.00     0.062 A 
ATOM     17  C   UNL     1      98.079 106.327  92.466  1.00  0.00     0.158 A 
BRANCH  15  18
ATOM     18  O   UNL     1      96.348 107.719  93.471  1.00  0.00    -0.504 OA
ATOM     19  H   UNL     1      95.672 107.102  93.905  1.00  0.00     0.293 HD
ENDBRANCH  15  18
BRANCH  17  20
ATOM     20  O   UNL     1      97.118 105.623  91.742  1.00  0.00    -0.504 OA
ATOM     21  H   UNL     1      96.138 105.878  91.774  1.00  0.00     0.293 HD
ENDBRANCH  17  20
ENDBRANCH   1  12
BRANCH   2  22
ATOM     22  O   UNL     1     101.639 104.599  94.632  1.00  0.00    -0.502 OA
ATOM     23  H   UNL     1     101.904 104.427  95.595  1.00  0.00     0.293 HD
ENDBRANCH   2  22
BRANCH   6  24
ATOM     24  O   UNL     1     106.799 104.890  93.342  1.00  0.00    -0.507 OA
ATOM     25  H   UNL     1     106.558 104.576  94.270  1.00  0.00     0.293 HD
ENDBRANCH   6  24
BRANCH   8  26
ATOM     26  O   UNL     1     106.586 108.038  89.723  1.00  0.00    -0.508 OA
ATOM     27  H   UNL     1     106.199 108.895  89.348  1.00  0.00     0.293 HD
ENDBRANCH   8  26
TORSDOF 6
ENDMDL
MODEL 5
REMARK VINA RESULT:    -4.492      4.177      7.337
REMARK INTER + INTRA:          -5.746
REMARK INTER:                  -5.562
REMARK INTRA:                  -0.184
REMARK UNBOUND:                -0.335
REMARK SMILES O=c1c(O)c(-c2ccc(O)c(O)c2)oc2cc(O)cc(O)c12
REMARK SMILES IDX 5 1 3 2 2 3 1 4 22 5 20 6 19 7 17 8 16 9 15 10 14 11 6 12
REMARK SMILES IDX 7 13 8 14 9 15 13 16 11 17 10 18 12 20 4 22 21 24 18 26
REMARK H PARENT 10 19 12 21 4 23 21 25 18 27
REMARK Flexibility Score: inf
ROOT
ATOM      1  C   UNL     1     100.899 108.184  93.055  1.00  0.00     0.180 A 
ATOM      2  C   UNL     1      99.713 108.264  92.306  1.00  0.00     0.208 A 
ATOM      3  C   UNL     1      98.936 107.107  92.134  1.00  0.00     0.238 A 
ATOM      4  O   UNL     1      97.904 107.173  91.418  1.00  0.00    -0.285 OA
ATOM      5  C   UNL     1      99.346 105.889  92.727  1.00  0.00     0.111 A 
ATOM      6  C   UNL     1      98.617 104.665  92.652  1.00  0.00     0.134 A 
ATOM      7  C   UNL     1      99.182 103.491  93.166  1.00  0.00     0.093 A 
ATOM      8  C   UNL     1     100.422 103.511  93.809  1.00  0.00     0.123 A 
ATOM      9  C   UNL     1     101.115 104.712  93.940  1.00  0.00     0.094 A 
ATOM     10  C   UNL     1     100.593 105.893  93.406  1.00  0.00     0.146 A 
ATOM     11  O   UNL     1     101.291 107.013  93.543  1.00  0.00    -0.452 OA
ENDROOT
BRANCH   1  12
ATOM     12  C   UNL     1     101.757 109.366  93.300  1.00  0.00     0.025 A 
ATOM     13  C   UNL     1     103.081 109.369  92.832  1.00  0.00     0.016 A 
ATOM     14  C   UNL     1     103.914 110.464  93.070  1.00  0.00     0.051 A 
ATOM     15  C   UNL     1     103.445 111.566  93.791  1.00  0.00     0.157 A 
ATOM     16  C   UNL     1     101.293 110.466  94.044  1.00  0.00     0.062 A 
ATOM     17  C   UNL     1     102.129 111.566  94.286  1.00  0.00     0.158 A 
BRANCH  15  18
ATOM     18  O   UNL     1     104.299 112.646  94.012  1.00  0.00    -0.504 OA
ATOM     19  H   UNL     1     104.072 113.583  93.702  1.00  0.00     0.293 HD
ENDBRANCH  15  18
BRANCH  17  20
ATOM     20  O   UNL     1     101.659 112.656  95.018  1.00  0.00    -0.504 OA
ATOM     21  H   UNL     1     102.121 113.557  94.983  1.00  0.00     0.293 HD
ENDBRANCH  17  20
ENDBRANCH   1  12
BRANCH   2  22
ATOM     22  O   UNL     1      99.337 109.472  91.710  1.00  0.00    -0.502 OA
ATOM     23  H   UNL     1      98.371 109.705  91.514  1.00  0.00     0.293 HD
ENDBRANCH   2  22
BRANCH   6  24
ATOM     24  O   UNL     1      97.332 104.554  92.114  1.00  0.00    -0.507 OA
ATOM     25  H   UNL     1      96.654 105.301  92.085  1.00  0.00     0.293 HD
ENDBRANCH   6  24
BRANCH   8  26
ATOM     26  O   UNL     1     100.970 102.341  94.331  1.00  0.00    -0.508 OA
ATOM     27  H   UNL     1     101.248 102.273  95.302  1.00  0.00     0.293 HD
ENDBRANCH   8  26
TORSDOF 6
ENDMDL
MODEL 6
REMARK VINA RESULT:    -4.483      4.431      6.744
REMARK INTER + INTRA:          -5.735
REMARK INTER:                  -5.401
REMARK INTRA:                  -0.334
REMARK UNBOUND:                -0.335
REMARK SMILES O=c1c(O)c(-c2ccc(O)c(O)c2)oc2cc(O)cc(O)c12
REMARK SMILES IDX 5 1 3 2 2 3 1 4 22 5 20 6 19 7 17 8 16 9 15 10 14 11 6 12
REMARK SMILES IDX 7 13 8 14 9 15 13 16 11 17 10 18 12 20 4 22 21 24 18 26
REMARK H PARENT 10 19 12 21 4 23 21 25 18 27
REMARK Flexibility Score: inf
ROOT
ATOM      1  C   UNL     1     101.510 108.230  93.249  1.00  0.00     0.180 A 
ATOM      2  C   UNL     1     100.808 107.292  94.024  1.00  0.00     0.208 A 
ATOM      3  C   UNL     1     101.286 105.973  94.096  1.00  0.00     0.238 A 
ATOM      4  O   UNL     1     100.623 105.125  94.747  1.00  0.00    -0.285 OA
ATOM      5  C   UNL     1     102.468 105.614  93.405  1.00  0.00     0.111 A 
ATOM      6  C   UNL     1     103.064 104.319  93.439  1.00  0.00     0.134 A 
ATOM      7  C   UNL     1     104.162 104.041  92.613  1.00  0.00     0.093 A 
ATOM      8  C   UNL     1     104.722 105.031  91.803  1.00  0.00     0.123 A 
ATOM      9  C   UNL     1     104.183 106.316  91.808  1.00  0.00     0.094 A 
ATOM     10  C   UNL     1     103.067 106.613  92.594  1.00  0.00     0.146 A 
ATOM     11  O   UNL     1     102.579 107.847  92.560  1.00  0.00    -0.452 OA
ENDROOT
BRANCH   1  12
ATOM     12  C   UNL     1     101.082 109.644  93.144  1.00  0.00     0.025 A 
ATOM     13  C   UNL     1     100.269 110.043  92.071  1.00  0.00     0.016 A 
ATOM     14  C   UNL     1      99.871 111.376  91.942  1.00  0.00     0.051 A 
ATOM     15  C   UNL     1     100.290 112.333  92.872  1.00  0.00     0.157 A 
ATOM     16  C   UNL     1     101.520 110.612  94.067  1.00  0.00     0.062 A 
ATOM     17  C   UNL     1     101.122 111.951  93.937  1.00  0.00     0.158 A 
BRANCH  15  18
ATOM     18  O   UNL     1      99.875 113.655  92.718  1.00  0.00    -0.504 OA
ATOM     19  H   UNL     1      99.973 114.339  93.459  1.00  0.00     0.293 HD
ENDBRANCH  15  18
BRANCH  17  20
ATOM     20  O   UNL     1     101.555 112.902  94.860  1.00  0.00    -0.504 OA
ATOM     21  H   UNL     1     101.027 113.106  95.700  1.00  0.00     0.293 HD
ENDBRANCH  17  20
ENDBRANCH   1  12
BRANCH   2  22
ATOM     22  O   UNL     1      99.630 107.662  94.679  1.00  0.00    -0.502 OA
ATOM     23  H   UNL     1      98.723 107.627  94.229  1.00  0.00     0.293 HD
ENDBRANCH   2  22
BRANCH   6  24
ATOM     24  O   UNL     1     102.641 103.286  94.281  1.00  0.00    -0.507 OA
ATOM     25  H   UNL     1     101.707 102.906  94.299  1.00  0.00     0.293 HD
ENDBRANCH   6  24
BRANCH   8  26
ATOM     26  O   UNL     1     105.822 104.750  90.996  1.00  0.00    -0.508 OA
ATOM     27  H   UNL     1     106.508 104.053  91.259  1.00  0.00     0.293 HD
ENDBRANCH   8  26
TORSDOF 6
ENDMDL
MODEL 7
REMARK VINA RESULT:    -4.463      3.154      6.830
REMARK INTER + INTRA:          -5.711
REMARK INTER:                  -5.377
REMARK INTRA:                  -0.334
REMARK UNBOUND:                -0.335
REMARK SMILES O=c1c(O)c(-c2ccc(O)c(O)c2)oc2cc(O)cc(O)c12
REMARK SMILES IDX 5 1 3 2 2 3 1 4 22 5 20 6 19 7 17 8 16 9 15 10 14 11 6 12
REMARK SMILES IDX 7 13 8 14 9 15 13 16 11 17 10 18 12 20 4 22 21 24 18 26
REMARK H PARENT 10 19 12 21 4 23 21 25 18 27
REMARK Flexibility Score: inf
ROOT
ATOM      1  C   UNL     1     103.901 101.080  92.170  1.00  0.00     0.180 A 
ATOM      2  C   UNL     1     105.219 100.856  91.738  1.00  0.00     0.208 A 
ATOM      3  C   UNL     1     106.131 101.924  91.751  1.00  0.00     0.238 A 
ATOM      4  O   UNL     1     107.294 101.731  91.312  1.00  0.00    -0.285 OA
ATOM      5  C   UNL     1     105.717 103.197  92.210  1.00  0.00     0.111 A 
ATOM      6  C   UNL     1     106.566 104.340  92.304  1.00  0.00     0.134 A 
ATOM      7  C   UNL     1     106.018 105.582  92.650  1.00  0.00     0.093 A 
ATOM      8  C   UNL     1     104.664 105.708  92.967  1.00  0.00     0.123 A 
ATOM      9  C   UNL     1     103.838 104.586  92.936  1.00  0.00     0.094 A 
ATOM     10  C   UNL     1     104.349 103.341  92.560  1.00  0.00     0.146 A 
ATOM     11  O   UNL     1     103.525 102.300  92.534  1.00  0.00    -0.452 OA
ENDROOT
BRANCH   1  12
ATOM     12  C   UNL     1     102.890  99.997  92.209  1.00  0.00     0.025 A 
ATOM     13  C   UNL     1     102.016  99.828  91.123  1.00  0.00     0.016 A 
ATOM     14  C   UNL     1     101.042  98.828  91.147  1.00  0.00     0.051 A 
ATOM     15  C   UNL     1     100.915  97.991  92.260  1.00  0.00     0.157 A 
ATOM     16  C   UNL     1     102.747  99.169  93.337  1.00  0.00     0.062 A 
ATOM     17  C   UNL     1     101.768  98.165  93.364  1.00  0.00     0.158 A 
BRANCH  15  18
ATOM     18  O   UNL     1      99.934  97.000  92.255  1.00  0.00    -0.504 OA
ATOM     19  H   UNL     1      98.953  97.214  92.392  1.00  0.00     0.293 HD
ENDBRANCH  15  18
BRANCH  17  20
ATOM     20  O   UNL     1     101.637  97.344  94.483  1.00  0.00    -0.504 OA
ATOM     21  H   UNL     1     100.729  97.123  94.875  1.00  0.00     0.293 HD
ENDBRANCH  17  20
ENDBRANCH   1  12
BRANCH   2  22
ATOM     22  O   UNL     1     105.601  99.596  91.267  1.00  0.00    -0.502 OA
ATOM     23  H   UNL     1     106.119  98.937  91.835  1.00  0.00     0.293 HD
ENDBRANCH   2  22
BRANCH   6  24
ATOM     24  O   UNL     1     107.948 104.305  92.099  1.00  0.00    -0.507 OA
ATOM     25  H   UNL     1     108.508 105.096  91.820  1.00  0.00     0.293 HD
ENDBRANCH   6  24
BRANCH   8  26
ATOM     26  O   UNL     1     104.129 106.944  93.325  1.00  0.00    -0.508 OA
ATOM     27  H   UNL     1     104.267 107.334  94.249  1.00  0.00     0.293 HD
ENDBRANCH   8  26
TORSDOF 6
ENDMDL
MODEL 8
REMARK VINA RESULT:    -4.403      4.942     10.876
REMARK INTER + INTRA:          -5.638
REMARK INTER:                  -5.419
REMARK INTRA:                  -0.220
REMARK UNBOUND:                -0.335
REMARK SMILES O=c1c(O)c(-c2ccc(O)c(O)c2)oc2cc(O)cc(O)c12
REMARK SMILES IDX 5 1 3 2 2 3 1 4 22 5 20 6 19 7 17 8 16 9 15 10 14 11 6 12
REMARK SMILES IDX 7 13 8 14 9 15 13 16 11 17 10 18 12 20 4 22 21 24 18 26
REMARK H PARENT 10 19 12 21 4 23 21 25 18 27
REMARK Flexibility Score: inf
ROOT
ATOM      1  C   UNL     1     101.115 109.007  93.109  1.00  0.00     0.180 A 
ATOM      2  C   UNL     1     101.998 110.047  93.444  1.00  0.00     0.208 A 
ATOM      3  C   UNL     1     101.642 111.370  93.136  1.00  0.00     0.238 A 
ATOM      4  O   UNL     1     102.460 112.291  93.389  1.00  0.00    -0.285 OA
ATOM      5  C   UNL     1     100.400 111.637  92.512  1.00  0.00     0.111 A 
ATOM      6  C   UNL     1      99.919 112.941  92.190  1.00  0.00     0.134 A 
ATOM      7  C   UNL     1      98.734 113.079  91.456  1.00  0.00     0.093 A 
ATOM      8  C   UNL     1      97.981 111.962  91.088  1.00  0.00     0.123 A 
ATOM      9  C   UNL     1      98.412 110.688  91.449  1.00  0.00     0.094 A 
ATOM     10  C   UNL     1      99.608 110.516  92.150  1.00  0.00     0.146 A 
ATOM     11  O   UNL     1      99.987 109.284  92.465  1.00  0.00    -0.452 OA
ENDROOT
BRANCH   1  12
ATOM     12  C   UNL     1     101.410 107.590  93.424  1.00  0.00     0.025 A 
ATOM     13  C   UNL     1     100.714 106.953  94.464  1.00  0.00     0.016 A 
ATOM     14  C   UNL     1     100.991 105.624  94.791  1.00  0.00     0.051 A 
ATOM     15  C   UNL     1     101.977 104.915  94.098  1.00  0.00     0.157 A 
ATOM     16  C   UNL     1     102.416 106.883  92.741  1.00  0.00     0.062 A 
ATOM     17  C   UNL     1     102.697 105.548  93.070  1.00  0.00     0.158 A 
BRANCH  15  18
ATOM     18  O   UNL     1     102.230 103.589  94.446  1.00  0.00    -0.504 OA
ATOM     19  H   UNL     1     102.777 103.343  95.262  1.00  0.00     0.293 HD
ENDBRANCH  15  18
BRANCH  17  20
ATOM     20  O   UNL     1     103.691 104.852  92.384  1.00  0.00    -0.504 OA
ATOM     21  H   UNL     1     103.469 104.078  91.768  1.00  0.00     0.293 HD
ENDBRANCH  17  20
ENDBRANCH   1  12
BRANCH   2  22
ATOM     22  O   UNL     1     103.230 109.759  94.040  1.00  0.00    -0.502 OA
ATOM     23  H   UNL     1     103.350 109.000  94.701  1.00  0.00     0.293 HD
ENDBRANCH   2  22
BRANCH   6  24
ATOM     24  O   UNL     1     100.546 114.125  92.590  1.00  0.00    -0.507 OA
ATOM     25  H   UNL     1     101.484 114.394  92.334  1.00  0.00     0.293 HD
ENDBRANCH   6  24
BRANCH   8  26
ATOM     26  O   UNL     1      96.795 112.109  90.371  1.00  0.00    -0.508 OA
ATOM     27  H   UNL     1      96.733 112.727  89.571  1.00  0.00     0.293 HD
ENDBRANCH   8  26
TORSDOF 6
ENDMDL
MODEL 9
REMARK VINA RESULT:    -4.379      3.056      6.241
REMARK INTER + INTRA:          -5.609
REMARK INTER:                  -5.294
REMARK INTRA:                  -0.315
REMARK UNBOUND:                -0.335
REMARK SMILES O=c1c(O)c(-c2ccc(O)c(O)c2)oc2cc(O)cc(O)c12
REMARK SMILES IDX 5 1 3 2 2 3 1 4 22 5 20 6 19 7 17 8 16 9 15 10 14 11 6 12
REMARK SMILES IDX 7 13 8 14 9 15 13 16 11 17 10 18 12 20 4 22 21 24 18 26
REMARK H PARENT 10 19 12 21 4 23 21 25 18 27
REMARK Flexibility Score: inf
ROOT
ATOM      1  C   UNL     1     102.716 101.757  92.757  1.00  0.00     0.180 A 
ATOM      2  C   UNL     1     102.017 102.831  93.333  1.00  0.00     0.208 A 
ATOM      3  C   UNL     1     102.666 104.069  93.474  1.00  0.00     0.238 A 
ATOM      4  O   UNL     1     102.054 105.011  94.040  1.00  0.00    -0.285 OA
ATOM      5  C   UNL     1     104.000 104.219  93.023  1.00  0.00     0.111 A 
ATOM      6  C   UNL     1     104.741 105.437  93.080  1.00  0.00     0.134 A 
ATOM      7  C   UNL     1     106.096 105.438  92.725  1.00  0.00     0.093 A 
ATOM      8  C   UNL     1     106.718 104.280  92.254  1.00  0.00     0.123 A 
ATOM      9  C   UNL     1     105.987 103.100  92.139  1.00  0.00     0.094 A 
ATOM     10  C   UNL     1     104.643 103.059  92.520  1.00  0.00     0.146 A 
ATOM     11  O   UNL     1     103.986 101.911  92.404  1.00  0.00    -0.452 OA
ENDROOT
BRANCH   1  12
ATOM     12  C   UNL     1     102.090 100.430  92.553  1.00  0.00     0.025 A 
ATOM     13  C   UNL     1     101.465 100.141  91.329  1.00  0.00     0.016 A 
ATOM     14  C   UNL     1     100.850  98.904  91.122  1.00  0.00     0.051 A 
ATOM     15  C   UNL     1     100.837  97.942  92.137  1.00  0.00     0.157 A 
ATOM     16  C   UNL     1     102.057  99.470  93.580  1.00  0.00     0.062 A 
ATOM     17  C   UNL     1     101.439  98.227  93.375  1.00  0.00     0.158 A 
BRANCH  15  18
ATOM     18  O   UNL     1     100.218  96.716  91.901  1.00  0.00    -0.504 OA
ATOM     19  H   UNL     1      99.518  96.338  92.528  1.00  0.00     0.293 HD
ENDBRANCH  15  18
BRANCH  17  20
ATOM     20  O   UNL     1     101.417  97.278  94.396  1.00  0.00    -0.504 OA
ATOM     21  H   UNL     1     101.210  96.304  94.210  1.00  0.00     0.293 HD
ENDBRANCH  17  20
ENDBRANCH   1  12
BRANCH   2  22
ATOM     22  O   UNL     1     100.709 102.654  93.792  1.00  0.00    -0.502 OA
ATOM     23  H   UNL     1     100.452 102.778  94.765  1.00  0.00     0.293 HD
ENDBRANCH   2  22
BRANCH   6  24
ATOM     24  O   UNL     1     104.192 106.669  93.446  1.00  0.00    -0.507 OA
ATOM     25  H   UNL     1     104.529 107.247  94.202  1.00  0.00     0.293 HD
ENDBRANCH   6  24
BRANCH   8  26
ATOM     26  O   UNL     1     108.063 104.293  91.889  1.00  0.00    -0.508 OA
ATOM     27  H   UNL     1     108.755 104.795  92.432  1.00  0.00     0.293 HD
ENDBRANCH   8  26
TORSDOF 6
ENDMDL
