MODEL 1
REMARK VINA RESULT:    -3.570      0.000      0.000
REMARK INTER + INTRA:          -7.479
REMARK INTER:                  -6.491
REMARK INTRA:                  -0.988
REMARK UNBOUND:                -0.988
REMARK SMILES CCCCCCCCCCCCCCCC(=O)[O-]
REMARK SMILES IDX 9 1 10 2 11 3 12 4 13 5 14 6 15 7 16 8 17 9 18 10 8 11 7 12
REMARK SMILES IDX 6 13 5 14 4 15 3 16 2 17 1 18
REMARK H PARENT
REMARK Flexibility Score: inf
ROOT
ATOM      1  C   UNL     1      11.886  -7.405   5.761  1.00  0.00     0.000 C 
ENDROOT
BRANCH   1   2
ATOM      2  C   UNL     1      12.231  -7.194   4.276  1.00  0.00     0.000 C 
BRANCH   2   3
ATOM      3  C   UNL     1      13.746  -7.078   4.035  1.00  0.00     0.000 C 
BRANCH   3   4
ATOM      4  C   UNL     1      14.569  -7.295   5.316  1.00  0.00     0.000 C 
BRANCH   4   5
ATOM      5  C   UNL     1      15.969  -6.666   5.233  1.00  0.00     0.000 C 
BRANCH   5   6
ATOM      6  C   UNL     1      16.754  -6.799   6.549  1.00  0.00     0.006 C 
BRANCH   6   7
ATOM      7  C   UNL     1      18.266  -6.921   6.313  1.00  0.00     0.053 C 
BRANCH   7   8
ATOM      8  C   UNL     1      19.007  -7.211   7.581  1.00  0.00     0.041 C 
ATOM      9  O   UNL     1      18.969  -6.393   8.538  1.00  0.00    -0.550 OA
ATOM     10  O   UNL     1      19.718  -8.397   7.718  1.00  0.00    -0.550 OA
ENDBRANCH   7   8
ENDBRANCH   6   7
ENDBRANCH   5   6
ENDBRANCH   4   5
ENDBRANCH   3   4
ENDBRANCH   2   3
ENDBRANCH   1   2
BRANCH   1  11
ATOM     11  C   UNL     1      10.374  -7.558   5.997  1.00  0.00     0.000 C 
BRANCH  11  12
ATOM     12  C   UNL     1       9.539  -6.696   5.034  1.00  0.00    -0.000 C 
BRANCH  12  13
ATOM     13  C   UNL     1       8.337  -7.454   4.441  1.00  0.00    -0.000 C 
BRANCH  13  14
ATOM     14  C   UNL     1       6.964  -7.033   4.997  1.00  0.00    -0.000 C 
BRANCH  14  15
ATOM     15  C   UNL     1       6.108  -8.230   5.446  1.00  0.00    -0.000 C 
BRANCH  15  16
ATOM     16  C   UNL     1       6.955  -9.465   5.791  1.00  0.00    -0.000 C 
BRANCH  16  17
ATOM     17  C   UNL     1       6.812  -9.884   7.262  1.00  0.00    -0.003 C 
ATOM     18  C   UNL     1       7.907  -9.257   8.121  1.00  0.00     0.004 C 
ENDBRANCH  16  17
ENDBRANCH  15  16
ENDBRANCH  14  15
ENDBRANCH  13  14
ENDBRANCH  12  13
ENDBRANCH  11  12
ENDBRANCH   1  11
TORSDOF 14
ENDMDL
MODEL 2
REMARK VINA RESULT:    -3.356      0.998      2.045
REMARK INTER + INTRA:          -7.090
REMARK INTER:                  -5.998
REMARK INTRA:                  -1.091
REMARK UNBOUND:                -0.988
REMARK SMILES CCCCCCCCCCCCCCCC(=O)[O-]
REMARK SMILES IDX 9 1 10 2 11 3 12 4 13 5 14 6 15 7 16 8 17 9 18 10 8 11 7 12
REMARK SMILES IDX 6 13 5 14 4 15 3 16 2 17 1 18
REMARK H PARENT
REMARK Flexibility Score: inf
ROOT
ATOM      1  C   UNL     1      11.087  -7.125   5.742  1.00  0.00     0.000 C 
ENDROOT
BRANCH   1   2
ATOM      2  C   UNL     1      11.961  -7.138   4.476  1.00  0.00     0.000 C 
BRANCH   2   3
ATOM      3  C   UNL     1      13.309  -7.843   4.698  1.00  0.00     0.000 C 
BRANCH   3   4
ATOM      4  C   UNL     1      13.825  -7.696   6.140  1.00  0.00     0.000 C 
BRANCH   4   5
ATOM      5  C   UNL     1      15.313  -8.058   6.276  1.00  0.00     0.000 C 
BRANCH   5   6
ATOM      6  C   UNL     1      16.219  -6.815   6.322  1.00  0.00     0.006 C 
BRANCH   6   7
ATOM      7  C   UNL     1      17.665  -7.138   5.920  1.00  0.00     0.053 C 
BRANCH   7   8
ATOM      8  C   UNL     1      18.591  -7.111   7.098  1.00  0.00     0.041 C 
ATOM      9  O   UNL     1      18.284  -6.456   8.129  1.00  0.00    -0.550 OA
ATOM     10  O   UNL     1      19.778  -7.831   7.067  1.00  0.00    -0.550 OA
ENDBRANCH   7   8
ENDBRANCH   6   7
ENDBRANCH   5   6
ENDBRANCH   4   5
ENDBRANCH   3   4
ENDBRANCH   2   3
ENDBRANCH   1   2
BRANCH   1  11
ATOM     11  C   UNL     1       9.619  -7.473   5.447  1.00  0.00     0.000 C 
BRANCH  11  12
ATOM     12  C   UNL     1       9.275  -8.929   5.807  1.00  0.00    -0.000 C 
BRANCH  12  13
ATOM     13  C   UNL     1       8.636  -9.067   7.201  1.00  0.00    -0.000 C 
BRANCH  13  14
ATOM     14  C   UNL     1       7.192  -9.602   7.204  1.00  0.00    -0.000 C 
BRANCH  14  15
ATOM     15  C   UNL     1       6.668  -9.915   5.791  1.00  0.00    -0.000 C 
BRANCH  15  16
ATOM     16  C   UNL     1       5.476  -9.031   5.395  1.00  0.00    -0.000 C 
BRANCH  16  17
ATOM     17  C   UNL     1       5.903  -7.786   4.602  1.00  0.00    -0.003 C 
ATOM     18  C   UNL     1       5.764  -6.522   5.446  1.00  0.00     0.004 C 
ENDBRANCH  16  17
ENDBRANCH  15  16
ENDBRANCH  14  15
ENDBRANCH  13  14
ENDBRANCH  12  13
ENDBRANCH  11  12
ENDBRANCH   1  11
TORSDOF 14
ENDMDL
MODEL 3
REMARK VINA RESULT:    -3.278      1.665      3.610
REMARK INTER + INTRA:          -6.950
REMARK INTER:                  -5.920
REMARK INTRA:                  -1.030
REMARK UNBOUND:                -0.988
REMARK SMILES CCCCCCCCCCCCCCCC(=O)[O-]
REMARK SMILES IDX 9 1 10 2 11 3 12 4 13 5 14 6 15 7 16 8 17 9 18 10 8 11 7 12
REMARK SMILES IDX 6 13 5 14 4 15 3 16 2 17 1 18
REMARK H PARENT
REMARK Flexibility Score: inf
ROOT
ATOM      1  C   UNL     1      15.892  -7.871   5.697  1.00  0.00     0.000 C 
ENDROOT
BRANCH   1   2
ATOM      2  C   UNL     1      16.115  -6.376   5.403  1.00  0.00     0.000 C 
BRANCH   2   3
ATOM      3  C   UNL     1      16.860  -6.141   4.078  1.00  0.00     0.000 C 
BRANCH   3   4
ATOM      4  C   UNL     1      18.171  -6.942   3.985  1.00  0.00     0.000 C 
BRANCH   4   5
ATOM      5  C   UNL     1      19.414  -6.070   4.226  1.00  0.00     0.000 C 
BRANCH   5   6
ATOM      6  C   UNL     1      20.143  -6.433   5.531  1.00  0.00     0.006 C 
BRANCH   6   7
ATOM      7  C   UNL     1      19.649  -7.761   6.121  1.00  0.00     0.053 C 
BRANCH   7   8
ATOM      8  C   UNL     1      19.454  -7.675   7.604  1.00  0.00     0.041 C 
ATOM      9  O   UNL     1      19.874  -8.597   8.352  1.00  0.00    -0.550 OA
ATOM     10  O   UNL     1      18.835  -6.563   8.161  1.00  0.00    -0.550 OA
ENDBRANCH   7   8
ENDBRANCH   6   7
ENDBRANCH   5   6
ENDBRANCH   4   5
ENDBRANCH   3   4
ENDBRANCH   2   3
ENDBRANCH   1   2
BRANCH   1  11
ATOM     11  C   UNL     1      14.519  -8.366   5.215  1.00  0.00     0.000 C 
BRANCH  11  12
ATOM     12  C   UNL     1      13.621  -7.220   4.719  1.00  0.00    -0.000 C 
BRANCH  12  13
ATOM     13  C   UNL     1      12.127  -7.593   4.700  1.00  0.00    -0.000 C 
BRANCH  13  14
ATOM     14  C   UNL     1      11.353  -7.243   5.985  1.00  0.00    -0.000 C 
BRANCH  14  15
ATOM     15  C   UNL     1       9.966  -7.905   6.047  1.00  0.00    -0.000 C 
BRANCH  15  16
ATOM     16  C   UNL     1       9.214  -7.825   4.709  1.00  0.00    -0.000 C 
BRANCH  16  17
ATOM     17  C   UNL     1       8.514  -6.472   4.507  1.00  0.00    -0.003 C 
ATOM     18  C   UNL     1       6.998  -6.619   4.594  1.00  0.00     0.004 C 
ENDBRANCH  16  17
ENDBRANCH  15  16
ENDBRANCH  14  15
ENDBRANCH  13  14
ENDBRANCH  12  13
ENDBRANCH  11  12
ENDBRANCH   1  11
TORSDOF 14
ENDMDL
MODEL 4
REMARK VINA RESULT:    -3.256      1.320      2.575
REMARK INTER + INTRA:          -6.910
REMARK INTER:                  -5.860
REMARK INTRA:                  -1.050
REMARK UNBOUND:                -0.988
REMARK SMILES CCCCCCCCCCCCCCCC(=O)[O-]
REMARK SMILES IDX 9 1 10 2 11 3 12 4 13 5 14 6 15 7 16 8 17 9 18 10 8 11 7 12
REMARK SMILES IDX 6 13 5 14 4 15 3 16 2 17 1 18
REMARK H PARENT
REMARK Flexibility Score: inf
ROOT
ATOM      1  C   UNL     1      14.105  -7.855   6.259  1.00  0.00     0.000 C 
ENDROOT
BRANCH   1   2
ATOM      2  C   UNL     1      15.635  -7.747   6.380  1.00  0.00     0.000 C 
BRANCH   2   3
ATOM      3  C   UNL     1      16.362  -8.938   5.733  1.00  0.00     0.000 C 
BRANCH   3   4
ATOM      4  C   UNL     1      17.001  -8.579   4.380  1.00  0.00     0.000 C 
BRANCH   4   5
ATOM      5  C   UNL     1      17.772  -7.250   4.425  1.00  0.00     0.000 C 
BRANCH   5   6
ATOM      6  C   UNL     1      19.235  -7.431   4.865  1.00  0.00     0.006 C 
BRANCH   6   7
ATOM      7  C   UNL     1      19.590  -6.550   6.071  1.00  0.00     0.053 C 
BRANCH   7   8
ATOM      8  C   UNL     1      19.310  -7.241   7.370  1.00  0.00     0.041 C 
ATOM      9  O   UNL     1      19.467  -8.486   7.471  1.00  0.00    -0.550 OA
ATOM     10  O   UNL     1      18.902  -6.506   8.476  1.00  0.00    -0.550 OA
ENDBRANCH   7   8
ENDBRANCH   6   7
ENDBRANCH   5   6
ENDBRANCH   4   5
ENDBRANCH   3   4
ENDBRANCH   2   3
ENDBRANCH   1   2
BRANCH   1  11
ATOM     11  C   UNL     1      13.579  -7.301   4.925  1.00  0.00     0.000 C 
BRANCH  11  12
ATOM     12  C   UNL     1      12.107  -7.669   4.674  1.00  0.00    -0.000 C 
BRANCH  12  13
ATOM     13  C   UNL     1      11.160  -7.134   5.765  1.00  0.00    -0.000 C 
BRANCH  13  14
ATOM     14  C   UNL     1       9.671  -7.459   5.548  1.00  0.00    -0.000 C 
BRANCH  14  15
ATOM     15  C   UNL     1       9.340  -8.942   5.787  1.00  0.00    -0.000 C 
BRANCH  15  16
ATOM     16  C   UNL     1       7.840  -9.242   5.653  1.00  0.00    -0.000 C 
BRANCH  16  17
ATOM     17  C   UNL     1       7.076  -9.028   6.968  1.00  0.00    -0.003 C 
ATOM     18  C   UNL     1       7.861  -9.577   8.156  1.00  0.00     0.004 C 
ENDBRANCH  16  17
ENDBRANCH  15  16
ENDBRANCH  14  15
ENDBRANCH  13  14
ENDBRANCH  12  13
ENDBRANCH  11  12
ENDBRANCH   1  11
TORSDOF 14
ENDMDL
MODEL 5
REMARK VINA RESULT:    -3.174      4.117      9.210
REMARK INTER + INTRA:          -6.759
REMARK INTER:                  -5.355
REMARK INTRA:                  -1.404
REMARK UNBOUND:                -0.988
REMARK SMILES CCCCCCCCCCCCCCCC(=O)[O-]
REMARK SMILES IDX 9 1 10 2 11 3 12 4 13 5 14 6 15 7 16 8 17 9 18 10 8 11 7 12
REMARK SMILES IDX 6 13 5 14 4 15 3 16 2 17 1 18
REMARK H PARENT
REMARK Flexibility Score: inf
ROOT
ATOM      1  C   UNL     1      15.196  -7.759   6.465  1.00  0.00     0.000 C 
ENDROOT
BRANCH   1   2
ATOM      2  C   UNL     1      13.688  -7.854   6.170  1.00  0.00     0.000 C 
BRANCH   2   3
ATOM      3  C   UNL     1      13.304  -7.178   4.843  1.00  0.00     0.000 C 
BRANCH   3   4
ATOM      4  C   UNL     1      11.789  -7.215   4.575  1.00  0.00     0.000 C 
BRANCH   4   5
ATOM      5  C   UNL     1      11.319  -8.570   4.023  1.00  0.00     0.000 C 
BRANCH   5   6
ATOM      6  C   UNL     1       9.998  -9.038   4.656  1.00  0.00     0.006 C 
BRANCH   6   7
ATOM      7  C   UNL     1       9.696  -8.308   5.973  1.00  0.00     0.053 C 
BRANCH   7   8
ATOM      8  C   UNL     1       8.513  -8.896   6.678  1.00  0.00     0.041 C 
ATOM      9  O   UNL     1       8.644  -9.396   7.827  1.00  0.00    -0.550 OA
ATOM     10  O   UNL     1       7.260  -8.868   6.079  1.00  0.00    -0.550 OA
ENDBRANCH   7   8
ENDBRANCH   6   7
ENDBRANCH   5   6
ENDBRANCH   4   5
ENDBRANCH   3   4
ENDBRANCH   2   3
ENDBRANCH   1   2
BRANCH   1  11
ATOM     11  C   UNL     1      15.989  -8.927   5.858  1.00  0.00     0.000 C 
BRANCH  11  12
ATOM     12  C   UNL     1      16.781  -8.512   4.606  1.00  0.00    -0.000 C 
BRANCH  12  13
ATOM     13  C   UNL     1      17.152  -7.018   4.599  1.00  0.00    -0.000 C 
BRANCH  13  14
ATOM     14  C   UNL     1      18.593  -6.709   4.151  1.00  0.00    -0.000 C 
BRANCH  14  15
ATOM     15  C   UNL     1      19.540  -6.434   5.332  1.00  0.00    -0.000 C 
BRANCH  15  16
ATOM     16  C   UNL     1      20.078  -7.725   5.969  1.00  0.00    -0.000 C 
BRANCH  16  17
ATOM     17  C   UNL     1      19.452  -8.010   7.342  1.00  0.00    -0.003 C 
ATOM     18  C   UNL     1      19.027  -6.717   8.032  1.00  0.00     0.004 C 
ENDBRANCH  16  17
ENDBRANCH  15  16
ENDBRANCH  14  15
ENDBRANCH  13  14
ENDBRANCH  12  13
ENDBRANCH  11  12
ENDBRANCH   1  11
TORSDOF 14
ENDMDL
MODEL 6
REMARK VINA RESULT:    -3.146      5.209      9.477
REMARK INTER + INTRA:          -6.708
REMARK INTER:                  -5.422
REMARK INTRA:                  -1.286
REMARK UNBOUND:                -0.988
REMARK SMILES CCCCCCCCCCCCCCCC(=O)[O-]
REMARK SMILES IDX 9 1 10 2 11 3 12 4 13 5 14 6 15 7 16 8 17 9 18 10 8 11 7 12
REMARK SMILES IDX 6 13 5 14 4 15 3 16 2 17 1 18
REMARK H PARENT
REMARK Flexibility Score: inf
ROOT
ATOM      1  C   UNL     1      11.666  -6.989   4.570  1.00  0.00     0.000 C 
ENDROOT
BRANCH   1   2
ATOM      2  C   UNL     1      11.158  -7.118   6.017  1.00  0.00     0.000 C 
BRANCH   2   3
ATOM      3  C   UNL     1       9.958  -8.072   6.138  1.00  0.00     0.000 C 
BRANCH   3   4
ATOM      4  C   UNL     1       9.694  -8.859   4.843  1.00  0.00     0.000 C 
BRANCH   4   5
ATOM      5  C   UNL     1       8.238  -8.737   4.363  1.00  0.00     0.000 C 
BRANCH   5   6
ATOM      6  C   UNL     1       7.374  -7.891   5.314  1.00  0.00     0.006 C 
BRANCH   6   7
ATOM      7  C   UNL     1       6.781  -6.659   4.616  1.00  0.00     0.053 C 
BRANCH   7   8
ATOM      8  C   UNL     1       5.314  -6.518   4.884  1.00  0.00     0.041 C 
ATOM      9  O   UNL     1       4.594  -7.542   5.019  1.00  0.00    -0.550 OA
ATOM     10  O   UNL     1       4.748  -5.256   5.013  1.00  0.00    -0.550 OA
ENDBRANCH   7   8
ENDBRANCH   6   7
ENDBRANCH   5   6
ENDBRANCH   4   5
ENDBRANCH   3   4
ENDBRANCH   2   3
ENDBRANCH   1   2
BRANCH   1  11
ATOM     11  C   UNL     1      13.193  -7.131   4.467  1.00  0.00     0.000 C 
BRANCH  11  12
ATOM     12  C   UNL     1      13.653  -8.598   4.534  1.00  0.00    -0.000 C 
BRANCH  12  13
ATOM     13  C   UNL     1      14.781  -8.826   5.557  1.00  0.00    -0.000 C 
BRANCH  13  14
ATOM     14  C   UNL     1      14.780  -7.856   6.753  1.00  0.00    -0.000 C 
BRANCH  14  15
ATOM     15  C   UNL     1      16.019  -6.944   6.784  1.00  0.00    -0.000 C 
BRANCH  15  16
ATOM     16  C   UNL     1      17.062  -7.330   5.725  1.00  0.00    -0.000 C 
BRANCH  16  17
ATOM     17  C   UNL     1      18.351  -7.891   6.345  1.00  0.00    -0.003 C 
ATOM     18  C   UNL     1      19.022  -6.858   7.247  1.00  0.00     0.004 C 
ENDBRANCH  16  17
ENDBRANCH  15  16
ENDBRANCH  14  15
ENDBRANCH  13  14
ENDBRANCH  12  13
ENDBRANCH  11  12
ENDBRANCH   1  11
TORSDOF 14
ENDMDL
MODEL 7
REMARK VINA RESULT:    -3.065      4.021      9.024
REMARK INTER + INTRA:          -6.562
REMARK INTER:                  -5.690
REMARK INTRA:                  -0.872
REMARK UNBOUND:                -0.988
REMARK SMILES CCCCCCCCCCCCCCCC(=O)[O-]
REMARK SMILES IDX 9 1 10 2 11 3 12 4 13 5 14 6 15 7 16 8 17 9 18 10 8 11 7 12
REMARK SMILES IDX 6 13 5 14 4 15 3 16 2 17 1 18
REMARK H PARENT
REMARK Flexibility Score: inf
ROOT
ATOM      1  C   UNL     1      12.078  -7.485   5.829  1.00  0.00     0.000 C 
ENDROOT
BRANCH   1   2
ATOM      2  C   UNL     1      10.608  -7.337   5.397  1.00  0.00     0.000 C 
BRANCH   2   3
ATOM      3  C   UNL     1      10.280  -8.154   4.136  1.00  0.00     0.000 C 
BRANCH   3   4
ATOM      4  C   UNL     1       9.326  -9.327   4.422  1.00  0.00     0.000 C 
BRANCH   4   5
ATOM      5  C   UNL     1       7.858  -8.883   4.531  1.00  0.00     0.000 C 
BRANCH   5   6
ATOM      6  C   UNL     1       7.056  -9.738   5.527  1.00  0.00     0.006 C 
BRANCH   6   7
ATOM      7  C   UNL     1       6.786  -8.994   6.842  1.00  0.00     0.053 C 
BRANCH   7   8
ATOM      8  C   UNL     1       7.553  -9.584   7.985  1.00  0.00     0.041 C 
ATOM      9  O   UNL     1       7.044  -9.623   9.136  1.00  0.00    -0.550 OA
ATOM     10  O   UNL     1       8.818 -10.117   7.773  1.00  0.00    -0.550 OA
ENDBRANCH   7   8
ENDBRANCH   6   7
ENDBRANCH   5   6
ENDBRANCH   4   5
ENDBRANCH   3   4
ENDBRANCH   2   3
ENDBRANCH   1   2
BRANCH   1  11
ATOM     11  C   UNL     1      13.013  -7.776   4.644  1.00  0.00     0.000 C 
BRANCH  11  12
ATOM     12  C   UNL     1      14.405  -8.250   5.096  1.00  0.00    -0.000 C 
BRANCH  12  13
ATOM     13  C   UNL     1      14.649  -8.045   6.602  1.00  0.00    -0.000 C 
BRANCH  13  14
ATOM     14  C   UNL     1      15.733  -7.007   6.950  1.00  0.00    -0.000 C 
BRANCH  14  15
ATOM     15  C   UNL     1      16.775  -6.833   5.831  1.00  0.00    -0.000 C 
BRANCH  15  16
ATOM     16  C   UNL     1      18.026  -7.698   6.050  1.00  0.00    -0.000 C 
BRANCH  16  17
ATOM     17  C   UNL     1      19.187  -6.907   6.671  1.00  0.00    -0.003 C 
ATOM     18  C   UNL     1      18.947  -6.653   8.156  1.00  0.00     0.004 C 
ENDBRANCH  16  17
ENDBRANCH  15  16
ENDBRANCH  14  15
ENDBRANCH  13  14
ENDBRANCH  12  13
ENDBRANCH  11  12
ENDBRANCH   1  11
TORSDOF 14
ENDMDL
MODEL 8
REMARK VINA RESULT:    -2.974      4.130     10.266
REMARK INTER + INTRA:          -6.396
REMARK INTER:                  -5.315
REMARK INTRA:                  -1.082
REMARK UNBOUND:                -0.988
REMARK SMILES CCCCCCCCCCCCCCCC(=O)[O-]
REMARK SMILES IDX 9 1 10 2 11 3 12 4 13 5 14 6 15 7 16 8 17 9 18 10 8 11 7 12
REMARK SMILES IDX 6 13 5 14 4 15 3 16 2 17 1 18
REMARK H PARENT
REMARK Flexibility Score: inf
ROOT
ATOM      1  C   UNL     1      18.321  -6.519   6.870  1.00  0.00     0.000 C 
ENDROOT
BRANCH   1   2
ATOM      2  C   UNL     1      16.816  -6.826   6.766  1.00  0.00     0.000 C 
BRANCH   2   3
ATOM      3  C   UNL     1      16.202  -6.325   5.448  1.00  0.00     0.000 C 
BRANCH   3   4
ATOM      4  C   UNL     1      15.207  -7.328   4.839  1.00  0.00     0.000 C 
BRANCH   4   5
ATOM      5  C   UNL     1      14.000  -7.592   5.754  1.00  0.00     0.000 C 
BRANCH   5   6
ATOM      6  C   UNL     1      12.657  -7.436   5.018  1.00  0.00     0.006 C 
BRANCH   6   7
ATOM      7  C   UNL     1      11.484  -7.247   5.989  1.00  0.00     0.053 C 
BRANCH   7   8
ATOM      8  C   UNL     1      10.169  -7.201   5.273  1.00  0.00     0.041 C 
ATOM      9  O   UNL     1       9.614  -8.268   4.898  1.00  0.00    -0.550 OA
ATOM     10  O   UNL     1       9.542  -5.983   5.044  1.00  0.00    -0.550 OA
ENDBRANCH   7   8
ENDBRANCH   6   7
ENDBRANCH   5   6
ENDBRANCH   4   5
ENDBRANCH   3   4
ENDBRANCH   2   3
ENDBRANCH   1   2
BRANCH   1  11
ATOM     11  C   UNL     1      19.144  -7.747   7.291  1.00  0.00     0.000 C 
BRANCH  11  12
ATOM     12  C   UNL     1      19.090  -8.877   6.248  1.00  0.00    -0.000 C 
BRANCH  12  13
ATOM     13  C   UNL     1      19.428  -8.397   4.825  1.00  0.00    -0.000 C 
BRANCH  13  14
ATOM     14  C   UNL     1      20.776  -8.898   4.273  1.00  0.00    -0.000 C 
BRANCH  14  15
ATOM     15  C   UNL     1      21.727  -7.751   3.888  1.00  0.00    -0.000 C 
BRANCH  15  16
ATOM     16  C   UNL     1      21.655  -6.571   4.868  1.00  0.00    -0.000 C 
BRANCH  16  17
ATOM     17  C   UNL     1      22.085  -5.243   4.225  1.00  0.00    -0.003 C 
ATOM     18  C   UNL     1      20.991  -4.188   4.361  1.00  0.00     0.004 C 
ENDBRANCH  16  17
ENDBRANCH  15  16
ENDBRANCH  14  15
ENDBRANCH  13  14
ENDBRANCH  12  13
ENDBRANCH  11  12
ENDBRANCH   1  11
TORSDOF 14
ENDMDL
MODEL 9
REMARK VINA RESULT:    -2.935      2.352      4.431
REMARK INTER + INTRA:          -6.325
REMARK INTER:                  -5.517
REMARK INTRA:                  -0.807
REMARK UNBOUND:                -0.988
REMARK SMILES CCCCCCCCCCCCCCCC(=O)[O-]
REMARK SMILES IDX 9 1 10 2 11 3 12 4 13 5 14 6 15 7 16 8 17 9 18 10 8 11 7 12
REMARK SMILES IDX 6 13 5 14 4 15 3 16 2 17 1 18
REMARK H PARENT
REMARK Flexibility Score: inf
ROOT
ATOM      1  C   UNL     1      15.440  -8.374   6.110  1.00  0.00     0.000 C 
ENDROOT
BRANCH   1   2
ATOM      2  C   UNL     1      16.683  -7.544   5.742  1.00  0.00     0.000 C 
BRANCH   2   3
ATOM      3  C   UNL     1      17.227  -6.738   6.934  1.00  0.00     0.000 C 
BRANCH   3   4
ATOM      4  C   UNL     1      18.712  -7.025   7.216  1.00  0.00     0.000 C 
BRANCH   4   5
ATOM      5  C   UNL     1      19.330  -7.995   6.196  1.00  0.00     0.000 C 
BRANCH   5   6
ATOM      6  C   UNL     1      20.541  -7.389   5.465  1.00  0.00     0.006 C 
BRANCH   6   7
ATOM      7  C   UNL     1      20.158  -6.156   4.634  1.00  0.00     0.053 C 
BRANCH   7   8
ATOM      8  C   UNL     1      21.274  -5.159   4.570  1.00  0.00     0.041 C 
ATOM      9  O   UNL     1      21.035  -3.931   4.710  1.00  0.00    -0.550 OA
ATOM     10  O   UNL     1      22.582  -5.589   4.383  1.00  0.00    -0.550 OA
ENDBRANCH   7   8
ENDBRANCH   6   7
ENDBRANCH   5   6
ENDBRANCH   4   5
ENDBRANCH   3   4
ENDBRANCH   2   3
ENDBRANCH   1   2
BRANCH   1  11
ATOM     11  C   UNL     1      14.968  -9.270   4.954  1.00  0.00     0.000 C 
BRANCH  11  12
ATOM     12  C   UNL     1      13.578  -8.870   4.430  1.00  0.00    -0.000 C 
BRANCH  12  13
ATOM     13  C   UNL     1      13.097  -7.514   4.981  1.00  0.00    -0.000 C 
BRANCH  13  14
ATOM     14  C   UNL     1      11.809  -6.971   4.334  1.00  0.00    -0.000 C 
BRANCH  14  15
ATOM     15  C   UNL     1      10.646  -6.842   5.334  1.00  0.00    -0.000 C 
BRANCH  15  16
ATOM     16  C   UNL     1       9.554  -5.878   4.847  1.00  0.00    -0.000 C 
BRANCH  16  17
ATOM     17  C   UNL     1       8.299  -6.611   4.350  1.00  0.00    -0.003 C 
ATOM     18  C   UNL     1       8.078  -7.908   5.124  1.00  0.00     0.004 C 
ENDBRANCH  16  17
ENDBRANCH  15  16
ENDBRANCH  14  15
ENDBRANCH  13  14
ENDBRANCH  12  13
ENDBRANCH  11  12
ENDBRANCH   1  11
TORSDOF 14
ENDMDL
