MODEL 1
REMARK VINA RESULT:    -2.597      0.000      0.000
REMARK INTER + INTRA:          -2.597
REMARK INTER:                  -2.597
REMARK INTRA:                   0.000
REMARK UNBOUND:                 0.000
REMARK SMILES CC1=CC(=O)[C@H]2C[C@@H]1C2(C)C
REMARK SMILES IDX 1 1 2 2 3 3 4 4 5 5 6 6 7 7 8 8 9 9 10 10 11 11
REMARK H PARENT
REMARK Flexibility Score: inf
ROOT
ATOM      1  C   UNL     1       7.462  14.476   2.123  1.00  0.00     0.040 C 
ATOM      2  C   UNL     1       8.871  14.793   1.738  1.00  0.00    -0.066 C 
ATOM      3  C   UNL     1       9.334  16.075   1.733  1.00  0.00     0.047 C 
ATOM      4  C   UNL     1      10.756  16.265   1.299  1.00  0.00     0.159 C 
ATOM      5  O   UNL     1      11.287  17.402   1.215  1.00  0.00    -0.295 OA
ATOM      6  C   UNL     1      11.515  14.980   0.964  1.00  0.00     0.067 C 
ATOM      7  C   UNL     1      11.168  14.023   2.125  1.00  0.00     0.021 C 
ATOM      8  C   UNL     1       9.875  13.687   1.346  1.00  0.00     0.022 C 
ATOM      9  C   UNL     1      10.620  14.102   0.044  1.00  0.00    -0.019 C 
ATOM     10  C   UNL     1       9.803  14.802  -1.079  1.00  0.00     0.012 C 
ATOM     11  C   UNL     1      11.402  12.923  -0.589  1.00  0.00     0.012 C 
ENDROOT
TORSDOF 0
ENDMDL
MODEL 2
REMARK VINA RESULT:    -2.307      1.715      3.506
REMARK INTER + INTRA:          -2.307
REMARK INTER:                  -2.307
REMARK INTRA:                   0.000
REMARK UNBOUND:                 0.000
REMARK SMILES CC1=CC(=O)[C@H]2C[C@@H]1C2(C)C
REMARK SMILES IDX 1 1 2 2 3 3 4 4 5 5 6 6 7 7 8 8 9 9 10 10 11 11
REMARK H PARENT
REMARK Flexibility Score: inf
ROOT
ATOM      1  C   UNL     1      13.009  13.531   2.115  1.00  0.00     0.040 C 
ATOM      2  C   UNL     1      11.780  13.976   1.389  1.00  0.00    -0.066 C 
ATOM      3  C   UNL     1      11.630  13.765   0.051  1.00  0.00     0.047 C 
ATOM      4  C   UNL     1      10.366  14.284  -0.564  1.00  0.00     0.159 C 
ATOM      5  O   UNL     1      10.129  14.186  -1.796  1.00  0.00    -0.295 OA
ATOM      6  C   UNL     1       9.388  14.944   0.408  1.00  0.00     0.067 C 
ATOM      7  C   UNL     1       9.337  13.974   1.609  1.00  0.00     0.021 C 
ATOM      8  C   UNL     1      10.615  14.678   2.120  1.00  0.00     0.022 C 
ATOM      9  C   UNL     1      10.178  15.934   1.310  1.00  0.00    -0.019 C 
ATOM     10  C   UNL     1      11.285  16.808   0.656  1.00  0.00     0.012 C 
ATOM     11  C   UNL     1       9.244  16.865   2.125  1.00  0.00     0.012 C 
ENDROOT
TORSDOF 0
ENDMDL
MODEL 3
REMARK VINA RESULT:    -2.222      1.615      2.968
REMARK INTER + INTRA:          -2.222
REMARK INTER:                  -2.222
REMARK INTRA:                   0.000
REMARK UNBOUND:                 0.000
REMARK SMILES CC1=CC(=O)[C@H]2C[C@@H]1C2(C)C
REMARK SMILES IDX 1 1 2 2 3 3 4 4 5 5 6 6 7 7 8 8 9 9 10 10 11 11
REMARK H PARENT
REMARK Flexibility Score: inf
ROOT
ATOM      1  C   UNL     1      11.728  17.372   2.103  1.00  0.00     0.040 C 
ATOM      2  C   UNL     1      10.895  16.249   1.572  1.00  0.00    -0.066 C 
ATOM      3  C   UNL     1       9.688  15.938   2.124  1.00  0.00     0.047 C 
ATOM      4  C   UNL     1       8.964  14.773   1.522  1.00  0.00     0.159 C 
ATOM      5  O   UNL     1       7.861  14.364   1.968  1.00  0.00    -0.295 OA
ATOM      6  C   UNL     1       9.660  14.115   0.329  1.00  0.00     0.067 C 
ATOM      7  C   UNL     1      10.107  15.304  -0.550  1.00  0.00     0.021 C 
ATOM      8  C   UNL     1      11.349  15.401   0.365  1.00  0.00     0.022 C 
ATOM      9  C   UNL     1      11.155  13.891   0.691  1.00  0.00    -0.019 C 
ATOM     10  C   UNL     1      11.503  13.398   2.125  1.00  0.00     0.012 C 
ATOM     11  C   UNL     1      11.877  12.970  -0.326  1.00  0.00     0.012 C 
ENDROOT
TORSDOF 0
ENDMDL
MODEL 4
REMARK VINA RESULT:    -1.627      1.702      3.152
REMARK INTER + INTRA:          -1.627
REMARK INTER:                  -1.627
REMARK INTRA:                   0.000
REMARK UNBOUND:                 0.000
REMARK SMILES CC1=CC(=O)[C@H]2C[C@@H]1C2(C)C
REMARK SMILES IDX 1 1 2 2 3 3 4 4 5 5 6 6 7 7 8 8 9 9 10 10 11 11
REMARK H PARENT
REMARK Flexibility Score: inf
ROOT
ATOM      1  C   UNL     1      10.704  14.091  -2.007  1.00  0.00     0.040 C 
ATOM      2  C   UNL     1      10.396  14.373  -0.571  1.00  0.00    -0.066 C 
ATOM      3  C   UNL     1       9.116  14.367  -0.105  1.00  0.00     0.047 C 
ATOM      4  C   UNL     1       8.937  14.693   1.346  1.00  0.00     0.159 C 
ATOM      5  O   UNL     1       7.802  14.758   1.886  1.00  0.00    -0.295 OA
ATOM      6  C   UNL     1      10.229  14.945   2.125  1.00  0.00     0.067 C 
ATOM      7  C   UNL     1      11.164  13.797   1.686  1.00  0.00     0.021 C 
ATOM      8  C   UNL     1      11.511  14.665   0.455  1.00  0.00     0.022 C 
ATOM      9  C   UNL     1      11.123  15.914   1.300  1.00  0.00    -0.019 C 
ATOM     10  C   UNL     1      10.443  17.109   0.574  1.00  0.00     0.012 C 
ATOM     11  C   UNL     1      12.315  16.463   2.124  1.00  0.00     0.012 C 
ENDROOT
TORSDOF 0
ENDMDL
MODEL 5
REMARK VINA RESULT:    -1.449      1.967      2.853
REMARK INTER + INTRA:          -1.449
REMARK INTER:                  -1.449
REMARK INTRA:                   0.000
REMARK UNBOUND:                 0.000
REMARK SMILES CC1=CC(=O)[C@H]2C[C@@H]1C2(C)C
REMARK SMILES IDX 1 1 2 2 3 3 4 4 5 5 6 6 7 7 8 8 9 9 10 10 11 11
REMARK H PARENT
REMARK Flexibility Score: inf
ROOT
ATOM      1  C   UNL     1      11.266  17.474   1.929  1.00  0.00     0.040 C 
ATOM      2  C   UNL     1      11.327  15.993   1.739  1.00  0.00    -0.066 C 
ATOM      3  C   UNL     1      12.417  15.271   2.124  1.00  0.00     0.047 C 
ATOM      4  C   UNL     1      12.368  13.798   1.852  1.00  0.00     0.159 C 
ATOM      5  O   UNL     1      13.328  13.032   2.125  1.00  0.00    -0.295 OA
ATOM      6  C   UNL     1      11.072  13.293   1.216  1.00  0.00     0.067 C 
ATOM      7  C   UNL     1       9.957  13.979   2.035  1.00  0.00     0.021 C 
ATOM      8  C   UNL     1      10.155  15.206   1.114  1.00  0.00     0.022 C 
ATOM      9  C   UNL     1      10.704  14.231   0.031  1.00  0.00    -0.019 C 
ATOM     10  C   UNL     1      11.846  14.733  -0.897  1.00  0.00     0.012 C 
ATOM     11  C   UNL     1       9.579  13.644  -0.859  1.00  0.00     0.012 C 
ENDROOT
TORSDOF 0
ENDMDL
MODEL 6
REMARK VINA RESULT:    -1.300      1.626      3.356
REMARK INTER + INTRA:          -1.300
REMARK INTER:                  -1.300
REMARK INTRA:                   0.000
REMARK UNBOUND:                 0.000
REMARK SMILES CC1=CC(=O)[C@H]2C[C@@H]1C2(C)C
REMARK SMILES IDX 1 1 2 2 3 3 4 4 5 5 6 6 7 7 8 8 9 9 10 10 11 11
REMARK H PARENT
REMARK Flexibility Score: inf
ROOT
ATOM      1  C   UNL     1       9.725  13.623  -1.746  1.00  0.00     0.040 C 
ATOM      2  C   UNL     1      10.397  14.155  -0.520  1.00  0.00    -0.066 C 
ATOM      3  C   UNL     1      11.318  13.418   0.161  1.00  0.00     0.047 C 
ATOM      4  C   UNL     1      11.897  14.051   1.390  1.00  0.00     0.159 C 
ATOM      5  O   UNL     1      12.727  13.456   2.125  1.00  0.00    -0.295 OA
ATOM      6  C   UNL     1      11.407  15.468   1.689  1.00  0.00     0.067 C 
ATOM      7  C   UNL     1      11.479  16.188   0.324  1.00  0.00     0.021 C 
ATOM      8  C   UNL     1      10.095  15.569   0.022  1.00  0.00     0.022 C 
ATOM      9  C   UNL     1       9.857  15.494   1.559  1.00  0.00    -0.019 C 
ATOM     10  C   UNL     1       9.049  14.289   2.119  1.00  0.00     0.012 C 
ATOM     11  C   UNL     1       9.239  16.798   2.125  1.00  0.00     0.012 C 
ENDROOT
TORSDOF 0
ENDMDL
MODEL 7
REMARK VINA RESULT:    -0.789      1.722      2.632
REMARK INTER + INTRA:          -0.789
REMARK INTER:                  -0.789
REMARK INTRA:                   0.000
REMARK UNBOUND:                 0.000
REMARK SMILES CC1=CC(=O)[C@H]2C[C@@H]1C2(C)C
REMARK SMILES IDX 1 1 2 2 3 3 4 4 5 5 6 6 7 7 8 8 9 9 10 10 11 11
REMARK H PARENT
REMARK Flexibility Score: inf
ROOT
ATOM      1  C   UNL     1       7.866  14.575   2.062  1.00  0.00     0.040 C 
ATOM      2  C   UNL     1       9.086  14.721   1.209  1.00  0.00    -0.066 C 
ATOM      3  C   UNL     1       9.086  14.342  -0.100  1.00  0.00     0.047 C 
ATOM      4  C   UNL     1      10.379  14.512  -0.839  1.00  0.00     0.159 C 
ATOM      5  O   UNL     1      10.518  14.163  -2.040  1.00  0.00    -0.295 OA
ATOM      6  C   UNL     1      11.518  15.137  -0.031  1.00  0.00     0.067 C 
ATOM      7  C   UNL     1      10.858  16.335   0.686  1.00  0.00     0.021 C 
ATOM      8  C   UNL     1      10.395  15.325   1.761  1.00  0.00     0.022 C 
ATOM      9  C   UNL     1      11.595  14.423   1.348  1.00  0.00    -0.019 C 
ATOM     10  C   UNL     1      11.405  12.880   1.394  1.00  0.00     0.012 C 
ATOM     11  C   UNL     1      12.891  14.775   2.123  1.00  0.00     0.012 C 
ENDROOT
TORSDOF 0
ENDMDL
