MODEL 1
REMARK VINA RESULT:    -4.278      0.000      0.000
REMARK INTER + INTRA:          -6.834
REMARK INTER:                  -6.529
REMARK INTRA:                  -0.305
REMARK UNBOUND:                -0.305
REMARK SMILES CC1=CCC[C@H](C)C(=O)C[C@@H](C(C)C)C(=O)C1
REMARK SMILES IDX 8 1 9 2 6 3 7 4 5 5 4 6 3 7 2 8 1 9 10 11 11 12 15 13 16 14
REMARK SMILES IDX 17 15 12 17 13 18 14 19
REMARK H PARENT
REMARK Flexibility Score: 70.00
ROOT
ATOM      1  C   UNL     1     250.708 257.711 247.193  1.00  0.00     0.136 C 
ATOM      2  O   UNL     1     250.440 258.845 246.819  1.00  0.00    -0.299 OA
ENDROOT
BRANCH   1   3
ATOM      3  C   UNL     1     249.751 256.576 246.880  1.00  0.00     0.053 C 
ATOM      4  C   UNL     1     248.323 256.947 247.304  1.00  0.00     0.016 C 
BRANCH   3   5
ATOM      5  C   UNL     1     249.804 256.222 245.376  1.00  0.00     0.015 C 
BRANCH   5   6
ATOM      6  C   UNL     1     250.781 255.062 245.100  1.00  0.00     0.028 C 
BRANCH   6   7
ATOM      7  C   UNL     1     250.889 254.088 246.248  1.00  0.00    -0.028 C 
ATOM      8  C   UNL     1     252.005 253.860 246.982  1.00  0.00    -0.070 CG0
ATOM      9  C   UNL     1     251.890 252.919 248.156  1.00  0.00     0.039 C 
ATOM     10  G   UNL     1     253.367 254.462 246.658  1.00  0.00     0.000 G0
ENDBRANCH   6   7
ENDBRANCH   5   6
ENDBRANCH   3   5
ENDBRANCH   1   3
BRANCH   1  11
ATOM     11  C   UNL     1     251.983 257.478 247.973  1.00  0.00     0.087 C 
BRANCH  11  12
ATOM     12  C   UNL     1     253.160 257.046 247.060  1.00  0.00     0.066 C 
BRANCH  12  13
ATOM     13  C   UNL     1     253.707 255.685 247.472  1.00  0.00     0.140 C 
ATOM     14  O   UNL     1     254.459 255.584 248.431  1.00  0.00    -0.299 OA
BRANCH  13  15
ATOM     15  C   UNL     1     253.367 254.459 246.660  1.00  0.00     0.106 CG0
ATOM     16  G   UNL     1     252.002 253.864 246.979  1.00  0.00     0.000 G0
ENDBRANCH  13  15
ENDBRANCH  12  13
BRANCH  12  17
ATOM     17  C   UNL     1     254.294 258.119 246.955  1.00  0.00    -0.006 C 
ATOM     18  C   UNL     1     254.435 259.000 248.210  1.00  0.00     0.008 C 
ATOM     19  C   UNL     1     254.112 259.009 245.714  1.00  0.00     0.008 C 
ENDBRANCH  12  17
ENDBRANCH  11  12
ENDBRANCH   1  11
TORSDOF 1
ENDMDL
MODEL 2
REMARK VINA RESULT:    -4.145      2.526      4.932
REMARK INTER + INTRA:          -6.631
REMARK INTER:                  -6.501
REMARK INTRA:                  -0.130
REMARK UNBOUND:                -0.305
REMARK SMILES CC1=CCC[C@H](C)C(=O)C[C@@H](C(C)C)C(=O)C1
REMARK SMILES IDX 8 1 9 2 6 3 7 4 5 5 4 6 3 7 2 8 1 9 10 11 11 12 15 13 16 14
REMARK SMILES IDX 17 15 12 17 13 18 14 19
REMARK H PARENT
REMARK Flexibility Score: 70.00
ROOT
ATOM      1  C   UNL     1     253.758 260.433 247.377  1.00  0.00     0.136 C 
ATOM      2  O   UNL     1     253.357 261.396 248.017  1.00  0.00    -0.299 OA
ENDROOT
BRANCH   1   3
ATOM      3  C   UNL     1     255.205 259.997 247.509  1.00  0.00     0.053 C 
ATOM      4  C   UNL     1     256.124 260.951 246.733  1.00  0.00     0.016 C 
BRANCH   3   5
ATOM      5  C   UNL     1     255.616 259.928 248.998  1.00  0.00     0.015 C 
BRANCH   5   6
ATOM      6  C   UNL     1     254.869 258.802 249.741  1.00  0.00     0.028 C 
BRANCH   6   7
ATOM      7  C   UNL     1     255.256 257.421 249.272  1.00  0.00    -0.028 C 
ATOM      8  C   UNL     1     254.418 256.522 248.700  1.00  0.00    -0.070 CG0
ATOM      9  C   UNL     1     255.015 255.226 248.207  1.00  0.00     0.039 C 
ATOM     10  G   UNL     1     252.915 256.731 248.573  1.00  0.00     0.000 G0
ENDBRANCH   6   7
ENDBRANCH   5   6
ENDBRANCH   3   5
ENDBRANCH   1   3
BRANCH   1  11
ATOM     11  C   UNL     1     252.797 259.713 246.457  1.00  0.00     0.087 C 
BRANCH  11  12
ATOM     12  C   UNL     1     251.869 258.734 247.225  1.00  0.00     0.066 C 
BRANCH  12  13
ATOM     13  C   UNL     1     252.458 257.330 247.260  1.00  0.00     0.140 C 
ATOM     14  O   UNL     1     252.533 256.664 246.237  1.00  0.00    -0.299 OA
BRANCH  13  15
ATOM     15  C   UNL     1     252.897 256.730 248.573  1.00  0.00     0.106 CG0
ATOM     16  G   UNL     1     254.404 256.537 248.692  1.00  0.00     0.000 G0
ENDBRANCH  13  15
ENDBRANCH  12  13
BRANCH  12  17
ATOM     17  C   UNL     1     250.395 258.734 246.702  1.00  0.00    -0.006 C 
ATOM     18  C   UNL     1     249.643 260.054 246.956  1.00  0.00     0.008 C 
ATOM     19  C   UNL     1     249.592 257.559 247.284  1.00  0.00     0.008 C 
ENDBRANCH  12  17
ENDBRANCH  11  12
ENDBRANCH   1  11
TORSDOF 1
ENDMDL
MODEL 3
REMARK VINA RESULT:    -4.027      1.509      2.027
REMARK INTER + INTRA:          -6.451
REMARK INTER:                  -6.231
REMARK INTRA:                  -0.220
REMARK UNBOUND:                -0.305
REMARK SMILES CC1=CCC[C@H](C)C(=O)C[C@@H](C(C)C)C(=O)C1
REMARK SMILES IDX 8 1 9 2 6 3 7 4 5 5 4 6 3 7 2 8 1 9 10 11 11 12 15 13 16 14
REMARK SMILES IDX 17 15 12 17 13 18 14 19
REMARK H PARENT
REMARK Flexibility Score: 70.00
ROOT
ATOM      1  C   UNL     1     249.734 257.657 247.378  1.00  0.00     0.136 C 
ATOM      2  O   UNL     1     249.915 258.820 247.044  1.00  0.00    -0.299 OA
ENDROOT
BRANCH   1   3
ATOM      3  C   UNL     1     248.329 257.085 247.362  1.00  0.00     0.053 C 
ATOM      4  C   UNL     1     247.854 256.874 245.917  1.00  0.00     0.016 C 
BRANCH   3   5
ATOM      5  C   UNL     1     248.274 255.761 248.158  1.00  0.00     0.015 C 
BRANCH   5   6
ATOM      6  C   UNL     1     248.052 254.550 247.231  1.00  0.00     0.028 C 
BRANCH   6   7
ATOM      7  C   UNL     1     249.081 253.462 247.416  1.00  0.00    -0.028 C 
ATOM      8  C   UNL     1     250.310 253.438 246.844  1.00  0.00    -0.070 CG0
ATOM      9  C   UNL     1     251.238 252.311 247.229  1.00  0.00     0.039 C 
ATOM     10  G   UNL     1     250.781 254.452 245.810  1.00  0.00     0.000 G0
ENDBRANCH   6   7
ENDBRANCH   5   6
ENDBRANCH   3   5
ENDBRANCH   1   3
BRANCH   1  11
ATOM     11  C   UNL     1     250.921 256.826 247.814  1.00  0.00     0.087 C 
BRANCH  11  12
ATOM     12  C   UNL     1     251.969 256.659 246.682  1.00  0.00     0.066 C 
BRANCH  12  13
ATOM     13  C   UNL     1     252.056 255.210 246.221  1.00  0.00     0.140 C 
ATOM     14  O   UNL     1     253.141 254.654 246.128  1.00  0.00    -0.299 OA
BRANCH  13  15
ATOM     15  C   UNL     1     250.803 254.471 245.818  1.00  0.00     0.106 CG0
ATOM     16  G   UNL     1     250.331 253.448 246.844  1.00  0.00     0.000 G0
ENDBRANCH  13  15
ENDBRANCH  12  13
BRANCH  12  17
ATOM     17  C   UNL     1     253.376 257.238 247.046  1.00  0.00    -0.006 C 
ATOM     18  C   UNL     1     253.680 257.235 248.556  1.00  0.00     0.008 C 
ATOM     19  C   UNL     1     253.563 258.657 246.482  1.00  0.00     0.008 C 
ENDBRANCH  12  17
ENDBRANCH  11  12
ENDBRANCH   1  11
TORSDOF 1
ENDMDL
MODEL 4
REMARK VINA RESULT:    -3.932      1.514      1.966
REMARK INTER + INTRA:          -6.305
REMARK INTER:                  -6.103
REMARK INTRA:                  -0.202
REMARK UNBOUND:                -0.305
REMARK SMILES CC1=CCC[C@H](C)C(=O)C[C@@H](C(C)C)C(=O)C1
REMARK SMILES IDX 8 1 9 2 6 3 7 4 5 5 4 6 3 7 2 8 1 9 10 11 11 12 15 13 16 14
REMARK SMILES IDX 17 15 12 17 13 18 14 19
REMARK H PARENT
REMARK Flexibility Score: 70.00
ROOT
ATOM      1  C   UNL     1     251.392 258.129 247.274  1.00  0.00     0.136 C 
ATOM      2  O   UNL     1     250.732 259.021 246.756  1.00  0.00    -0.299 OA
ENDROOT
BRANCH   1   3
ATOM      3  C   UNL     1     250.964 256.685 247.099  1.00  0.00     0.053 C 
ATOM      4  C   UNL     1     249.437 256.592 246.963  1.00  0.00     0.016 C 
BRANCH   3   5
ATOM      5  C   UNL     1     251.665 256.056 245.873  1.00  0.00     0.015 C 
BRANCH   5   6
ATOM      6  C   UNL     1     252.470 254.800 246.262  1.00  0.00     0.028 C 
BRANCH   6   7
ATOM      7  C   UNL     1     252.620 254.627 247.753  1.00  0.00    -0.028 C 
ATOM      8  C   UNL     1     253.632 255.127 248.504  1.00  0.00    -0.070 CG0
ATOM      9  C   UNL     1     253.556 254.931 249.998  1.00  0.00     0.039 C 
ATOM     10  G   UNL     1     254.851 255.827 247.918  1.00  0.00     0.000 G0
ENDBRANCH   6   7
ENDBRANCH   5   6
ENDBRANCH   3   5
ENDBRANCH   1   3
BRANCH   1  11
ATOM     11  C   UNL     1     252.612 258.499 248.089  1.00  0.00     0.087 C 
BRANCH  11  12
ATOM     12  C   UNL     1     253.935 258.221 247.327  1.00  0.00     0.066 C 
BRANCH  12  13
ATOM     13  C   UNL     1     254.866 257.336 248.145  1.00  0.00     0.140 C 
ATOM     14  O   UNL     1     255.655 257.832 248.937  1.00  0.00    -0.299 OA
BRANCH  13  15
ATOM     15  C   UNL     1     254.861 255.841 247.937  1.00  0.00     0.106 CG0
ATOM     16  G   UNL     1     253.629 255.143 248.501  1.00  0.00     0.000 G0
ENDBRANCH  13  15
ENDBRANCH  12  13
BRANCH  12  17
ATOM     17  C   UNL     1     254.653 259.519 246.832  1.00  0.00    -0.006 C 
ATOM     18  C   UNL     1     254.252 260.788 247.607  1.00  0.00     0.008 C 
ATOM     19  C   UNL     1     254.436 259.742 245.325  1.00  0.00     0.008 C 
ENDBRANCH  12  17
ENDBRANCH  11  12
ENDBRANCH   1  11
TORSDOF 1
ENDMDL
MODEL 5
REMARK VINA RESULT:    -3.906      1.817      4.463
REMARK INTER + INTRA:          -6.265
REMARK INTER:                  -5.912
REMARK INTRA:                  -0.353
REMARK UNBOUND:                -0.305
REMARK SMILES CC1=CCC[C@H](C)C(=O)C[C@@H](C(C)C)C(=O)C1
REMARK SMILES IDX 8 1 9 2 6 3 7 4 5 5 4 6 3 7 2 8 1 9 10 11 11 12 15 13 16 14
REMARK SMILES IDX 17 15 12 17 13 18 14 19
REMARK H PARENT
REMARK Flexibility Score: 70.00
ROOT
ATOM      1  C   UNL     1     252.721 257.881 246.622  1.00  0.00     0.136 C 
ATOM      2  O   UNL     1     251.727 258.580 246.767  1.00  0.00    -0.299 OA
ENDROOT
BRANCH   1   3
ATOM      3  C   UNL     1     254.098 258.489 246.812  1.00  0.00     0.053 C 
ATOM      4  C   UNL     1     254.362 259.558 245.741  1.00  0.00     0.016 C 
BRANCH   3   5
ATOM      5  C   UNL     1     254.236 259.086 248.231  1.00  0.00     0.015 C 
BRANCH   5   6
ATOM      6  C   UNL     1     254.445 257.987 249.291  1.00  0.00     0.028 C 
BRANCH   6   7
ATOM      7  C   UNL     1     255.471 256.957 248.886  1.00  0.00    -0.028 C 
ATOM      8  C   UNL     1     255.237 255.629 248.743  1.00  0.00    -0.070 CG0
ATOM      9  C   UNL     1     256.369 254.771 248.234  1.00  0.00     0.039 C 
ATOM     10  G   UNL     1     253.918 254.960 249.111  1.00  0.00     0.000 G0
ENDBRANCH   6   7
ENDBRANCH   5   6
ENDBRANCH   3   5
ENDBRANCH   1   3
BRANCH   1  11
ATOM     11  C   UNL     1     252.545 256.427 246.240  1.00  0.00     0.087 C 
BRANCH  11  12
ATOM     12  C   UNL     1     252.009 255.571 247.418  1.00  0.00     0.066 C 
BRANCH  12  13
ATOM     13  C   UNL     1     253.065 254.592 247.914  1.00  0.00     0.140 C 
ATOM     14  O   UNL     1     253.192 253.497 247.384  1.00  0.00    -0.299 OA
BRANCH  13  15
ATOM     15  C   UNL     1     253.922 254.948 249.104  1.00  0.00     0.106 CG0
ATOM     16  G   UNL     1     255.239 255.621 248.738  1.00  0.00     0.000 G0
ENDBRANCH  13  15
ENDBRANCH  12  13
BRANCH  12  17
ATOM     17  C   UNL     1     250.655 254.853 247.100  1.00  0.00    -0.006 C 
ATOM     18  C   UNL     1     249.981 255.341 245.804  1.00  0.00     0.008 C 
ATOM     19  C   UNL     1     249.668 254.969 248.274  1.00  0.00     0.008 C 
ENDBRANCH  12  17
ENDBRANCH  11  12
ENDBRANCH   1  11
TORSDOF 1
ENDMDL
MODEL 6
REMARK VINA RESULT:    -3.858      2.335      4.342
REMARK INTER + INTRA:          -6.193
REMARK INTER:                  -6.077
REMARK INTRA:                  -0.116
REMARK UNBOUND:                -0.305
REMARK SMILES CC1=CCC[C@H](C)C(=O)C[C@@H](C(C)C)C(=O)C1
REMARK SMILES IDX 8 1 9 2 6 3 7 4 5 5 4 6 3 7 2 8 1 9 10 11 11 12 15 13 16 14
REMARK SMILES IDX 17 15 12 17 13 18 14 19
REMARK H PARENT
REMARK Flexibility Score: 70.00
ROOT
ATOM      1  C   UNL     1     251.098 254.526 246.500  1.00  0.00     0.136 C 
ATOM      2  O   UNL     1     252.063 253.808 246.726  1.00  0.00    -0.299 OA
ENDROOT
BRANCH   1   3
ATOM      3  C   UNL     1     249.697 253.955 246.616  1.00  0.00     0.053 C 
ATOM      4  C   UNL     1     249.697 252.462 246.257  1.00  0.00     0.016 C 
BRANCH   3   5
ATOM      5  C   UNL     1     249.136 254.180 248.039  1.00  0.00     0.015 C 
BRANCH   5   6
ATOM      6  C   UNL     1     247.704 254.749 248.001  1.00  0.00     0.028 C 
BRANCH   6   7
ATOM      7  C   UNL     1     247.436 255.606 246.788  1.00  0.00    -0.028 C 
ATOM      8  C   UNL     1     247.949 256.842 246.571  1.00  0.00    -0.070 CG0
ATOM      9  C   UNL     1     247.642 257.503 245.249  1.00  0.00     0.039 C 
ATOM     10  G   UNL     1     248.770 257.608 247.599  1.00  0.00     0.000 G0
ENDBRANCH   6   7
ENDBRANCH   5   6
ENDBRANCH   3   5
ENDBRANCH   1   3
BRANCH   1  11
ATOM     11  C   UNL     1     251.334 255.964 246.095  1.00  0.00     0.087 C 
BRANCH  11  12
ATOM     12  C   UNL     1     251.283 256.933 247.306  1.00  0.00     0.066 C 
BRANCH  12  13
ATOM     13  C   UNL     1     250.173 257.963 247.140  1.00  0.00     0.140 C 
ATOM     14  O   UNL     1     250.419 259.071 246.687  1.00  0.00    -0.299 OA
BRANCH  13  15
ATOM     15  C   UNL     1     248.770 257.638 247.595  1.00  0.00     0.106 CG0
ATOM     16  G   UNL     1     247.959 256.845 246.578  1.00  0.00     0.000 G0
ENDBRANCH  13  15
ENDBRANCH  12  13
BRANCH  12  17
ATOM     17  C   UNL     1     252.658 257.607 247.624  1.00  0.00    -0.006 C 
ATOM     18  C   UNL     1     253.612 257.676 246.416  1.00  0.00     0.008 C 
ATOM     19  C   UNL     1     253.363 256.916 248.803  1.00  0.00     0.008 C 
ENDBRANCH  12  17
ENDBRANCH  11  12
ENDBRANCH   1  11
TORSDOF 1
ENDMDL
MODEL 7
REMARK VINA RESULT:    -3.801      2.081      2.692
REMARK INTER + INTRA:          -6.106
REMARK INTER:                  -6.437
REMARK INTRA:                   0.331
REMARK UNBOUND:                -0.305
REMARK SMILES CC1=CCC[C@H](C)C(=O)C[C@@H](C(C)C)C(=O)C1
REMARK SMILES IDX 8 1 9 2 6 3 7 4 5 5 4 6 3 7 2 8 1 9 10 11 11 12 15 13 16 14
REMARK SMILES IDX 17 15 12 17 13 18 14 19
REMARK H PARENT
REMARK Flexibility Score: 70.00
ROOT
ATOM      1  C   UNL     1     249.069 256.829 246.156  1.00  0.00     0.136 C 
ATOM      2  O   UNL     1     249.514 256.229 245.186  1.00  0.00    -0.299 OA
ENDROOT
BRANCH   1   3
ATOM      3  C   UNL     1     247.585 256.756 246.464  1.00  0.00     0.053 C 
ATOM      4  C   UNL     1     246.763 257.213 245.251  1.00  0.00     0.016 C 
BRANCH   3   5
ATOM      5  C   UNL     1     247.190 255.322 246.889  1.00  0.00     0.015 C 
BRANCH   5   6
ATOM      6  C   UNL     1     247.634 255.016 248.333  1.00  0.00     0.028 C 
BRANCH   6   7
ATOM      7  C   UNL     1     248.722 253.974 248.413  1.00  0.00    -0.028 C 
ATOM      8  C   UNL     1     250.018 254.214 248.730  1.00  0.00    -0.070 CG0
ATOM      9  C   UNL     1     250.939 253.026 248.855  1.00  0.00     0.039 C 
ATOM     10  G   UNL     1     250.596 255.611 248.917  1.00  0.00     0.000 G0
ENDBRANCH   6   7
ENDBRANCH   5   6
ENDBRANCH   3   5
ENDBRANCH   1   3
BRANCH   1  11
ATOM     11  C   UNL     1     250.015 257.642 247.011  1.00  0.00     0.087 C 
BRANCH  11  12
ATOM     12  C   UNL     1     251.472 257.114 246.943  1.00  0.00     0.066 C 
BRANCH  12  13
ATOM     13  C   UNL     1     251.688 255.964 247.918  1.00  0.00     0.140 C 
ATOM     14  O   UNL     1     252.707 255.291 247.867  1.00  0.00    -0.299 OA
BRANCH  13  15
ATOM     15  C   UNL     1     250.612 255.611 248.916  1.00  0.00     0.106 CG0
ATOM     16  G   UNL     1     250.021 254.220 248.724  1.00  0.00     0.000 G0
ENDBRANCH  13  15
ENDBRANCH  12  13
BRANCH  12  17
ATOM     17  C   UNL     1     252.550 258.234 247.117  1.00  0.00    -0.006 C 
ATOM     18  C   UNL     1     251.989 259.663 246.993  1.00  0.00     0.008 C 
ATOM     19  C   UNL     1     253.719 258.048 246.135  1.00  0.00     0.008 C 
ENDBRANCH  12  17
ENDBRANCH  11  12
ENDBRANCH   1  11
TORSDOF 1
ENDMDL
MODEL 8
REMARK VINA RESULT:    -3.766      1.966      3.231
REMARK INTER + INTRA:          -6.052
REMARK INTER:                  -5.666
REMARK INTRA:                  -0.386
REMARK UNBOUND:                -0.305
REMARK SMILES CC1=CCC[C@H](C)C(=O)C[C@@H](C(C)C)C(=O)C1
REMARK SMILES IDX 8 1 9 2 6 3 7 4 5 5 4 6 3 7 2 8 1 9 10 11 11 12 15 13 16 14
REMARK SMILES IDX 17 15 12 17 13 18 14 19
REMARK H PARENT
REMARK Flexibility Score: 70.00
ROOT
ATOM      1  C   UNL     1     253.807 257.671 248.782  1.00  0.00     0.136 C 
ATOM      2  O   UNL     1     254.684 258.328 249.327  1.00  0.00    -0.299 OA
ENDROOT
BRANCH   1   3
ATOM      3  C   UNL     1     253.026 258.277 247.631  1.00  0.00     0.053 C 
ATOM      4  C   UNL     1     253.756 258.034 246.302  1.00  0.00     0.016 C 
BRANCH   3   5
ATOM      5  C   UNL     1     251.593 257.699 247.585  1.00  0.00     0.015 C 
BRANCH   5   6
ATOM      6  C   UNL     1     251.446 256.634 246.480  1.00  0.00     0.028 C 
BRANCH   6   7
ATOM      7  C   UNL     1     250.659 255.424 246.920  1.00  0.00    -0.028 C 
ATOM      8  C   UNL     1     251.187 254.214 247.228  1.00  0.00    -0.070 CG0
ATOM      9  C   UNL     1     250.246 253.152 247.743  1.00  0.00     0.039 C 
ATOM     10  G   UNL     1     252.657 253.860 247.038  1.00  0.00     0.000 G0
ENDBRANCH   6   7
ENDBRANCH   5   6
ENDBRANCH   3   5
ENDBRANCH   1   3
BRANCH   1  11
ATOM     11  C   UNL     1     253.516 256.275 249.286  1.00  0.00     0.087 C 
BRANCH  11  12
ATOM     12  C   UNL     1     254.330 255.194 248.526  1.00  0.00     0.066 C 
BRANCH  12  13
ATOM     13  C   UNL     1     253.491 253.947 248.277  1.00  0.00     0.140 C 
ATOM     14  O   UNL     1     253.530 253.008 249.059  1.00  0.00    -0.299 OA
BRANCH  13  15
ATOM     15  C   UNL     1     252.652 253.841 247.027  1.00  0.00     0.106 CG0
ATOM     16  G   UNL     1     251.192 254.226 247.228  1.00  0.00     0.000 G0
ENDBRANCH  13  15
ENDBRANCH  12  13
BRANCH  12  17
ATOM     17  C   UNL     1     255.696 254.850 249.205  1.00  0.00    -0.006 C 
ATOM     18  C   UNL     1     255.741 255.170 250.711  1.00  0.00     0.008 C 
ATOM     19  C   UNL     1     256.869 255.543 248.492  1.00  0.00     0.008 C 
ENDBRANCH  12  17
ENDBRANCH  11  12
ENDBRANCH   1  11
TORSDOF 1
ENDMDL
MODEL 9
REMARK VINA RESULT:    -3.733      2.020      4.209
REMARK INTER + INTRA:          -6.002
REMARK INTER:                  -5.820
REMARK INTRA:                  -0.181
REMARK UNBOUND:                -0.305
REMARK SMILES CC1=CCC[C@H](C)C(=O)C[C@@H](C(C)C)C(=O)C1
REMARK SMILES IDX 8 1 9 2 6 3 7 4 5 5 4 6 3 7 2 8 1 9 10 11 11 12 15 13 16 14
REMARK SMILES IDX 17 15 12 17 13 18 14 19
REMARK H PARENT
REMARK Flexibility Score: 70.00
ROOT
ATOM      1  C   UNL     1     254.761 256.680 248.015  1.00  0.00     0.136 C 
ATOM      2  O   UNL     1     255.296 257.725 248.362  1.00  0.00    -0.299 OA
ENDROOT
BRANCH   1   3
ATOM      3  C   UNL     1     255.142 255.382 248.701  1.00  0.00     0.053 C 
ATOM      4  C   UNL     1     256.654 255.141 248.590  1.00  0.00     0.016 C 
BRANCH   3   5
ATOM      5  C   UNL     1     254.694 255.400 250.182  1.00  0.00     0.015 C 
BRANCH   5   6
ATOM      6  C   UNL     1     253.599 254.351 250.455  1.00  0.00     0.028 C 
BRANCH   6   7
ATOM      7  C   UNL     1     253.447 253.343 249.343  1.00  0.00    -0.028 C 
ATOM      8  C   UNL     1     252.534 253.407 248.343  1.00  0.00    -0.070 CG0
ATOM      9  C   UNL     1     252.603 252.354 247.265  1.00  0.00     0.039 C 
ATOM     10  G   UNL     1     251.424 254.449 248.279  1.00  0.00     0.000 G0
ENDBRANCH   6   7
ENDBRANCH   5   6
ENDBRANCH   3   5
ENDBRANCH   1   3
BRANCH   1  11
ATOM     11  C   UNL     1     253.743 256.714 246.896  1.00  0.00     0.087 C 
BRANCH  11  12
ATOM     12  C   UNL     1     252.287 256.774 247.428  1.00  0.00     0.066 C 
BRANCH  12  13
ATOM     13  C   UNL     1     251.551 255.465 247.169  1.00  0.00     0.140 C 
ATOM     14  O   UNL     1     251.030 255.252 246.084  1.00  0.00    -0.299 OA
BRANCH  13  15
ATOM     15  C   UNL     1     251.411 254.449 248.276  1.00  0.00     0.106 CG0
ATOM     16  G   UNL     1     252.543 253.431 248.329  1.00  0.00     0.000 G0
ENDBRANCH  13  15
ENDBRANCH  12  13
BRANCH  12  17
ATOM     17  C   UNL     1     251.482 258.007 246.901  1.00  0.00    -0.006 C 
ATOM     18  C   UNL     1     252.248 259.340 246.998  1.00  0.00     0.008 C 
ATOM     19  C   UNL     1     250.123 258.137 247.610  1.00  0.00     0.008 C 
ENDBRANCH  12  17
ENDBRANCH  11  12
ENDBRANCH   1  11
TORSDOF 1
ENDMDL
