MODEL 1
REMARK VINA RESULT:    -5.395      0.000      0.000
REMARK INTER + INTRA:         -14.310
REMARK INTER:                 -12.333
REMARK INTRA:                  -1.977
REMARK UNBOUND:                -1.977
REMARK SMILES CCCCCCCCCCCCCCCCCCCCCCCC(=O)[O-]
REMARK SMILES IDX 13 1 14 2 15 3 16 4 17 5 18 6 19 7 20 8 21 9 22 10 23 11
REMARK SMILES IDX 24 12 25 13 26 14 12 15 11 16 10 17 9 18 8 19 7 20 6 21 5 22
REMARK SMILES IDX 4 23 3 24 2 25 1 26
REMARK H PARENT
REMARK Flexibility Score: inf
ROOT
ATOM      1  C   UNL     1      55.878  -1.438  15.730  1.00  0.00     0.000 C 
ENDROOT
BRANCH   1   2
ATOM      2  C   UNL     1      56.164  -0.547  16.948  1.00  0.00     0.000 C 
BRANCH   2   3
ATOM      3  C   UNL     1      57.571  -0.807  17.500  1.00  0.00     0.000 C 
BRANCH   3   4
ATOM      4  C   UNL     1      57.534  -1.027  19.017  1.00  0.00     0.000 C 
BRANCH   4   5
ATOM      5  C   UNL     1      56.110  -1.354  19.492  1.00  0.00     0.000 C 
BRANCH   5   6
ATOM      6  C   UNL     1      56.086  -2.346  20.669  1.00  0.00     0.000 C 
BRANCH   6   7
ATOM      7  C   UNL     1      57.471  -2.730  21.230  1.00  0.00     0.000 C 
BRANCH   7   8
ATOM      8  C   UNL     1      57.924  -4.167  20.919  1.00  0.00     0.000 C 
BRANCH   8   9
ATOM      9  C   UNL     1      59.112  -4.220  19.946  1.00  0.00     0.000 C 
BRANCH   9  10
ATOM     10  C   UNL     1      60.314  -3.450  20.504  1.00  0.00     0.006 C 
BRANCH  10  11
ATOM     11  C   UNL     1      60.931  -4.185  21.699  1.00  0.00     0.053 C 
BRANCH  11  12
ATOM     12  C   UNL     1      62.390  -4.423  21.476  1.00  0.00     0.041 C 
ATOM     13  O   UNL     1      63.215  -4.221  22.408  1.00  0.00    -0.550 OA
ATOM     14  O   UNL     1      62.839  -4.901  20.251  1.00  0.00    -0.550 OA
ENDBRANCH  11  12
ENDBRANCH  10  11
ENDBRANCH   9  10
ENDBRANCH   8   9
ENDBRANCH   7   8
ENDBRANCH   6   7
ENDBRANCH   5   6
ENDBRANCH   4   5
ENDBRANCH   3   4
ENDBRANCH   2   3
ENDBRANCH   1   2
BRANCH   1  15
ATOM     15  C   UNL     1      57.094  -1.578  14.800  1.00  0.00     0.000 C 
BRANCH  15  16
ATOM     16  C   UNL     1      57.154  -2.950  14.105  1.00  0.00     0.000 C 
BRANCH  16  17
ATOM     17  C   UNL     1      55.793  -3.673  14.108  1.00  0.00     0.000 C 
BRANCH  17  18
ATOM     18  C   UNL     1      54.901  -3.334  12.898  1.00  0.00    -0.000 C 
BRANCH  18  19
ATOM     19  C   UNL     1      53.503  -2.796  13.271  1.00  0.00    -0.000 C 
BRANCH  19  20
ATOM     20  C   UNL     1      52.356  -3.781  12.983  1.00  0.00    -0.000 C 
BRANCH  20  21
ATOM     21  C   UNL     1      51.255  -3.165  12.106  1.00  0.00    -0.000 C 
BRANCH  21  22
ATOM     22  C   UNL     1      51.762  -1.896  11.402  1.00  0.00    -0.000 C 
BRANCH  22  23
ATOM     23  C   UNL     1      51.903  -2.070   9.880  1.00  0.00    -0.000 C 
BRANCH  23  24
ATOM     24  C   UNL     1      52.940  -3.124   9.434  1.00  0.00    -0.000 C 
BRANCH  24  25
ATOM     25  C   UNL     1      52.345  -4.472   8.990  1.00  0.00    -0.003 C 
ATOM     26  C   UNL     1      52.318  -4.638   7.471  1.00  0.00     0.004 C 
ENDBRANCH  24  25
ENDBRANCH  23  24
ENDBRANCH  22  23
ENDBRANCH  21  22
ENDBRANCH  20  21
ENDBRANCH  19  20
ENDBRANCH  18  19
ENDBRANCH  17  18
ENDBRANCH  16  17
ENDBRANCH  15  16
ENDBRANCH   1  15
TORSDOF 22
ENDMDL
MODEL 2
REMARK VINA RESULT:    -5.184      4.448     10.243
REMARK INTER + INTRA:         -13.828
REMARK INTER:                 -10.427
REMARK INTRA:                  -3.401
REMARK UNBOUND:                -1.977
REMARK SMILES CCCCCCCCCCCCCCCCCCCCCCCC(=O)[O-]
REMARK SMILES IDX 13 1 14 2 15 3 16 4 17 5 18 6 19 7 20 8 21 9 22 10 23 11
REMARK SMILES IDX 24 12 25 13 26 14 12 15 11 16 10 17 9 18 8 19 7 20 6 21 5 22
REMARK SMILES IDX 4 23 3 24 2 25 1 26
REMARK H PARENT
REMARK Flexibility Score: inf
ROOT
ATOM      1  C   UNL     1      60.372  -3.429  20.561  1.00  0.00     0.000 C 
ENDROOT
BRANCH   1   2
ATOM      2  C   UNL     1      59.220  -4.203  19.902  1.00  0.00     0.000 C 
BRANCH   2   3
ATOM      3  C   UNL     1      58.004  -4.274  20.833  1.00  0.00     0.000 C 
BRANCH   3   4
ATOM      4  C   UNL     1      57.578  -2.874  21.288  1.00  0.00     0.000 C 
BRANCH   4   5
ATOM      5  C   UNL     1      56.167  -2.534  20.785  1.00  0.00     0.000 C 
BRANCH   5   6
ATOM      6  C   UNL     1      56.117  -1.213  19.997  1.00  0.00     0.000 C 
BRANCH   6   7
ATOM      7  C   UNL     1      57.454  -0.451  19.909  1.00  0.00     0.000 C 
BRANCH   7   8
ATOM      8  C   UNL     1      57.888  -0.054  18.487  1.00  0.00     0.000 C 
BRANCH   8   9
ATOM      9  C   UNL     1      57.959  -1.254  17.530  1.00  0.00     0.000 C 
BRANCH   9  10
ATOM     10  C   UNL     1      56.992  -1.076  16.354  1.00  0.00     0.006 C 
BRANCH  10  11
ATOM     11  C   UNL     1      57.636  -1.534  15.040  1.00  0.00     0.053 C 
BRANCH  11  12
ATOM     12  C   UNL     1      56.761  -2.526  14.342  1.00  0.00     0.041 C 
ATOM     13  O   UNL     1      57.274  -3.484  13.703  1.00  0.00    -0.550 OA
ATOM     14  O   UNL     1      55.379  -2.414  14.424  1.00  0.00    -0.550 OA
ENDBRANCH  11  12
ENDBRANCH  10  11
ENDBRANCH   9  10
ENDBRANCH   8   9
ENDBRANCH   7   8
ENDBRANCH   6   7
ENDBRANCH   5   6
ENDBRANCH   4   5
ENDBRANCH   3   4
ENDBRANCH   2   3
ENDBRANCH   1   2
BRANCH   1  15
ATOM     15  C   UNL     1      61.683  -4.231  20.593  1.00  0.00     0.000 C 
BRANCH  15  16
ATOM     16  C   UNL     1      62.111  -4.611  22.022  1.00  0.00     0.000 C 
BRANCH  16  17
ATOM     17  C   UNL     1      61.134  -4.082  23.090  1.00  0.00     0.000 C 
BRANCH  17  18
ATOM     18  C   UNL     1      61.759  -3.057  24.057  1.00  0.00    -0.000 C 
BRANCH  18  19
ATOM     19  C   UNL     1      61.572  -1.586  23.630  1.00  0.00    -0.000 C 
BRANCH  19  20
ATOM     20  C   UNL     1      60.221  -0.979  24.049  1.00  0.00    -0.000 C 
BRANCH  20  21
ATOM     21  C   UNL     1      59.535  -0.218  22.904  1.00  0.00    -0.000 C 
BRANCH  21  22
ATOM     22  C   UNL     1      58.501   0.778  23.451  1.00  0.00    -0.000 C 
BRANCH  22  23
ATOM     23  C   UNL     1      57.386   0.099  24.265  1.00  0.00    -0.000 C 
BRANCH  23  24
ATOM     24  C   UNL     1      56.060  -0.120  23.505  1.00  0.00    -0.000 C 
BRANCH  24  25
ATOM     25  C   UNL     1      54.912  -0.693  24.354  1.00  0.00    -0.003 C 
ATOM     26  C   UNL     1      53.754  -1.222  23.508  1.00  0.00     0.004 C 
ENDBRANCH  24  25
ENDBRANCH  23  24
ENDBRANCH  22  23
ENDBRANCH  21  22
ENDBRANCH  20  21
ENDBRANCH  19  20
ENDBRANCH  18  19
ENDBRANCH  17  18
ENDBRANCH  16  17
ENDBRANCH  15  16
ENDBRANCH   1  15
TORSDOF 22
ENDMDL
MODEL 3
REMARK VINA RESULT:    -5.110      1.861      3.931
REMARK INTER + INTRA:         -13.658
REMARK INTER:                 -11.050
REMARK INTRA:                  -2.608
REMARK UNBOUND:                -1.977
REMARK SMILES CCCCCCCCCCCCCCCCCCCCCCCC(=O)[O-]
REMARK SMILES IDX 13 1 14 2 15 3 16 4 17 5 18 6 19 7 20 8 21 9 22 10 23 11
REMARK SMILES IDX 24 12 25 13 26 14 12 15 11 16 10 17 9 18 8 19 7 20 6 21 5 22
REMARK SMILES IDX 4 23 3 24 2 25 1 26
REMARK H PARENT
REMARK Flexibility Score: inf
ROOT
ATOM      1  C   UNL     1      58.642   0.451  20.639  1.00  0.00     0.000 C 
ENDROOT
BRANCH   1   2
ATOM      2  C   UNL     1      57.521   1.405  21.078  1.00  0.00     0.000 C 
BRANCH   2   3
ATOM      3  C   UNL     1      56.440   0.654  21.866  1.00  0.00     0.000 C 
BRANCH   3   4
ATOM      4  C   UNL     1      56.816  -0.822  22.044  1.00  0.00     0.000 C 
BRANCH   4   5
ATOM      5  C   UNL     1      55.827  -1.736  21.305  1.00  0.00     0.000 C 
BRANCH   5   6
ATOM      6  C   UNL     1      56.463  -3.064  20.856  1.00  0.00     0.000 C 
BRANCH   6   7
ATOM      7  C   UNL     1      57.945  -3.244  21.242  1.00  0.00     0.000 C 
BRANCH   7   8
ATOM      8  C   UNL     1      58.777  -4.090  20.263  1.00  0.00     0.000 C 
BRANCH   8   9
ATOM      9  C   UNL     1      60.288  -3.982  20.516  1.00  0.00     0.000 C 
BRANCH   9  10
ATOM     10  C   UNL     1      60.573  -3.235  21.824  1.00  0.00     0.006 C 
BRANCH  10  11
ATOM     11  C   UNL     1      61.742  -3.878  22.579  1.00  0.00     0.053 C 
BRANCH  11  12
ATOM     12  C   UNL     1      61.248  -4.633  23.772  1.00  0.00     0.041 C 
ATOM     13  O   UNL     1      60.053  -5.031  23.820  1.00  0.00    -0.550 OA
ATOM     14  O   UNL     1      62.115  -4.929  24.817  1.00  0.00    -0.550 OA
ENDBRANCH  11  12
ENDBRANCH  10  11
ENDBRANCH   9  10
ENDBRANCH   8   9
ENDBRANCH   7   8
ENDBRANCH   6   7
ENDBRANCH   5   6
ENDBRANCH   4   5
ENDBRANCH   3   4
ENDBRANCH   2   3
ENDBRANCH   1   2
BRANCH   1  15
ATOM     15  C   UNL     1      58.822   0.412  19.113  1.00  0.00     0.000 C 
BRANCH  15  16
ATOM     16  C   UNL     1      58.416  -0.941  18.501  1.00  0.00     0.000 C 
BRANCH  16  17
ATOM     17  C   UNL     1      57.041  -0.884  17.807  1.00  0.00     0.000 C 
BRANCH  17  18
ATOM     18  C   UNL     1      57.080  -0.278  16.391  1.00  0.00    -0.000 C 
BRANCH  18  19
ATOM     19  C   UNL     1      57.566  -1.252  15.297  1.00  0.00    -0.000 C 
BRANCH  19  20
ATOM     20  C   UNL     1      56.439  -1.810  14.409  1.00  0.00    -0.000 C 
BRANCH  20  21
ATOM     21  C   UNL     1      56.661  -3.282  14.029  1.00  0.00    -0.000 C 
BRANCH  21  22
ATOM     22  C   UNL     1      55.320  -3.993  13.789  1.00  0.00    -0.000 C 
BRANCH  22  23
ATOM     23  C   UNL     1      54.232  -3.054  13.240  1.00  0.00    -0.000 C 
BRANCH  23  24
ATOM     24  C   UNL     1      53.817  -3.317  11.777  1.00  0.00    -0.000 C 
BRANCH  24  25
ATOM     25  C   UNL     1      52.563  -4.193  11.605  1.00  0.00    -0.003 C 
ATOM     26  C   UNL     1      51.468  -3.869  12.620  1.00  0.00     0.004 C 
ENDBRANCH  24  25
ENDBRANCH  23  24
ENDBRANCH  22  23
ENDBRANCH  21  22
ENDBRANCH  20  21
ENDBRANCH  19  20
ENDBRANCH  18  19
ENDBRANCH  17  18
ENDBRANCH  16  17
ENDBRANCH  15  16
ENDBRANCH   1  15
TORSDOF 22
ENDMDL
MODEL 4
REMARK VINA RESULT:    -5.077      4.048     11.305
REMARK INTER + INTRA:         -13.583
REMARK INTER:                 -10.408
REMARK INTRA:                  -3.175
REMARK UNBOUND:                -1.977
REMARK SMILES CCCCCCCCCCCCCCCCCCCCCCCC(=O)[O-]
REMARK SMILES IDX 13 1 14 2 15 3 16 4 17 5 18 6 19 7 20 8 21 9 22 10 23 11
REMARK SMILES IDX 24 12 25 13 26 14 12 15 11 16 10 17 9 18 8 19 7 20 6 21 5 22
REMARK SMILES IDX 4 23 3 24 2 25 1 26
REMARK H PARENT
REMARK Flexibility Score: inf
ROOT
ATOM      1  C   UNL     1      57.873  -3.860  20.872  1.00  0.00     0.000 C 
ENDROOT
BRANCH   1   2
ATOM      2  C   UNL     1      57.026  -2.590  20.703  1.00  0.00     0.000 C 
BRANCH   2   3
ATOM      3  C   UNL     1      57.243  -1.625  21.875  1.00  0.00     0.000 C 
BRANCH   3   4
ATOM      4  C   UNL     1      57.525  -0.204  21.373  1.00  0.00     0.000 C 
BRANCH   4   5
ATOM      5  C   UNL     1      58.782  -0.170  20.491  1.00  0.00     0.000 C 
BRANCH   5   6
ATOM      6  C   UNL     1      58.631   0.756  19.270  1.00  0.00     0.000 C 
BRANCH   6   7
ATOM      7  C   UNL     1      57.488   0.384  18.304  1.00  0.00     0.000 C 
BRANCH   7   8
ATOM      8  C   UNL     1      57.676  -0.946  17.553  1.00  0.00     0.000 C 
BRANCH   8   9
ATOM      9  C   UNL     1      57.291  -0.852  16.069  1.00  0.00     0.000 C 
BRANCH   9  10
ATOM     10  C   UNL     1      55.905  -1.457  15.821  1.00  0.00     0.006 C 
BRANCH  10  11
ATOM     11  C   UNL     1      55.523  -1.363  14.340  1.00  0.00     0.053 C 
BRANCH  11  12
ATOM     12  C   UNL     1      54.964  -2.663  13.856  1.00  0.00     0.041 C 
ATOM     13  O   UNL     1      53.791  -2.718  13.397  1.00  0.00    -0.550 OA
ATOM     14  O   UNL     1      55.749  -3.810  13.877  1.00  0.00    -0.550 OA
ENDBRANCH  11  12
ENDBRANCH  10  11
ENDBRANCH   9  10
ENDBRANCH   8   9
ENDBRANCH   7   8
ENDBRANCH   6   7
ENDBRANCH   5   6
ENDBRANCH   4   5
ENDBRANCH   3   4
ENDBRANCH   2   3
ENDBRANCH   1   2
BRANCH   1  15
ATOM     15  C   UNL     1      59.194  -3.800  20.090  1.00  0.00     0.000 C 
BRANCH  15  16
ATOM     16  C   UNL     1      60.426  -4.014  20.988  1.00  0.00     0.000 C 
BRANCH  16  17
ATOM     17  C   UNL     1      60.611  -2.879  22.014  1.00  0.00     0.000 C 
BRANCH  17  18
ATOM     18  C   UNL     1      60.424  -3.323  23.478  1.00  0.00    -0.000 C 
BRANCH  18  19
ATOM     19  C   UNL     1      60.001  -4.798  23.644  1.00  0.00    -0.000 C 
BRANCH  19  20
ATOM     20  C   UNL     1      60.791  -5.558  24.725  1.00  0.00    -0.000 C 
BRANCH  20  21
ATOM     21  C   UNL     1      61.772  -4.653  25.486  1.00  0.00    -0.000 C 
BRANCH  21  22
ATOM     22  C   UNL     1      63.224  -5.088  25.238  1.00  0.00    -0.000 C 
BRANCH  22  23
ATOM     23  C   UNL     1      63.347  -6.188  24.170  1.00  0.00    -0.000 C 
BRANCH  23  24
ATOM     24  C   UNL     1      63.985  -5.739  22.838  1.00  0.00    -0.000 C 
BRANCH  24  25
ATOM     25  C   UNL     1      63.995  -4.218  22.603  1.00  0.00    -0.003 C 
ATOM     26  C   UNL     1      64.200  -3.844  21.136  1.00  0.00     0.004 C 
ENDBRANCH  24  25
ENDBRANCH  23  24
ENDBRANCH  22  23
ENDBRANCH  21  22
ENDBRANCH  20  21
ENDBRANCH  19  20
ENDBRANCH  18  19
ENDBRANCH  17  18
ENDBRANCH  16  17
ENDBRANCH  15  16
ENDBRANCH   1  15
TORSDOF 22
ENDMDL
MODEL 5
REMARK VINA RESULT:    -5.050      2.350      5.126
REMARK INTER + INTRA:         -13.522
REMARK INTER:                 -10.666
REMARK INTRA:                  -2.856
REMARK UNBOUND:                -1.977
REMARK SMILES CCCCCCCCCCCCCCCCCCCCCCCC(=O)[O-]
REMARK SMILES IDX 13 1 14 2 15 3 16 4 17 5 18 6 19 7 20 8 21 9 22 10 23 11
REMARK SMILES IDX 24 12 25 13 26 14 12 15 11 16 10 17 9 18 8 19 7 20 6 21 5 22
REMARK SMILES IDX 4 23 3 24 2 25 1 26
REMARK H PARENT
REMARK Flexibility Score: inf
ROOT
ATOM      1  C   UNL     1      55.063  -3.067  13.015  1.00  0.00     0.000 C 
ENDROOT
BRANCH   1   2
ATOM      2  C   UNL     1      56.323  -3.540  13.755  1.00  0.00     0.000 C 
BRANCH   2   3
ATOM      3  C   UNL     1      56.964  -2.388  14.539  1.00  0.00     0.000 C 
BRANCH   3   4
ATOM      4  C   UNL     1      55.972  -1.234  14.728  1.00  0.00     0.000 C 
BRANCH   4   5
ATOM      5  C   UNL     1      55.314  -1.295  16.115  1.00  0.00     0.000 C 
BRANCH   5   6
ATOM      6  C   UNL     1      55.782  -0.164  17.048  1.00  0.00     0.000 C 
BRANCH   6   7
ATOM      7  C   UNL     1      57.259  -0.242  17.483  1.00  0.00     0.000 C 
BRANCH   7   8
ATOM      8  C   UNL     1      57.561  -1.274  18.584  1.00  0.00     0.000 C 
BRANCH   8   9
ATOM      9  C   UNL     1      56.436  -1.383  19.624  1.00  0.00     0.000 C 
BRANCH   9  10
ATOM     10  C   UNL     1      56.758  -2.453  20.672  1.00  0.00     0.006 C 
BRANCH  10  11
ATOM     11  C   UNL     1      58.255  -2.465  21.001  1.00  0.00     0.053 C 
BRANCH  11  12
ATOM     12  C   UNL     1      58.807  -3.852  20.900  1.00  0.00     0.041 C 
ATOM     13  O   UNL     1      59.120  -4.329  19.776  1.00  0.00    -0.550 OA
ATOM     14  O   UNL     1      59.009  -4.606  22.049  1.00  0.00    -0.550 OA
ENDBRANCH  11  12
ENDBRANCH  10  11
ENDBRANCH   9  10
ENDBRANCH   8   9
ENDBRANCH   7   8
ENDBRANCH   6   7
ENDBRANCH   5   6
ENDBRANCH   4   5
ENDBRANCH   3   4
ENDBRANCH   2   3
ENDBRANCH   1   2
BRANCH   1  15
ATOM     15  C   UNL     1      53.818  -3.892  13.378  1.00  0.00     0.000 C 
BRANCH  15  16
ATOM     16  C   UNL     1      52.950  -4.228  12.152  1.00  0.00     0.000 C 
BRANCH  16  17
ATOM     17  C   UNL     1      51.596  -3.492  12.169  1.00  0.00     0.000 C 
BRANCH  17  18
ATOM     18  C   UNL     1      51.393  -2.528  10.983  1.00  0.00    -0.000 C 
BRANCH  18  19
ATOM     19  C   UNL     1      52.339  -1.309  10.988  1.00  0.00    -0.000 C 
BRANCH  19  20
ATOM     20  C   UNL     1      51.989  -0.249  12.048  1.00  0.00    -0.000 C 
BRANCH  20  21
ATOM     21  C   UNL     1      53.236   0.381  12.688  1.00  0.00    -0.000 C 
BRANCH  21  22
ATOM     22  C   UNL     1      52.861   1.624  13.509  1.00  0.00    -0.000 C 
BRANCH  22  23
ATOM     23  C   UNL     1      53.440   1.598  14.935  1.00  0.00    -0.000 C 
BRANCH  23  24
ATOM     24  C   UNL     1      54.233   2.858  15.342  1.00  0.00    -0.000 C 
BRANCH  24  25
ATOM     25  C   UNL     1      55.335   3.280  14.353  1.00  0.00    -0.003 C 
ATOM     26  C   UNL     1      56.533   2.333  14.359  1.00  0.00     0.004 C 
ENDBRANCH  24  25
ENDBRANCH  23  24
ENDBRANCH  22  23
ENDBRANCH  21  22
ENDBRANCH  20  21
ENDBRANCH  19  20
ENDBRANCH  18  19
ENDBRANCH  17  18
ENDBRANCH  16  17
ENDBRANCH  15  16
ENDBRANCH   1  15
TORSDOF 22
ENDMDL
MODEL 6
REMARK VINA RESULT:    -5.047      4.441     11.287
REMARK INTER + INTRA:         -13.515
REMARK INTER:                 -11.887
REMARK INTRA:                  -1.629
REMARK UNBOUND:                -1.977
REMARK SMILES CCCCCCCCCCCCCCCCCCCCCCCC(=O)[O-]
REMARK SMILES IDX 13 1 14 2 15 3 16 4 17 5 18 6 19 7 20 8 21 9 22 10 23 11
REMARK SMILES IDX 24 12 25 13 26 14 12 15 11 16 10 17 9 18 8 19 7 20 6 21 5 22
REMARK SMILES IDX 4 23 3 24 2 25 1 26
REMARK H PARENT
REMARK Flexibility Score: inf
ROOT
ATOM      1  C   UNL     1      56.476  -1.460  15.483  1.00  0.00     0.000 C 
ENDROOT
BRANCH   1   2
ATOM      2  C   UNL     1      57.157  -2.357  14.438  1.00  0.00     0.000 C 
BRANCH   2   3
ATOM      3  C   UNL     1      56.280  -3.568  14.100  1.00  0.00     0.000 C 
BRANCH   3   4
ATOM      4  C   UNL     1      55.345  -3.258  12.925  1.00  0.00     0.000 C 
BRANCH   4   5
ATOM      5  C   UNL     1      53.926  -2.939  13.420  1.00  0.00     0.000 C 
BRANCH   5   6
ATOM      6  C   UNL     1      53.225  -1.863  12.570  1.00  0.00     0.000 C 
BRANCH   6   7
ATOM      7  C   UNL     1      51.948  -2.330  11.845  1.00  0.00     0.000 C 
BRANCH   7   8
ATOM      8  C   UNL     1      51.715  -3.852  11.848  1.00  0.00     0.000 C 
BRANCH   8   9
ATOM      9  C   UNL     1      52.455  -4.570  10.709  1.00  0.00     0.000 C 
BRANCH   9  10
ATOM     10  C   UNL     1      52.531  -3.685   9.460  1.00  0.00     0.006 C 
BRANCH  10  11
ATOM     11  C   UNL     1      52.630  -4.536   8.189  1.00  0.00     0.053 C 
BRANCH  11  12
ATOM     12  C   UNL     1      53.873  -4.203   7.426  1.00  0.00     0.041 C 
ATOM     13  O   UNL     1      53.800  -3.556   6.348  1.00  0.00    -0.550 OA
ATOM     14  O   UNL     1      55.115  -4.576   7.924  1.00  0.00    -0.550 OA
ENDBRANCH  11  12
ENDBRANCH  10  11
ENDBRANCH   9  10
ENDBRANCH   8   9
ENDBRANCH   7   8
ENDBRANCH   6   7
ENDBRANCH   5   6
ENDBRANCH   4   5
ENDBRANCH   3   4
ENDBRANCH   2   3
ENDBRANCH   1   2
BRANCH   1  15
ATOM     15  C   UNL     1      57.376  -1.175  16.696  1.00  0.00     0.000 C 
BRANCH  15  16
ATOM     16  C   UNL     1      56.613  -0.515  17.859  1.00  0.00     0.000 C 
BRANCH  16  17
ATOM     17  C   UNL     1      57.554   0.190  18.856  1.00  0.00     0.000 C 
BRANCH  17  18
ATOM     18  C   UNL     1      58.501  -0.767  19.607  1.00  0.00    -0.000 C 
BRANCH  18  19
ATOM     19  C   UNL     1      58.370  -0.712  21.143  1.00  0.00    -0.000 C 
BRANCH  19  20
ATOM     20  C   UNL     1      57.779  -1.990  21.767  1.00  0.00    -0.000 C 
BRANCH  20  21
ATOM     21  C   UNL     1      57.417  -3.049  20.714  1.00  0.00    -0.000 C 
BRANCH  21  22
ATOM     22  C   UNL     1      58.328  -4.279  20.840  1.00  0.00    -0.000 C 
BRANCH  22  23
ATOM     23  C   UNL     1      59.618  -4.159  20.010  1.00  0.00    -0.000 C 
BRANCH  23  24
ATOM     24  C   UNL     1      60.863  -3.699  20.798  1.00  0.00    -0.000 C 
BRANCH  24  25
ATOM     25  C   UNL     1      62.157  -4.468  20.476  1.00  0.00    -0.003 C 
ATOM     26  C   UNL     1      63.021  -4.720  21.710  1.00  0.00     0.004 C 
ENDBRANCH  24  25
ENDBRANCH  23  24
ENDBRANCH  22  23
ENDBRANCH  21  22
ENDBRANCH  20  21
ENDBRANCH  19  20
ENDBRANCH  18  19
ENDBRANCH  17  18
ENDBRANCH  16  17
ENDBRANCH  15  16
ENDBRANCH   1  15
TORSDOF 22
ENDMDL
MODEL 7
REMARK VINA RESULT:    -5.046      5.212      7.770
REMARK INTER + INTRA:         -13.513
REMARK INTER:                 -10.182
REMARK INTRA:                  -3.331
REMARK UNBOUND:                -1.977
REMARK SMILES CCCCCCCCCCCCCCCCCCCCCCCC(=O)[O-]
REMARK SMILES IDX 13 1 14 2 15 3 16 4 17 5 18 6 19 7 20 8 21 9 22 10 23 11
REMARK SMILES IDX 24 12 25 13 26 14 12 15 11 16 10 17 9 18 8 19 7 20 6 21 5 22
REMARK SMILES IDX 4 23 3 24 2 25 1 26
REMARK H PARENT
REMARK Flexibility Score: inf
ROOT
ATOM      1  C   UNL     1      52.753  -4.987  10.782  1.00  0.00     0.000 C 
ENDROOT
BRANCH   1   2
ATOM      2  C   UNL     1      51.896  -4.155  11.748  1.00  0.00     0.000 C 
BRANCH   2   3
ATOM      3  C   UNL     1      52.694  -3.772  12.999  1.00  0.00     0.000 C 
BRANCH   3   4
ATOM      4  C   UNL     1      54.140  -3.408  12.639  1.00  0.00     0.000 C 
BRANCH   4   5
ATOM      5  C   UNL     1      55.112  -3.858  13.740  1.00  0.00     0.000 C 
BRANCH   5   6
ATOM      6  C   UNL     1      56.529  -3.283  13.556  1.00  0.00     0.000 C 
BRANCH   6   7
ATOM      7  C   UNL     1      57.016  -2.367  14.697  1.00  0.00     0.000 C 
BRANCH   7   8
ATOM      8  C   UNL     1      55.950  -1.421  15.276  1.00  0.00     0.000 C 
BRANCH   8   9
ATOM      9  C   UNL     1      55.723  -0.175  14.406  1.00  0.00     0.000 C 
BRANCH   9  10
ATOM     10  C   UNL     1      56.899   0.800  14.526  1.00  0.00     0.006 C 
BRANCH  10  11
ATOM     11  C   UNL     1      56.439   2.244  14.296  1.00  0.00     0.053 C 
BRANCH  11  12
ATOM     12  C   UNL     1      57.222   2.877  13.189  1.00  0.00     0.041 C 
ATOM     13  O   UNL     1      58.199   3.627  13.453  1.00  0.00    -0.550 OA
ATOM     14  O   UNL     1      56.895   2.610  11.865  1.00  0.00    -0.550 OA
ENDBRANCH  11  12
ENDBRANCH  10  11
ENDBRANCH   9  10
ENDBRANCH   8   9
ENDBRANCH   7   8
ENDBRANCH   6   7
ENDBRANCH   5   6
ENDBRANCH   4   5
ENDBRANCH   3   4
ENDBRANCH   2   3
ENDBRANCH   1   2
BRANCH   1  15
ATOM     15  C   UNL     1      52.572  -4.566   9.315  1.00  0.00     0.000 C 
BRANCH  15  16
ATOM     16  C   UNL     1      53.298  -3.249   8.982  1.00  0.00     0.000 C 
BRANCH  16  17
ATOM     17  C   UNL     1      52.389  -2.247   8.242  1.00  0.00     0.000 C 
BRANCH  17  18
ATOM     18  C   UNL     1      51.674  -1.247   9.171  1.00  0.00    -0.000 C 
BRANCH  18  19
ATOM     19  C   UNL     1      52.587  -0.611  10.240  1.00  0.00    -0.000 C 
BRANCH  19  20
ATOM     20  C   UNL     1      51.948  -0.524  11.638  1.00  0.00    -0.000 C 
BRANCH  20  21
ATOM     21  C   UNL     1      52.805   0.276  12.631  1.00  0.00    -0.000 C 
BRANCH  21  22
ATOM     22  C   UNL     1      53.506   1.449  11.928  1.00  0.00    -0.000 C 
BRANCH  22  23
ATOM     23  C   UNL     1      53.018   2.822  12.421  1.00  0.00    -0.000 C 
BRANCH  23  24
ATOM     24  C   UNL     1      51.560   3.170  12.052  1.00  0.00    -0.000 C 
BRANCH  24  25
ATOM     25  C   UNL     1      51.198   2.963  10.570  1.00  0.00    -0.003 C 
ATOM     26  C   UNL     1      50.094   3.904  10.091  1.00  0.00     0.004 C 
ENDBRANCH  24  25
ENDBRANCH  23  24
ENDBRANCH  22  23
ENDBRANCH  21  22
ENDBRANCH  20  21
ENDBRANCH  19  20
ENDBRANCH  18  19
ENDBRANCH  17  18
ENDBRANCH  16  17
ENDBRANCH  15  16
ENDBRANCH   1  15
TORSDOF 22
ENDMDL
MODEL 8
REMARK VINA RESULT:    -5.033      2.377      3.969
REMARK INTER + INTRA:         -13.482
REMARK INTER:                 -10.996
REMARK INTRA:                  -2.485
REMARK UNBOUND:                -1.977
REMARK SMILES CCCCCCCCCCCCCCCCCCCCCCCC(=O)[O-]
REMARK SMILES IDX 13 1 14 2 15 3 16 4 17 5 18 6 19 7 20 8 21 9 22 10 23 11
REMARK SMILES IDX 24 12 25 13 26 14 12 15 11 16 10 17 9 18 8 19 7 20 6 21 5 22
REMARK SMILES IDX 4 23 3 24 2 25 1 26
REMARK H PARENT
REMARK Flexibility Score: inf
ROOT
ATOM      1  C   UNL     1      55.095  -3.151  12.978  1.00  0.00     0.000 C 
ENDROOT
BRANCH   1   2
ATOM      2  C   UNL     1      55.300  -2.074  14.054  1.00  0.00     0.000 C 
BRANCH   2   3
ATOM      3  C   UNL     1      56.539  -2.377  14.905  1.00  0.00     0.000 C 
BRANCH   3   4
ATOM      4  C   UNL     1      57.509  -1.189  14.905  1.00  0.00     0.000 C 
BRANCH   4   5
ATOM      5  C   UNL     1      57.059  -0.110  15.901  1.00  0.00     0.000 C 
BRANCH   5   6
ATOM      6  C   UNL     1      56.602  -0.695  17.250  1.00  0.00     0.000 C 
BRANCH   6   7
ATOM      7  C   UNL     1      57.139   0.038  18.496  1.00  0.00     0.000 C 
BRANCH   7   8
ATOM      8  C   UNL     1      58.501  -0.459  19.009  1.00  0.00     0.000 C 
BRANCH   8   9
ATOM      9  C   UNL     1      58.685  -1.975  18.839  1.00  0.00     0.000 C 
BRANCH   9  10
ATOM     10  C   UNL     1      59.084  -2.632  20.165  1.00  0.00     0.006 C 
BRANCH  10  11
ATOM     11  C   UNL     1      57.933  -3.473  20.729  1.00  0.00     0.053 C 
BRANCH  11  12
ATOM     12  C   UNL     1      56.825  -2.594  21.215  1.00  0.00     0.041 C 
ATOM     13  O   UNL     1      55.640  -2.800  20.838  1.00  0.00    -0.550 OA
ATOM     14  O   UNL     1      57.094  -1.567  22.112  1.00  0.00    -0.550 OA
ENDBRANCH  11  12
ENDBRANCH  10  11
ENDBRANCH   9  10
ENDBRANCH   8   9
ENDBRANCH   7   8
ENDBRANCH   6   7
ENDBRANCH   5   6
ENDBRANCH   4   5
ENDBRANCH   3   4
ENDBRANCH   2   3
ENDBRANCH   1   2
BRANCH   1  15
ATOM     15  C   UNL     1      53.974  -4.140  13.335  1.00  0.00     0.000 C 
BRANCH  15  16
ATOM     16  C   UNL     1      52.917  -4.264  12.223  1.00  0.00     0.000 C 
BRANCH  16  17
ATOM     17  C   UNL     1      51.537  -3.733  12.660  1.00  0.00     0.000 C 
BRANCH  17  18
ATOM     18  C   UNL     1      51.050  -2.515  11.850  1.00  0.00    -0.000 C 
BRANCH  18  19
ATOM     19  C   UNL     1      51.951  -1.269  11.977  1.00  0.00    -0.000 C 
BRANCH  19  20
ATOM     20  C   UNL     1      52.667  -0.878  10.670  1.00  0.00    -0.000 C 
BRANCH  20  21
ATOM     21  C   UNL     1      51.738  -0.157   9.681  1.00  0.00    -0.000 C 
BRANCH  21  22
ATOM     22  C   UNL     1      51.380  -1.073   8.500  1.00  0.00    -0.000 C 
BRANCH  22  23
ATOM     23  C   UNL     1      52.445  -2.152   8.234  1.00  0.00    -0.000 C 
BRANCH  23  24
ATOM     24  C   UNL     1      51.959  -3.607   8.407  1.00  0.00    -0.000 C 
BRANCH  24  25
ATOM     25  C   UNL     1      53.069  -4.631   8.703  1.00  0.00    -0.003 C 
ATOM     26  C   UNL     1      54.398  -4.277   8.037  1.00  0.00     0.004 C 
ENDBRANCH  24  25
ENDBRANCH  23  24
ENDBRANCH  22  23
ENDBRANCH  21  22
ENDBRANCH  20  21
ENDBRANCH  19  20
ENDBRANCH  18  19
ENDBRANCH  17  18
ENDBRANCH  16  17
ENDBRANCH  15  16
ENDBRANCH   1  15
TORSDOF 22
ENDMDL
MODEL 9
REMARK VINA RESULT:    -5.002      4.388     10.180
REMARK INTER + INTRA:         -13.412
REMARK INTER:                 -10.365
REMARK INTRA:                  -3.047
REMARK UNBOUND:                -1.977
REMARK SMILES CCCCCCCCCCCCCCCCCCCCCCCC(=O)[O-]
REMARK SMILES IDX 13 1 14 2 15 3 16 4 17 5 18 6 19 7 20 8 21 9 22 10 23 11
REMARK SMILES IDX 24 12 25 13 26 14 12 15 11 16 10 17 9 18 8 19 7 20 6 21 5 22
REMARK SMILES IDX 4 23 3 24 2 25 1 26
REMARK H PARENT
REMARK Flexibility Score: inf
ROOT
ATOM      1  C   UNL     1      54.314  -4.262   7.279  1.00  0.00     0.000 C 
ENDROOT
BRANCH   1   2
ATOM      2  C   UNL     1      52.945  -4.445   6.606  1.00  0.00     0.000 C 
BRANCH   2   3
ATOM      3  C   UNL     1      52.382  -3.099   6.134  1.00  0.00     0.000 C 
BRANCH   3   4
ATOM      4  C   UNL     1      50.917  -2.938   6.557  1.00  0.00     0.000 C 
BRANCH   4   5
ATOM      5  C   UNL     1      50.812  -2.422   8.000  1.00  0.00     0.000 C 
BRANCH   5   6
ATOM      6  C   UNL     1      51.802  -1.281   8.299  1.00  0.00     0.000 C 
BRANCH   6   7
ATOM      7  C   UNL     1      51.898  -0.869   9.781  1.00  0.00     0.000 C 
BRANCH   7   8
ATOM      8  C   UNL     1      52.268   0.604  10.027  1.00  0.00     0.000 C 
BRANCH   8   9
ATOM      9  C   UNL     1      51.967   1.063  11.462  1.00  0.00     0.000 C 
BRANCH   9  10
ATOM     10  C   UNL     1      53.257   1.194  12.278  1.00  0.00     0.006 C 
BRANCH  10  11
ATOM     11  C   UNL     1      52.949   1.337  13.773  1.00  0.00     0.053 C 
BRANCH  11  12
ATOM     12  C   UNL     1      54.188   1.145  14.588  1.00  0.00     0.041 C 
ATOM     13  O   UNL     1      54.113   0.670  15.753  1.00  0.00    -0.550 OA
ATOM     14  O   UNL     1      55.431   1.455  14.050  1.00  0.00    -0.550 OA
ENDBRANCH  11  12
ENDBRANCH  10  11
ENDBRANCH   9  10
ENDBRANCH   8   9
ENDBRANCH   7   8
ENDBRANCH   6   7
ENDBRANCH   5   6
ENDBRANCH   4   5
ENDBRANCH   3   4
ENDBRANCH   2   3
ENDBRANCH   1   2
BRANCH   1  15
ATOM     15  C   UNL     1      54.200  -3.982   8.786  1.00  0.00     0.000 C 
BRANCH  15  16
ATOM     16  C   UNL     1      53.038  -4.748   9.446  1.00  0.00     0.000 C 
BRANCH  16  17
ATOM     17  C   UNL     1      52.756  -4.265  10.882  1.00  0.00     0.000 C 
BRANCH  17  18
ATOM     18  C   UNL     1      53.858  -3.360  11.467  1.00  0.00    -0.000 C 
BRANCH  18  19
ATOM     19  C   UNL     1      53.434  -2.578  12.728  1.00  0.00    -0.000 C 
BRANCH  19  20
ATOM     20  C   UNL     1      54.568  -2.372  13.748  1.00  0.00    -0.000 C 
BRANCH  20  21
ATOM     21  C   UNL     1      55.549  -3.555  13.788  1.00  0.00    -0.000 C 
BRANCH  21  22
ATOM     22  C   UNL     1      56.978  -3.071  14.080  1.00  0.00    -0.000 C 
BRANCH  22  23
ATOM     23  C   UNL     1      57.023  -1.642  14.648  1.00  0.00    -0.000 C 
BRANCH  23  24
ATOM     24  C   UNL     1      57.301  -1.549  16.164  1.00  0.00    -0.000 C 
BRANCH  24  25
ATOM     25  C   UNL     1      57.351  -0.117  16.728  1.00  0.00    -0.003 C 
ATOM     26  C   UNL     1      57.749  -0.073  18.202  1.00  0.00     0.004 C 
ENDBRANCH  24  25
ENDBRANCH  23  24
ENDBRANCH  22  23
ENDBRANCH  21  22
ENDBRANCH  20  21
ENDBRANCH  19  20
ENDBRANCH  18  19
ENDBRANCH  17  18
ENDBRANCH  16  17
ENDBRANCH  15  16
ENDBRANCH   1  15
TORSDOF 22
ENDMDL
