MODEL 1
REMARK VINA RESULT:    -3.654      0.000      0.000
REMARK INTER + INTRA:          -4.377
REMARK INTER:                  -4.295
REMARK INTRA:                  -0.082
REMARK UNBOUND:                -0.082
REMARK SMILES CCCCC(=O)[O-]
REMARK SMILES IDX 4 1 5 2 6 3 7 4 3 5 2 6 1 7
REMARK H PARENT
REMARK Flexibility Score: inf
ROOT
ATOM      1  C   UNL     1      -0.802   4.970  10.021  1.00  0.00     0.053 C 
ENDROOT
BRANCH   1   2
ATOM      2  C   UNL     1      -0.702   6.123   9.072  1.00  0.00     0.041 C 
ATOM      3  O   UNL     1      -1.599   7.005   9.049  1.00  0.00    -0.550 OA
ATOM      4  O   UNL     1       0.359   6.196   8.177  1.00  0.00    -0.550 OA
ENDBRANCH   1   2
BRANCH   1   5
ATOM      5  C   UNL     1      -0.809   5.470  11.471  1.00  0.00     0.006 C 
BRANCH   5   6
ATOM      6  C   UNL     1       0.452   6.276  11.822  1.00  0.00    -0.003 C 
ATOM      7  C   UNL     1       0.428   6.818  13.250  1.00  0.00     0.004 C 
ENDBRANCH   5   6
ENDBRANCH   1   5
TORSDOF 3
ENDMDL
MODEL 2
REMARK VINA RESULT:    -3.644      8.136      8.793
REMARK INTER + INTRA:          -4.365
REMARK INTER:                  -4.290
REMARK INTRA:                  -0.076
REMARK UNBOUND:                -0.082
REMARK SMILES CCCCC(=O)[O-]
REMARK SMILES IDX 4 1 5 2 6 3 7 4 3 5 2 6 1 7
REMARK H PARENT
REMARK Flexibility Score: inf
ROOT
ATOM      1  C   UNL     1       6.656   8.438   5.533  1.00  0.00     0.053 C 
ENDROOT
BRANCH   1   2
ATOM      2  C   UNL     1       5.726   7.376   5.038  1.00  0.00     0.041 C 
ATOM      3  O   UNL     1       4.547   7.312   5.475  1.00  0.00    -0.550 OA
ATOM      4  O   UNL     1       6.177   6.424   4.132  1.00  0.00    -0.550 OA
ENDBRANCH   1   2
BRANCH   1   5
ATOM      5  C   UNL     1       7.988   7.821   5.974  1.00  0.00     0.006 C 
BRANCH   5   6
ATOM      6  C   UNL     1       7.838   6.915   7.206  1.00  0.00    -0.003 C 
ATOM      7  C   UNL     1       9.149   6.733   7.970  1.00  0.00     0.004 C 
ENDBRANCH   5   6
ENDBRANCH   1   5
TORSDOF 3
ENDMDL
MODEL 3
REMARK VINA RESULT:    -3.516      1.963      2.456
REMARK INTER + INTRA:          -4.215
REMARK INTER:                  -4.158
REMARK INTRA:                  -0.056
REMARK UNBOUND:                -0.082
REMARK SMILES CCCCC(=O)[O-]
REMARK SMILES IDX 4 1 5 2 6 3 7 4 3 5 2 6 1 7
REMARK H PARENT
REMARK Flexibility Score: inf
ROOT
ATOM      1  C   UNL     1       0.719   6.251  11.157  1.00  0.00     0.053 C 
ENDROOT
BRANCH   1   2
ATOM      2  C   UNL     1      -0.474   5.416  10.813  1.00  0.00     0.041 C 
ATOM      3  O   UNL     1      -1.460   5.367  11.594  1.00  0.00    -0.550 OA
ATOM      4  O   UNL     1      -0.476   4.651   9.653  1.00  0.00    -0.550 OA
ENDBRANCH   1   2
BRANCH   1   5
ATOM      5  C   UNL     1       0.581   6.823  12.573  1.00  0.00     0.006 C 
BRANCH   5   6
ATOM      6  C   UNL     1       1.192   8.227  12.704  1.00  0.00    -0.003 C 
ATOM      7  C   UNL     1       1.254   8.971  11.371  1.00  0.00     0.004 C 
ENDBRANCH   5   6
ENDBRANCH   1   5
TORSDOF 3
ENDMDL
MODEL 4
REMARK VINA RESULT:    -3.508      8.341      9.037
REMARK INTER + INTRA:          -4.206
REMARK INTER:                  -4.149
REMARK INTRA:                  -0.057
REMARK UNBOUND:                -0.082
REMARK SMILES CCCCC(=O)[O-]
REMARK SMILES IDX 4 1 5 2 6 3 7 4 3 5 2 6 1 7
REMARK H PARENT
REMARK Flexibility Score: inf
ROOT
ATOM      1  C   UNL     1       7.073   7.143   7.125  1.00  0.00     0.053 C 
ENDROOT
BRANCH   1   2
ATOM      2  C   UNL     1       7.230   7.952   5.876  1.00  0.00     0.041 C 
ATOM      3  O   UNL     1       8.365   8.091   5.350  1.00  0.00    -0.550 OA
ATOM      4  O   UNL     1       6.130   8.595   5.320  1.00  0.00    -0.550 OA
ENDBRANCH   1   2
BRANCH   1   5
ATOM      5  C   UNL     1       8.433   6.617   7.597  1.00  0.00     0.006 C 
BRANCH   5   6
ATOM      6  C   UNL     1       8.342   5.208   8.203  1.00  0.00    -0.003 C 
ATOM      7  C   UNL     1       7.098   4.447   7.746  1.00  0.00     0.004 C 
ENDBRANCH   5   6
ENDBRANCH   1   5
TORSDOF 3
ENDMDL
MODEL 5
REMARK VINA RESULT:    -3.460      8.929      9.585
REMARK INTER + INTRA:          -4.149
REMARK INTER:                  -4.120
REMARK INTRA:                  -0.030
REMARK UNBOUND:                -0.082
REMARK SMILES CCCCC(=O)[O-]
REMARK SMILES IDX 4 1 5 2 6 3 7 4 3 5 2 6 1 7
REMARK H PARENT
REMARK Flexibility Score: inf
ROOT
ATOM      1  C   UNL     1       8.810   6.295   7.815  1.00  0.00     0.053 C 
ENDROOT
BRANCH   1   2
ATOM      2  C   UNL     1       8.294   5.032   8.427  1.00  0.00     0.041 C 
ATOM      3  O   UNL     1       7.467   4.316   7.804  1.00  0.00    -0.550 OA
ATOM      4  O   UNL     1       8.689   4.669   9.710  1.00  0.00    -0.550 OA
ENDBRANCH   1   2
BRANCH   1   5
ATOM      5  C   UNL     1       7.658   7.105   7.208  1.00  0.00     0.006 C 
BRANCH   5   6
ATOM      6  C   UNL     1       8.074   7.858   5.934  1.00  0.00    -0.003 C 
ATOM      7  C   UNL     1       6.913   8.613   5.289  1.00  0.00     0.004 C 
ENDBRANCH   5   6
ENDBRANCH   1   5
TORSDOF 3
ENDMDL
MODEL 6
REMARK VINA RESULT:    -3.458      8.039      8.691
REMARK INTER + INTRA:          -4.147
REMARK INTER:                  -4.122
REMARK INTRA:                  -0.025
REMARK UNBOUND:                -0.082
REMARK SMILES CCCCC(=O)[O-]
REMARK SMILES IDX 4 1 5 2 6 3 7 4 3 5 2 6 1 7
REMARK H PARENT
REMARK Flexibility Score: inf
ROOT
ATOM      1  C   UNL     1       6.614   7.462   6.966  1.00  0.00     0.053 C 
ENDROOT
BRANCH   1   2
ATOM      2  C   UNL     1       5.918   8.531   6.185  1.00  0.00     0.041 C 
ATOM      3  O   UNL     1       6.275   8.790   5.006  1.00  0.00    -0.550 OA
ATOM      4  O   UNL     1       4.906   9.278   6.777  1.00  0.00    -0.550 OA
ENDBRANCH   1   2
BRANCH   1   5
ATOM      5  C   UNL     1       8.101   7.410   6.594  1.00  0.00     0.006 C 
BRANCH   5   6
ATOM      6  C   UNL     1       8.949   6.690   7.654  1.00  0.00    -0.003 C 
ATOM      7  C   UNL     1       8.297   5.403   8.157  1.00  0.00     0.004 C 
ENDBRANCH   5   6
ENDBRANCH   1   5
TORSDOF 3
ENDMDL
MODEL 7
REMARK VINA RESULT:    -3.422      2.936      3.907
REMARK INTER + INTRA:          -4.104
REMARK INTER:                  -4.059
REMARK INTRA:                  -0.045
REMARK UNBOUND:                -0.082
REMARK SMILES CCCCC(=O)[O-]
REMARK SMILES IDX 4 1 5 2 6 3 7 4 3 5 2 6 1 7
REMARK H PARENT
REMARK Flexibility Score: inf
ROOT
ATOM      1  C   UNL     1       0.495   6.991  12.732  1.00  0.00     0.053 C 
ENDROOT
BRANCH   1   2
ATOM      2  C   UNL     1       1.291   8.247  12.566  1.00  0.00     0.041 C 
ATOM      3  O   UNL     1       1.165   8.943  11.525  1.00  0.00    -0.550 OA
ATOM      4  O   UNL     1       2.209   8.623  13.539  1.00  0.00    -0.550 OA
ENDBRANCH   1   2
BRANCH   1   5
ATOM      5  C   UNL     1       0.521   6.166  11.440  1.00  0.00     0.006 C 
BRANCH   5   6
ATOM      6  C   UNL     1      -0.888   5.829  10.928  1.00  0.00    -0.003 C 
ATOM      7  C   UNL     1      -1.359   4.442  11.362  1.00  0.00     0.004 C 
ENDBRANCH   5   6
ENDBRANCH   1   5
TORSDOF 3
ENDMDL
MODEL 8
REMARK VINA RESULT:    -3.352      8.283      9.144
REMARK INTER + INTRA:          -4.022
REMARK INTER:                  -3.975
REMARK INTRA:                  -0.047
REMARK UNBOUND:                -0.082
REMARK SMILES CCCCC(=O)[O-]
REMARK SMILES IDX 4 1 5 2 6 3 7 4 3 5 2 6 1 7
REMARK H PARENT
REMARK Flexibility Score: inf
ROOT
ATOM      1  C   UNL     1       7.004   6.659   7.428  1.00  0.00     0.053 C 
ENDROOT
BRANCH   1   2
ATOM      2  C   UNL     1       7.151   5.184   7.631  1.00  0.00     0.041 C 
ATOM      3  O   UNL     1       8.221   4.712   8.097  1.00  0.00    -0.550 OA
ATOM      4  O   UNL     1       6.124   4.325   7.259  1.00  0.00    -0.550 OA
ENDBRANCH   1   2
BRANCH   1   5
ATOM      5  C   UNL     1       8.300   7.253   6.863  1.00  0.00     0.006 C 
BRANCH   5   6
ATOM      6  C   UNL     1       8.067   8.060   5.577  1.00  0.00    -0.003 C 
ATOM      7  C   UNL     1       6.621   8.530   5.428  1.00  0.00     0.004 C 
ENDBRANCH   5   6
ENDBRANCH   1   5
TORSDOF 3
ENDMDL
MODEL 9
REMARK VINA RESULT:    -3.291      1.319      1.779
REMARK INTER + INTRA:          -3.950
REMARK INTER:                  -3.864
REMARK INTRA:                  -0.086
REMARK UNBOUND:                -0.082
REMARK SMILES CCCCC(=O)[O-]
REMARK SMILES IDX 4 1 5 2 6 3 7 4 3 5 2 6 1 7
REMARK H PARENT
REMARK Flexibility Score: inf
ROOT
ATOM      1  C   UNL     1       0.844   5.421   9.648  1.00  0.00     0.053 C 
ENDROOT
BRANCH   1   2
ATOM      2  C   UNL     1       0.969   6.488   8.607  1.00  0.00     0.041 C 
ATOM      3  O   UNL     1       0.868   7.701   8.928  1.00  0.00    -0.550 OA
ATOM      4  O   UNL     1       1.148   6.142   7.273  1.00  0.00    -0.550 OA
ENDBRANCH   1   2
BRANCH   1   5
ATOM      5  C   UNL     1      -0.631   5.085   9.896  1.00  0.00     0.006 C 
BRANCH   5   6
ATOM      6  C   UNL     1      -1.058   5.345  11.349  1.00  0.00    -0.003 C 
ATOM      7  C   UNL     1      -0.052   6.200  12.118  1.00  0.00     0.004 C 
ENDBRANCH   5   6
ENDBRANCH   1   5
TORSDOF 3
ENDMDL
