MODEL 1
REMARK VINA RESULT:    -6.576      0.000      0.000
REMARK INTER + INTRA:          -7.881
REMARK INTER:                  -7.729
REMARK INTRA:                  -0.152
REMARK UNBOUND:                -0.152
REMARK SMILES O=C([O-])C=Cc1ccc(O)c(O)c1
REMARK SMILES IDX 6 1 13 2 7 3 11 4 8 5 9 6 5 7 4 8 2 9 1 10 3 11 12 12 10 14
REMARK H PARENT 12 13 10 15
REMARK Flexibility Score: inf
ROOT
ATOM      1  C   UNL     1     -16.031 -36.364 -12.617  1.00  0.00    -0.022 A 
ATOM      2  C   UNL     1     -14.875 -35.870 -13.256  1.00  0.00     0.058 A 
ATOM      3  C   UNL     1     -17.126 -36.751 -13.406  1.00  0.00     0.012 A 
ATOM      4  C   UNL     1     -14.830 -35.743 -14.652  1.00  0.00     0.157 A 
ATOM      5  C   UNL     1     -17.083 -36.624 -14.795  1.00  0.00     0.051 A 
ATOM      6  C   UNL     1     -15.942 -36.118 -15.424  1.00  0.00     0.157 A 
ENDROOT
BRANCH   1   7
ATOM      7  C   UNL     1     -16.122 -36.529 -11.145  1.00  0.00     0.010 C 
ATOM      8  C   UNL     1     -17.277 -36.699 -10.485  1.00  0.00     0.025 C 
BRANCH   8   9
ATOM      9  C   UNL     1     -17.328 -36.872  -9.024  1.00  0.00     0.064 C 
ATOM     10  O   UNL     1     -16.288 -37.125  -8.360  1.00  0.00    -0.545 OA
ATOM     11  O   UNL     1     -18.545 -36.751  -8.365  1.00  0.00    -0.545 OA
ENDBRANCH   8   9
ENDBRANCH   1   7
BRANCH   4  12
ATOM     12  O   UNL     1     -13.684 -35.249 -15.275  1.00  0.00    -0.504 OA
ATOM     13  H   UNL     1     -13.473 -35.462 -16.242  1.00  0.00     0.293 HD
ENDBRANCH   4  12
BRANCH   6  14
ATOM     14  O   UNL     1     -15.929 -36.000 -16.813  1.00  0.00    -0.504 OA
ATOM     15  H   UNL     1     -16.731 -36.244 -17.382  1.00  0.00     0.293 HD
ENDBRANCH   6  14
TORSDOF 4
ENDMDL
MODEL 2
REMARK VINA RESULT:    -6.392      1.406      6.311
REMARK INTER + INTRA:          -7.666
REMARK INTER:                  -7.525
REMARK INTRA:                  -0.141
REMARK UNBOUND:                -0.152
REMARK SMILES O=C([O-])C=Cc1ccc(O)c(O)c1
REMARK SMILES IDX 6 1 13 2 7 3 11 4 8 5 9 6 5 7 4 8 2 9 1 10 3 11 12 12 10 14
REMARK H PARENT 12 13 10 15
REMARK Flexibility Score: inf
ROOT
ATOM      1  C   UNL     1     -16.879 -36.796 -10.801  1.00  0.00    -0.022 A 
ATOM      2  C   UNL     1     -18.082 -36.666 -10.076  1.00  0.00     0.058 A 
ATOM      3  C   UNL     1     -15.660 -36.648 -10.120  1.00  0.00     0.012 A 
ATOM      4  C   UNL     1     -18.061 -36.369  -8.706  1.00  0.00     0.157 A 
ATOM      5  C   UNL     1     -15.638 -36.351  -8.756  1.00  0.00     0.051 A 
ATOM      6  C   UNL     1     -16.832 -36.207  -8.044  1.00  0.00     0.157 A 
ENDROOT
BRANCH   1   7
ATOM      7  C   UNL     1     -16.849 -37.122 -12.249  1.00  0.00     0.010 C 
ATOM      8  C   UNL     1     -16.090 -36.472 -13.142  1.00  0.00     0.025 C 
BRANCH   8   9
ATOM      9  C   UNL     1     -16.076 -36.831 -14.570  1.00  0.00     0.064 C 
ATOM     10  O   UNL     1     -17.144 -37.081 -15.191  1.00  0.00    -0.545 OA
ATOM     11  O   UNL     1     -14.865 -36.893 -15.246  1.00  0.00    -0.545 OA
ENDBRANCH   8   9
ENDBRANCH   1   7
BRANCH   4  12
ATOM     12  O   UNL     1     -19.255 -36.238  -7.998  1.00  0.00    -0.504 OA
ATOM     13  H   UNL     1     -20.070 -36.794  -8.227  1.00  0.00     0.293 HD
ENDBRANCH   4  12
BRANCH   6  14
ATOM     14  O   UNL     1     -16.779 -35.907  -6.684  1.00  0.00    -0.504 OA
ATOM     15  H   UNL     1     -17.033 -34.996  -6.322  1.00  0.00     0.293 HD
ENDBRANCH   6  14
TORSDOF 4
ENDMDL
MODEL 3
REMARK VINA RESULT:    -6.346      1.059      1.798
REMARK INTER + INTRA:          -7.611
REMARK INTER:                  -7.487
REMARK INTRA:                  -0.124
REMARK UNBOUND:                -0.152
REMARK SMILES O=C([O-])C=Cc1ccc(O)c(O)c1
REMARK SMILES IDX 6 1 13 2 7 3 11 4 8 5 9 6 5 7 4 8 2 9 1 10 3 11 12 12 10 14
REMARK H PARENT 12 13 10 15
REMARK Flexibility Score: inf
ROOT
ATOM      1  C   UNL     1     -15.393 -36.744 -12.786  1.00  0.00    -0.022 A 
ATOM      2  C   UNL     1     -16.384 -36.240 -13.654  1.00  0.00     0.058 A 
ATOM      3  C   UNL     1     -14.153 -37.125 -13.324  1.00  0.00     0.012 A 
ATOM      4  C   UNL     1     -16.145 -36.146 -15.032  1.00  0.00     0.157 A 
ATOM      5  C   UNL     1     -13.914 -37.033 -14.696  1.00  0.00     0.051 A 
ATOM      6  C   UNL     1     -14.904 -36.548 -15.556  1.00  0.00     0.157 A 
ENDROOT
BRANCH   1   7
ATOM      7  C   UNL     1     -15.594 -36.851 -11.319  1.00  0.00     0.010 C 
ATOM      8  C   UNL     1     -16.749 -36.560 -10.704  1.00  0.00     0.025 C 
BRANCH   8   9
ATOM      9  C   UNL     1     -16.916 -36.691  -9.247  1.00  0.00     0.064 C 
ATOM     10  O   UNL     1     -15.973 -36.426  -8.455  1.00  0.00    -0.545 OA
ATOM     11  O   UNL     1     -18.137 -37.112  -8.735  1.00  0.00    -0.545 OA
ENDBRANCH   8   9
ENDBRANCH   1   7
BRANCH   4  12
ATOM     12  O   UNL     1     -17.132 -35.650 -15.883  1.00  0.00    -0.504 OA
ATOM     13  H   UNL     1     -17.946 -35.164 -15.525  1.00  0.00     0.293 HD
ENDBRANCH   4  12
BRANCH   6  14
ATOM     14  O   UNL     1     -14.638 -36.470 -16.922  1.00  0.00    -0.504 OA
ATOM     15  H   UNL     1     -15.038 -35.747 -17.508  1.00  0.00     0.293 HD
ENDBRANCH   6  14
TORSDOF 4
ENDMDL
MODEL 4
REMARK VINA RESULT:    -6.141      1.129      5.761
REMARK INTER + INTRA:          -7.370
REMARK INTER:                  -7.246
REMARK INTRA:                  -0.124
REMARK UNBOUND:                -0.152
REMARK SMILES O=C([O-])C=Cc1ccc(O)c(O)c1
REMARK SMILES IDX 6 1 13 2 7 3 11 4 8 5 9 6 5 7 4 8 2 9 1 10 3 11 12 12 10 14
REMARK H PARENT 12 13 10 15
REMARK Flexibility Score: inf
ROOT
ATOM      1  C   UNL     1     -16.256 -36.742 -11.991  1.00  0.00    -0.022 A 
ATOM      2  C   UNL     1     -15.576 -36.450 -10.791  1.00  0.00     0.058 A 
ATOM      3  C   UNL     1     -17.622 -37.061 -11.934  1.00  0.00     0.012 A 
ATOM      4  C   UNL     1     -16.246 -36.502  -9.560  1.00  0.00     0.157 A 
ATOM      5  C   UNL     1     -18.291 -37.114 -10.710  1.00  0.00     0.051 A 
ATOM      6  C   UNL     1     -17.610 -36.840  -9.520  1.00  0.00     0.157 A 
ENDROOT
BRANCH   1   7
ATOM      7  C   UNL     1     -15.594 -36.688 -13.318  1.00  0.00     0.010 C 
ATOM      8  C   UNL     1     -14.881 -35.639 -13.752  1.00  0.00     0.025 C 
BRANCH   8   9
ATOM      9  C   UNL     1     -14.227 -35.626 -15.071  1.00  0.00     0.064 C 
ATOM     10  O   UNL     1     -12.984 -35.454 -15.182  1.00  0.00    -0.545 OA
ATOM     11  O   UNL     1     -14.994 -35.809 -16.215  1.00  0.00    -0.545 OA
ENDBRANCH   8   9
ENDBRANCH   1   7
BRANCH   4  12
ATOM     12  O   UNL     1     -15.565 -36.216  -8.378  1.00  0.00    -0.504 OA
ATOM     13  H   UNL     1     -14.851 -36.835  -8.014  1.00  0.00     0.293 HD
ENDBRANCH   4  12
BRANCH   6  14
ATOM     14  O   UNL     1     -18.302 -36.904  -8.312  1.00  0.00    -0.504 OA
ATOM     15  H   UNL     1     -18.423 -36.093  -7.716  1.00  0.00     0.293 HD
ENDBRANCH   6  14
TORSDOF 4
ENDMDL
MODEL 5
REMARK VINA RESULT:    -5.486      1.478      5.879
REMARK INTER + INTRA:          -6.601
REMARK INTER:                  -6.479
REMARK INTRA:                  -0.122
REMARK UNBOUND:                -0.152
REMARK SMILES O=C([O-])C=Cc1ccc(O)c(O)c1
REMARK SMILES IDX 6 1 13 2 7 3 11 4 8 5 9 6 5 7 4 8 2 9 1 10 3 11 12 12 10 14
REMARK H PARENT 12 13 10 15
REMARK Flexibility Score: inf
ROOT
ATOM      1  C   UNL     1     -15.814 -36.845 -12.002  1.00  0.00    -0.022 A 
ATOM      2  C   UNL     1     -17.202 -36.930 -12.238  1.00  0.00     0.058 A 
ATOM      3  C   UNL     1     -15.359 -36.716 -10.680  1.00  0.00     0.012 A 
ATOM      4  C   UNL     1     -18.112 -36.861 -11.174  1.00  0.00     0.157 A 
ATOM      5  C   UNL     1     -16.265 -36.646  -9.619  1.00  0.00     0.051 A 
ATOM      6  C   UNL     1     -17.640 -36.715  -9.858  1.00  0.00     0.157 A 
ENDROOT
BRANCH   1   7
ATOM      7  C   UNL     1     -14.811 -36.926 -13.093  1.00  0.00     0.010 C 
ATOM      8  C   UNL     1     -14.693 -36.008 -14.063  1.00  0.00     0.025 C 
BRANCH   8   9
ATOM      9  C   UNL     1     -13.677 -36.114 -15.123  1.00  0.00     0.064 C 
ATOM     10  O   UNL     1     -12.712 -35.306 -15.187  1.00  0.00    -0.545 OA
ATOM     11  O   UNL     1     -13.781 -37.125 -16.070  1.00  0.00    -0.545 OA
ENDBRANCH   8   9
ENDBRANCH   1   7
BRANCH   4  12
ATOM     12  O   UNL     1     -19.482 -36.943 -11.417  1.00  0.00    -0.504 OA
ATOM     13  H   UNL     1     -19.929 -36.379 -12.130  1.00  0.00     0.293 HD
ENDBRANCH   4  12
BRANCH   6  14
ATOM     14  O   UNL     1     -18.521 -36.640  -8.780  1.00  0.00    -0.504 OA
ATOM     15  H   UNL     1     -19.192 -37.372  -8.580  1.00  0.00     0.293 HD
ENDBRANCH   6  14
TORSDOF 4
ENDMDL
MODEL 6
REMARK VINA RESULT:    -4.857      1.390      2.247
REMARK INTER + INTRA:          -5.861
REMARK INTER:                  -5.723
REMARK INTRA:                  -0.138
REMARK UNBOUND:                -0.152
REMARK SMILES O=C([O-])C=Cc1ccc(O)c(O)c1
REMARK SMILES IDX 6 1 13 2 7 3 11 4 8 5 9 6 5 7 4 8 2 9 1 10 3 11 12 12 10 14
REMARK H PARENT 12 13 10 15
REMARK Flexibility Score: inf
ROOT
ATOM      1  C   UNL     1     -15.388 -35.974 -12.936  1.00  0.00    -0.022 A 
ATOM      2  C   UNL     1     -15.044 -36.785 -14.038  1.00  0.00     0.058 A 
ATOM      3  C   UNL     1     -14.863 -34.674 -12.864  1.00  0.00     0.012 A 
ATOM      4  C   UNL     1     -14.173 -36.311 -15.029  1.00  0.00     0.157 A 
ATOM      5  C   UNL     1     -13.994 -34.201 -13.850  1.00  0.00     0.051 A 
ATOM      6  C   UNL     1     -13.643 -35.013 -14.932  1.00  0.00     0.157 A 
ENDROOT
BRANCH   1   7
ATOM      7  C   UNL     1     -16.315 -36.426 -11.869  1.00  0.00     0.010 C 
ATOM      8  C   UNL     1     -15.996 -36.447 -10.566  1.00  0.00     0.025 C 
BRANCH   8   9
ATOM      9  C   UNL     1     -16.946 -36.890  -9.533  1.00  0.00     0.064 C 
ATOM     10  O   UNL     1     -18.153 -37.121  -9.811  1.00  0.00    -0.545 OA
ATOM     11  O   UNL     1     -16.503 -37.060  -8.227  1.00  0.00    -0.545 OA
ENDBRANCH   8   9
ENDBRANCH   1   7
BRANCH   4  12
ATOM     12  O   UNL     1     -13.836 -37.121 -16.112  1.00  0.00    -0.504 OA
ATOM     13  H   UNL     1     -13.471 -36.732 -16.973  1.00  0.00     0.293 HD
ENDBRANCH   4  12
BRANCH   6  14
ATOM     14  O   UNL     1     -12.772 -34.515 -15.899  1.00  0.00    -0.504 OA
ATOM     15  H   UNL     1     -12.368 -33.588 -15.835  1.00  0.00     0.293 HD
ENDBRANCH   6  14
TORSDOF 4
ENDMDL
MODEL 7
REMARK VINA RESULT:    -4.474     13.410     15.150
REMARK INTER + INTRA:          -5.410
REMARK INTER:                  -5.289
REMARK INTRA:                  -0.121
REMARK UNBOUND:                -0.152
REMARK SMILES O=C([O-])C=Cc1ccc(O)c(O)c1
REMARK SMILES IDX 6 1 13 2 7 3 11 4 8 5 9 6 5 7 4 8 2 9 1 10 3 11 12 12 10 14
REMARK H PARENT 12 13 10 15
REMARK Flexibility Score: inf
ROOT
ATOM      1  C   UNL     1      -9.163 -24.559  -8.346  1.00  0.00    -0.022 A 
ATOM      2  C   UNL     1      -8.879 -25.388  -7.241  1.00  0.00     0.058 A 
ATOM      3  C   UNL     1      -9.705 -23.285  -8.114  1.00  0.00     0.012 A 
ATOM      4  C   UNL     1      -9.157 -24.957  -5.936  1.00  0.00     0.157 A 
ATOM      5  C   UNL     1      -9.983 -22.855  -6.815  1.00  0.00     0.051 A 
ATOM      6  C   UNL     1      -9.715 -23.685  -5.723  1.00  0.00     0.157 A 
ENDROOT
BRANCH   1   7
ATOM      7  C   UNL     1      -8.876 -24.965  -9.744  1.00  0.00     0.010 C 
ATOM      8  C   UNL     1      -9.307 -26.112 -10.289  1.00  0.00     0.025 C 
BRANCH   8   9
ATOM      9  C   UNL     1      -9.013 -26.476 -11.685  1.00  0.00     0.064 C 
ATOM     10  O   UNL     1      -8.887 -27.681 -12.033  1.00  0.00    -0.545 OA
ATOM     11  O   UNL     1      -8.876 -25.474 -12.637  1.00  0.00    -0.545 OA
ENDBRANCH   8   9
ENDBRANCH   1   7
BRANCH   4  12
ATOM     12  O   UNL     1      -8.876 -25.784  -4.849  1.00  0.00    -0.504 OA
ATOM     13  H   UNL     1      -9.285 -26.708  -4.766  1.00  0.00     0.293 HD
ENDBRANCH   4  12
BRANCH   6  14
ATOM     14  O   UNL     1     -10.006 -23.230  -4.438  1.00  0.00    -0.504 OA
ATOM     15  H   UNL     1      -9.683 -23.715  -3.609  1.00  0.00     0.293 HD
ENDBRANCH   6  14
TORSDOF 4
ENDMDL
