MODEL 1
REMARK VINA RESULT:    -3.936      0.000      0.000
REMARK INTER + INTRA:          -5.870
REMARK INTER:                  -5.546
REMARK INTRA:                  -0.323
REMARK UNBOUND:                -0.323
REMARK SMILES CCCCCCCCC(=O)[O-]
REMARK SMILES IDX 6 1 7 2 8 3 9 4 10 5 11 6 5 7 4 8 3 9 2 10 1 11
REMARK H PARENT
REMARK Flexibility Score: inf
ROOT
ATOM      1  C   UNL     1      -5.701 -27.350  24.756  1.00  0.00     0.000 C 
ENDROOT
BRANCH   1   2
ATOM      2  C   UNL     1      -4.654 -27.639  25.842  1.00  0.00     0.006 C 
BRANCH   2   3
ATOM      3  C   UNL     1      -5.283 -27.764  27.236  1.00  0.00     0.053 C 
BRANCH   3   4
ATOM      4  C   UNL     1      -4.293 -28.242  28.253  1.00  0.00     0.041 C 
ATOM      5  O   UNL     1      -4.674 -28.941  29.229  1.00  0.00    -0.550 OA
ATOM      6  O   UNL     1      -2.943 -27.944  28.105  1.00  0.00    -0.550 OA
ENDBRANCH   3   4
ENDBRANCH   2   3
ENDBRANCH   1   2
BRANCH   1   7
ATOM      7  C   UNL     1      -6.963 -26.726  25.362  1.00  0.00     0.000 C 
BRANCH   7   8
ATOM      8  C   UNL     1      -8.224 -27.450  24.874  1.00  0.00    -0.000 C 
BRANCH   8   9
ATOM      9  C   UNL     1      -8.869 -28.257  26.011  1.00  0.00    -0.000 C 
BRANCH   9  10
ATOM     10  C   UNL     1     -10.318 -28.662  25.700  1.00  0.00    -0.003 C 
ATOM     11  C   UNL     1     -11.162 -28.850  26.959  1.00  0.00     0.004 C 
ENDBRANCH   9  10
ENDBRANCH   8   9
ENDBRANCH   7   8
ENDBRANCH   1   7
TORSDOF 7
ENDMDL
MODEL 2
REMARK VINA RESULT:    -3.712      1.601      2.258
REMARK INTER + INTRA:          -5.554
REMARK INTER:                  -5.218
REMARK INTRA:                  -0.336
REMARK UNBOUND:                -0.323
REMARK SMILES CCCCCCCCC(=O)[O-]
REMARK SMILES IDX 6 1 7 2 8 3 9 4 10 5 11 6 5 7 4 8 3 9 2 10 1 11
REMARK H PARENT
REMARK Flexibility Score: inf
ROOT
ATOM      1  C   UNL     1      -4.303 -27.988  24.778  1.00  0.00     0.000 C 
ENDROOT
BRANCH   1   2
ATOM      2  C   UNL     1      -3.715 -27.716  26.170  1.00  0.00     0.006 C 
BRANCH   2   3
ATOM      3  C   UNL     1      -4.777 -27.792  27.274  1.00  0.00     0.053 C 
BRANCH   3   4
ATOM      4  C   UNL     1      -4.247 -28.444  28.514  1.00  0.00     0.041 C 
ATOM      5  O   UNL     1      -3.011 -28.444  28.751  1.00  0.00    -0.550 OA
ATOM      6  O   UNL     1      -5.123 -29.023  29.425  1.00  0.00    -0.550 OA
ENDBRANCH   3   4
ENDBRANCH   2   3
ENDBRANCH   1   2
BRANCH   1   7
ATOM      7  C   UNL     1      -5.706 -27.381  24.645  1.00  0.00     0.000 C 
BRANCH   7   8
ATOM      8  C   UNL     1      -6.143 -27.321  23.177  1.00  0.00    -0.000 C 
BRANCH   8   9
ATOM      9  C   UNL     1      -7.375 -28.206  22.934  1.00  0.00    -0.000 C 
BRANCH   9  10
ATOM     10  C   UNL     1      -8.306 -28.271  24.154  1.00  0.00    -0.003 C 
ATOM     11  C   UNL     1      -9.578 -27.445  23.972  1.00  0.00     0.004 C 
ENDBRANCH   9  10
ENDBRANCH   8   9
ENDBRANCH   7   8
ENDBRANCH   1   7
TORSDOF 7
ENDMDL
MODEL 3
REMARK VINA RESULT:    -3.693      2.241      3.541
REMARK INTER + INTRA:          -5.528
REMARK INTER:                  -5.207
REMARK INTRA:                  -0.321
REMARK UNBOUND:                -0.323
REMARK SMILES CCCCCCCCC(=O)[O-]
REMARK SMILES IDX 6 1 7 2 8 3 9 4 10 5 11 6 5 7 4 8 3 9 2 10 1 11
REMARK H PARENT
REMARK Flexibility Score: inf
ROOT
ATOM      1  C   UNL     1      -4.784 -27.711  24.812  1.00  0.00     0.000 C 
ENDROOT
BRANCH   1   2
ATOM      2  C   UNL     1      -4.035 -27.849  26.146  1.00  0.00     0.006 C 
BRANCH   2   3
ATOM      3  C   UNL     1      -4.986 -27.830  27.349  1.00  0.00     0.053 C 
BRANCH   3   4
ATOM      4  C   UNL     1      -4.371 -28.470  28.556  1.00  0.00     0.041 C 
ATOM      5  O   UNL     1      -5.094 -29.073  29.392  1.00  0.00    -0.550 OA
ATOM      6  O   UNL     1      -2.994 -28.430  28.739  1.00  0.00    -0.550 OA
ENDBRANCH   3   4
ENDBRANCH   2   3
ENDBRANCH   1   2
BRANCH   1   7
ATOM      7  C   UNL     1      -5.985 -26.768  24.950  1.00  0.00     0.000 C 
BRANCH   7   8
ATOM      8  C   UNL     1      -7.143 -27.214  24.049  1.00  0.00    -0.000 C 
BRANCH   8   9
ATOM      9  C   UNL     1      -6.659 -27.453  22.611  1.00  0.00    -0.000 C 
BRANCH   9  10
ATOM     10  C   UNL     1      -6.294 -26.149  21.886  1.00  0.00    -0.003 C 
ATOM     11  C   UNL     1      -5.595 -26.391  20.549  1.00  0.00     0.004 C 
ENDBRANCH   9  10
ENDBRANCH   8   9
ENDBRANCH   7   8
ENDBRANCH   1   7
TORSDOF 7
ENDMDL
MODEL 4
REMARK VINA RESULT:    -3.513      1.413      1.843
REMARK INTER + INTRA:          -5.274
REMARK INTER:                  -4.679
REMARK INTRA:                  -0.595
REMARK UNBOUND:                -0.323
REMARK SMILES CCCCCCCCC(=O)[O-]
REMARK SMILES IDX 6 1 7 2 8 3 9 4 10 5 11 6 5 7 4 8 3 9 2 10 1 11
REMARK H PARENT
REMARK Flexibility Score: inf
ROOT
ATOM      1  C   UNL     1      -6.741 -26.494  25.197  1.00  0.00     0.000 C 
ENDROOT
BRANCH   1   2
ATOM      2  C   UNL     1      -5.828 -27.101  26.273  1.00  0.00     0.006 C 
BRANCH   2   3
ATOM      3  C   UNL     1      -4.701 -27.948  25.668  1.00  0.00     0.053 C 
BRANCH   3   4
ATOM      4  C   UNL     1      -3.366 -27.597  26.250  1.00  0.00     0.041 C 
ATOM      5  O   UNL     1      -3.126 -27.821  27.466  1.00  0.00    -0.550 OA
ATOM      6  O   UNL     1      -2.376 -27.053  25.441  1.00  0.00    -0.550 OA
ENDBRANCH   3   4
ENDBRANCH   2   3
ENDBRANCH   1   2
BRANCH   1   7
ATOM      7  C   UNL     1      -6.777 -27.379  23.945  1.00  0.00     0.000 C 
BRANCH   7   8
ATOM      8  C   UNL     1      -8.000 -28.304  23.959  1.00  0.00    -0.000 C 
BRANCH   8   9
ATOM      9  C   UNL     1      -9.134 -27.702  24.803  1.00  0.00    -0.000 C 
BRANCH   9  10
ATOM     10  C   UNL     1      -9.772 -28.727  25.752  1.00  0.00    -0.003 C 
ATOM     11  C   UNL     1      -9.127 -28.732  27.138  1.00  0.00     0.004 C 
ENDBRANCH   9  10
ENDBRANCH   8   9
ENDBRANCH   7   8
ENDBRANCH   1   7
TORSDOF 7
ENDMDL
MODEL 5
REMARK VINA RESULT:    -3.404      1.931      3.598
REMARK INTER + INTRA:          -5.121
REMARK INTER:                  -4.605
REMARK INTRA:                  -0.516
REMARK UNBOUND:                -0.323
REMARK SMILES CCCCCCCCC(=O)[O-]
REMARK SMILES IDX 6 1 7 2 8 3 9 4 10 5 11 6 5 7 4 8 3 9 2 10 1 11
REMARK H PARENT
REMARK Flexibility Score: inf
ROOT
ATOM      1  C   UNL     1      -6.416 -26.350  25.370  1.00  0.00     0.000 C 
ENDROOT
BRANCH   1   2
ATOM      2  C   UNL     1      -5.290 -27.275  25.858  1.00  0.00     0.006 C 
BRANCH   2   3
ATOM      3  C   UNL     1      -5.583 -27.864  27.244  1.00  0.00     0.053 C 
BRANCH   3   4
ATOM      4  C   UNL     1      -4.325 -28.178  27.994  1.00  0.00     0.041 C 
ATOM      5  O   UNL     1      -4.377 -28.811  29.081  1.00  0.00    -0.550 OA
ATOM      6  O   UNL     1      -3.093 -27.801  27.474  1.00  0.00    -0.550 OA
ENDBRANCH   3   4
ENDBRANCH   2   3
ENDBRANCH   1   2
BRANCH   1   7
ATOM      7  C   UNL     1      -7.523 -27.153  24.675  1.00  0.00     0.000 C 
BRANCH   7   8
ATOM      8  C   UNL     1      -6.984 -27.872  23.432  1.00  0.00    -0.000 C 
BRANCH   8   9
ATOM      9  C   UNL     1      -6.480 -26.863  22.389  1.00  0.00    -0.000 C 
BRANCH   9  10
ATOM     10  C   UNL     1      -5.337 -27.424  21.530  1.00  0.00    -0.003 C 
ATOM     11  C   UNL     1      -4.217 -28.043  22.366  1.00  0.00     0.004 C 
ENDBRANCH   9  10
ENDBRANCH   8   9
ENDBRANCH   7   8
ENDBRANCH   1   7
TORSDOF 7
ENDMDL
MODEL 6
REMARK VINA RESULT:    -3.205      9.742     11.337
REMARK INTER + INTRA:          -4.840
REMARK INTER:                  -4.514
REMARK INTRA:                  -0.327
REMARK UNBOUND:                -0.323
REMARK SMILES CCCCCCCCC(=O)[O-]
REMARK SMILES IDX 6 1 7 2 8 3 9 4 10 5 11 6 5 7 4 8 3 9 2 10 1 11
REMARK H PARENT
REMARK Flexibility Score: inf
ROOT
ATOM      1  C   UNL     1     -12.965 -20.318  20.404  1.00  0.00     0.000 C 
ENDROOT
BRANCH   1   2
ATOM      2  C   UNL     1     -13.401 -20.479  21.868  1.00  0.00     0.006 C 
BRANCH   2   3
ATOM      3  C   UNL     1     -12.297 -21.091  22.739  1.00  0.00     0.053 C 
BRANCH   3   4
ATOM      4  C   UNL     1     -12.855 -22.002  23.789  1.00  0.00     0.041 C 
ATOM      5  O   UNL     1     -12.101 -22.486  24.674  1.00  0.00    -0.550 OA
ATOM      6  O   UNL     1     -14.214 -22.288  23.811  1.00  0.00    -0.550 OA
ENDBRANCH   3   4
ENDBRANCH   2   3
ENDBRANCH   1   2
BRANCH   1   7
ATOM      7  C   UNL     1     -12.172 -19.020  20.207  1.00  0.00     0.000 C 
BRANCH   7   8
ATOM      8  C   UNL     1     -10.892 -19.274  19.402  1.00  0.00    -0.000 C 
BRANCH   8   9
ATOM      9  C   UNL     1      -9.709 -19.581  20.333  1.00  0.00    -0.000 C 
BRANCH   9  10
ATOM     10  C   UNL     1      -8.364 -19.125  19.749  1.00  0.00    -0.003 C 
ATOM     11  C   UNL     1      -7.316 -18.847  20.826  1.00  0.00     0.004 C 
ENDBRANCH   9  10
ENDBRANCH   8   9
ENDBRANCH   7   8
ENDBRANCH   1   7
TORSDOF 7
ENDMDL
MODEL 7
REMARK VINA RESULT:    -3.178     17.108     18.247
REMARK INTER + INTRA:          -4.802
REMARK INTER:                  -4.354
REMARK INTRA:                  -0.447
REMARK UNBOUND:                -0.323
REMARK SMILES CCCCCCCCC(=O)[O-]
REMARK SMILES IDX 6 1 7 2 8 3 9 4 10 5 11 6 5 7 4 8 3 9 2 10 1 11
REMARK H PARENT
REMARK Flexibility Score: inf
ROOT
ATOM      1  C   UNL     1     -18.373 -15.228  24.540  1.00  0.00     0.000 C 
ENDROOT
BRANCH   1   2
ATOM      2  C   UNL     1     -18.368 -14.692  23.100  1.00  0.00     0.006 C 
BRANCH   2   3
ATOM      3  C   UNL     1     -17.878 -13.240  23.022  1.00  0.00     0.053 C 
BRANCH   3   4
ATOM      4  C   UNL     1     -18.862 -12.287  23.629  1.00  0.00     0.041 C 
ATOM      5  O   UNL     1     -19.994 -12.124  23.104  1.00  0.00    -0.550 OA
ATOM      6  O   UNL     1     -18.539 -11.603  24.796  1.00  0.00    -0.550 OA
ENDBRANCH   3   4
ENDBRANCH   2   3
ENDBRANCH   1   2
BRANCH   1   7
ATOM      7  C   UNL     1     -17.564 -16.526  24.646  1.00  0.00     0.000 C 
BRANCH   7   8
ATOM      8  C   UNL     1     -16.437 -16.391  25.677  1.00  0.00    -0.000 C 
BRANCH   8   9
ATOM      9  C   UNL     1     -16.218 -14.919  26.060  1.00  0.00    -0.000 C 
BRANCH   9  10
ATOM     10  C   UNL     1     -15.475 -14.761  27.395  1.00  0.00    -0.003 C 
ATOM     11  C   UNL     1     -14.670 -16.004  27.774  1.00  0.00     0.004 C 
ENDBRANCH   9  10
ENDBRANCH   8   9
ENDBRANCH   7   8
ENDBRANCH   1   7
TORSDOF 7
ENDMDL
MODEL 8
REMARK VINA RESULT:    -3.173     15.995     17.077
REMARK INTER + INTRA:          -4.795
REMARK INTER:                  -4.551
REMARK INTRA:                  -0.244
REMARK UNBOUND:                -0.323
REMARK SMILES CCCCCCCCC(=O)[O-]
REMARK SMILES IDX 6 1 7 2 8 3 9 4 10 5 11 6 5 7 4 8 3 9 2 10 1 11
REMARK H PARENT
REMARK Flexibility Score: inf
ROOT
ATOM      1  C   UNL     1     -16.473 -15.705  26.008  1.00  0.00     0.000 C 
ENDROOT
BRANCH   1   2
ATOM      2  C   UNL     1     -16.404 -14.175  26.131  1.00  0.00     0.006 C 
BRANCH   2   3
ATOM      3  C   UNL     1     -16.805 -13.469  24.830  1.00  0.00     0.053 C 
BRANCH   3   4
ATOM      4  C   UNL     1     -18.171 -12.860  24.924  1.00  0.00     0.041 C 
ATOM      5  O   UNL     1     -18.539 -11.998  24.084  1.00  0.00    -0.550 OA
ATOM      6  O   UNL     1     -19.048 -13.270  25.920  1.00  0.00    -0.550 OA
ENDBRANCH   3   4
ENDBRANCH   2   3
ENDBRANCH   1   2
BRANCH   1   7
ATOM      7  C   UNL     1     -15.238 -16.363  26.634  1.00  0.00     0.000 C 
BRANCH   7   8
ATOM      8  C   UNL     1     -14.757 -15.577  27.860  1.00  0.00    -0.000 C 
BRANCH   8   9
ATOM      9  C   UNL     1     -13.959 -16.479  28.813  1.00  0.00    -0.000 C 
BRANCH   9  10
ATOM     10  C   UNL     1     -12.486 -16.058  28.930  1.00  0.00    -0.003 C 
ATOM     11  C   UNL     1     -11.687 -16.960  29.871  1.00  0.00     0.004 C 
ENDBRANCH   9  10
ENDBRANCH   8   9
ENDBRANCH   7   8
ENDBRANCH   1   7
TORSDOF 7
ENDMDL
MODEL 9
REMARK VINA RESULT:    -3.132     16.679     17.748
REMARK INTER + INTRA:          -4.737
REMARK INTER:                  -4.319
REMARK INTRA:                  -0.418
REMARK UNBOUND:                -0.323
REMARK SMILES CCCCCCCCC(=O)[O-]
REMARK SMILES IDX 6 1 7 2 8 3 9 4 10 5 11 6 5 7 4 8 3 9 2 10 1 11
REMARK H PARENT
REMARK Flexibility Score: inf
ROOT
ATOM      1  C   UNL     1     -17.049 -15.467  25.317  1.00  0.00     0.000 C 
ENDROOT
BRANCH   1   2
ATOM      2  C   UNL     1     -17.828 -14.937  24.105  1.00  0.00     0.006 C 
BRANCH   2   3
ATOM      3  C   UNL     1     -17.463 -13.486  23.769  1.00  0.00     0.053 C 
BRANCH   3   4
ATOM      4  C   UNL     1     -18.634 -12.565  23.928  1.00  0.00     0.041 C 
ATOM      5  O   UNL     1     -18.592 -11.625  24.764  1.00  0.00    -0.550 OA
ATOM      6  O   UNL     1     -19.759 -12.725  23.127  1.00  0.00    -0.550 OA
ENDBRANCH   3   4
ENDBRANCH   2   3
ENDBRANCH   1   2
BRANCH   1   7
ATOM      7  C   UNL     1     -16.539 -14.314  26.189  1.00  0.00     0.000 C 
BRANCH   7   8
ATOM      8  C   UNL     1     -15.430 -14.788  27.136  1.00  0.00    -0.000 C 
BRANCH   8   9
ATOM      9  C   UNL     1     -15.185 -16.297  26.984  1.00  0.00    -0.000 C 
BRANCH   9  10
ATOM     10  C   UNL     1     -15.269 -17.048  28.321  1.00  0.00    -0.003 C 
ATOM     11  C   UNL     1     -16.619 -17.735  28.530  1.00  0.00     0.004 C 
ENDBRANCH   9  10
ENDBRANCH   8   9
ENDBRANCH   7   8
ENDBRANCH   1   7
TORSDOF 7
ENDMDL
