MODEL 1
REMARK VINA RESULT:    -4.870      0.000      0.000
REMARK INTER + INTRA:          -4.870
REMARK INTER:                  -4.870
REMARK INTRA:                   0.000
REMARK UNBOUND:                 0.000
REMARK SMILES C=C1CCC[C@@]2(C)CC(=O)C(=C(C)C)C[C@@H]12
REMARK SMILES IDX 13 1 12 2 11 3 15 4 16 5 2 6 1 7 3 8 4 9 5 10 6 11 8 12 9 13
REMARK SMILES IDX 10 14 7 15 14 16
REMARK H PARENT
REMARK Flexibility Score: inf
ROOT
ATOM      1  C   UNL     1       1.745 -18.255  14.113  1.00  0.00     0.039 C 
ATOM      2  C   UNL     1       3.006 -17.466  13.844  1.00  0.00    -0.070 C 
ATOM      3  C   UNL     1       3.078 -16.575  12.813  1.00  0.00    -0.006 C 
ATOM      4  C   UNL     1       1.907 -16.319  11.886  1.00  0.00     0.047 C 
ATOM      5  C   UNL     1       2.334 -16.012  10.427  1.00  0.00     0.025 C 
ATOM      6  C   UNL     1       1.114 -15.539   9.653  1.00  0.00    -0.073 C 
ATOM      7  C   UNL     1       0.427 -16.390   8.876  1.00  0.00     0.008 C 
ATOM      8  C   UNL     1       0.596 -14.136   9.896  1.00  0.00     0.031 C 
ATOM      9  C   UNL     1       1.732 -13.103   9.881  1.00  0.00     0.005 C 
ATOM     10  C   UNL     1       2.950 -13.545  10.713  1.00  0.00     0.008 C 
ATOM     11  C   UNL     1       3.478 -14.954  10.312  1.00  0.00    -0.018 C 
ATOM     12  C   UNL     1       4.674 -15.354  11.217  1.00  0.00     0.088 C 
ATOM     13  C   UNL     1       4.251 -15.696  12.610  1.00  0.00     0.159 C 
ATOM     14  O   UNL     1       4.899 -15.229  13.585  1.00  0.00    -0.295 OA
ATOM     15  C   UNL     1       4.012 -14.920   8.854  1.00  0.00     0.012 C 
ATOM     16  C   UNL     1       4.194 -17.735  14.738  1.00  0.00     0.039 C 
ENDROOT
TORSDOF 0
ENDMDL
MODEL 2
REMARK VINA RESULT:    -4.857      2.125      3.151
REMARK INTER + INTRA:          -4.857
REMARK INTER:                  -4.857
REMARK INTRA:                   0.000
REMARK UNBOUND:                 0.000
REMARK SMILES C=C1CCC[C@@]2(C)CC(=O)C(=C(C)C)C[C@@H]12
REMARK SMILES IDX 13 1 12 2 11 3 15 4 16 5 2 6 1 7 3 8 4 9 5 10 6 11 8 12 9 13
REMARK SMILES IDX 10 14 7 15 14 16
REMARK H PARENT
REMARK Flexibility Score: inf
ROOT
ATOM      1  C   UNL     1       0.381 -12.375  14.044  1.00  0.00     0.039 C 
ATOM      2  C   UNL     1       0.948 -13.775  14.073  1.00  0.00    -0.070 C 
ATOM      3  C   UNL     1       1.474 -14.349  12.953  1.00  0.00    -0.006 C 
ATOM      4  C   UNL     1       1.525 -13.625  11.623  1.00  0.00     0.047 C 
ATOM      5  C   UNL     1       1.339 -14.564  10.403  1.00  0.00     0.025 C 
ATOM      6  C   UNL     1       1.647 -13.782   9.136  1.00  0.00    -0.073 C 
ATOM      7  C   UNL     1       0.656 -13.251   8.404  1.00  0.00     0.008 C 
ATOM      8  C   UNL     1       3.093 -13.480   8.801  1.00  0.00     0.031 C 
ATOM      9  C   UNL     1       3.980 -14.725   8.948  1.00  0.00     0.005 C 
ATOM     10  C   UNL     1       3.719 -15.491  10.257  1.00  0.00     0.008 C 
ATOM     11  C   UNL     1       2.217 -15.854  10.457  1.00  0.00    -0.018 C 
ATOM     12  C   UNL     1       2.021 -16.583  11.813  1.00  0.00     0.088 C 
ATOM     13  C   UNL     1       2.154 -15.664  12.984  1.00  0.00     0.159 C 
ATOM     14  O   UNL     1       2.844 -16.023  13.977  1.00  0.00    -0.295 OA
ATOM     15  C   UNL     1       1.764 -16.842   9.348  1.00  0.00     0.012 C 
ATOM     16  C   UNL     1       0.873 -14.525  15.383  1.00  0.00     0.039 C 
ENDROOT
TORSDOF 0
ENDMDL
MODEL 3
REMARK VINA RESULT:    -4.794      2.517      5.653
REMARK INTER + INTRA:          -4.794
REMARK INTER:                  -4.794
REMARK INTRA:                   0.000
REMARK UNBOUND:                 0.000
REMARK SMILES C=C1CCC[C@@]2(C)CC(=O)C(=C(C)C)C[C@@H]12
REMARK SMILES IDX 13 1 12 2 11 3 15 4 16 5 2 6 1 7 3 8 4 9 5 10 6 11 8 12 9 13
REMARK SMILES IDX 10 14 7 15 14 16
REMARK H PARENT
REMARK Flexibility Score: inf
ROOT
ATOM      1  C   UNL     1       2.678 -12.245   6.212  1.00  0.00     0.039 C 
ATOM      2  C   UNL     1       1.617 -12.438   7.271  1.00  0.00    -0.070 C 
ATOM      3  C   UNL     1       1.881 -13.125   8.420  1.00  0.00    -0.006 C 
ATOM      4  C   UNL     1       3.243 -13.727   8.705  1.00  0.00     0.047 C 
ATOM      5  C   UNL     1       3.173 -15.057   9.501  1.00  0.00     0.025 C 
ATOM      6  C   UNL     1       4.580 -15.437   9.935  1.00  0.00    -0.073 C 
ATOM      7  C   UNL     1       5.293 -16.330   9.232  1.00  0.00     0.008 C 
ATOM      8  C   UNL     1       5.218 -14.677  11.079  1.00  0.00     0.031 C 
ATOM      9  C   UNL     1       4.259 -14.535  12.270  1.00  0.00     0.005 C 
ATOM     10  C   UNL     1       2.847 -14.090  11.847  1.00  0.00     0.008 C 
ATOM     11  C   UNL     1       2.230 -15.002  10.745  1.00  0.00    -0.018 C 
ATOM     12  C   UNL     1       0.830 -14.471  10.336  1.00  0.00     0.088 C 
ATOM     13  C   UNL     1       0.904 -13.215   9.529  1.00  0.00     0.159 C 
ATOM     14  O   UNL     1       0.136 -12.255   9.806  1.00  0.00    -0.295 OA
ATOM     15  C   UNL     1       2.020 -16.434  11.304  1.00  0.00     0.012 C 
ATOM     16  C   UNL     1       0.244 -11.875   6.987  1.00  0.00     0.039 C 
ENDROOT
TORSDOF 0
ENDMDL
MODEL 4
REMARK VINA RESULT:    -4.624      1.812      4.834
REMARK INTER + INTRA:          -4.624
REMARK INTER:                  -4.624
REMARK INTRA:                   0.000
REMARK UNBOUND:                 0.000
REMARK SMILES C=C1CCC[C@@]2(C)CC(=O)C(=C(C)C)C[C@@H]12
REMARK SMILES IDX 13 1 12 2 11 3 15 4 16 5 2 6 1 7 3 8 4 9 5 10 6 11 8 12 9 13
REMARK SMILES IDX 10 14 7 15 14 16
REMARK H PARENT
REMARK Flexibility Score: inf
ROOT
ATOM      1  C   UNL     1       0.269 -16.288   8.845  1.00  0.00     0.039 C 
ATOM      2  C   UNL     1       0.784 -14.968   9.371  1.00  0.00    -0.070 C 
ATOM      3  C   UNL     1       1.457 -14.891  10.554  1.00  0.00    -0.006 C 
ATOM      4  C   UNL     1       1.734 -16.114  11.406  1.00  0.00     0.047 C 
ATOM      5  C   UNL     1       1.709 -15.822  12.929  1.00  0.00     0.025 C 
ATOM      6  C   UNL     1       2.231 -17.045  13.667  1.00  0.00    -0.073 C 
ATOM      7  C   UNL     1       1.380 -17.933  14.203  1.00  0.00     0.008 C 
ATOM      8  C   UNL     1       3.719 -17.324  13.649  1.00  0.00     0.031 C 
ATOM      9  C   UNL     1       4.536 -16.063  13.962  1.00  0.00     0.005 C 
ATOM     10  C   UNL     1       4.055 -14.831  13.174  1.00  0.00     0.008 C 
ATOM     11  C   UNL     1       2.531 -14.560  13.345  1.00  0.00    -0.018 C 
ATOM     12  C   UNL     1       2.107 -13.336  12.490  1.00  0.00     0.088 C 
ATOM     13  C   UNL     1       2.086 -13.636  11.026  1.00  0.00     0.159 C 
ATOM     14  O   UNL     1       2.605 -12.818  10.219  1.00  0.00    -0.295 OA
ATOM     15  C   UNL     1       2.223 -14.202  14.824  1.00  0.00     0.012 C 
ATOM     16  C   UNL     1       0.486 -13.733   8.551  1.00  0.00     0.039 C 
ENDROOT
TORSDOF 0
ENDMDL
MODEL 5
REMARK VINA RESULT:    -4.496     12.561     14.708
REMARK INTER + INTRA:          -4.496
REMARK INTER:                  -4.496
REMARK INTRA:                   0.000
REMARK UNBOUND:                 0.000
REMARK SMILES C=C1CCC[C@@]2(C)CC(=O)C(=C(C)C)C[C@@H]12
REMARK SMILES IDX 13 1 12 2 11 3 15 4 16 5 2 6 1 7 3 8 4 9 5 10 6 11 8 12 9 13
REMARK SMILES IDX 10 14 7 15 14 16
REMARK H PARENT
REMARK Flexibility Score: inf
ROOT
ATOM      1  C   UNL     1      -2.221 -31.116   7.580  1.00  0.00     0.039 C 
ATOM      2  C   UNL     1      -2.418 -31.104   9.078  1.00  0.00    -0.070 C 
ATOM      3  C   UNL     1      -1.607 -30.369   9.893  1.00  0.00    -0.006 C 
ATOM      4  C   UNL     1      -0.472 -29.524   9.352  1.00  0.00     0.047 C 
ATOM      5  C   UNL     1       0.757 -29.466  10.297  1.00  0.00     0.025 C 
ATOM      6  C   UNL     1       1.721 -28.412   9.776  1.00  0.00    -0.073 C 
ATOM      7  C   UNL     1       2.781 -28.765   9.032  1.00  0.00     0.008 C 
ATOM      8  C   UNL     1       1.380 -26.951   9.978  1.00  0.00     0.031 C 
ATOM      9  C   UNL     1       0.930 -26.668  11.418  1.00  0.00     0.005 C 
ATOM     10  C   UNL     1      -0.094 -27.695  11.935  1.00  0.00     0.008 C 
ATOM     11  C   UNL     1       0.396 -29.166  11.787  1.00  0.00    -0.018 C 
ATOM     12  C   UNL     1      -0.700 -30.146  12.284  1.00  0.00     0.088 C 
ATOM     13  C   UNL     1      -1.861 -30.234  11.346  1.00  0.00     0.159 C 
ATOM     14  O   UNL     1      -3.033 -30.191  11.807  1.00  0.00    -0.295 OA
ATOM     15  C   UNL     1       1.643 -29.397  12.682  1.00  0.00     0.012 C 
ATOM     16  C   UNL     1      -3.524 -31.969   9.638  1.00  0.00     0.039 C 
ENDROOT
TORSDOF 0
ENDMDL
MODEL 6
REMARK VINA RESULT:    -4.270      1.937      2.050
REMARK INTER + INTRA:          -4.270
REMARK INTER:                  -4.270
REMARK INTRA:                   0.000
REMARK UNBOUND:                 0.000
REMARK SMILES C=C1CCC[C@@]2(C)CC(=O)C(=C(C)C)C[C@@H]12
REMARK SMILES IDX 13 1 12 2 11 3 15 4 16 5 2 6 1 7 3 8 4 9 5 10 6 11 8 12 9 13
REMARK SMILES IDX 10 14 7 15 14 16
REMARK H PARENT
REMARK Flexibility Score: inf
ROOT
ATOM      1  C   UNL     1       1.023 -16.001  14.785  1.00  0.00     0.039 C 
ATOM      2  C   UNL     1       2.001 -14.909  14.420  1.00  0.00    -0.070 C 
ATOM      3  C   UNL     1       2.175 -14.518  13.124  1.00  0.00    -0.006 C 
ATOM      4  C   UNL     1       1.402 -15.146  11.982  1.00  0.00     0.047 C 
ATOM      5  C   UNL     1       2.218 -15.243  10.666  1.00  0.00     0.025 C 
ATOM      6  C   UNL     1       1.281 -15.656   9.542  1.00  0.00    -0.073 C 
ATOM      7  C   UNL     1       1.209 -16.938   9.151  1.00  0.00     0.008 C 
ATOM      8  C   UNL     1       0.320 -14.629   8.981  1.00  0.00     0.031 C 
ATOM      9  C   UNL     1       1.023 -13.295   8.692  1.00  0.00     0.005 C 
ATOM     10  C   UNL     1       1.928 -12.835   9.850  1.00  0.00     0.008 C 
ATOM     11  C   UNL     1       2.957 -13.921  10.282  1.00  0.00    -0.018 C 
ATOM     12  C   UNL     1       3.803 -13.409  11.479  1.00  0.00     0.088 C 
ATOM     13  C   UNL     1       3.025 -13.364  12.754  1.00  0.00     0.159 C 
ATOM     14  O   UNL     1       3.105 -12.344  13.492  1.00  0.00    -0.295 OA
ATOM     15  C   UNL     1       3.948 -14.197   9.119  1.00  0.00     0.012 C 
ATOM     16  C   UNL     1       2.806 -14.296  15.543  1.00  0.00     0.039 C 
ENDROOT
TORSDOF 0
ENDMDL
MODEL 7
REMARK VINA RESULT:    -4.199      1.289      4.933
REMARK INTER + INTRA:          -4.199
REMARK INTER:                  -4.199
REMARK INTRA:                   0.000
REMARK UNBOUND:                 0.000
REMARK SMILES C=C1CCC[C@@]2(C)CC(=O)C(=C(C)C)C[C@@H]12
REMARK SMILES IDX 13 1 12 2 11 3 15 4 16 5 2 6 1 7 3 8 4 9 5 10 6 11 8 12 9 13
REMARK SMILES IDX 10 14 7 15 14 16
REMARK H PARENT
REMARK Flexibility Score: inf
ROOT
ATOM      1  C   UNL     1       1.020 -15.898   9.626  1.00  0.00     0.039 C 
ATOM      2  C   UNL     1       2.365 -15.484  10.176  1.00  0.00    -0.070 C 
ATOM      3  C   UNL     1       2.808 -15.940  11.383  1.00  0.00    -0.006 C 
ATOM      4  C   UNL     1       1.988 -16.886  12.238  1.00  0.00     0.047 C 
ATOM      5  C   UNL     1       2.165 -16.650  13.760  1.00  0.00     0.025 C 
ATOM      6  C   UNL     1       1.499 -17.792  14.510  1.00  0.00    -0.073 C 
ATOM      7  C   UNL     1       0.262 -17.650  15.012  1.00  0.00     0.008 C 
ATOM      8  C   UNL     1       2.188 -19.140  14.544  1.00  0.00     0.031 C 
ATOM      9  C   UNL     1       3.677 -19.006  14.892  1.00  0.00     0.005 C 
ATOM     10  C   UNL     1       4.378 -17.891  14.093  1.00  0.00     0.008 C 
ATOM     11  C   UNL     1       3.655 -16.517  14.211  1.00  0.00    -0.018 C 
ATOM     12  C   UNL     1       4.386 -15.453  13.348  1.00  0.00     0.088 C 
ATOM     13  C   UNL     1       4.173 -15.657  11.883  1.00  0.00     0.159 C 
ATOM     14  O   UNL     1       5.157 -15.586  11.099  1.00  0.00    -0.295 OA
ATOM     15  C   UNL     1       3.712 -16.017  15.680  1.00  0.00     0.012 C 
ATOM     16  C   UNL     1       3.181 -14.514   9.353  1.00  0.00     0.039 C 
ENDROOT
TORSDOF 0
ENDMDL
MODEL 8
REMARK VINA RESULT:    -4.187      2.312      5.195
REMARK INTER + INTRA:          -4.187
REMARK INTER:                  -4.187
REMARK INTRA:                   0.000
REMARK UNBOUND:                 0.000
REMARK SMILES C=C1CCC[C@@]2(C)CC(=O)C(=C(C)C)C[C@@H]12
REMARK SMILES IDX 13 1 12 2 11 3 15 4 16 5 2 6 1 7 3 8 4 9 5 10 6 11 8 12 9 13
REMARK SMILES IDX 10 14 7 15 14 16
REMARK H PARENT
REMARK Flexibility Score: inf
ROOT
ATOM      1  C   UNL     1       0.015 -12.135  10.409  1.00  0.00     0.039 C 
ATOM      2  C   UNL     1       0.563 -13.457   9.924  1.00  0.00    -0.070 C 
ATOM      3  C   UNL     1       1.138 -14.344  10.787  1.00  0.00    -0.006 C 
ATOM      4  C   UNL     1       1.258 -14.064  12.271  1.00  0.00     0.047 C 
ATOM      5  C   UNL     1       2.545 -14.651  12.906  1.00  0.00     0.025 C 
ATOM      6  C   UNL     1       2.443 -14.523  14.418  1.00  0.00    -0.073 C 
ATOM      7  C   UNL     1       3.040 -13.506  15.059  1.00  0.00     0.008 C 
ATOM      8  C   UNL     1       1.529 -15.469  15.168  1.00  0.00     0.031 C 
ATOM      9  C   UNL     1       1.729 -16.924  14.719  1.00  0.00     0.005 C 
ATOM     10  C   UNL     1       1.772 -17.074  13.187  1.00  0.00     0.008 C 
ATOM     11  C   UNL     1       2.822 -16.138  12.517  1.00  0.00    -0.018 C 
ATOM     12  C   UNL     1       2.781 -16.308  10.975  1.00  0.00     0.088 C 
ATOM     13  C   UNL     1       1.561 -15.698  10.362  1.00  0.00     0.159 C 
ATOM     14  O   UNL     1       0.914 -16.347   9.496  1.00  0.00    -0.295 OA
ATOM     15  C   UNL     1       4.251 -16.539  12.974  1.00  0.00     0.012 C 
ATOM     16  C   UNL     1       0.484 -13.738   8.441  1.00  0.00     0.039 C 
ENDROOT
TORSDOF 0
ENDMDL
MODEL 9
REMARK VINA RESULT:    -4.053      2.589      5.586
REMARK INTER + INTRA:          -4.053
REMARK INTER:                  -4.053
REMARK INTRA:                   0.000
REMARK UNBOUND:                 0.000
REMARK SMILES C=C1CCC[C@@]2(C)CC(=O)C(=C(C)C)C[C@@H]12
REMARK SMILES IDX 13 1 12 2 11 3 15 4 16 5 2 6 1 7 3 8 4 9 5 10 6 11 8 12 9 13
REMARK SMILES IDX 10 14 7 15 14 16
REMARK H PARENT
REMARK Flexibility Score: inf
ROOT
ATOM      1  C   UNL     1       5.008 -11.910   7.734  1.00  0.00     0.039 C 
ATOM      2  C   UNL     1       3.592 -12.437   7.727  1.00  0.00    -0.070 C 
ATOM      3  C   UNL     1       3.087 -13.125   8.792  1.00  0.00    -0.006 C 
ATOM      4  C   UNL     1       3.906 -13.397  10.038  1.00  0.00     0.047 C 
ATOM      5  C   UNL     1       3.582 -14.761  10.701  1.00  0.00     0.025 C 
ATOM      6  C   UNL     1       4.273 -14.820  12.054  1.00  0.00    -0.073 C 
ATOM      7  C   UNL     1       5.447 -15.455  12.194  1.00  0.00     0.008 C 
ATOM      8  C   UNL     1       3.696 -14.018  13.202  1.00  0.00     0.031 C 
ATOM      9  C   UNL     1       2.176 -14.206  13.316  1.00  0.00     0.005 C 
ATOM     10  C   UNL     1       1.458 -14.088  11.959  1.00  0.00     0.008 C 
ATOM     11  C   UNL     1       2.054 -15.034  10.874  1.00  0.00    -0.018 C 
ATOM     12  C   UNL     1       1.314 -14.830   9.525  1.00  0.00     0.088 C 
ATOM     13  C   UNL     1       1.666 -13.536   8.866  1.00  0.00     0.159 C 
ATOM     14  O   UNL     1       0.749 -12.816   8.386  1.00  0.00    -0.295 OA
ATOM     15  C   UNL     1       1.831 -16.513  11.288  1.00  0.00     0.012 C 
ATOM     16  C   UNL     1       2.773 -12.205   6.479  1.00  0.00     0.039 C 
ENDROOT
TORSDOF 0
ENDMDL
