MODEL 1
REMARK VINA RESULT:    -4.969      0.000      0.000
REMARK INTER + INTRA:          -6.028
REMARK INTER:                  -5.841
REMARK INTRA:                  -0.187
REMARK UNBOUND:                -0.187
REMARK SMILES O=C([O-])C=Cc1ccc(O)c(O)c1
REMARK SMILES IDX 6 1 13 2 7 3 11 4 8 5 9 6 5 7 4 8 2 9 1 10 3 11 12 12 10 14
REMARK H PARENT 12 13 10 15
REMARK Flexibility Score: inf
ROOT
ATOM      1  C   UNL     1      10.833  -1.746  18.443  1.00  0.00    -0.022 A 
ATOM      2  C   UNL     1      11.076  -1.413  17.099  1.00  0.00     0.058 A 
ATOM      3  C   UNL     1       9.677  -2.465  18.773  1.00  0.00     0.012 A 
ATOM      4  C   UNL     1      10.149  -1.748  16.105  1.00  0.00     0.157 A 
ATOM      5  C   UNL     1       8.747  -2.800  17.784  1.00  0.00     0.051 A 
ATOM      6  C   UNL     1       8.976  -2.441  16.449  1.00  0.00     0.157 A 
ENDROOT
BRANCH   1   7
ATOM      7  C   UNL     1      11.825  -1.448  19.496  1.00  0.00     0.010 C 
ATOM      8  C   UNL     1      12.164  -0.220  19.919  1.00  0.00     0.025 C 
BRANCH   8   9
ATOM      9  C   UNL     1      11.479   1.032  19.547  1.00  0.00     0.064 C 
ATOM     10  O   UNL     1      10.370   1.306  20.072  1.00  0.00    -0.545 OA
ATOM     11  O   UNL     1      11.996   1.882  18.576  1.00  0.00    -0.545 OA
ENDBRANCH   8   9
ENDBRANCH   1   7
BRANCH   4  12
ATOM     12  O   UNL     1      10.413  -1.388  14.784  1.00  0.00    -0.504 OA
ATOM     13  H   UNL     1       9.730  -1.511  14.046  1.00  0.00     0.293 HD
ENDBRANCH   4  12
BRANCH   6  14
ATOM     14  O   UNL     1       8.047  -2.774  15.464  1.00  0.00    -0.504 OA
ATOM     15  H   UNL     1       7.053  -2.805  15.661  1.00  0.00     0.293 HD
ENDBRANCH   6  14
TORSDOF 4
ENDMDL
MODEL 2
REMARK VINA RESULT:    -4.885     10.699     11.484
REMARK INTER + INTRA:          -5.929
REMARK INTER:                  -5.743
REMARK INTRA:                  -0.186
REMARK UNBOUND:                -0.187
REMARK SMILES O=C([O-])C=Cc1ccc(O)c(O)c1
REMARK SMILES IDX 6 1 13 2 7 3 11 4 8 5 9 6 5 7 4 8 2 9 1 10 3 11 12 12 10 14
REMARK H PARENT 12 13 10 15
REMARK Flexibility Score: inf
ROOT
ATOM      1  C   UNL     1      18.515  -7.758  19.255  1.00  0.00    -0.022 A 
ATOM      2  C   UNL     1      18.992  -8.897  19.925  1.00  0.00     0.058 A 
ATOM      3  C   UNL     1      18.423  -7.773  17.856  1.00  0.00     0.012 A 
ATOM      4  C   UNL     1      19.423 -10.017  19.206  1.00  0.00     0.157 A 
ATOM      5  C   UNL     1      18.853  -8.889  17.133  1.00  0.00     0.051 A 
ATOM      6  C   UNL     1      19.358 -10.013  17.802  1.00  0.00     0.157 A 
ENDROOT
BRANCH   1   7
ATOM      7  C   UNL     1      18.006  -6.588  20.000  1.00  0.00     0.010 C 
ATOM      8  C   UNL     1      18.636  -5.409  20.118  1.00  0.00     0.025 C 
BRANCH   8   9
ATOM      9  C   UNL     1      19.848  -5.008  19.378  1.00  0.00     0.064 C 
ATOM     10  O   UNL     1      20.972  -5.118  19.931  1.00  0.00    -0.545 OA
ATOM     11  O   UNL     1      19.769  -4.443  18.110  1.00  0.00    -0.545 OA
ENDBRANCH   8   9
ENDBRANCH   1   7
BRANCH   4  12
ATOM     12  O   UNL     1      19.907 -11.125  19.902  1.00  0.00    -0.504 OA
ATOM     13  H   UNL     1      19.324 -11.927  20.108  1.00  0.00     0.293 HD
ENDBRANCH   4  12
BRANCH   6  14
ATOM     14  O   UNL     1      19.789 -11.125  17.079  1.00  0.00    -0.504 OA
ATOM     15  H   UNL     1      20.012 -12.001  17.536  1.00  0.00     0.293 HD
ENDBRANCH   6  14
TORSDOF 4
ENDMDL
MODEL 3
REMARK VINA RESULT:    -4.868      1.969      2.331
REMARK INTER + INTRA:          -5.910
REMARK INTER:                  -5.762
REMARK INTRA:                  -0.148
REMARK UNBOUND:                -0.187
REMARK SMILES O=C([O-])C=Cc1ccc(O)c(O)c1
REMARK SMILES IDX 6 1 13 2 7 3 11 4 8 5 9 6 5 7 4 8 2 9 1 10 3 11 12 12 10 14
REMARK H PARENT 12 13 10 15
REMARK Flexibility Score: inf
ROOT
ATOM      1  C   UNL     1      10.027  -1.595  18.190  1.00  0.00    -0.022 A 
ATOM      2  C   UNL     1      10.473  -1.218  16.912  1.00  0.00     0.058 A 
ATOM      3  C   UNL     1       9.042  -2.584  18.309  1.00  0.00     0.012 A 
ATOM      4  C   UNL     1       9.904  -1.784  15.765  1.00  0.00     0.157 A 
ATOM      5  C   UNL     1       8.470  -3.152  17.167  1.00  0.00     0.051 A 
ATOM      6  C   UNL     1       8.894  -2.752  15.891  1.00  0.00     0.157 A 
ENDROOT
BRANCH   1   7
ATOM      7  C   UNL     1      10.653  -1.048  19.412  1.00  0.00     0.010 C 
ATOM      8  C   UNL     1      11.889  -1.336  19.846  1.00  0.00     0.025 C 
BRANCH   8   9
ATOM      9  C   UNL     1      12.907  -2.093  19.093  1.00  0.00     0.064 C 
ATOM     10  O   UNL     1      13.751  -1.469  18.401  1.00  0.00    -0.545 OA
ATOM     11  O   UNL     1      12.909  -3.483  19.073  1.00  0.00    -0.545 OA
ENDBRANCH   8   9
ENDBRANCH   1   7
BRANCH   4  12
ATOM     12  O   UNL     1      10.359  -1.375  14.512  1.00  0.00    -0.504 OA
ATOM     13  H   UNL     1      10.177  -0.446  14.150  1.00  0.00     0.293 HD
ENDBRANCH   4  12
BRANCH   6  14
ATOM     14  O   UNL     1       8.321  -3.317  14.753  1.00  0.00    -0.504 OA
ATOM     15  H   UNL     1       8.793  -3.298  13.856  1.00  0.00     0.293 HD
ENDBRANCH   6  14
TORSDOF 4
ENDMDL
MODEL 4
REMARK VINA RESULT:    -4.817     10.647     12.043
REMARK INTER + INTRA:          -5.849
REMARK INTER:                  -5.569
REMARK INTRA:                  -0.280
REMARK UNBOUND:                -0.187
REMARK SMILES O=C([O-])C=Cc1ccc(O)c(O)c1
REMARK SMILES IDX 6 1 13 2 7 3 11 4 8 5 9 6 5 7 4 8 2 9 1 10 3 11 12 12 10 14
REMARK H PARENT 12 13 10 15
REMARK Flexibility Score: inf
ROOT
ATOM      1  C   UNL     1      19.304  -7.129  18.961  1.00  0.00    -0.022 A 
ATOM      2  C   UNL     1      19.152  -6.393  17.774  1.00  0.00     0.058 A 
ATOM      3  C   UNL     1      19.977  -6.551  20.046  1.00  0.00     0.012 A 
ATOM      4  C   UNL     1      19.712  -5.115  17.653  1.00  0.00     0.157 A 
ATOM      5  C   UNL     1      20.538  -5.276  19.930  1.00  0.00     0.051 A 
ATOM      6  C   UNL     1      20.412  -4.555  18.734  1.00  0.00     0.157 A 
ENDROOT
BRANCH   1   7
ATOM      7  C   UNL     1      18.675  -8.456  19.125  1.00  0.00     0.010 C 
ATOM      8  C   UNL     1      19.162  -9.610  18.644  1.00  0.00     0.025 C 
BRANCH   8   9
ATOM      9  C   UNL     1      20.494  -9.791  18.036  1.00  0.00     0.064 C 
ATOM     10  O   UNL     1      21.485 -10.011  18.779  1.00  0.00    -0.545 OA
ATOM     11  O   UNL     1      20.692  -9.652  16.667  1.00  0.00    -0.545 OA
ENDBRANCH   8   9
ENDBRANCH   1   7
BRANCH   4  12
ATOM     12  O   UNL     1      19.556  -4.418  16.456  1.00  0.00    -0.504 OA
ATOM     13  H   UNL     1      19.858  -4.800  15.567  1.00  0.00     0.293 HD
ENDBRANCH   4  12
BRANCH   6  14
ATOM     14  O   UNL     1      20.975  -3.284  18.620  1.00  0.00    -0.504 OA
ATOM     15  H   UNL     1      21.315  -2.780  19.430  1.00  0.00     0.293 HD
ENDBRANCH   6  14
TORSDOF 4
ENDMDL
MODEL 5
REMARK VINA RESULT:    -4.790     11.297     12.647
REMARK INTER + INTRA:          -5.817
REMARK INTER:                  -5.615
REMARK INTRA:                  -0.202
REMARK UNBOUND:                -0.187
REMARK SMILES O=C([O-])C=Cc1ccc(O)c(O)c1
REMARK SMILES IDX 6 1 13 2 7 3 11 4 8 5 9 6 5 7 4 8 2 9 1 10 3 11 12 12 10 14
REMARK H PARENT 12 13 10 15
REMARK Flexibility Score: inf
ROOT
ATOM      1  C   UNL     1      19.174  -8.593  19.444  1.00  0.00    -0.022 A 
ATOM      2  C   UNL     1      20.146  -7.753  20.014  1.00  0.00     0.058 A 
ATOM      3  C   UNL     1      18.437  -8.140  18.342  1.00  0.00     0.012 A 
ATOM      4  C   UNL     1      20.341  -6.456  19.523  1.00  0.00     0.157 A 
ATOM      5  C   UNL     1      18.627  -6.846  17.849  1.00  0.00     0.051 A 
ATOM      6  C   UNL     1      19.575  -5.998  18.438  1.00  0.00     0.157 A 
ENDROOT
BRANCH   1   7
ATOM      7  C   UNL     1      18.992  -9.982  19.915  1.00  0.00     0.010 C 
ATOM      8  C   UNL     1      19.361 -11.083  19.243  1.00  0.00     0.025 C 
BRANCH   8   9
ATOM      9  C   UNL     1      20.177 -11.105  18.014  1.00  0.00     0.064 C 
ATOM     10  O   UNL     1      21.429 -11.038  18.106  1.00  0.00    -0.545 OA
ATOM     11  O   UNL     1      19.590 -11.123  16.754  1.00  0.00    -0.545 OA
ENDBRANCH   8   9
ENDBRANCH   1   7
BRANCH   4  12
ATOM     12  O   UNL     1      21.302  -5.643  20.122  1.00  0.00    -0.504 OA
ATOM     13  H   UNL     1      21.314  -4.638  19.991  1.00  0.00     0.293 HD
ENDBRANCH   4  12
BRANCH   6  14
ATOM     14  O   UNL     1      19.762  -4.706  17.946  1.00  0.00    -0.504 OA
ATOM     15  H   UNL     1      20.380  -4.521  17.165  1.00  0.00     0.293 HD
ENDBRANCH   6  14
TORSDOF 4
ENDMDL
MODEL 6
REMARK VINA RESULT:    -4.765      1.932      4.969
REMARK INTER + INTRA:          -5.788
REMARK INTER:                  -5.746
REMARK INTRA:                  -0.042
REMARK UNBOUND:                -0.187
REMARK SMILES O=C([O-])C=Cc1ccc(O)c(O)c1
REMARK SMILES IDX 6 1 13 2 7 3 11 4 8 5 9 6 5 7 4 8 2 9 1 10 3 11 12 12 10 14
REMARK H PARENT 12 13 10 15
REMARK Flexibility Score: inf
ROOT
ATOM      1  C   UNL     1       9.678  -1.952  17.139  1.00  0.00    -0.022 A 
ATOM      2  C   UNL     1      11.020  -2.352  17.252  1.00  0.00     0.058 A 
ATOM      3  C   UNL     1       9.323  -0.639  17.478  1.00  0.00     0.012 A 
ATOM      4  C   UNL     1      11.986  -1.469  17.749  1.00  0.00     0.157 A 
ATOM      5  C   UNL     1      10.283   0.246  17.976  1.00  0.00     0.051 A 
ATOM      6  C   UNL     1      11.616  -0.164  18.118  1.00  0.00     0.157 A 
ENDROOT
BRANCH   1   7
ATOM      7  C   UNL     1       8.656  -2.852  16.566  1.00  0.00     0.010 C 
ATOM      8  C   UNL     1       8.496  -3.114  15.260  1.00  0.00     0.025 C 
BRANCH   8   9
ATOM      9  C   UNL     1       9.420  -2.705  14.185  1.00  0.00     0.064 C 
ATOM     10  O   UNL     1       9.625  -1.481  13.983  1.00  0.00    -0.545 OA
ATOM     11  O   UNL     1      10.014  -3.639  13.344  1.00  0.00    -0.545 OA
ENDBRANCH   8   9
ENDBRANCH   1   7
BRANCH   4  12
ATOM     12  O   UNL     1      13.306  -1.904  17.864  1.00  0.00    -0.504 OA
ATOM     13  H   UNL     1      13.716  -2.558  17.209  1.00  0.00     0.293 HD
ENDBRANCH   4  12
BRANCH   6  14
ATOM     14  O   UNL     1      12.572   0.719  18.617  1.00  0.00    -0.504 OA
ATOM     15  H   UNL     1      12.325   1.656  18.913  1.00  0.00     0.293 HD
ENDBRANCH   6  14
TORSDOF 4
ENDMDL
MODEL 7
REMARK VINA RESULT:    -4.696      1.618      4.963
REMARK INTER + INTRA:          -5.707
REMARK INTER:                  -5.570
REMARK INTRA:                  -0.137
REMARK UNBOUND:                -0.187
REMARK SMILES O=C([O-])C=Cc1ccc(O)c(O)c1
REMARK SMILES IDX 6 1 13 2 7 3 11 4 8 5 9 6 5 7 4 8 2 9 1 10 3 11 12 12 10 14
REMARK H PARENT 12 13 10 15
REMARK Flexibility Score: inf
ROOT
ATOM      1  C   UNL     1      10.069  -1.952  17.223  1.00  0.00    -0.022 A 
ATOM      2  C   UNL     1      10.281  -0.564  17.259  1.00  0.00     0.058 A 
ATOM      3  C   UNL     1      11.026  -2.807  17.785  1.00  0.00     0.012 A 
ATOM      4  C   UNL     1      11.459  -0.038  17.802  1.00  0.00     0.157 A 
ATOM      5  C   UNL     1      12.205  -2.287  18.328  1.00  0.00     0.051 A 
ATOM      6  C   UNL     1      12.429  -0.903  18.336  1.00  0.00     0.157 A 
ENDROOT
BRANCH   1   7
ATOM      7  C   UNL     1       8.808  -2.521  16.703  1.00  0.00     0.010 C 
ATOM      8  C   UNL     1       8.531  -2.739  15.408  1.00  0.00     0.025 C 
BRANCH   8   9
ATOM      9  C   UNL     1       9.494  -2.629  14.296  1.00  0.00     0.064 C 
ATOM     10  O   UNL     1       9.936  -1.496  13.974  1.00  0.00    -0.545 OA
ATOM     11  O   UNL     1       9.870  -3.739  13.548  1.00  0.00    -0.545 OA
ENDBRANCH   8   9
ENDBRANCH   1   7
BRANCH   4  12
ATOM     12  O   UNL     1      11.644   1.344  17.807  1.00  0.00    -0.504 OA
ATOM     13  H   UNL     1      12.557   1.765  17.682  1.00  0.00     0.293 HD
ENDBRANCH   4  12
BRANCH   6  14
ATOM     14  O   UNL     1      13.606  -0.386  18.875  1.00  0.00    -0.504 OA
ATOM     15  H   UNL     1      13.594   0.247  19.666  1.00  0.00     0.293 HD
ENDBRANCH   6  14
TORSDOF 4
ENDMDL
MODEL 8
REMARK VINA RESULT:    -4.684      2.348      3.884
REMARK INTER + INTRA:          -5.693
REMARK INTER:                  -5.427
REMARK INTRA:                  -0.266
REMARK UNBOUND:                -0.187
REMARK SMILES O=C([O-])C=Cc1ccc(O)c(O)c1
REMARK SMILES IDX 6 1 13 2 7 3 11 4 8 5 9 6 5 7 4 8 2 9 1 10 3 11 12 12 10 14
REMARK H PARENT 12 13 10 15
REMARK Flexibility Score: inf
ROOT
ATOM      1  C   UNL     1       8.345  -2.671  17.945  1.00  0.00    -0.022 A 
ATOM      2  C   UNL     1       8.794  -2.109  16.738  1.00  0.00     0.058 A 
ATOM      3  C   UNL     1       9.274  -2.970  18.949  1.00  0.00     0.012 A 
ATOM      4  C   UNL     1      10.160  -1.897  16.516  1.00  0.00     0.157 A 
ATOM      5  C   UNL     1      10.639  -2.762  18.733  1.00  0.00     0.051 A 
ATOM      6  C   UNL     1      11.089  -2.230  17.517  1.00  0.00     0.157 A 
ENDROOT
BRANCH   1   7
ATOM      7  C   UNL     1       6.904  -2.851  18.216  1.00  0.00     0.010 C 
ATOM      8  C   UNL     1       6.097  -1.933  18.769  1.00  0.00     0.025 C 
BRANCH   8   9
ATOM      9  C   UNL     1       6.454  -0.525  19.030  1.00  0.00     0.064 C 
ATOM     10  O   UNL     1       6.078   0.364  18.225  1.00  0.00    -0.545 OA
ATOM     11  O   UNL     1       7.258  -0.168  20.106  1.00  0.00    -0.545 OA
ENDBRANCH   8   9
ENDBRANCH   1   7
BRANCH   4  12
ATOM     12  O   UNL     1      10.573  -1.353  15.301  1.00  0.00    -0.504 OA
ATOM     13  H   UNL     1      10.277  -1.735  14.411  1.00  0.00     0.293 HD
ENDBRANCH   4  12
BRANCH   6  14
ATOM     14  O   UNL     1      12.452  -2.025  17.302  1.00  0.00    -0.504 OA
ATOM     15  H   UNL     1      12.876  -1.113  17.423  1.00  0.00     0.293 HD
ENDBRANCH   6  14
TORSDOF 4
ENDMDL
