MODEL 1
REMARK VINA RESULT:    -3.873      0.000      0.000
REMARK INTER + INTRA:          -7.579
REMARK INTER:                  -6.137
REMARK INTRA:                  -1.442
REMARK UNBOUND:                -1.442
REMARK SMILES CCCCCCCCCCCC(=O)[O-]
REMARK SMILES IDX 7 1 8 2 9 3 10 4 11 5 12 6 13 7 14 8 6 9 5 10 4 11 3 12 2 13
REMARK SMILES IDX 1 14
REMARK H PARENT
REMARK Flexibility Score: inf
ROOT
ATOM      1  C   UNL     1      -9.933 -35.708 -30.244  1.00  0.00     0.000 C 
ENDROOT
BRANCH   1   2
ATOM      2  C   UNL     1     -10.313 -34.406 -29.508  1.00  0.00     0.000 C 
BRANCH   2   3
ATOM      3  C   UNL     1     -11.818 -34.217 -29.254  1.00  0.00     0.000 C 
BRANCH   3   4
ATOM      4  C   UNL     1     -12.630 -35.498 -29.492  1.00  0.00     0.006 C 
BRANCH   4   5
ATOM      5  C   UNL     1     -13.678 -35.695 -28.393  1.00  0.00     0.053 C 
BRANCH   5   6
ATOM      6  C   UNL     1     -14.933 -34.951 -28.726  1.00  0.00     0.041 C 
ATOM      7  O   UNL     1     -15.392 -34.975 -29.898  1.00  0.00    -0.550 OA
ATOM      8  O   UNL     1     -15.567 -34.188 -27.754  1.00  0.00    -0.550 OA
ENDBRANCH   5   6
ENDBRANCH   4   5
ENDBRANCH   3   4
ENDBRANCH   2   3
ENDBRANCH   1   2
BRANCH   1   9
ATOM      9  C   UNL     1      -8.984 -36.642 -29.470  1.00  0.00     0.000 C 
BRANCH   9  10
ATOM     10  C   UNL     1      -8.883 -36.288 -27.980  1.00  0.00    -0.000 C 
BRANCH  10  11
ATOM     11  C   UNL     1      -9.473 -37.405 -27.109  1.00  0.00    -0.000 C 
BRANCH  11  12
ATOM     12  C   UNL     1     -10.740 -36.926 -26.385  1.00  0.00    -0.000 C 
BRANCH  12  13
ATOM     13  C   UNL     1     -10.663 -35.449 -25.973  1.00  0.00    -0.003 C 
ATOM     14  C   UNL     1     -11.348 -35.172 -24.635  1.00  0.00     0.004 C 
ENDBRANCH  12  13
ENDBRANCH  11  12
ENDBRANCH  10  11
ENDBRANCH   9  10
ENDBRANCH   1   9
TORSDOF 10
ENDMDL
MODEL 2
REMARK VINA RESULT:    -3.838      2.373      4.238
REMARK INTER + INTRA:          -7.523
REMARK INTER:                  -6.205
REMARK INTRA:                  -1.318
REMARK UNBOUND:                -1.442
REMARK SMILES CCCCCCCCCCCC(=O)[O-]
REMARK SMILES IDX 7 1 8 2 9 3 10 4 11 5 12 6 13 7 14 8 6 9 5 10 4 11 3 12 2 13
REMARK SMILES IDX 1 14
REMARK H PARENT
REMARK Flexibility Score: inf
ROOT
ATOM      1  C   UNL     1      -8.965 -35.698 -28.015  1.00  0.00     0.000 C 
ENDROOT
BRANCH   1   2
ATOM      2  C   UNL     1      -8.950 -37.231 -27.838  1.00  0.00     0.000 C 
BRANCH   2   3
ATOM      3  C   UNL     1      -9.646 -37.747 -26.567  1.00  0.00     0.000 C 
BRANCH   3   4
ATOM      4  C   UNL     1     -10.952 -37.001 -26.256  1.00  0.00     0.006 C 
BRANCH   4   5
ATOM      5  C   UNL     1     -10.872 -36.300 -24.897  1.00  0.00     0.053 C 
BRANCH   5   6
ATOM      6  C   UNL     1     -12.098 -36.584 -24.088  1.00  0.00     0.041 C 
ATOM      7  O   UNL     1     -13.091 -37.149 -24.619  1.00  0.00    -0.550 OA
ATOM      8  O   UNL     1     -12.165 -36.180 -22.761  1.00  0.00    -0.550 OA
ENDBRANCH   5   6
ENDBRANCH   4   5
ENDBRANCH   3   4
ENDBRANCH   2   3
ENDBRANCH   1   2
BRANCH   1   9
ATOM      9  C   UNL     1      -9.519 -35.201 -29.363  1.00  0.00     0.000 C 
BRANCH   9  10
ATOM     10  C   UNL     1     -10.597 -36.129 -29.942  1.00  0.00    -0.000 C 
BRANCH  10  11
ATOM     11  C   UNL     1     -11.994 -35.712 -29.465  1.00  0.00    -0.000 C 
BRANCH  11  12
ATOM     12  C   UNL     1     -12.024 -34.223 -29.087  1.00  0.00    -0.000 C 
BRANCH  12  13
ATOM     13  C   UNL     1     -12.522 -33.988 -27.653  1.00  0.00    -0.003 C 
ATOM     14  C   UNL     1     -13.782 -34.789 -27.326  1.00  0.00     0.004 C 
ENDBRANCH  12  13
ENDBRANCH  11  12
ENDBRANCH  10  11
ENDBRANCH   9  10
ENDBRANCH   1   9
TORSDOF 10
ENDMDL
MODEL 3
REMARK VINA RESULT:    -3.783      2.694      5.152
REMARK INTER + INTRA:          -7.437
REMARK INTER:                  -5.882
REMARK INTRA:                  -1.555
REMARK UNBOUND:                -1.442
REMARK SMILES CCCCCCCCCCCC(=O)[O-]
REMARK SMILES IDX 7 1 8 2 9 3 10 4 11 5 12 6 13 7 14 8 6 9 5 10 4 11 3 12 2 13
REMARK SMILES IDX 1 14
REMARK H PARENT
REMARK Flexibility Score: inf
ROOT
ATOM      1  C   UNL     1     -12.023 -34.785 -25.365  1.00  0.00     0.000 C 
ENDROOT
BRANCH   1   2
ATOM      2  C   UNL     1     -10.718 -35.605 -25.447  1.00  0.00     0.000 C 
BRANCH   2   3
ATOM      3  C   UNL     1     -10.809 -36.893 -26.283  1.00  0.00     0.000 C 
BRANCH   3   4
ATOM      4  C   UNL     1      -9.649 -37.042 -27.278  1.00  0.00     0.006 C 
BRANCH   4   5
ATOM      5  C   UNL     1      -9.169 -35.674 -27.770  1.00  0.00     0.053 C 
BRANCH   5   6
ATOM      6  C   UNL     1      -9.117 -35.644 -29.266  1.00  0.00     0.041 C 
ATOM      7  O   UNL     1      -8.875 -36.697 -29.912  1.00  0.00    -0.550 OA
ATOM      8  O   UNL     1      -9.286 -34.444 -29.943  1.00  0.00    -0.550 OA
ENDBRANCH   5   6
ENDBRANCH   4   5
ENDBRANCH   3   4
ENDBRANCH   2   3
ENDBRANCH   1   2
BRANCH   1   9
ATOM      9  C   UNL     1     -13.129 -35.217 -26.346  1.00  0.00     0.000 C 
BRANCH   9  10
ATOM     10  C   UNL     1     -13.434 -34.152 -27.408  1.00  0.00    -0.000 C 
BRANCH  10  11
ATOM     11  C   UNL     1     -12.516 -34.312 -28.626  1.00  0.00    -0.000 C 
BRANCH  11  12
ATOM     12  C   UNL     1     -13.205 -35.128 -29.730  1.00  0.00    -0.000 C 
BRANCH  12  13
ATOM     13  C   UNL     1     -12.462 -36.434 -30.050  1.00  0.00    -0.003 C 
ATOM     14  C   UNL     1     -12.939 -37.609 -29.197  1.00  0.00     0.004 C 
ENDBRANCH  12  13
ENDBRANCH  11  12
ENDBRANCH  10  11
ENDBRANCH   9  10
ENDBRANCH   1   9
TORSDOF 10
ENDMDL
MODEL 4
REMARK VINA RESULT:    -3.771     19.367     21.740
REMARK INTER + INTRA:          -7.418
REMARK INTER:                  -5.979
REMARK INTRA:                  -1.440
REMARK UNBOUND:                -1.442
REMARK SMILES CCCCCCCCCCCC(=O)[O-]
REMARK SMILES IDX 7 1 8 2 9 3 10 4 11 5 12 6 13 7 14 8 6 9 5 10 4 11 3 12 2 13
REMARK SMILES IDX 1 14
REMARK H PARENT
REMARK Flexibility Score: inf
ROOT
ATOM      1  C   UNL     1     -26.528 -21.334 -28.590  1.00  0.00     0.000 C 
ENDROOT
BRANCH   1   2
ATOM      2  C   UNL     1     -26.218 -22.536 -29.507  1.00  0.00     0.000 C 
BRANCH   2   3
ATOM      3  C   UNL     1     -24.896 -22.436 -30.287  1.00  0.00     0.000 C 
BRANCH   3   4
ATOM      4  C   UNL     1     -24.798 -21.160 -31.135  1.00  0.00     0.006 C 
BRANCH   4   5
ATOM      5  C   UNL     1     -23.963 -20.092 -30.423  1.00  0.00     0.053 C 
BRANCH   5   6
ATOM      6  C   UNL     1     -24.679 -18.778 -30.427  1.00  0.00     0.041 C 
ATOM      7  O   UNL     1     -24.880 -18.170 -31.511  1.00  0.00    -0.550 OA
ATOM      8  O   UNL     1     -25.078 -18.200 -29.229  1.00  0.00    -0.550 OA
ENDBRANCH   5   6
ENDBRANCH   4   5
ENDBRANCH   3   4
ENDBRANCH   2   3
ENDBRANCH   1   2
BRANCH   1   9
ATOM      9  C   UNL     1     -27.991 -20.854 -28.615  1.00  0.00     0.000 C 
BRANCH   9  10
ATOM     10  C   UNL     1     -28.585 -20.825 -30.030  1.00  0.00    -0.000 C 
BRANCH  10  11
ATOM     11  C   UNL     1     -28.234 -19.514 -30.745  1.00  0.00    -0.000 C 
BRANCH  11  12
ATOM     12  C   UNL     1     -27.955 -19.758 -32.236  1.00  0.00    -0.000 C 
BRANCH  12  13
ATOM     13  C   UNL     1     -28.271 -21.198 -32.668  1.00  0.00    -0.003 C 
ATOM     14  C   UNL     1     -27.381 -21.680 -33.814  1.00  0.00     0.004 C 
ENDBRANCH  12  13
ENDBRANCH  11  12
ENDBRANCH  10  11
ENDBRANCH   9  10
ENDBRANCH   1   9
TORSDOF 10
ENDMDL
MODEL 5
REMARK VINA RESULT:    -3.751     19.360     21.533
REMARK INTER + INTRA:          -7.385
REMARK INTER:                  -5.776
REMARK INTRA:                  -1.609
REMARK UNBOUND:                -1.442
REMARK SMILES CCCCCCCCCCCC(=O)[O-]
REMARK SMILES IDX 7 1 8 2 9 3 10 4 11 5 12 6 13 7 14 8 6 9 5 10 4 11 3 12 2 13
REMARK SMILES IDX 1 14
REMARK H PARENT
REMARK Flexibility Score: inf
ROOT
ATOM      1  C   UNL     1     -28.156 -22.398 -31.672  1.00  0.00     0.000 C 
ENDROOT
BRANCH   1   2
ATOM      2  C   UNL     1     -28.020 -21.152 -32.573  1.00  0.00     0.000 C 
BRANCH   2   3
ATOM      3  C   UNL     1     -28.098 -19.804 -31.837  1.00  0.00     0.000 C 
BRANCH   3   4
ATOM      4  C   UNL     1     -28.756 -19.915 -30.454  1.00  0.00     0.006 C 
BRANCH   4   5
ATOM      5  C   UNL     1     -28.142 -18.913 -29.473  1.00  0.00     0.053 C 
BRANCH   5   6
ATOM      6  C   UNL     1     -28.070 -19.501 -28.099  1.00  0.00     0.041 C 
ATOM      7  O   UNL     1     -27.844 -20.730 -27.947  1.00  0.00    -0.550 OA
ATOM      8  O   UNL     1     -28.303 -18.702 -26.987  1.00  0.00    -0.550 OA
ENDBRANCH   5   6
ENDBRANCH   4   5
ENDBRANCH   3   4
ENDBRANCH   2   3
ENDBRANCH   1   2
BRANCH   1   9
ATOM      9  C   UNL     1     -26.846 -23.162 -31.412  1.00  0.00     0.000 C 
BRANCH   9  10
ATOM     10  C   UNL     1     -26.208 -22.808 -30.060  1.00  0.00    -0.000 C 
BRANCH  10  11
ATOM     11  C   UNL     1     -24.794 -22.245 -30.252  1.00  0.00    -0.000 C 
BRANCH  11  12
ATOM     12  C   UNL     1     -24.782 -20.718 -30.077  1.00  0.00    -0.000 C 
BRANCH  12  13
ATOM     13  C   UNL     1     -24.569 -19.973 -31.403  1.00  0.00    -0.003 C 
ATOM     14  C   UNL     1     -24.107 -20.896 -32.531  1.00  0.00     0.004 C 
ENDBRANCH  12  13
ENDBRANCH  11  12
ENDBRANCH  10  11
ENDBRANCH   9  10
ENDBRANCH   1   9
TORSDOF 10
ENDMDL
MODEL 6
REMARK VINA RESULT:    -3.734     19.533     21.994
REMARK INTER + INTRA:          -7.359
REMARK INTER:                  -5.929
REMARK INTRA:                  -1.430
REMARK UNBOUND:                -1.442
REMARK SMILES CCCCCCCCCCCC(=O)[O-]
REMARK SMILES IDX 7 1 8 2 9 3 10 4 11 5 12 6 13 7 14 8 6 9 5 10 4 11 3 12 2 13
REMARK SMILES IDX 1 14
REMARK H PARENT
REMARK Flexibility Score: inf
ROOT
ATOM      1  C   UNL     1     -27.512 -19.847 -33.457  1.00  0.00     0.000 C 
ENDROOT
BRANCH   1   2
ATOM      2  C   UNL     1     -27.199 -19.447 -32.000  1.00  0.00     0.000 C 
BRANCH   2   3
ATOM      3  C   UNL     1     -28.431 -19.173 -31.121  1.00  0.00     0.000 C 
BRANCH   3   4
ATOM      4  C   UNL     1     -28.330 -19.820 -29.732  1.00  0.00     0.006 C 
BRANCH   4   5
ATOM      5  C   UNL     1     -27.889 -18.798 -28.681  1.00  0.00     0.053 C 
BRANCH   5   6
ATOM      6  C   UNL     1     -27.065 -19.458 -27.621  1.00  0.00     0.041 C 
ATOM      7  O   UNL     1     -26.829 -20.693 -27.680  1.00  0.00    -0.550 OA
ATOM      8  O   UNL     1     -26.601 -18.719 -26.540  1.00  0.00    -0.550 OA
ENDBRANCH   5   6
ENDBRANCH   4   5
ENDBRANCH   3   4
ENDBRANCH   2   3
ENDBRANCH   1   2
BRANCH   1   9
ATOM      9  C   UNL     1     -27.423 -21.355 -33.754  1.00  0.00     0.000 C 
BRANCH   9  10
ATOM     10  C   UNL     1     -28.689 -22.119 -33.341  1.00  0.00    -0.000 C 
BRANCH  10  11
ATOM     11  C   UNL     1     -28.447 -22.930 -32.062  1.00  0.00    -0.000 C 
BRANCH  11  12
ATOM     12  C   UNL     1     -26.950 -23.209 -31.862  1.00  0.00    -0.000 C 
BRANCH  12  13
ATOM     13  C   UNL     1     -26.464 -22.844 -30.451  1.00  0.00    -0.003 C 
ATOM     14  C   UNL     1     -25.097 -22.160 -30.456  1.00  0.00     0.004 C 
ENDBRANCH  12  13
ENDBRANCH  11  12
ENDBRANCH  10  11
ENDBRANCH   9  10
ENDBRANCH   1   9
TORSDOF 10
ENDMDL
MODEL 7
REMARK VINA RESULT:    -3.714      2.822      4.747
REMARK INTER + INTRA:          -7.327
REMARK INTER:                  -5.924
REMARK INTRA:                  -1.403
REMARK UNBOUND:                -1.442
REMARK SMILES CCCCCCCCCCCC(=O)[O-]
REMARK SMILES IDX 7 1 8 2 9 3 10 4 11 5 12 6 13 7 14 8 6 9 5 10 4 11 3 12 2 13
REMARK SMILES IDX 1 14
REMARK H PARENT
REMARK Flexibility Score: inf
ROOT
ATOM      1  C   UNL     1     -13.019 -34.347 -27.899  1.00  0.00     0.000 C 
ENDROOT
BRANCH   1   2
ATOM      2  C   UNL     1     -13.023 -35.158 -26.586  1.00  0.00     0.000 C 
BRANCH   2   3
ATOM      3  C   UNL     1     -12.299 -34.490 -25.405  1.00  0.00     0.000 C 
BRANCH   3   4
ATOM      4  C   UNL     1     -10.911 -35.090 -25.137  1.00  0.00     0.006 C 
BRANCH   4   5
ATOM      5  C   UNL     1     -11.012 -36.585 -24.823  1.00  0.00     0.053 C 
BRANCH   5   6
ATOM      6  C   UNL     1     -11.751 -36.803 -23.540  1.00  0.00     0.041 C 
ATOM      7  O   UNL     1     -12.777 -37.532 -23.517  1.00  0.00    -0.550 OA
ATOM      8  O   UNL     1     -11.337 -36.160 -22.381  1.00  0.00    -0.550 OA
ENDBRANCH   5   6
ENDBRANCH   4   5
ENDBRANCH   3   4
ENDBRANCH   2   3
ENDBRANCH   1   2
BRANCH   1   9
ATOM      9  C   UNL     1     -12.719 -35.163 -29.170  1.00  0.00     0.000 C 
BRANCH   9  10
ATOM     10  C   UNL     1     -12.239 -36.588 -28.864  1.00  0.00    -0.000 C 
BRANCH  10  11
ATOM     11  C   UNL     1     -10.829 -36.823 -29.420  1.00  0.00    -0.000 C 
BRANCH  11  12
ATOM     12  C   UNL     1      -9.779 -36.768 -28.299  1.00  0.00    -0.000 C 
BRANCH  12  13
ATOM     13  C   UNL     1      -8.879 -35.527 -28.394  1.00  0.00    -0.003 C 
ATOM     14  C   UNL     1      -9.203 -34.654 -29.606  1.00  0.00     0.004 C 
ENDBRANCH  12  13
ENDBRANCH  11  12
ENDBRANCH  10  11
ENDBRANCH   9  10
ENDBRANCH   1   9
TORSDOF 10
ENDMDL
MODEL 8
REMARK VINA RESULT:    -3.704     19.548     21.558
REMARK INTER + INTRA:          -7.312
REMARK INTER:                  -5.786
REMARK INTRA:                  -1.526
REMARK UNBOUND:                -1.442
REMARK SMILES CCCCCCCCCCCC(=O)[O-]
REMARK SMILES IDX 7 1 8 2 9 3 10 4 11 5 12 6 13 7 14 8 6 9 5 10 4 11 3 12 2 13
REMARK SMILES IDX 1 14
REMARK H PARENT
REMARK Flexibility Score: inf
ROOT
ATOM      1  C   UNL     1     -28.475 -20.110 -31.149  1.00  0.00     0.000 C 
ENDROOT
BRANCH   1   2
ATOM      2  C   UNL     1     -29.116 -21.503 -31.318  1.00  0.00     0.000 C 
BRANCH   2   3
ATOM      3  C   UNL     1     -28.702 -22.261 -32.590  1.00  0.00     0.000 C 
BRANCH   3   4
ATOM      4  C   UNL     1     -28.305 -21.325 -33.741  1.00  0.00     0.006 C 
BRANCH   4   5
ATOM      5  C   UNL     1     -27.030 -21.816 -34.433  1.00  0.00     0.053 C 
BRANCH   5   6
ATOM      6  C   UNL     1     -25.863 -20.962 -34.049  1.00  0.00     0.041 C 
ATOM      7  O   UNL     1     -26.046 -19.783 -33.648  1.00  0.00    -0.550 OA
ATOM      8  O   UNL     1     -24.570 -21.450 -34.184  1.00  0.00    -0.550 OA
ENDBRANCH   5   6
ENDBRANCH   4   5
ENDBRANCH   3   4
ENDBRANCH   2   3
ENDBRANCH   1   2
BRANCH   1   9
ATOM      9  C   UNL     1     -28.202 -19.689 -29.693  1.00  0.00     0.000 C 
BRANCH   9  10
ATOM     10  C   UNL     1     -28.037 -20.887 -28.747  1.00  0.00    -0.000 C 
BRANCH  10  11
ATOM     11  C   UNL     1     -26.555 -21.234 -28.556  1.00  0.00    -0.000 C 
BRANCH  11  12
ATOM     12  C   UNL     1     -26.189 -22.519 -29.315  1.00  0.00    -0.000 C 
BRANCH  12  13
ATOM     13  C   UNL     1     -25.404 -22.240 -30.605  1.00  0.00    -0.003 C 
ATOM     14  C   UNL     1     -24.598 -20.943 -30.537  1.00  0.00     0.004 C 
ENDBRANCH  12  13
ENDBRANCH  11  12
ENDBRANCH  10  11
ENDBRANCH   9  10
ENDBRANCH   1   9
TORSDOF 10
ENDMDL
MODEL 9
REMARK VINA RESULT:    -3.694     19.560     21.592
REMARK INTER + INTRA:          -7.296
REMARK INTER:                  -5.757
REMARK INTRA:                  -1.539
REMARK UNBOUND:                -1.442
REMARK SMILES CCCCCCCCCCCC(=O)[O-]
REMARK SMILES IDX 7 1 8 2 9 3 10 4 11 5 12 6 13 7 14 8 6 9 5 10 4 11 3 12 2 13
REMARK SMILES IDX 1 14
REMARK H PARENT
REMARK Flexibility Score: inf
ROOT
ATOM      1  C   UNL     1     -25.013 -22.372 -30.391  1.00  0.00     0.000 C 
ENDROOT
BRANCH   1   2
ATOM      2  C   UNL     1     -26.312 -22.549 -29.578  1.00  0.00     0.000 C 
BRANCH   2   3
ATOM      3  C   UNL     1     -26.478 -21.582 -28.394  1.00  0.00     0.000 C 
BRANCH   3   4
ATOM      4  C   UNL     1     -27.817 -20.830 -28.419  1.00  0.00     0.006 C 
BRANCH   4   5
ATOM      5  C   UNL     1     -27.629 -19.393 -28.912  1.00  0.00     0.053 C 
BRANCH   5   6
ATOM      6  C   UNL     1     -26.741 -18.630 -27.979  1.00  0.00     0.041 C 
ATOM      7  O   UNL     1     -25.748 -17.999 -28.425  1.00  0.00    -0.550 OA
ATOM      8  O   UNL     1     -26.981 -18.659 -26.611  1.00  0.00    -0.550 OA
ENDBRANCH   5   6
ENDBRANCH   4   5
ENDBRANCH   3   4
ENDBRANCH   2   3
ENDBRANCH   1   2
BRANCH   1   9
ATOM      9  C   UNL     1     -24.374 -20.974 -30.303  1.00  0.00     0.000 C 
BRANCH   9  10
ATOM     10  C   UNL     1     -24.938 -19.994 -31.342  1.00  0.00    -0.000 C 
BRANCH  10  11
ATOM     11  C   UNL     1     -25.711 -20.740 -32.437  1.00  0.00    -0.000 C 
BRANCH  11  12
ATOM     12  C   UNL     1     -27.185 -20.308 -32.461  1.00  0.00    -0.000 C 
BRANCH  12  13
ATOM     13  C   UNL     1     -28.121 -21.428 -32.940  1.00  0.00    -0.003 C 
ATOM     14  C   UNL     1     -29.110 -21.871 -31.862  1.00  0.00     0.004 C 
ENDBRANCH  12  13
ENDBRANCH  11  12
ENDBRANCH  10  11
ENDBRANCH   9  10
ENDBRANCH   1   9
TORSDOF 10
ENDMDL
