MODEL 1
REMARK VINA RESULT:    -6.894      0.000      0.000
REMARK INTER + INTRA:         -14.059
REMARK INTER:                 -11.327
REMARK INTRA:                  -2.732
REMARK UNBOUND:                -2.732
REMARK SMILES C[C@@H]1O[C@@H](OC[C@H]2O[C@H](Oc3c(-c4ccc(O)c(O)c4)oc4cc(O)cc(O)c4c3=O)[C@H](O)[C@H](O)[C@@H]2O)[C@@H](O)[C@@H](O)[C@H]1O
REMARK SMILES IDX 7 1 36 2 34 3 32 4 9 5 8 6 6 7 5 8 4 9 1 10 2 11 42 12 3 13
REMARK SMILES IDX 40 14 38 15 43 16 41 18 39 20 37 22 35 24 10 26 11 27 12 28
REMARK SMILES IDX 30 29 21 30 29 31 31 32 22 33 27 34 23 35 26 36 24 37 13 38
REMARK SMILES IDX 20 39 14 40 18 41 15 42 16 43 19 44 17 46 28 48 25 50 33 52
REMARK H PARENT 43 17 41 19 39 21 37 23 35 25 19 45 17 47 28 49 25 51 33 53
REMARK Flexibility Score: inf
ROOT
ATOM      1  C   UNL     1      73.149  44.975   6.495  1.00  0.00     0.180 C 
ATOM      2  C   UNL     1      73.021  44.952   4.947  1.00  0.00     0.177 C 
ATOM      3  C   UNL     1      72.902  43.493   4.491  1.00  0.00     0.180 C 
ATOM      4  C   UNL     1      71.687  42.815   5.181  1.00  0.00     0.214 C 
ATOM      5  C   UNL     1      71.186  43.617   6.403  1.00  0.00     0.339 C 
ATOM      6  O   UNL     1      72.272  44.090   7.192  1.00  0.00    -0.332 OA
ENDROOT
BRANCH   1   7
ATOM      7  C   UNL     1      73.068  46.404   7.076  1.00  0.00     0.198 C 
BRANCH   7   8
ATOM      8  O   UNL     1      72.529  47.270   6.099  1.00  0.00    -0.347 OA
BRANCH   8   9
ATOM      9  C   UNL     1      71.951  48.440   6.657  1.00  0.00     0.281 C 
ATOM     10  C   UNL     1      70.656  48.559  10.120  1.00  0.00     0.041 C 
ATOM     11  C   UNL     1      70.519  48.300   8.606  1.00  0.00     0.150 C 
ATOM     12  C   UNL     1      69.568  49.329   7.971  1.00  0.00     0.174 C 
ATOM     13  O   UNL     1      71.833  48.359   8.076  1.00  0.00    -0.344 OA
ATOM     14  C   UNL     1      69.404  49.011   6.492  1.00  0.00     0.179 C 
ATOM     15  C   UNL     1      70.783  49.078   5.818  1.00  0.00     0.202 C 
BRANCH  12  16
ATOM     16  O   UNL     1      68.299  49.292   8.587  1.00  0.00    -0.388 OA
ATOM     17  H   UNL     1      68.111  50.200   8.970  1.00  0.00     0.211 HD
ENDBRANCH  12  16
BRANCH  14  18
ATOM     18  O   UNL     1      68.829  47.735   6.340  1.00  0.00    -0.387 OA
ATOM     19  H   UNL     1      69.242  47.326   5.536  1.00  0.00     0.211 HD
ENDBRANCH  14  18
BRANCH  15  20
ATOM     20  O   UNL     1      70.706  48.498   4.539  1.00  0.00    -0.385 OA
ATOM     21  H   UNL     1      70.058  47.753   4.577  1.00  0.00     0.211 HD
ENDBRANCH  15  20
ENDBRANCH   8   9
ENDBRANCH   7   8
ENDBRANCH   1   7
BRANCH   2  22
ATOM     22  O   UNL     1      74.144  45.567   4.367  1.00  0.00    -0.387 OA
ATOM     23  H   UNL     1      74.112  46.519   4.635  1.00  0.00     0.211 HD
ENDBRANCH   2  22
BRANCH   3  24
ATOM     24  O   UNL     1      74.097  42.815   4.800  1.00  0.00    -0.387 OA
ATOM     25  H   UNL     1      74.749  43.510   5.093  1.00  0.00     0.211 HD
ENDBRANCH   3  24
BRANCH   5  26
ATOM     26  O   UNL     1      70.348  42.764   7.189  1.00  0.00    -0.454 OA
BRANCH  26  27
ATOM     27  C   UNL     1      68.964  42.920   7.427  1.00  0.00     0.214 A 
ATOM     28  C   UNL     1      68.144  41.772   7.421  1.00  0.00     0.180 A 
ATOM     29  C   UNL     1      68.349  44.168   7.660  1.00  0.00     0.239 A 
ATOM     30  O   UNL     1      66.864  41.867   7.787  1.00  0.00    -0.452 OA
ATOM     31  C   UNL     1      66.998  44.225   8.053  1.00  0.00     0.111 A 
ATOM     32  O   UNL     1      68.990  45.235   7.483  1.00  0.00    -0.285 OA
ATOM     33  C   UNL     1      66.280  43.005   8.128  1.00  0.00     0.146 A 
ATOM     34  C   UNL     1      66.334  45.437   8.375  1.00  0.00     0.134 A 
ATOM     35  C   UNL     1      64.949  42.993   8.561  1.00  0.00     0.094 A 
ATOM     36  C   UNL     1      65.010  45.403   8.823  1.00  0.00     0.093 A 
ATOM     37  C   UNL     1      64.312  44.187   8.918  1.00  0.00     0.123 A 
BRANCH  28  38
ATOM     38  C   UNL     1      68.645  40.437   7.002  1.00  0.00     0.025 A 
ATOM     39  C   UNL     1      68.995  39.458   7.951  1.00  0.00     0.062 A 
ATOM     40  C   UNL     1      68.933  40.205   5.642  1.00  0.00     0.016 A 
ATOM     41  C   UNL     1      69.610  38.264   7.555  1.00  0.00     0.158 A 
ATOM     42  C   UNL     1      69.564  39.029   5.238  1.00  0.00     0.051 A 
ATOM     43  C   UNL     1      69.889  38.042   6.180  1.00  0.00     0.157 A 
BRANCH  41  44
ATOM     44  O   UNL     1      69.964  37.350   8.551  1.00  0.00    -0.504 OA
ATOM     45  H   UNL     1      70.404  37.624   9.421  1.00  0.00     0.293 HD
ENDBRANCH  41  44
BRANCH  43  46
ATOM     46  O   UNL     1      70.501  36.875   5.715  1.00  0.00    -0.504 OA
ATOM     47  H   UNL     1      70.027  36.172   5.163  1.00  0.00     0.293 HD
ENDBRANCH  43  46
ENDBRANCH  28  38
BRANCH  34  48
ATOM     48  O   UNL     1      66.976  46.667   8.252  1.00  0.00    -0.507 OA
ATOM     49  H   UNL     1      66.574  47.524   8.616  1.00  0.00     0.293 HD
ENDBRANCH  34  48
BRANCH  37  50
ATOM     50  O   UNL     1      62.980  44.167   9.355  1.00  0.00    -0.508 OA
ATOM     51  H   UNL     1      62.272  43.588   8.915  1.00  0.00     0.293 HD
ENDBRANCH  37  50
ENDBRANCH  26  27
ENDBRANCH   5  26
BRANCH   4  52
ATOM     52  O   UNL     1      72.017  41.507   5.588  1.00  0.00    -0.384 OA
ATOM     53  H   UNL     1      71.606  40.889   4.912  1.00  0.00     0.211 HD
ENDBRANCH   4  52
TORSDOF 16
ENDMDL
MODEL 2
REMARK VINA RESULT:    -6.813      1.904      6.555
REMARK INTER + INTRA:         -13.926
REMARK INTER:                 -10.217
REMARK INTRA:                  -3.710
REMARK UNBOUND:                -2.732
REMARK SMILES C[C@@H]1O[C@@H](OC[C@H]2O[C@H](Oc3c(-c4ccc(O)c(O)c4)oc4cc(O)cc(O)c4c3=O)[C@H](O)[C@H](O)[C@@H]2O)[C@@H](O)[C@@H](O)[C@H]1O
REMARK SMILES IDX 7 1 36 2 34 3 32 4 9 5 8 6 6 7 5 8 4 9 1 10 2 11 42 12 3 13
REMARK SMILES IDX 40 14 38 15 43 16 41 18 39 20 37 22 35 24 10 26 11 27 12 28
REMARK SMILES IDX 30 29 21 30 29 31 31 32 22 33 27 34 23 35 26 36 24 37 13 38
REMARK SMILES IDX 20 39 14 40 18 41 15 42 16 43 19 44 17 46 28 48 25 50 33 52
REMARK H PARENT 43 17 41 19 39 21 37 23 35 25 19 45 17 47 28 49 25 51 33 53
REMARK Flexibility Score: inf
ROOT
ATOM      1  C   UNL     1      70.368  47.947   7.298  1.00  0.00     0.180 C 
ATOM      2  C   UNL     1      70.738  49.051   8.326  1.00  0.00     0.177 C 
ATOM      3  C   UNL     1      69.582  49.196   9.321  1.00  0.00     0.180 C 
ATOM      4  C   UNL     1      69.299  47.835  10.014  1.00  0.00     0.214 C 
ATOM      5  C   UNL     1      69.943  46.650   9.258  1.00  0.00     0.339 C 
ATOM      6  O   UNL     1      69.766  46.777   7.852  1.00  0.00    -0.332 OA
ENDROOT
BRANCH   1   7
ATOM      7  C   UNL     1      71.549  47.577   6.373  1.00  0.00     0.198 C 
BRANCH   7   8
ATOM      8  O   UNL     1      72.734  48.146   6.888  1.00  0.00    -0.347 OA
BRANCH   8   9
ATOM      9  C   UNL     1      73.774  47.194   7.057  1.00  0.00     0.281 C 
ATOM     10  C   UNL     1      73.340  43.611   6.249  1.00  0.00     0.041 C 
ATOM     11  C   UNL     1      73.273  44.828   7.192  1.00  0.00     0.150 C 
ATOM     12  C   UNL     1      74.302  44.683   8.326  1.00  0.00     0.174 C 
ATOM     13  O   UNL     1      73.499  45.969   6.381  1.00  0.00    -0.344 OA
ATOM     14  C   UNL     1      74.170  45.866   9.275  1.00  0.00     0.179 C 
ATOM     15  C   UNL     1      74.427  47.160   8.488  1.00  0.00     0.202 C 
BRANCH  12  16
ATOM     16  O   UNL     1      74.090  43.493   9.053  1.00  0.00    -0.388 OA
ATOM     17  H   UNL     1      74.034  42.734   8.400  1.00  0.00     0.211 HD
ENDBRANCH  12  16
BRANCH  14  18
ATOM     18  O   UNL     1      72.885  45.873   9.851  1.00  0.00    -0.387 OA
ATOM     19  H   UNL     1      72.874  46.603  10.522  1.00  0.00     0.211 HD
ENDBRANCH  14  18
BRANCH  15  20
ATOM     20  O   UNL     1      74.017  48.264   9.256  1.00  0.00    -0.385 OA
ATOM     21  H   UNL     1      74.427  48.185  10.151  1.00  0.00     0.211 HD
ENDBRANCH  15  20
ENDBRANCH   8   9
ENDBRANCH   7   8
ENDBRANCH   1   7
BRANCH   2  22
ATOM     22  O   UNL     1      70.977  50.265   7.657  1.00  0.00    -0.387 OA
ATOM     23  H   UNL     1      71.299  50.903   8.341  1.00  0.00     0.211 HD
ENDBRANCH   2  22
BRANCH   3  24
ATOM     24  O   UNL     1      68.441  49.658   8.638  1.00  0.00    -0.387 OA
ATOM     25  H   UNL     1      68.074  48.877   8.139  1.00  0.00     0.211 HD
ENDBRANCH   3  24
BRANCH   5  26
ATOM     26  O   UNL     1      69.334  45.439   9.719  1.00  0.00    -0.454 OA
BRANCH  26  27
ATOM     27  C   UNL     1      69.249  44.214   9.020  1.00  0.00     0.214 A 
ATOM     28  C   UNL     1      68.060  43.917   8.322  1.00  0.00     0.180 A 
ATOM     29  C   UNL     1      70.287  43.258   8.991  1.00  0.00     0.239 A 
ATOM     30  O   UNL     1      68.002  42.840   7.534  1.00  0.00    -0.452 OA
ATOM     31  C   UNL     1      70.192  42.141   8.140  1.00  0.00     0.111 A 
ATOM     32  O   UNL     1      71.282  43.379   9.749  1.00  0.00    -0.285 OA
ATOM     33  C   UNL     1      69.000  41.982   7.389  1.00  0.00     0.146 A 
ATOM     34  C   UNL     1      71.226  41.179   8.004  1.00  0.00     0.134 A 
ATOM     35  C   UNL     1      68.868  40.919   6.488  1.00  0.00     0.094 A 
ATOM     36  C   UNL     1      71.083  40.134   7.086  1.00  0.00     0.093 A 
ATOM     37  C   UNL     1      69.909  39.997   6.327  1.00  0.00     0.123 A 
BRANCH  28  38
ATOM     38  C   UNL     1      66.837  44.754   8.436  1.00  0.00     0.025 A 
ATOM     39  C   UNL     1      66.588  45.809   7.538  1.00  0.00     0.062 A 
ATOM     40  C   UNL     1      66.000  44.600   9.559  1.00  0.00     0.016 A 
ATOM     41  C   UNL     1      65.518  46.688   7.744  1.00  0.00     0.158 A 
ATOM     42  C   UNL     1      64.944  45.482   9.786  1.00  0.00     0.051 A 
ATOM     43  C   UNL     1      64.679  46.517   8.877  1.00  0.00     0.157 A 
BRANCH  41  44
ATOM     44  O   UNL     1      65.348  47.735   6.834  1.00  0.00    -0.504 OA
ATOM     45  H   UNL     1      66.097  48.363   6.569  1.00  0.00     0.293 HD
ENDBRANCH  41  44
BRANCH  43  46
ATOM     46  O   UNL     1      63.595  47.357   9.145  1.00  0.00    -0.504 OA
ATOM     47  H   UNL     1      62.969  47.235   9.929  1.00  0.00     0.293 HD
ENDBRANCH  43  46
ENDBRANCH  28  38
BRANCH  34  48
ATOM     48  O   UNL     1      72.386  41.253   8.771  1.00  0.00    -0.507 OA
ATOM     49  H   UNL     1      73.221  41.727   8.442  1.00  0.00     0.293 HD
ENDBRANCH  34  48
BRANCH  37  50
ATOM     50  O   UNL     1      69.771  38.937   5.421  1.00  0.00    -0.508 OA
ATOM     51  H   UNL     1      70.464  38.200   5.336  1.00  0.00     0.293 HD
ENDBRANCH  37  50
ENDBRANCH  26  27
ENDBRANCH   5  26
BRANCH   4  52
ATOM     52  O   UNL     1      67.911  47.616  10.125  1.00  0.00    -0.384 OA
ATOM     53  H   UNL     1      67.564  47.525   9.189  1.00  0.00     0.211 HD
ENDBRANCH   4  52
TORSDOF 16
ENDMDL
MODEL 3
REMARK VINA RESULT:    -6.659      1.920      5.411
REMARK INTER + INTRA:         -13.673
REMARK INTER:                 -10.756
REMARK INTRA:                  -2.917
REMARK UNBOUND:                -2.732
REMARK SMILES C[C@@H]1O[C@@H](OC[C@H]2O[C@H](Oc3c(-c4ccc(O)c(O)c4)oc4cc(O)cc(O)c4c3=O)[C@H](O)[C@H](O)[C@@H]2O)[C@@H](O)[C@@H](O)[C@H]1O
REMARK SMILES IDX 7 1 36 2 34 3 32 4 9 5 8 6 6 7 5 8 4 9 1 10 2 11 42 12 3 13
REMARK SMILES IDX 40 14 38 15 43 16 41 18 39 20 37 22 35 24 10 26 11 27 12 28
REMARK SMILES IDX 30 29 21 30 29 31 31 32 22 33 27 34 23 35 26 36 24 37 13 38
REMARK SMILES IDX 20 39 14 40 18 41 15 42 16 43 19 44 17 46 28 48 25 50 33 52
REMARK H PARENT 43 17 41 19 39 21 37 23 35 25 19 45 17 47 28 49 25 51 33 53
REMARK Flexibility Score: inf
ROOT
ATOM      1  C   UNL     1      71.110  43.517   6.548  1.00  0.00     0.180 C 
ATOM      2  C   UNL     1      70.331  42.715   5.470  1.00  0.00     0.177 C 
ATOM      3  C   UNL     1      69.605  41.554   6.158  1.00  0.00     0.180 C 
ATOM      4  C   UNL     1      68.662  42.095   7.267  1.00  0.00     0.214 C 
ATOM      5  C   UNL     1      68.994  43.554   7.654  1.00  0.00     0.339 C 
ATOM      6  O   UNL     1      70.398  43.755   7.763  1.00  0.00    -0.332 OA
ENDROOT
BRANCH   1   7
ATOM      7  C   UNL     1      71.710  44.828   5.994  1.00  0.00     0.198 C 
BRANCH   7   8
ATOM      8  O   UNL     1      73.039  44.589   5.580  1.00  0.00    -0.347 OA
BRANCH   8   9
ATOM      9  C   UNL     1      73.952  45.561   6.064  1.00  0.00     0.281 C 
ATOM     10  C   UNL     1      73.921  46.746   9.568  1.00  0.00     0.041 C 
ATOM     11  C   UNL     1      73.479  46.798   8.092  1.00  0.00     0.150 C 
ATOM     12  C   UNL     1      74.000  48.081   7.422  1.00  0.00     0.174 C 
ATOM     13  O   UNL     1      73.977  45.616   7.489  1.00  0.00    -0.344 OA
ATOM     14  C   UNL     1      73.496  48.135   5.987  1.00  0.00     0.179 C 
ATOM     15  C   UNL     1      74.012  46.898   5.237  1.00  0.00     0.202 C 
BRANCH  12  16
ATOM     16  O   UNL     1      73.547  49.229   8.106  1.00  0.00    -0.388 OA
ATOM     17  H   UNL     1      73.065  49.813   7.449  1.00  0.00     0.211 HD
ENDBRANCH  12  16
BRANCH  14  18
ATOM     18  O   UNL     1      72.088  48.181   5.978  1.00  0.00    -0.387 OA
ATOM     19  H   UNL     1      71.772  47.280   5.711  1.00  0.00     0.211 HD
ENDBRANCH  14  18
BRANCH  15  20
ATOM     20  O   UNL     1      73.320  46.769   4.019  1.00  0.00    -0.385 OA
ATOM     21  H   UNL     1      73.712  47.405   3.373  1.00  0.00     0.211 HD
ENDBRANCH  15  20
ENDBRANCH   8   9
ENDBRANCH   7   8
ENDBRANCH   1   7
BRANCH   2  22
ATOM     22  O   UNL     1      71.224  42.238   4.493  1.00  0.00    -0.387 OA
ATOM     23  H   UNL     1      72.002  41.871   4.981  1.00  0.00     0.211 HD
ENDBRANCH   2  22
BRANCH   3  24
ATOM     24  O   UNL     1      70.559  40.669   6.698  1.00  0.00    -0.387 OA
ATOM     25  H   UNL     1      71.248  41.234   7.144  1.00  0.00     0.211 HD
ENDBRANCH   3  24
BRANCH   5  26
ATOM     26  O   UNL     1      68.362  43.841   8.906  1.00  0.00    -0.454 OA
BRANCH  26  27
ATOM     27  C   UNL     1      67.002  44.161   9.117  1.00  0.00     0.214 A 
ATOM     28  C   UNL     1      66.594  45.504   8.973  1.00  0.00     0.180 A 
ATOM     29  C   UNL     1      66.024  43.210   9.478  1.00  0.00     0.239 A 
ATOM     30  O   UNL     1      65.296  45.814   9.019  1.00  0.00    -0.452 OA
ATOM     31  C   UNL     1      64.664  43.575   9.506  1.00  0.00     0.111 A 
ATOM     32  O   UNL     1      66.362  42.047   9.810  1.00  0.00    -0.285 OA
ATOM     33  C   UNL     1      64.337  44.928   9.238  1.00  0.00     0.146 A 
ATOM     34  C   UNL     1      63.621  42.656   9.788  1.00  0.00     0.134 A 
ATOM     35  C   UNL     1      62.999  45.339   9.202  1.00  0.00     0.094 A 
ATOM     36  C   UNL     1      62.290  43.081   9.731  1.00  0.00     0.093 A 
ATOM     37  C   UNL     1      61.972  44.418   9.440  1.00  0.00     0.123 A 
BRANCH  28  38
ATOM     38  C   UNL     1      67.562  46.616   8.783  1.00  0.00     0.025 A 
ATOM     39  C   UNL     1      67.853  47.121   7.502  1.00  0.00     0.062 A 
ATOM     40  C   UNL     1      68.327  47.057   9.882  1.00  0.00     0.016 A 
ATOM     41  C   UNL     1      68.876  48.058   7.316  1.00  0.00     0.158 A 
ATOM     42  C   UNL     1      69.362  47.975   9.706  1.00  0.00     0.051 A 
ATOM     43  C   UNL     1      69.635  48.498   8.434  1.00  0.00     0.157 A 
BRANCH  41  44
ATOM     44  O   UNL     1      69.137  48.491   6.013  1.00  0.00    -0.504 OA
ATOM     45  H   UNL     1      68.626  48.154   5.207  1.00  0.00     0.293 HD
ENDBRANCH  41  44
BRANCH  43  46
ATOM     46  O   UNL     1      70.670  49.430   8.321  1.00  0.00    -0.504 OA
ATOM     47  H   UNL     1      70.654  50.214   7.684  1.00  0.00     0.293 HD
ENDBRANCH  43  46
ENDBRANCH  28  38
BRANCH  34  48
ATOM     48  O   UNL     1      63.895  41.333  10.125  1.00  0.00    -0.507 OA
ATOM     49  H   UNL     1      63.862  40.584   9.441  1.00  0.00     0.293 HD
ENDBRANCH  34  48
BRANCH  37  50
ATOM     50  O   UNL     1      60.635  44.836   9.399  1.00  0.00    -0.508 OA
ATOM     51  H   UNL     1      60.367  45.779   9.136  1.00  0.00     0.293 HD
ENDBRANCH  37  50
ENDBRANCH  26  27
ENDBRANCH   5  26
BRANCH   4  52
ATOM     52  O   UNL     1      68.733  41.282   8.416  1.00  0.00    -0.384 OA
ATOM     53  H   UNL     1      68.551  40.344   8.110  1.00  0.00     0.211 HD
ENDBRANCH   4  52
TORSDOF 16
ENDMDL
MODEL 4
REMARK VINA RESULT:    -6.644      2.121      6.538
REMARK INTER + INTRA:         -13.649
REMARK INTER:                 -11.212
REMARK INTRA:                  -2.437
REMARK UNBOUND:                -2.732
REMARK SMILES C[C@@H]1O[C@@H](OC[C@H]2O[C@H](Oc3c(-c4ccc(O)c(O)c4)oc4cc(O)cc(O)c4c3=O)[C@H](O)[C@H](O)[C@@H]2O)[C@@H](O)[C@@H](O)[C@H]1O
REMARK SMILES IDX 7 1 36 2 34 3 32 4 9 5 8 6 6 7 5 8 4 9 1 10 2 11 42 12 3 13
REMARK SMILES IDX 40 14 38 15 43 16 41 18 39 20 37 22 35 24 10 26 11 27 12 28
REMARK SMILES IDX 30 29 21 30 29 31 31 32 22 33 27 34 23 35 26 36 24 37 13 38
REMARK SMILES IDX 20 39 14 40 18 41 15 42 16 43 19 44 17 46 28 48 25 50 33 52
REMARK H PARENT 43 17 41 19 39 21 37 23 35 25 19 45 17 47 28 49 25 51 33 53
REMARK Flexibility Score: inf
ROOT
ATOM      1  C   UNL     1      72.582  47.237   8.341  1.00  0.00     0.180 C 
ATOM      2  C   UNL     1      72.719  48.305   9.461  1.00  0.00     0.177 C 
ATOM      3  C   UNL     1      71.336  48.905   9.734  1.00  0.00     0.180 C 
ATOM      4  C   UNL     1      70.334  47.785  10.125  1.00  0.00     0.214 C 
ATOM      5  C   UNL     1      70.857  46.378   9.752  1.00  0.00     0.339 C 
ATOM      6  O   UNL     1      71.451  46.373   8.460  1.00  0.00    -0.332 OA
ENDROOT
BRANCH   1   7
ATOM      7  C   UNL     1      73.879  46.426   8.132  1.00  0.00     0.198 C 
BRANCH   7   8
ATOM      8  O   UNL     1      73.569  45.226   7.454  1.00  0.00    -0.347 OA
BRANCH   8   9
ATOM      9  C   UNL     1      73.900  45.271   6.075  1.00  0.00     0.281 C 
ATOM     10  C   UNL     1      72.475  47.789   3.770  1.00  0.00     0.041 C 
ATOM     11  C   UNL     1      72.471  46.431   4.499  1.00  0.00     0.150 C 
ATOM     12  C   UNL     1      72.662  45.283   3.494  1.00  0.00     0.174 C 
ATOM     13  O   UNL     1      73.507  46.499   5.465  1.00  0.00    -0.344 OA
ATOM     14  C   UNL     1      72.591  43.954   4.233  1.00  0.00     0.179 C 
ATOM     15  C   UNL     1      73.702  43.920   5.292  1.00  0.00     0.202 C 
BRANCH  12  16
ATOM     16  O   UNL     1      71.657  45.305   2.504  1.00  0.00    -0.388 OA
ATOM     17  H   UNL     1      71.830  46.088   1.901  1.00  0.00     0.211 HD
ENDBRANCH  12  16
BRANCH  14  18
ATOM     18  O   UNL     1      71.323  43.806   4.827  1.00  0.00    -0.387 OA
ATOM     19  H   UNL     1      71.449  43.902   5.805  1.00  0.00     0.211 HD
ENDBRANCH  14  18
BRANCH  15  20
ATOM     20  O   UNL     1      73.470  42.853   6.179  1.00  0.00    -0.385 OA
ATOM     21  H   UNL     1      73.831  43.105   7.064  1.00  0.00     0.211 HD
ENDBRANCH  15  20
ENDBRANCH   8   9
ENDBRANCH   7   8
ENDBRANCH   1   7
BRANCH   2  22
ATOM     22  O   UNL     1      73.627  49.302   9.061  1.00  0.00    -0.387 OA
ATOM     23  H   UNL     1      73.604  49.999   9.762  1.00  0.00     0.211 HD
ENDBRANCH   2  22
BRANCH   3  24
ATOM     24  O   UNL     1      70.897  49.591   8.585  1.00  0.00    -0.387 OA
ATOM     25  H   UNL     1      70.680  50.520   8.874  1.00  0.00     0.211 HD
ENDBRANCH   3  24
BRANCH   5  26
ATOM     26  O   UNL     1      69.754  45.466   9.785  1.00  0.00    -0.454 OA
BRANCH  26  27
ATOM     27  C   UNL     1      69.598  44.296   9.009  1.00  0.00     0.214 A 
ATOM     28  C   UNL     1      68.406  44.126   8.274  1.00  0.00     0.180 A 
ATOM     29  C   UNL     1      70.568  43.273   8.935  1.00  0.00     0.239 A 
ATOM     30  O   UNL     1      68.290  43.108   7.419  1.00  0.00    -0.452 OA
ATOM     31  C   UNL     1      70.413  42.220   8.013  1.00  0.00     0.111 A 
ATOM     32  O   UNL     1      71.554  43.276   9.715  1.00  0.00    -0.285 OA
ATOM     33  C   UNL     1      69.229  42.193   7.235  1.00  0.00     0.146 A 
ATOM     34  C   UNL     1      71.381  41.199   7.832  1.00  0.00     0.134 A 
ATOM     35  C   UNL     1      69.041  41.200   6.265  1.00  0.00     0.094 A 
ATOM     36  C   UNL     1      71.184  40.226   6.847  1.00  0.00     0.093 A 
ATOM     37  C   UNL     1      70.019  40.219   6.062  1.00  0.00     0.123 A 
BRANCH  28  38
ATOM     38  C   UNL     1      67.242  45.039   8.423  1.00  0.00     0.025 A 
ATOM     39  C   UNL     1      66.959  46.024   7.458  1.00  0.00     0.062 A 
ATOM     40  C   UNL     1      66.510  45.031   9.627  1.00  0.00     0.016 A 
ATOM     41  C   UNL     1      65.958  46.978   7.680  1.00  0.00     0.158 A 
ATOM     42  C   UNL     1      65.525  45.988   9.868  1.00  0.00     0.051 A 
ATOM     43  C   UNL     1      65.224  46.953   8.896  1.00  0.00     0.157 A 
BRANCH  41  44
ATOM     44  O   UNL     1      65.752  47.950   6.697  1.00  0.00    -0.504 OA
ATOM     45  H   UNL     1      66.378  48.083   5.913  1.00  0.00     0.293 HD
ENDBRANCH  41  44
BRANCH  43  46
ATOM     46  O   UNL     1      64.213  47.873   9.184  1.00  0.00    -0.504 OA
ATOM     47  H   UNL     1      64.064  48.280  10.097  1.00  0.00     0.293 HD
ENDBRANCH  43  46
ENDBRANCH  28  38
BRANCH  34  48
ATOM     48  O   UNL     1      72.528  41.143   8.620  1.00  0.00    -0.507 OA
ATOM     49  H   UNL     1      72.617  41.670   9.482  1.00  0.00     0.293 HD
ENDBRANCH  34  48
BRANCH  37  50
ATOM     50  O   UNL     1      69.827  39.231   5.088  1.00  0.00    -0.508 OA
ATOM     51  H   UNL     1      70.441  38.427   5.000  1.00  0.00     0.293 HD
ENDBRANCH  37  50
ENDBRANCH  26  27
ENDBRANCH   5  26
BRANCH   4  52
ATOM     52  O   UNL     1      69.087  47.996   9.504  1.00  0.00    -0.384 OA
ATOM     53  H   UNL     1      68.502  48.437  10.189  1.00  0.00     0.211 HD
ENDBRANCH   4  52
TORSDOF 16
ENDMDL
MODEL 5
REMARK VINA RESULT:    -6.641      1.873      5.670
REMARK INTER + INTRA:         -13.643
REMARK INTER:                 -10.656
REMARK INTRA:                  -2.987
REMARK UNBOUND:                -2.732
REMARK SMILES C[C@@H]1O[C@@H](OC[C@H]2O[C@H](Oc3c(-c4ccc(O)c(O)c4)oc4cc(O)cc(O)c4c3=O)[C@H](O)[C@H](O)[C@@H]2O)[C@@H](O)[C@@H](O)[C@H]1O
REMARK SMILES IDX 7 1 36 2 34 3 32 4 9 5 8 6 6 7 5 8 4 9 1 10 2 11 42 12 3 13
REMARK SMILES IDX 40 14 38 15 43 16 41 18 39 20 37 22 35 24 10 26 11 27 12 28
REMARK SMILES IDX 30 29 21 30 29 31 31 32 22 33 27 34 23 35 26 36 24 37 13 38
REMARK SMILES IDX 20 39 14 40 18 41 15 42 16 43 19 44 17 46 28 48 25 50 33 52
REMARK H PARENT 43 17 41 19 39 21 37 23 35 25 19 45 17 47 28 49 25 51 33 53
REMARK Flexibility Score: inf
ROOT
ATOM      1  C   UNL     1      70.968  41.043   7.019  1.00  0.00     0.180 C 
ATOM      2  C   UNL     1      70.017  40.770   5.822  1.00  0.00     0.177 C 
ATOM      3  C   UNL     1      68.643  40.374   6.373  1.00  0.00     0.180 C 
ATOM      4  C   UNL     1      68.096  41.493   7.301  1.00  0.00     0.214 C 
ATOM      5  C   UNL     1      69.202  42.480   7.740  1.00  0.00     0.339 C 
ATOM      6  O   UNL     1      70.398  41.794   8.091  1.00  0.00    -0.332 OA
ENDROOT
BRANCH   1   7
ATOM      7  C   UNL     1      72.320  41.648   6.577  1.00  0.00     0.198 C 
BRANCH   7   8
ATOM      8  O   UNL     1      72.134  42.362   5.373  1.00  0.00    -0.347 OA
BRANCH   8   9
ATOM      9  C   UNL     1      73.107  43.377   5.178  1.00  0.00     0.281 C 
ATOM     10  C   UNL     1      74.975  44.905   7.982  1.00  0.00     0.041 C 
ATOM     11  C   UNL     1      73.781  44.811   7.011  1.00  0.00     0.150 C 
ATOM     12  C   UNL     1      73.768  46.019   6.059  1.00  0.00     0.174 C 
ATOM     13  O   UNL     1      73.921  43.573   6.333  1.00  0.00    -0.344 OA
ATOM     14  C   UNL     1      72.546  45.931   5.157  1.00  0.00     0.179 C 
ATOM     15  C   UNL     1      72.621  44.625   4.352  1.00  0.00     0.202 C 
BRANCH  12  16
ATOM     16  O   UNL     1      73.713  47.231   6.781  1.00  0.00    -0.388 OA
ATOM     17  H   UNL     1      74.579  47.717   6.641  1.00  0.00     0.211 HD
ENDBRANCH  12  16
BRANCH  14  18
ATOM     18  O   UNL     1      71.374  45.978   5.935  1.00  0.00    -0.387 OA
ATOM     19  H   UNL     1      70.839  45.177   5.700  1.00  0.00     0.211 HD
ENDBRANCH  14  18
BRANCH  15  20
ATOM     20  O   UNL     1      71.375  44.375   3.749  1.00  0.00    -0.385 OA
ATOM     21  H   UNL     1      70.697  44.300   4.463  1.00  0.00     0.211 HD
ENDBRANCH  15  20
ENDBRANCH   8   9
ENDBRANCH   7   8
ENDBRANCH   1   7
BRANCH   2  22
ATOM     22  O   UNL     1      70.546  39.747   5.016  1.00  0.00    -0.387 OA
ATOM     23  H   UNL     1      70.739  40.155   4.135  1.00  0.00     0.211 HD
ENDBRANCH   2  22
BRANCH   3  24
ATOM     24  O   UNL     1      68.760  39.157   7.071  1.00  0.00    -0.387 OA
ATOM     25  H   UNL     1      68.004  38.583   6.769  1.00  0.00     0.211 HD
ENDBRANCH   3  24
BRANCH   5  26
ATOM     26  O   UNL     1      68.720  43.226   8.862  1.00  0.00    -0.454 OA
BRANCH  26  27
ATOM     27  C   UNL     1      68.511  44.622   8.927  1.00  0.00     0.214 A 
ATOM     28  C   UNL     1      67.193  45.101   9.075  1.00  0.00     0.180 A 
ATOM     29  C   UNL     1      69.551  45.571   8.838  1.00  0.00     0.239 A 
ATOM     30  O   UNL     1      66.977  46.402   9.287  1.00  0.00    -0.452 OA
ATOM     31  C   UNL     1      69.285  46.933   9.077  1.00  0.00     0.111 A 
ATOM     32  O   UNL     1      70.711  45.213   8.510  1.00  0.00    -0.285 OA
ATOM     33  C   UNL     1      67.941  47.308   9.328  1.00  0.00     0.146 A 
ATOM     34  C   UNL     1      70.292  47.932   9.078  1.00  0.00     0.134 A 
ATOM     35  C   UNL     1      67.621  48.639   9.623  1.00  0.00     0.094 A 
ATOM     36  C   UNL     1      69.956  49.253   9.391  1.00  0.00     0.093 A 
ATOM     37  C   UNL     1      68.626  49.614   9.663  1.00  0.00     0.123 A 
BRANCH  28  38
ATOM     38  C   UNL     1      66.006  44.210   8.989  1.00  0.00     0.025 A 
ATOM     39  C   UNL     1      65.146  44.246   7.875  1.00  0.00     0.062 A 
ATOM     40  C   UNL     1      65.640  43.440  10.111  1.00  0.00     0.016 A 
ATOM     41  C   UNL     1      63.950  43.519   7.869  1.00  0.00     0.158 A 
ATOM     42  C   UNL     1      64.441  42.729  10.125  1.00  0.00     0.051 A 
ATOM     43  C   UNL     1      63.597  42.742   9.005  1.00  0.00     0.157 A 
BRANCH  41  44
ATOM     44  O   UNL     1      63.124  43.626   6.747  1.00  0.00    -0.504 OA
ATOM     45  H   UNL     1      63.368  44.177   5.933  1.00  0.00     0.293 HD
ENDBRANCH  41  44
BRANCH  43  46
ATOM     46  O   UNL     1      62.419  41.994   9.069  1.00  0.00    -0.504 OA
ATOM     47  H   UNL     1      62.075  41.420   8.311  1.00  0.00     0.293 HD
ENDBRANCH  43  46
ENDBRANCH  28  38
BRANCH  34  48
ATOM     48  O   UNL     1      71.614  47.625   8.769  1.00  0.00    -0.507 OA
ATOM     49  H   UNL     1      72.371  47.775   9.428  1.00  0.00     0.293 HD
ENDBRANCH  34  48
BRANCH  37  50
ATOM     50  O   UNL     1      68.299  50.943   9.962  1.00  0.00    -0.508 OA
ATOM     51  H   UNL     1      68.414  51.336  10.891  1.00  0.00     0.293 HD
ENDBRANCH  37  50
ENDBRANCH  26  27
ENDBRANCH   5  26
BRANCH   4  52
ATOM     52  O   UNL     1      67.491  40.936   8.444  1.00  0.00    -0.384 OA
ATOM     53  H   UNL     1      67.527  41.642   9.156  1.00  0.00     0.211 HD
ENDBRANCH   4  52
TORSDOF 16
ENDMDL
MODEL 6
REMARK VINA RESULT:    -6.494      1.829      2.123
REMARK INTER + INTRA:         -13.403
REMARK INTER:                 -10.279
REMARK INTRA:                  -3.124
REMARK UNBOUND:                -2.732
REMARK SMILES C[C@@H]1O[C@@H](OC[C@H]2O[C@H](Oc3c(-c4ccc(O)c(O)c4)oc4cc(O)cc(O)c4c3=O)[C@H](O)[C@H](O)[C@@H]2O)[C@@H](O)[C@@H](O)[C@H]1O
REMARK SMILES IDX 7 1 36 2 34 3 32 4 9 5 8 6 6 7 5 8 4 9 1 10 2 11 42 12 3 13
REMARK SMILES IDX 40 14 38 15 43 16 41 18 39 20 37 22 35 24 10 26 11 27 12 28
REMARK SMILES IDX 30 29 21 30 29 31 31 32 22 33 27 34 23 35 26 36 24 37 13 38
REMARK SMILES IDX 20 39 14 40 18 41 15 42 16 43 19 44 17 46 28 48 25 50 33 52
REMARK H PARENT 43 17 41 19 39 21 37 23 35 25 19 45 17 47 28 49 25 51 33 53
REMARK Flexibility Score: inf
ROOT
ATOM      1  C   UNL     1      73.356  45.075   8.913  1.00  0.00     0.180 C 
ATOM      2  C   UNL     1      73.752  44.331   7.608  1.00  0.00     0.177 C 
ATOM      3  C   UNL     1      73.410  42.846   7.773  1.00  0.00     0.180 C 
ATOM      4  C   UNL     1      71.901  42.677   8.099  1.00  0.00     0.214 C 
ATOM      5  C   UNL     1      71.252  44.001   8.562  1.00  0.00     0.339 C 
ATOM      6  O   UNL     1      72.096  44.702   9.469  1.00  0.00    -0.332 OA
ENDROOT
BRANCH   1   7
ATOM      7  C   UNL     1      73.468  46.610   8.777  1.00  0.00     0.198 C 
BRANCH   7   8
ATOM      8  O   UNL     1      73.521  46.950   7.408  1.00  0.00    -0.347 OA
BRANCH   8   9
ATOM      9  C   UNL     1      72.780  48.121   7.101  1.00  0.00     0.281 C 
ATOM     10  C   UNL     1      70.698  49.870   9.609  1.00  0.00     0.041 C 
ATOM     11  C   UNL     1      70.935  48.819   8.506  1.00  0.00     0.150 C 
ATOM     12  C   UNL     1      70.121  49.170   7.249  1.00  0.00     0.174 C 
ATOM     13  O   UNL     1      72.333  48.800   8.273  1.00  0.00    -0.344 OA
ATOM     14  C   UNL     1      70.324  48.084   6.203  1.00  0.00     0.179 C 
ATOM     15  C   UNL     1      71.820  48.004   5.861  1.00  0.00     0.202 C 
BRANCH  12  16
ATOM     16  O   UNL     1      68.744  49.261   7.547  1.00  0.00    -0.388 OA
ATOM     17  H   UNL     1      68.232  49.151   6.691  1.00  0.00     0.211 HD
ENDBRANCH  12  16
BRANCH  14  18
ATOM     18  O   UNL     1      69.853  46.852   6.697  1.00  0.00    -0.387 OA
ATOM     19  H   UNL     1      69.040  47.047   7.230  1.00  0.00     0.211 HD
ENDBRANCH  14  18
BRANCH  15  20
ATOM     20  O   UNL     1      72.071  46.823   5.138  1.00  0.00    -0.385 OA
ATOM     21  H   UNL     1      73.039  46.782   4.945  1.00  0.00     0.211 HD
ENDBRANCH  15  20
ENDBRANCH   8   9
ENDBRANCH   7   8
ENDBRANCH   1   7
BRANCH   2  22
ATOM     22  O   UNL     1      75.125  44.503   7.358  1.00  0.00    -0.387 OA
ATOM     23  H   UNL     1      75.193  45.064   6.546  1.00  0.00     0.211 HD
ENDBRANCH   2  22
BRANCH   3  24
ATOM     24  O   UNL     1      74.208  42.301   8.798  1.00  0.00    -0.387 OA
ATOM     25  H   UNL     1      74.013  41.324   8.820  1.00  0.00     0.211 HD
ENDBRANCH   3  24
BRANCH   5  26
ATOM     26  O   UNL     1      70.005  43.694   9.194  1.00  0.00    -0.454 OA
BRANCH  26  27
ATOM     27  C   UNL     1      68.730  44.187   8.838  1.00  0.00     0.214 A 
ATOM     28  C   UNL     1      67.863  43.351   8.103  1.00  0.00     0.180 A 
ATOM     29  C   UNL     1      68.274  45.482   9.166  1.00  0.00     0.239 A 
ATOM     30  O   UNL     1      66.603  43.730   7.879  1.00  0.00    -0.452 OA
ATOM     31  C   UNL     1      66.934  45.840   8.922  1.00  0.00     0.111 A 
ATOM     32  O   UNL     1      69.067  46.332   9.642  1.00  0.00    -0.285 OA
ATOM     33  C   UNL     1      66.104  44.890   8.276  1.00  0.00     0.146 A 
ATOM     34  C   UNL     1      66.387  47.095   9.292  1.00  0.00     0.134 A 
ATOM     35  C   UNL     1      64.750  45.169   8.052  1.00  0.00     0.094 A 
ATOM     36  C   UNL     1      65.029  47.350   9.076  1.00  0.00     0.093 A 
ATOM     37  C   UNL     1      64.206  46.394   8.458  1.00  0.00     0.123 A 
BRANCH  28  38
ATOM     38  C   UNL     1      68.302  42.047   7.539  1.00  0.00     0.025 A 
ATOM     39  C   UNL     1      68.196  40.857   8.284  1.00  0.00     0.062 A 
ATOM     40  C   UNL     1      68.990  42.024   6.309  1.00  0.00     0.016 A 
ATOM     41  C   UNL     1      68.751  39.663   7.810  1.00  0.00     0.158 A 
ATOM     42  C   UNL     1      69.564  40.845   5.837  1.00  0.00     0.051 A 
ATOM     43  C   UNL     1      69.436  39.654   6.565  1.00  0.00     0.157 A 
BRANCH  41  44
ATOM     44  O   UNL     1      68.641  38.526   8.615  1.00  0.00    -0.504 OA
ATOM     45  H   UNL     1      68.213  38.538   9.533  1.00  0.00     0.293 HD
ENDBRANCH  41  44
BRANCH  43  46
ATOM     46  O   UNL     1      70.014  38.499   6.033  1.00  0.00    -0.504 OA
ATOM     47  H   UNL     1      69.969  37.592   6.475  1.00  0.00     0.293 HD
ENDBRANCH  43  46
ENDBRANCH  28  38
BRANCH  34  48
ATOM     48  O   UNL     1      67.179  48.087   9.867  1.00  0.00    -0.507 OA
ATOM     49  H   UNL     1      68.173  47.960  10.023  1.00  0.00     0.293 HD
ENDBRANCH  34  48
BRANCH  37  50
ATOM     50  O   UNL     1      62.850  46.665   8.234  1.00  0.00    -0.508 OA
ATOM     51  H   UNL     1      62.332  46.251   7.466  1.00  0.00     0.293 HD
ENDBRANCH  37  50
ENDBRANCH  26  27
ENDBRANCH   5  26
BRANCH   4  52
ATOM     52  O   UNL     1      71.716  41.697   9.094  1.00  0.00    -0.384 OA
ATOM     53  H   UNL     1      71.977  42.124   9.964  1.00  0.00     0.211 HD
ENDBRANCH   4  52
TORSDOF 16
ENDMDL
MODEL 7
REMARK VINA RESULT:    -6.479      2.230      7.819
REMARK INTER + INTRA:         -13.377
REMARK INTER:                 -10.757
REMARK INTRA:                  -2.619
REMARK UNBOUND:                -2.732
REMARK SMILES C[C@@H]1O[C@@H](OC[C@H]2O[C@H](Oc3c(-c4ccc(O)c(O)c4)oc4cc(O)cc(O)c4c3=O)[C@H](O)[C@H](O)[C@@H]2O)[C@@H](O)[C@@H](O)[C@H]1O
REMARK SMILES IDX 7 1 36 2 34 3 32 4 9 5 8 6 6 7 5 8 4 9 1 10 2 11 42 12 3 13
REMARK SMILES IDX 40 14 38 15 43 16 41 18 39 20 37 22 35 24 10 26 11 27 12 28
REMARK SMILES IDX 30 29 21 30 29 31 31 32 22 33 27 34 23 35 26 36 24 37 13 38
REMARK SMILES IDX 20 39 14 40 18 41 15 42 16 43 19 44 17 46 28 48 25 50 33 52
REMARK H PARENT 43 17 41 19 39 21 37 23 35 25 19 45 17 47 28 49 25 51 33 53
REMARK Flexibility Score: inf
ROOT
ATOM      1  C   UNL     1      66.406  47.208   9.861  1.00  0.00     0.180 C 
ATOM      2  C   UNL     1      66.606  48.267   8.742  1.00  0.00     0.177 C 
ATOM      3  C   UNL     1      68.042  48.795   8.823  1.00  0.00     0.180 C 
ATOM      4  C   UNL     1      69.052  47.623   8.694  1.00  0.00     0.214 C 
ATOM      5  C   UNL     1      68.383  46.248   8.924  1.00  0.00     0.339 C 
ATOM      6  O   UNL     1      67.485  46.288  10.028  1.00  0.00    -0.332 OA
ENDROOT
BRANCH   1   7
ATOM      7  C   UNL     1      65.058  46.463   9.740  1.00  0.00     0.198 C 
BRANCH   7   8
ATOM      8  O   UNL     1      64.450  46.807   8.513  1.00  0.00    -0.347 OA
BRANCH   8   9
ATOM      9  C   UNL     1      63.593  45.789   8.017  1.00  0.00     0.281 C 
ATOM     10  C   UNL     1      60.989  44.193  10.103  1.00  0.00     0.041 C 
ATOM     11  C   UNL     1      62.418  44.315   9.538  1.00  0.00     0.150 C 
ATOM     12  C   UNL     1      62.732  43.125   8.616  1.00  0.00     0.174 C 
ATOM     13  O   UNL     1      62.472  45.564   8.870  1.00  0.00    -0.344 OA
ATOM     14  C   UNL     1      64.168  43.240   8.124  1.00  0.00     0.179 C 
ATOM     15  C   UNL     1      64.321  44.561   7.356  1.00  0.00     0.202 C 
BRANCH  12  16
ATOM     16  O   UNL     1      62.583  41.901   9.300  1.00  0.00    -0.388 OA
ATOM     17  H   UNL     1      61.957  41.322   8.772  1.00  0.00     0.211 HD
ENDBRANCH  12  16
BRANCH  14  18
ATOM     18  O   UNL     1      65.052  43.187   9.218  1.00  0.00    -0.387 OA
ATOM     19  H   UNL     1      65.957  43.392   8.869  1.00  0.00     0.211 HD
ENDBRANCH  14  18
BRANCH  15  20
ATOM     20  O   UNL     1      65.688  44.831   7.159  1.00  0.00    -0.385 OA
ATOM     21  H   UNL     1      65.997  45.405   7.901  1.00  0.00     0.211 HD
ENDBRANCH  15  20
ENDBRANCH   8   9
ENDBRANCH   7   8
ENDBRANCH   1   7
BRANCH   2  22
ATOM     22  O   UNL     1      65.679  49.312   8.904  1.00  0.00    -0.387 OA
ATOM     23  H   UNL     1      64.907  48.928   9.390  1.00  0.00     0.211 HD
ENDBRANCH   2  22
BRANCH   3  24
ATOM     24  O   UNL     1      68.215  49.473  10.045  1.00  0.00    -0.387 OA
ATOM     25  H   UNL     1      67.948  48.835  10.763  1.00  0.00     0.211 HD
ENDBRANCH   3  24
BRANCH   5  26
ATOM     26  O   UNL     1      69.411  45.283   9.167  1.00  0.00    -0.454 OA
BRANCH  26  27
ATOM     27  C   UNL     1      69.787  44.213   8.323  1.00  0.00     0.214 A 
ATOM     28  C   UNL     1      71.062  44.243   7.721  1.00  0.00     0.180 A 
ATOM     29  C   UNL     1      68.948  43.115   8.034  1.00  0.00     0.239 A 
ATOM     30  O   UNL     1      71.502  43.183   7.041  1.00  0.00    -0.452 OA
ATOM     31  C   UNL     1      69.453  42.012   7.321  1.00  0.00     0.111 A 
ATOM     32  O   UNL     1      67.740  43.132   8.380  1.00  0.00    -0.285 OA
ATOM     33  C   UNL     1      70.788  42.085   6.849  1.00  0.00     0.146 A 
ATOM     34  C   UNL     1      68.692  40.844   7.058  1.00  0.00     0.134 A 
ATOM     35  C   UNL     1      71.362  40.999   6.177  1.00  0.00     0.094 A 
ATOM     36  C   UNL     1      69.288  39.762   6.401  1.00  0.00     0.093 A 
ATOM     37  C   UNL     1      70.619  39.833   5.958  1.00  0.00     0.123 A 
BRANCH  28  38
ATOM     38  C   UNL     1      71.952  45.432   7.798  1.00  0.00     0.025 A 
ATOM     39  C   UNL     1      72.846  45.606   8.871  1.00  0.00     0.062 A 
ATOM     40  C   UNL     1      71.779  46.482   6.874  1.00  0.00     0.016 A 
ATOM     41  C   UNL     1      73.567  46.798   9.018  1.00  0.00     0.158 A 
ATOM     42  C   UNL     1      72.475  47.681   7.022  1.00  0.00     0.051 A 
ATOM     43  C   UNL     1      73.386  47.845   8.075  1.00  0.00     0.157 A 
BRANCH  41  44
ATOM     44  O   UNL     1      74.410  46.920  10.125  1.00  0.00    -0.504 OA
ATOM     45  H   UNL     1      75.207  47.545  10.146  1.00  0.00     0.293 HD
ENDBRANCH  41  44
BRANCH  43  46
ATOM     46  O   UNL     1      74.071  49.060   8.160  1.00  0.00    -0.504 OA
ATOM     47  H   UNL     1      74.137  49.611   9.005  1.00  0.00     0.293 HD
ENDBRANCH  43  46
ENDBRANCH  28  38
BRANCH  34  48
ATOM     48  O   UNL     1      67.356  40.751   7.441  1.00  0.00    -0.507 OA
ATOM     49  H   UNL     1      67.073  40.744   8.415  1.00  0.00     0.293 HD
ENDBRANCH  34  48
BRANCH  37  50
ATOM     50  O   UNL     1      71.201  38.748   5.288  1.00  0.00    -0.508 OA
ATOM     51  H   UNL     1      70.678  38.161   4.646  1.00  0.00     0.293 HD
ENDBRANCH  37  50
ENDBRANCH  26  27
ENDBRANCH   5  26
BRANCH   4  52
ATOM     52  O   UNL     1      70.114  47.781   9.606  1.00  0.00    -0.384 OA
ATOM     53  H   UNL     1      70.834  48.278   9.117  1.00  0.00     0.211 HD
ENDBRANCH   4  52
TORSDOF 16
ENDMDL
MODEL 8
REMARK VINA RESULT:    -6.343      1.753      6.578
REMARK INTER + INTRA:         -13.154
REMARK INTER:                 -10.432
REMARK INTRA:                  -2.722
REMARK UNBOUND:                -2.732
REMARK SMILES C[C@@H]1O[C@@H](OC[C@H]2O[C@H](Oc3c(-c4ccc(O)c(O)c4)oc4cc(O)cc(O)c4c3=O)[C@H](O)[C@H](O)[C@@H]2O)[C@@H](O)[C@@H](O)[C@H]1O
REMARK SMILES IDX 7 1 36 2 34 3 32 4 9 5 8 6 6 7 5 8 4 9 1 10 2 11 42 12 3 13
REMARK SMILES IDX 40 14 38 15 43 16 41 18 39 20 37 22 35 24 10 26 11 27 12 28
REMARK SMILES IDX 30 29 21 30 29 31 31 32 22 33 27 34 23 35 26 36 24 37 13 38
REMARK SMILES IDX 20 39 14 40 18 41 15 42 16 43 19 44 17 46 28 48 25 50 33 52
REMARK H PARENT 43 17 41 19 39 21 37 23 35 25 19 45 17 47 28 49 25 51 33 53
REMARK Flexibility Score: inf
ROOT
ATOM      1  C   UNL     1      68.437  47.728   7.774  1.00  0.00     0.180 C 
ATOM      2  C   UNL     1      68.420  48.746   8.948  1.00  0.00     0.177 C 
ATOM      3  C   UNL     1      67.052  48.671   9.636  1.00  0.00     0.180 C 
ATOM      4  C   UNL     1      66.778  47.222  10.124  1.00  0.00     0.214 C 
ATOM      5  C   UNL     1      67.718  46.193   9.457  1.00  0.00     0.339 C 
ATOM      6  O   UNL     1      67.865  46.453   8.066  1.00  0.00    -0.332 OA
ENDROOT
BRANCH   1   7
ATOM      7  C   UNL     1      69.838  47.575   7.142  1.00  0.00     0.198 C 
BRANCH   7   8
ATOM      8  O   UNL     1      70.812  47.609   8.164  1.00  0.00    -0.347 OA
BRANCH   8   9
ATOM      9  C   UNL     1      72.120  47.328   7.690  1.00  0.00     0.281 C 
ATOM     10  C   UNL     1      73.058  47.670   4.128  1.00  0.00     0.041 C 
ATOM     11  C   UNL     1      72.513  46.889   5.340  1.00  0.00     0.150 C 
ATOM     12  C   UNL     1      73.478  45.754   5.722  1.00  0.00     0.174 C 
ATOM     13  O   UNL     1      72.339  47.841   6.376  1.00  0.00    -0.344 OA
ATOM     14  C   UNL     1      72.886  44.963   6.880  1.00  0.00     0.179 C 
ATOM     15  C   UNL     1      72.684  45.910   8.071  1.00  0.00     0.202 C 
BRANCH  12  16
ATOM     16  O   UNL     1      73.687  44.879   4.635  1.00  0.00    -0.388 OA
ATOM     17  H   UNL     1      74.366  44.194   4.911  1.00  0.00     0.211 HD
ENDBRANCH  12  16
BRANCH  14  18
ATOM     18  O   UNL     1      71.666  44.382   6.484  1.00  0.00    -0.387 OA
ATOM     19  H   UNL     1      71.809  43.993   5.584  1.00  0.00     0.211 HD
ENDBRANCH  14  18
BRANCH  15  20
ATOM     20  O   UNL     1      71.868  45.285   9.032  1.00  0.00    -0.385 OA
ATOM     21  H   UNL     1      71.029  45.010   8.590  1.00  0.00     0.211 HD
ENDBRANCH  15  20
ENDBRANCH   8   9
ENDBRANCH   7   8
ENDBRANCH   1   7
BRANCH   2  22
ATOM     22  O   UNL     1      68.664  50.041   8.459  1.00  0.00    -0.387 OA
ATOM     23  H   UNL     1      67.791  50.394   8.154  1.00  0.00     0.211 HD
ENDBRANCH   2  22
BRANCH   3  24
ATOM     24  O   UNL     1      66.058  49.092   8.732  1.00  0.00    -0.387 OA
ATOM     25  H   UNL     1      65.182  48.858   9.145  1.00  0.00     0.211 HD
ENDBRANCH   3  24
BRANCH   5  26
ATOM     26  O   UNL     1      67.167  44.887   9.653  1.00  0.00    -0.454 OA
BRANCH  26  27
ATOM     27  C   UNL     1      67.527  43.703   8.971  1.00  0.00     0.214 A 
ATOM     28  C   UNL     1      66.517  42.969   8.314  1.00  0.00     0.180 A 
ATOM     29  C   UNL     1      68.845  43.202   8.919  1.00  0.00     0.239 A 
ATOM     30  O   UNL     1      66.845  41.931   7.541  1.00  0.00    -0.452 OA
ATOM     31  C   UNL     1      69.152  42.112   8.083  1.00  0.00     0.111 A 
ATOM     32  O   UNL     1      69.743  43.702   9.643  1.00  0.00    -0.285 OA
ATOM     33  C   UNL     1      68.086  41.504   7.372  1.00  0.00     0.146 A 
ATOM     34  C   UNL     1      70.466  41.602   7.924  1.00  0.00     0.134 A 
ATOM     35  C   UNL     1      68.337  40.448   6.487  1.00  0.00     0.094 A 
ATOM     36  C   UNL     1      70.700  40.559   7.022  1.00  0.00     0.093 A 
ATOM     37  C   UNL     1      69.643  39.977   6.303  1.00  0.00     0.123 A 
BRANCH  28  38
ATOM     38  C   UNL     1      65.074  43.292   8.459  1.00  0.00     0.025 A 
ATOM     39  C   UNL     1      64.518  44.436   7.856  1.00  0.00     0.062 A 
ATOM     40  C   UNL     1      64.285  42.537   9.351  1.00  0.00     0.016 A 
ATOM     41  C   UNL     1      63.197  44.818   8.124  1.00  0.00     0.158 A 
ATOM     42  C   UNL     1      62.976  42.919   9.641  1.00  0.00     0.051 A 
ATOM     43  C   UNL     1      62.413  44.044   9.020  1.00  0.00     0.157 A 
BRANCH  41  44
ATOM     44  O   UNL     1      62.719  45.984   7.521  1.00  0.00    -0.504 OA
ATOM     45  H   UNL     1      63.025  46.299   6.608  1.00  0.00     0.293 HD
ENDBRANCH  41  44
BRANCH  43  46
ATOM     46  O   UNL     1      61.090  44.366   9.333  1.00  0.00    -0.504 OA
ATOM     47  H   UNL     1      60.826  45.089   9.989  1.00  0.00     0.293 HD
ENDBRANCH  43  46
ENDBRANCH  28  38
BRANCH  34  48
ATOM     48  O   UNL     1      71.535  42.120   8.652  1.00  0.00    -0.507 OA
ATOM     49  H   UNL     1      72.273  42.662   8.215  1.00  0.00     0.293 HD
ENDBRANCH  34  48
BRANCH  37  50
ATOM     50  O   UNL     1      69.887  38.923   5.413  1.00  0.00    -0.508 OA
ATOM     51  H   UNL     1      70.534  39.006   4.636  1.00  0.00     0.293 HD
ENDBRANCH  37  50
ENDBRANCH  26  27
ENDBRANCH   5  26
BRANCH   4  52
ATOM     52  O   UNL     1      65.440  46.861   9.872  1.00  0.00    -0.384 OA
ATOM     53  H   UNL     1      65.002  46.753  10.768  1.00  0.00     0.211 HD
ENDBRANCH   4  52
TORSDOF 16
ENDMDL
MODEL 9
REMARK VINA RESULT:    -6.199      1.717      6.987
REMARK INTER + INTRA:         -12.918
REMARK INTER:                 -10.287
REMARK INTRA:                  -2.631
REMARK UNBOUND:                -2.732
REMARK SMILES C[C@@H]1O[C@@H](OC[C@H]2O[C@H](Oc3c(-c4ccc(O)c(O)c4)oc4cc(O)cc(O)c4c3=O)[C@H](O)[C@H](O)[C@@H]2O)[C@@H](O)[C@@H](O)[C@H]1O
REMARK SMILES IDX 7 1 36 2 34 3 32 4 9 5 8 6 6 7 5 8 4 9 1 10 2 11 42 12 3 13
REMARK SMILES IDX 40 14 38 15 43 16 41 18 39 20 37 22 35 24 10 26 11 27 12 28
REMARK SMILES IDX 30 29 21 30 29 31 31 32 22 33 27 34 23 35 26 36 24 37 13 38
REMARK SMILES IDX 20 39 14 40 18 41 15 42 16 43 19 44 17 46 28 48 25 50 33 52
REMARK H PARENT 43 17 41 19 39 21 37 23 35 25 19 45 17 47 28 49 25 51 33 53
REMARK Flexibility Score: inf
ROOT
ATOM      1  C   UNL     1      71.823  43.768   5.999  1.00  0.00     0.180 C 
ATOM      2  C   UNL     1      73.004  42.897   6.508  1.00  0.00     0.177 C 
ATOM      3  C   UNL     1      73.738  43.670   7.610  1.00  0.00     0.180 C 
ATOM      4  C   UNL     1      72.753  44.033   8.755  1.00  0.00     0.214 C 
ATOM      5  C   UNL     1      71.276  43.896   8.320  1.00  0.00     0.339 C 
ATOM      6  O   UNL     1      71.069  44.427   7.016  1.00  0.00    -0.332 OA
ENDROOT
BRANCH   1   7
ATOM      7  C   UNL     1      70.894  43.001   5.031  1.00  0.00     0.198 C 
BRANCH   7   8
ATOM      8  O   UNL     1      71.064  41.614   5.231  1.00  0.00    -0.347 OA
BRANCH   8   9
ATOM      9  C   UNL     1      69.910  40.989   5.772  1.00  0.00     0.281 C 
ATOM     10  C   UNL     1      69.698  39.931   9.310  1.00  0.00     0.041 C 
ATOM     11  C   UNL     1      70.047  39.710   7.825  1.00  0.00     0.150 C 
ATOM     12  C   UNL     1      69.125  38.642   7.212  1.00  0.00     0.174 C 
ATOM     13  O   UNL     1      69.922  40.976   7.198  1.00  0.00    -0.344 OA
ATOM     14  C   UNL     1      69.533  38.401   5.766  1.00  0.00     0.179 C 
ATOM     15  C   UNL     1      69.404  39.720   4.991  1.00  0.00     0.202 C 
BRANCH  12  16
ATOM     16  O   UNL     1      69.219  37.425   7.919  1.00  0.00    -0.388 OA
ATOM     17  H   UNL     1      68.510  36.807   7.572  1.00  0.00     0.211 HD
ENDBRANCH  12  16
BRANCH  14  18
ATOM     18  O   UNL     1      70.854  37.914   5.718  1.00  0.00    -0.387 OA
ATOM     19  H   UNL     1      71.443  38.695   5.554  1.00  0.00     0.211 HD
ENDBRANCH  14  18
BRANCH  15  20
ATOM     20  O   UNL     1      70.056  39.599   3.750  1.00  0.00    -0.385 OA
ATOM     21  H   UNL     1      70.277  38.647   3.611  1.00  0.00     0.211 HD
ENDBRANCH  15  20
ENDBRANCH   8   9
ENDBRANCH   7   8
ENDBRANCH   1   7
BRANCH   2  22
ATOM     22  O   UNL     1      73.872  42.601   5.442  1.00  0.00    -0.387 OA
ATOM     23  H   UNL     1      74.640  43.220   5.526  1.00  0.00     0.211 HD
ENDBRANCH   2  22
BRANCH   3  24
ATOM     24  O   UNL     1      74.311  44.830   7.056  1.00  0.00    -0.387 OA
ATOM     25  H   UNL     1      73.596  45.273   6.522  1.00  0.00     0.211 HD
ENDBRANCH   3  24
BRANCH   5  26
ATOM     26  O   UNL     1      70.462  44.595   9.267  1.00  0.00    -0.454 OA
BRANCH  26  27
ATOM     27  C   UNL     1      69.162  45.107   9.053  1.00  0.00     0.214 A 
ATOM     28  C   UNL     1      69.018  46.472   8.730  1.00  0.00     0.180 A 
ATOM     29  C   UNL     1      67.990  44.328   9.158  1.00  0.00     0.239 A 
ATOM     30  O   UNL     1      67.823  46.951   8.379  1.00  0.00    -0.452 OA
ATOM     31  C   UNL     1      66.749  44.866   8.769  1.00  0.00     0.111 A 
ATOM     32  O   UNL     1      68.041  43.165   9.632  1.00  0.00    -0.285 OA
ATOM     33  C   UNL     1      66.719  46.221   8.350  1.00  0.00     0.146 A 
ATOM     34  C   UNL     1      65.542  44.120   8.778  1.00  0.00     0.134 A 
ATOM     35  C   UNL     1      65.523  46.797   7.904  1.00  0.00     0.094 A 
ATOM     36  C   UNL     1      64.362  44.708   8.312  1.00  0.00     0.093 A 
ATOM     37  C   UNL     1      64.344  46.043   7.875  1.00  0.00     0.123 A 
BRANCH  28  38
ATOM     38  C   UNL     1      70.156  47.427   8.778  1.00  0.00     0.025 A 
ATOM     39  C   UNL     1      71.005  47.609   7.670  1.00  0.00     0.062 A 
ATOM     40  C   UNL     1      70.495  48.034  10.005  1.00  0.00     0.016 A 
ATOM     41  C   UNL     1      72.162  48.390   7.773  1.00  0.00     0.158 A 
ATOM     42  C   UNL     1      71.655  48.797  10.125  1.00  0.00     0.051 A 
ATOM     43  C   UNL     1      72.487  49.000   9.014  1.00  0.00     0.157 A 
BRANCH  41  44
ATOM     44  O   UNL     1      72.979  48.501   6.645  1.00  0.00    -0.504 OA
ATOM     45  H   UNL     1      73.046  49.347   6.092  1.00  0.00     0.293 HD
ENDBRANCH  41  44
BRANCH  43  46
ATOM     46  O   UNL     1      73.625  49.791   9.189  1.00  0.00    -0.504 OA
ATOM     47  H   UNL     1      74.051  50.335   8.451  1.00  0.00     0.293 HD
ENDBRANCH  43  46
ENDBRANCH  28  38
BRANCH  34  48
ATOM     48  O   UNL     1      65.507  42.809   9.245  1.00  0.00    -0.507 OA
ATOM     49  H   UNL     1      65.905  42.038   8.718  1.00  0.00     0.293 HD
ENDBRANCH  34  48
BRANCH  37  50
ATOM     50  O   UNL     1      63.152  46.625   7.423  1.00  0.00    -0.508 OA
ATOM     51  H   UNL     1      62.382  46.841   8.048  1.00  0.00     0.293 HD
ENDBRANCH  37  50
ENDBRANCH  26  27
ENDBRANCH   5  26
BRANCH   4  52
ATOM     52  O   UNL     1      72.984  45.347   9.208  1.00  0.00    -0.384 OA
ATOM     53  H   UNL     1      73.800  45.673   8.724  1.00  0.00     0.211 HD
ENDBRANCH   4  52
TORSDOF 16
ENDMDL
