MODEL 1
REMARK VINA RESULT:    -3.719      0.000      0.000
REMARK INTER + INTRA:          -8.624
REMARK INTER:                  -6.545
REMARK INTRA:                  -2.079
REMARK UNBOUND:                -2.079
REMARK SMILES CCCCCCCCCCCCCCC(=O)[O-]
REMARK SMILES IDX 9 1 10 2 11 3 12 4 13 5 14 6 15 7 16 8 17 9 8 10 7 11 6 12
REMARK SMILES IDX 5 13 4 14 3 15 2 16 1 17
REMARK H PARENT
REMARK Flexibility Score: inf
ROOT
ATOM      1  C   UNL     1       1.833  11.045  10.975  1.00  0.00     0.000 C 
ENDROOT
BRANCH   1   2
ATOM      2  C   UNL     1       2.722  10.292   9.970  1.00  0.00     0.000 C 
BRANCH   2   3
ATOM      3  C   UNL     1       2.756  10.966   8.587  1.00  0.00     0.000 C 
BRANCH   3   4
ATOM      4  C   UNL     1       3.947  11.918   8.355  1.00  0.00     0.000 C 
BRANCH   4   5
ATOM      5  C   UNL     1       3.613  13.421   8.450  1.00  0.00     0.006 C 
BRANCH   5   6
ATOM      6  C   UNL     1       2.355  13.841   7.675  1.00  0.00     0.053 C 
BRANCH   6   7
ATOM      7  C   UNL     1       1.327  14.464   8.570  1.00  0.00     0.041 C 
ATOM      8  O   UNL     1       1.483  15.641   8.988  1.00  0.00    -0.550 OA
ATOM      9  O   UNL     1       0.182  13.757   8.913  1.00  0.00    -0.550 OA
ENDBRANCH   6   7
ENDBRANCH   5   6
ENDBRANCH   4   5
ENDBRANCH   3   4
ENDBRANCH   2   3
ENDBRANCH   1   2
BRANCH   1  10
ATOM     10  C   UNL     1       2.637  11.973  11.899  1.00  0.00     0.000 C 
BRANCH  10  11
ATOM     11  C   UNL     1       2.073  13.404  11.933  1.00  0.00    -0.000 C 
BRANCH  11  12
ATOM     12  C   UNL     1       3.172  14.482  11.955  1.00  0.00    -0.000 C 
BRANCH  12  13
ATOM     13  C   UNL     1       4.562  13.997  12.407  1.00  0.00    -0.000 C 
BRANCH  13  14
ATOM     14  C   UNL     1       5.617  14.076  11.291  1.00  0.00    -0.000 C 
BRANCH  14  15
ATOM     15  C   UNL     1       6.566  12.867  11.291  1.00  0.00    -0.000 C 
BRANCH  15  16
ATOM     16  C   UNL     1       6.347  11.941  12.498  1.00  0.00    -0.003 C 
ATOM     17  C   UNL     1       7.564  11.943  13.418  1.00  0.00     0.004 C 
ENDBRANCH  15  16
ENDBRANCH  14  15
ENDBRANCH  13  14
ENDBRANCH  12  13
ENDBRANCH  11  12
ENDBRANCH  10  11
ENDBRANCH   1  10
TORSDOF 13
ENDMDL
MODEL 2
REMARK VINA RESULT:    -3.701      2.639      5.143
REMARK INTER + INTRA:          -8.593
REMARK INTER:                  -7.383
REMARK INTRA:                  -1.210
REMARK UNBOUND:                -2.079
REMARK SMILES CCCCCCCCCCCCCCC(=O)[O-]
REMARK SMILES IDX 9 1 10 2 11 3 12 4 13 5 14 6 15 7 16 8 17 9 8 10 7 11 6 12
REMARK SMILES IDX 5 13 4 14 3 15 2 16 1 17
REMARK H PARENT
REMARK Flexibility Score: inf
ROOT
ATOM      1  C   UNL     1       6.647  12.994  11.204  1.00  0.00     0.000 C 
ENDROOT
BRANCH   1   2
ATOM      2  C   UNL     1       6.398  11.546  11.660  1.00  0.00     0.000 C 
BRANCH   2   3
ATOM      3  C   UNL     1       7.464  10.567  11.138  1.00  0.00     0.000 C 
BRANCH   3   4
ATOM      4  C   UNL     1       8.135  10.981   9.812  1.00  0.00     0.000 C 
BRANCH   4   5
ATOM      5  C   UNL     1       7.396  10.531   8.535  1.00  0.00     0.006 C 
BRANCH   5   6
ATOM      6  C   UNL     1       6.364   9.416   8.760  1.00  0.00     0.053 C 
BRANCH   6   7
ATOM      7  C   UNL     1       4.969   9.873   8.459  1.00  0.00     0.041 C 
ATOM      8  O   UNL     1       4.714  11.102   8.358  1.00  0.00    -0.550 OA
ATOM      9  O   UNL     1       3.960   8.942   8.254  1.00  0.00    -0.550 OA
ENDBRANCH   6   7
ENDBRANCH   5   6
ENDBRANCH   4   5
ENDBRANCH   3   4
ENDBRANCH   2   3
ENDBRANCH   1   2
BRANCH   1  10
ATOM     10  C   UNL     1       5.345  13.787  11.011  1.00  0.00     0.000 C 
BRANCH  10  11
ATOM     11  C   UNL     1       4.777  14.319  12.339  1.00  0.00    -0.000 C 
BRANCH  11  12
ATOM     12  C   UNL     1       3.367  14.920  12.191  1.00  0.00    -0.000 C 
BRANCH  12  13
ATOM     13  C   UNL     1       2.519  14.334  11.047  1.00  0.00    -0.000 C 
BRANCH  13  14
ATOM     14  C   UNL     1       1.788  15.413  10.229  1.00  0.00    -0.000 C 
BRANCH  14  15
ATOM     15  C   UNL     1       1.412  14.929   8.819  1.00  0.00    -0.000 C 
BRANCH  15  16
ATOM     16  C   UNL     1       2.331  13.806   8.313  1.00  0.00    -0.003 C 
ATOM     17  C   UNL     1       2.353  13.761   6.788  1.00  0.00     0.004 C 
ENDBRANCH  15  16
ENDBRANCH  14  15
ENDBRANCH  13  14
ENDBRANCH  12  13
ENDBRANCH  11  12
ENDBRANCH  10  11
ENDBRANCH   1  10
TORSDOF 13
ENDMDL
MODEL 3
REMARK VINA RESULT:    -3.700      1.996      3.178
REMARK INTER + INTRA:          -8.592
REMARK INTER:                  -7.193
REMARK INTRA:                  -1.399
REMARK UNBOUND:                -2.079
REMARK SMILES CCCCCCCCCCCCCCC(=O)[O-]
REMARK SMILES IDX 9 1 10 2 11 3 12 4 13 5 14 6 15 7 16 8 17 9 8 10 7 11 6 12
REMARK SMILES IDX 5 13 4 14 3 15 2 16 1 17
REMARK H PARENT
REMARK Flexibility Score: inf
ROOT
ATOM      1  C   UNL     1       2.287  13.566  11.954  1.00  0.00     0.000 C 
ENDROOT
BRANCH   1   2
ATOM      2  C   UNL     1       1.549  13.521  10.604  1.00  0.00     0.000 C 
BRANCH   2   3
ATOM      3  C   UNL     1       1.996  14.640   9.647  1.00  0.00     0.000 C 
BRANCH   3   4
ATOM      4  C   UNL     1       1.665  14.395   8.160  1.00  0.00     0.000 C 
BRANCH   4   5
ATOM      5  C   UNL     1       2.326  13.149   7.538  1.00  0.00     0.006 C 
BRANCH   5   6
ATOM      6  C   UNL     1       3.798  12.950   7.929  1.00  0.00     0.053 C 
BRANCH   6   7
ATOM      7  C   UNL     1       4.081  11.540   8.351  1.00  0.00     0.041 C 
ATOM      8  O   UNL     1       5.227  11.221   8.763  1.00  0.00    -0.550 OA
ATOM      9  O   UNL     1       3.069  10.589   8.322  1.00  0.00    -0.550 OA
ENDBRANCH   6   7
ENDBRANCH   5   6
ENDBRANCH   4   5
ENDBRANCH   3   4
ENDBRANCH   2   3
ENDBRANCH   1   2
BRANCH   1  10
ATOM     10  C   UNL     1       3.068  14.873  12.160  1.00  0.00     0.000 C 
BRANCH  10  11
ATOM     11  C   UNL     1       4.559  14.629  12.451  1.00  0.00    -0.000 C 
BRANCH  11  12
ATOM     12  C   UNL     1       5.302  13.973  11.273  1.00  0.00    -0.000 C 
BRANCH  12  13
ATOM     13  C   UNL     1       6.347  12.910  11.663  1.00  0.00    -0.000 C 
BRANCH  13  14
ATOM     14  C   UNL     1       5.850  11.957  12.764  1.00  0.00    -0.000 C 
BRANCH  14  15
ATOM     15  C   UNL     1       6.737  11.992  14.019  1.00  0.00    -0.000 C 
BRANCH  15  16
ATOM     16  C   UNL     1       8.232  12.116  13.684  1.00  0.00    -0.003 C 
ATOM     17  C   UNL     1       9.089  11.954  14.936  1.00  0.00     0.004 C 
ENDBRANCH  15  16
ENDBRANCH  14  15
ENDBRANCH  13  14
ENDBRANCH  12  13
ENDBRANCH  11  12
ENDBRANCH  10  11
ENDBRANCH   1  10
TORSDOF 13
ENDMDL
MODEL 4
REMARK VINA RESULT:    -3.700      3.240      5.965
REMARK INTER + INTRA:          -8.591
REMARK INTER:                  -6.651
REMARK INTRA:                  -1.940
REMARK UNBOUND:                -2.079
REMARK SMILES CCCCCCCCCCCCCCC(=O)[O-]
REMARK SMILES IDX 9 1 10 2 11 3 12 4 13 5 14 6 15 7 16 8 17 9 8 10 7 11 6 12
REMARK SMILES IDX 5 13 4 14 3 15 2 16 1 17
REMARK H PARENT
REMARK Flexibility Score: inf
ROOT
ATOM      1  C   UNL     1       3.168  11.768  11.925  1.00  0.00     0.000 C 
ENDROOT
BRANCH   1   2
ATOM      2  C   UNL     1       3.348  13.286  12.104  1.00  0.00     0.000 C 
BRANCH   2   3
ATOM      3  C   UNL     1       4.796  13.676  12.446  1.00  0.00     0.000 C 
BRANCH   3   4
ATOM      4  C   UNL     1       5.725  13.865  11.229  1.00  0.00     0.000 C 
BRANCH   4   5
ATOM      5  C   UNL     1       7.001  13.000  11.238  1.00  0.00     0.006 C 
BRANCH   5   6
ATOM      6  C   UNL     1       6.899  11.727  12.092  1.00  0.00     0.053 C 
BRANCH   6   7
ATOM      7  C   UNL     1       7.780  11.792  13.302  1.00  0.00     0.041 C 
ATOM      8  O   UNL     1       9.029  11.683  13.183  1.00  0.00    -0.550 OA
ATOM      9  O   UNL     1       7.225  12.008  14.557  1.00  0.00    -0.550 OA
ENDBRANCH   6   7
ENDBRANCH   5   6
ENDBRANCH   4   5
ENDBRANCH   3   4
ENDBRANCH   2   3
ENDBRANCH   1   2
BRANCH   1  10
ATOM     10  C   UNL     1       2.781  11.382  10.489  1.00  0.00     0.000 C 
BRANCH  10  11
ATOM     11  C   UNL     1       4.007  11.086   9.607  1.00  0.00    -0.000 C 
BRANCH  11  12
ATOM     12  C   UNL     1       4.022  11.906   8.304  1.00  0.00    -0.000 C 
BRANCH  12  13
ATOM     13  C   UNL     1       3.656  13.394   8.458  1.00  0.00    -0.000 C 
BRANCH  13  14
ATOM     14  C   UNL     1       2.494  13.824   7.546  1.00  0.00    -0.000 C 
BRANCH  14  15
ATOM     15  C   UNL     1       1.128  13.720   8.243  1.00  0.00    -0.000 C 
BRANCH  15  16
ATOM     16  C   UNL     1       1.062  14.538   9.542  1.00  0.00    -0.003 C 
ATOM     17  C   UNL     1       1.165  16.033   9.254  1.00  0.00     0.004 C 
ENDBRANCH  15  16
ENDBRANCH  14  15
ENDBRANCH  13  14
ENDBRANCH  12  13
ENDBRANCH  11  12
ENDBRANCH  10  11
ENDBRANCH   1  10
TORSDOF 13
ENDMDL
MODEL 5
REMARK VINA RESULT:    -3.689      3.040      5.708
REMARK INTER + INTRA:          -8.572
REMARK INTER:                  -6.962
REMARK INTRA:                  -1.609
REMARK UNBOUND:                -2.079
REMARK SMILES CCCCCCCCCCCCCCC(=O)[O-]
REMARK SMILES IDX 9 1 10 2 11 3 12 4 13 5 14 6 15 7 16 8 17 9 8 10 7 11 6 12
REMARK SMILES IDX 5 13 4 14 3 15 2 16 1 17
REMARK H PARENT
REMARK Flexibility Score: inf
ROOT
ATOM      1  C   UNL     1       6.013  12.674  12.571  1.00  0.00     0.000 C 
ENDROOT
BRANCH   1   2
ATOM      2  C   UNL     1       7.151  11.899  13.259  1.00  0.00     0.000 C 
BRANCH   2   3
ATOM      3  C   UNL     1       8.423  11.822  12.396  1.00  0.00     0.000 C 
BRANCH   3   4
ATOM      4  C   UNL     1       8.262  12.339  10.951  1.00  0.00     0.000 C 
BRANCH   4   5
ATOM      5  C   UNL     1       8.364  11.261   9.854  1.00  0.00     0.006 C 
BRANCH   5   6
ATOM      6  C   UNL     1       7.281  10.174   9.930  1.00  0.00     0.053 C 
BRANCH   6   7
ATOM      7  C   UNL     1       6.588   9.980   8.616  1.00  0.00     0.041 C 
ATOM      8  O   UNL     1       5.504   9.342   8.560  1.00  0.00    -0.550 OA
ATOM      9  O   UNL     1       7.121  10.533   7.459  1.00  0.00    -0.550 OA
ENDBRANCH   6   7
ENDBRANCH   5   6
ENDBRANCH   4   5
ENDBRANCH   3   4
ENDBRANCH   2   3
ENDBRANCH   1   2
BRANCH   1  10
ATOM     10  C   UNL     1       4.861  11.762  12.122  1.00  0.00     0.000 C 
BRANCH  10  11
ATOM     11  C   UNL     1       3.857  12.487  11.208  1.00  0.00    -0.000 C 
BRANCH  11  12
ATOM     12  C   UNL     1       4.486  12.966   9.887  1.00  0.00    -0.000 C 
BRANCH  12  13
ATOM     13  C   UNL     1       3.781  12.477   8.608  1.00  0.00    -0.000 C 
BRANCH  13  14
ATOM     14  C   UNL     1       2.978  13.584   7.904  1.00  0.00    -0.000 C 
BRANCH  14  15
ATOM     15  C   UNL     1       1.603  13.817   8.552  1.00  0.00    -0.000 C 
BRANCH  15  16
ATOM     16  C   UNL     1       1.400  15.272   9.004  1.00  0.00    -0.003 C 
ATOM     17  C   UNL     1       1.830  15.460  10.455  1.00  0.00     0.004 C 
ENDBRANCH  15  16
ENDBRANCH  14  15
ENDBRANCH  13  14
ENDBRANCH  12  13
ENDBRANCH  11  12
ENDBRANCH  10  11
ENDBRANCH   1  10
TORSDOF 13
ENDMDL
MODEL 6
REMARK VINA RESULT:    -3.651      3.054      5.595
REMARK INTER + INTRA:          -8.505
REMARK INTER:                  -6.466
REMARK INTRA:                  -2.039
REMARK UNBOUND:                -2.079
REMARK SMILES CCCCCCCCCCCCCCC(=O)[O-]
REMARK SMILES IDX 9 1 10 2 11 3 12 4 13 5 14 6 15 7 16 8 17 9 8 10 7 11 6 12
REMARK SMILES IDX 5 13 4 14 3 15 2 16 1 17
REMARK H PARENT
REMARK Flexibility Score: inf
ROOT
ATOM      1  C   UNL     1       2.148  13.917  12.584  1.00  0.00     0.000 C 
ENDROOT
BRANCH   1   2
ATOM      2  C   UNL     1       3.166  14.805  11.846  1.00  0.00     0.000 C 
BRANCH   2   3
ATOM      3  C   UNL     1       4.596  14.647  12.391  1.00  0.00     0.000 C 
BRANCH   3   4
ATOM      4  C   UNL     1       5.573  13.910  11.452  1.00  0.00     0.000 C 
BRANCH   4   5
ATOM      5  C   UNL     1       6.378  12.770  12.108  1.00  0.00     0.006 C 
BRANCH   5   6
ATOM      6  C   UNL     1       6.795  11.650  11.143  1.00  0.00     0.053 C 
BRANCH   6   7
ATOM      7  C   UNL     1       8.193  11.835  10.638  1.00  0.00     0.041 C 
ATOM      8  O   UNL     1       9.043  12.445  11.338  1.00  0.00    -0.550 OA
ATOM      9  O   UNL     1       8.566  11.304   9.410  1.00  0.00    -0.550 OA
ENDBRANCH   6   7
ENDBRANCH   5   6
ENDBRANCH   4   5
ENDBRANCH   3   4
ENDBRANCH   2   3
ENDBRANCH   1   2
BRANCH   1  10
ATOM     10  C   UNL     1       1.400  12.963  11.640  1.00  0.00     0.000 C 
BRANCH  10  11
ATOM     11  C   UNL     1       1.841  11.499  11.810  1.00  0.00    -0.000 C 
BRANCH  11  12
ATOM     12  C   UNL     1       3.123  11.162  11.026  1.00  0.00    -0.000 C 
BRANCH  12  13
ATOM     13  C   UNL     1       2.920  10.867   9.528  1.00  0.00    -0.000 C 
BRANCH  13  14
ATOM     14  C   UNL     1       3.966  11.554   8.634  1.00  0.00    -0.000 C 
BRANCH  14  15
ATOM     15  C   UNL     1       3.791  13.080   8.588  1.00  0.00    -0.000 C 
BRANCH  15  16
ATOM     16  C   UNL     1       2.372  13.501   8.173  1.00  0.00    -0.003 C 
ATOM     17  C   UNL     1       2.290  13.747   6.670  1.00  0.00     0.004 C 
ENDBRANCH  15  16
ENDBRANCH  14  15
ENDBRANCH  13  14
ENDBRANCH  12  13
ENDBRANCH  11  12
ENDBRANCH  10  11
ENDBRANCH   1  10
TORSDOF 13
ENDMDL
MODEL 7
REMARK VINA RESULT:    -3.607      3.642      6.113
REMARK INTER + INTRA:          -8.427
REMARK INTER:                  -6.595
REMARK INTRA:                  -1.832
REMARK UNBOUND:                -2.079
REMARK SMILES CCCCCCCCCCCCCCC(=O)[O-]
REMARK SMILES IDX 9 1 10 2 11 3 12 4 13 5 14 6 15 7 16 8 17 9 8 10 7 11 6 12
REMARK SMILES IDX 5 13 4 14 3 15 2 16 1 17
REMARK H PARENT
REMARK Flexibility Score: inf
ROOT
ATOM      1  C   UNL     1       3.905  13.075  11.955  1.00  0.00     0.000 C 
ENDROOT
BRANCH   1   2
ATOM      2  C   UNL     1       4.996  13.899  11.248  1.00  0.00     0.000 C 
BRANCH   2   3
ATOM      3  C   UNL     1       6.394  13.270  11.380  1.00  0.00     0.000 C 
BRANCH   3   4
ATOM      4  C   UNL     1       6.460  11.759  11.077  1.00  0.00     0.000 C 
BRANCH   4   5
ATOM      5  C   UNL     1       7.697  11.031  11.639  1.00  0.00     0.006 C 
BRANCH   5   6
ATOM      6  C   UNL     1       8.370  11.745  12.822  1.00  0.00     0.053 C 
BRANCH   6   7
ATOM      7  C   UNL     1       9.774  12.157  12.503  1.00  0.00     0.041 C 
ATOM      8  O   UNL     1      10.141  12.280  11.304  1.00  0.00    -0.550 OA
ATOM      9  O   UNL     1      10.667  12.439  13.528  1.00  0.00    -0.550 OA
ENDBRANCH   6   7
ENDBRANCH   5   6
ENDBRANCH   4   5
ENDBRANCH   3   4
ENDBRANCH   2   3
ENDBRANCH   1   2
BRANCH   1  10
ATOM     10  C   UNL     1       2.572  13.830  12.068  1.00  0.00     0.000 C 
BRANCH  10  11
ATOM     11  C   UNL     1       2.398  14.888  10.964  1.00  0.00    -0.000 C 
BRANCH  11  12
ATOM     12  C   UNL     1       1.354  14.485   9.906  1.00  0.00    -0.000 C 
BRANCH  12  13
ATOM     13  C   UNL     1       1.749  14.778   8.446  1.00  0.00    -0.000 C 
BRANCH  13  14
ATOM     14  C   UNL     1       2.210  13.522   7.687  1.00  0.00    -0.000 C 
BRANCH  14  15
ATOM     15  C   UNL     1       3.690  13.190   7.940  1.00  0.00    -0.000 C 
BRANCH  15  16
ATOM     16  C   UNL     1       3.908  11.721   8.335  1.00  0.00    -0.003 C 
ATOM     17  C   UNL     1       2.688  11.162   9.060  1.00  0.00     0.004 C 
ENDBRANCH  15  16
ENDBRANCH  14  15
ENDBRANCH  13  14
ENDBRANCH  12  13
ENDBRANCH  11  12
ENDBRANCH  10  11
ENDBRANCH   1  10
TORSDOF 13
ENDMDL
MODEL 8
REMARK VINA RESULT:    -3.591      3.033      5.206
REMARK INTER + INTRA:          -8.400
REMARK INTER:                  -6.322
REMARK INTRA:                  -2.077
REMARK UNBOUND:                -2.079
REMARK SMILES CCCCCCCCCCCCCCC(=O)[O-]
REMARK SMILES IDX 9 1 10 2 11 3 12 4 13 5 14 6 15 7 16 8 17 9 8 10 7 11 6 12
REMARK SMILES IDX 5 13 4 14 3 15 2 16 1 17
REMARK H PARENT
REMARK Flexibility Score: inf
ROOT
ATOM      1  C   UNL     1       1.105  10.663   9.941  1.00  0.00     0.000 C 
ENDROOT
BRANCH   1   2
ATOM      2  C   UNL     1       0.913  10.762  11.465  1.00  0.00     0.000 C 
BRANCH   2   3
ATOM      3  C   UNL     1       0.950  12.213  11.976  1.00  0.00     0.000 C 
BRANCH   3   4
ATOM      4  C   UNL     1       2.336  12.703  12.443  1.00  0.00     0.000 C 
BRANCH   4   5
ATOM      5  C   UNL     1       2.520  14.234  12.453  1.00  0.00     0.006 C 
BRANCH   5   6
ATOM      6  C   UNL     1       3.899  14.704  12.939  1.00  0.00     0.053 C 
BRANCH   6   7
ATOM      7  C   UNL     1       4.055  14.548  14.421  1.00  0.00     0.041 C 
ATOM      8  O   UNL     1       3.590  15.420  15.202  1.00  0.00    -0.550 OA
ATOM      9  O   UNL     1       4.681  13.423  14.941  1.00  0.00    -0.550 OA
ENDBRANCH   6   7
ENDBRANCH   5   6
ENDBRANCH   4   5
ENDBRANCH   3   4
ENDBRANCH   2   3
ENDBRANCH   1   2
BRANCH   1  10
ATOM     10  C   UNL     1       2.288   9.764   9.551  1.00  0.00     0.000 C 
BRANCH  10  11
ATOM     11  C   UNL     1       3.327  10.500   8.686  1.00  0.00    -0.000 C 
BRANCH  11  12
ATOM     12  C   UNL     1       4.159  11.521   9.484  1.00  0.00    -0.000 C 
BRANCH  12  13
ATOM     13  C   UNL     1       3.893  12.998   9.139  1.00  0.00    -0.000 C 
BRANCH  13  14
ATOM     14  C   UNL     1       3.412  13.200   7.692  1.00  0.00    -0.000 C 
BRANCH  14  15
ATOM     15  C   UNL     1       2.243  14.193   7.593  1.00  0.00    -0.000 C 
BRANCH  15  16
ATOM     16  C   UNL     1       1.415  14.265   8.885  1.00  0.00    -0.003 C 
ATOM     17  C   UNL     1       1.157  15.712   9.291  1.00  0.00     0.004 C 
ENDBRANCH  15  16
ENDBRANCH  14  15
ENDBRANCH  13  14
ENDBRANCH  12  13
ENDBRANCH  11  12
ENDBRANCH  10  11
ENDBRANCH   1  10
TORSDOF 13
ENDMDL
MODEL 9
REMARK VINA RESULT:    -3.589      2.921      5.809
REMARK INTER + INTRA:          -8.396
REMARK INTER:                  -6.412
REMARK INTRA:                  -1.984
REMARK UNBOUND:                -2.079
REMARK SMILES CCCCCCCCCCCCCCC(=O)[O-]
REMARK SMILES IDX 9 1 10 2 11 3 12 4 13 5 14 6 15 7 16 8 17 9 8 10 7 11 6 12
REMARK SMILES IDX 5 13 4 14 3 15 2 16 1 17
REMARK H PARENT
REMARK Flexibility Score: inf
ROOT
ATOM      1  C   UNL     1       1.921  14.187  10.456  1.00  0.00     0.000 C 
ENDROOT
BRANCH   1   2
ATOM      2  C   UNL     1       2.561  15.334  11.258  1.00  0.00     0.000 C 
BRANCH   2   3
ATOM      3  C   UNL     1       3.550  14.832  12.324  1.00  0.00     0.000 C 
BRANCH   3   4
ATOM      4  C   UNL     1       4.236  13.489  11.996  1.00  0.00     0.000 C 
BRANCH   4   5
ATOM      5  C   UNL     1       5.652  13.606  11.398  1.00  0.00     0.006 C 
BRANCH   5   6
ATOM      6  C   UNL     1       6.692  12.679  12.045  1.00  0.00     0.053 C 
BRANCH   6   7
ATOM      7  C   UNL     1       7.002  11.494  11.182  1.00  0.00     0.041 C 
ATOM      8  O   UNL     1       6.362  11.304  10.114  1.00  0.00    -0.550 OA
ATOM      9  O   UNL     1       8.022  10.621  11.538  1.00  0.00    -0.550 OA
ENDBRANCH   6   7
ENDBRANCH   5   6
ENDBRANCH   4   5
ENDBRANCH   3   4
ENDBRANCH   2   3
ENDBRANCH   1   2
BRANCH   1  10
ATOM     10  C   UNL     1       1.474  14.624   9.052  1.00  0.00     0.000 C 
BRANCH  10  11
ATOM     11  C   UNL     1       2.323  13.987   7.938  1.00  0.00    -0.000 C 
BRANCH  11  12
ATOM     12  C   UNL     1       3.473  13.119   8.481  1.00  0.00    -0.000 C 
BRANCH  12  13
ATOM     13  C   UNL     1       3.320  11.604   8.249  1.00  0.00    -0.000 C 
BRANCH  13  14
ATOM     14  C   UNL     1       2.945  10.836   9.528  1.00  0.00    -0.000 C 
BRANCH  14  15
ATOM     15  C   UNL     1       1.427  10.652   9.682  1.00  0.00    -0.000 C 
BRANCH  15  16
ATOM     16  C   UNL     1       0.715  10.456   8.334  1.00  0.00    -0.003 C 
ATOM     17  C   UNL     1      -0.421  11.460   8.163  1.00  0.00     0.004 C 
ENDBRANCH  15  16
ENDBRANCH  14  15
ENDBRANCH  13  14
ENDBRANCH  12  13
ENDBRANCH  11  12
ENDBRANCH  10  11
ENDBRANCH   1  10
TORSDOF 13
ENDMDL
