MODEL 1
REMARK VINA RESULT:    -4.622      0.000      0.000
REMARK INTER + INTRA:          -5.180
REMARK INTER:                  -5.297
REMARK INTRA:                   0.117
REMARK UNBOUND:                 0.117
REMARK SMILES O=C([O-])C=Cc1ccc(O)cc1
REMARK SMILES IDX 6 1 7 2 12 3 8 4 11 5 9 6 5 7 4 8 2 9 1 10 3 11 10 12
REMARK H PARENT 10 13
REMARK Flexibility Score: inf
ROOT
ATOM      1  C   UNL     1      79.762  15.790   2.293  1.00  0.00    -0.025 A 
ATOM      2  C   UNL     1      80.266  17.088   2.491  1.00  0.00     0.012 A 
ATOM      3  C   UNL     1      78.729  15.588   1.364  1.00  0.00     0.012 A 
ATOM      4  C   UNL     1      79.706  18.172   1.809  1.00  0.00     0.047 A 
ATOM      5  C   UNL     1      78.172  16.674   0.684  1.00  0.00     0.047 A 
ATOM      6  C   UNL     1      78.657  17.970   0.907  1.00  0.00     0.115 A 
ENDROOT
BRANCH   1   7
ATOM      7  C   UNL     1      80.372  14.621   2.961  1.00  0.00     0.010 C 
ATOM      8  C   UNL     1      80.288  14.343   4.272  1.00  0.00     0.025 C 
BRANCH   8   9
ATOM      9  C   UNL     1      79.430  15.042   5.249  1.00  0.00     0.064 C 
ATOM     10  O   UNL     1      78.323  15.540   4.915  1.00  0.00    -0.545 OA
ATOM     11  O   UNL     1      79.823  15.092   6.579  1.00  0.00    -0.545 OA
ENDBRANCH   8   9
ENDBRANCH   1   7
BRANCH   6  12
ATOM     12  O   UNL     1      78.108  19.060   0.235  1.00  0.00    -0.508 OA
ATOM     13  H   UNL     1      77.379  18.941  -0.459  1.00  0.00     0.293 HD
ENDBRANCH   6  12
TORSDOF 3
ENDMDL
MODEL 2
REMARK VINA RESULT:    -4.601      1.203      4.808
REMARK INTER + INTRA:          -5.156
REMARK INTER:                  -5.174
REMARK INTRA:                   0.019
REMARK UNBOUND:                 0.117
REMARK SMILES O=C([O-])C=Cc1ccc(O)cc1
REMARK SMILES IDX 6 1 7 2 12 3 8 4 11 5 9 6 5 7 4 8 2 9 1 10 3 11 10 12
REMARK H PARENT 10 13
REMARK Flexibility Score: inf
ROOT
ATOM      1  C   UNL     1      79.288  15.034   2.601  1.00  0.00    -0.025 A 
ATOM      2  C   UNL     1      78.420  15.479   3.614  1.00  0.00     0.012 A 
ATOM      3  C   UNL     1      80.471  14.365   2.956  1.00  0.00     0.012 A 
ATOM      4  C   UNL     1      78.757  15.305   4.959  1.00  0.00     0.047 A 
ATOM      5  C   UNL     1      80.806  14.192   4.302  1.00  0.00     0.047 A 
ATOM      6  C   UNL     1      79.951  14.665   5.308  1.00  0.00     0.115 A 
ENDROOT
BRANCH   1   7
ATOM      7  C   UNL     1      78.928  15.158   1.174  1.00  0.00     0.010 C 
ATOM      8  C   UNL     1      78.686  16.311   0.530  1.00  0.00     0.025 C 
BRANCH   8   9
ATOM      9  C   UNL     1      78.907  17.665   1.074  1.00  0.00     0.064 C 
ATOM     10  O   UNL     1      80.002  17.991   1.604  1.00  0.00    -0.545 OA
ATOM     11  O   UNL     1      77.910  18.620   0.935  1.00  0.00    -0.545 OA
ENDBRANCH   8   9
ENDBRANCH   1   7
BRANCH   6  12
ATOM     12  O   UNL     1      80.275  14.499   6.652  1.00  0.00    -0.508 OA
ATOM     13  H   UNL     1      81.121  14.896   7.046  1.00  0.00     0.293 HD
ENDBRANCH   6  12
TORSDOF 3
ENDMDL
MODEL 3
REMARK VINA RESULT:    -4.501      1.183      4.722
REMARK INTER + INTRA:          -5.042
REMARK INTER:                  -5.079
REMARK INTRA:                   0.037
REMARK UNBOUND:                 0.117
REMARK SMILES O=C([O-])C=Cc1ccc(O)cc1
REMARK SMILES IDX 6 1 7 2 12 3 8 4 11 5 9 6 5 7 4 8 2 9 1 10 3 11 10 12
REMARK H PARENT 10 13
REMARK Flexibility Score: inf
ROOT
ATOM      1  C   UNL     1      79.215  14.964   2.520  1.00  0.00    -0.025 A 
ATOM      2  C   UNL     1      80.430  14.385   2.926  1.00  0.00     0.012 A 
ATOM      3  C   UNL     1      78.346  15.489   3.490  1.00  0.00     0.012 A 
ATOM      4  C   UNL     1      80.744  14.285   4.285  1.00  0.00     0.047 A 
ATOM      5  C   UNL     1      78.662  15.388   4.847  1.00  0.00     0.047 A 
ATOM      6  C   UNL     1      79.861  14.783   5.249  1.00  0.00     0.115 A 
ENDROOT
BRANCH   1   7
ATOM      7  C   UNL     1      78.885  15.129   1.089  1.00  0.00     0.010 C 
ATOM      8  C   UNL     1      78.645  16.300   0.476  1.00  0.00     0.025 C 
BRANCH   8   9
ATOM      9  C   UNL     1      78.840  17.638   1.066  1.00  0.00     0.064 C 
ATOM     10  O   UNL     1      79.956  18.000   1.525  1.00  0.00    -0.545 OA
ATOM     11  O   UNL     1      77.788  18.542   1.053  1.00  0.00    -0.545 OA
ENDBRANCH   8   9
ENDBRANCH   1   7
BRANCH   6  12
ATOM     12  O   UNL     1      80.186  14.676   6.599  1.00  0.00    -0.508 OA
ATOM     13  H   UNL     1      79.486  14.793   7.323  1.00  0.00     0.293 HD
ENDBRANCH   6  12
TORSDOF 3
ENDMDL
MODEL 4
REMARK VINA RESULT:    -4.353     18.477     19.905
REMARK INTER + INTRA:          -4.871
REMARK INTER:                  -5.036
REMARK INTRA:                   0.164
REMARK UNBOUND:                 0.117
REMARK SMILES O=C([O-])C=Cc1ccc(O)cc1
REMARK SMILES IDX 6 1 7 2 12 3 8 4 11 5 9 6 5 7 4 8 2 9 1 10 3 11 10 12
REMARK H PARENT 10 13
REMARK Flexibility Score: inf
ROOT
ATOM      1  C   UNL     1      89.825  27.507  15.484  1.00  0.00    -0.025 A 
ATOM      2  C   UNL     1      88.990  26.666  14.727  1.00  0.00     0.012 A 
ATOM      3  C   UNL     1      89.737  27.481  16.885  1.00  0.00     0.012 A 
ATOM      4  C   UNL     1      88.046  25.853  15.361  1.00  0.00     0.047 A 
ATOM      5  C   UNL     1      88.792  26.667  17.517  1.00  0.00     0.047 A 
ATOM      6  C   UNL     1      87.941  25.854  16.756  1.00  0.00     0.115 A 
ENDROOT
BRANCH   1   7
ATOM      7  C   UNL     1      90.866  28.334  14.840  1.00  0.00     0.010 C 
ATOM      8  C   UNL     1      91.895  27.865  14.116  1.00  0.00     0.025 C 
BRANCH   8   9
ATOM      9  C   UNL     1      92.076  26.465  13.681  1.00  0.00     0.064 C 
ATOM     10  O   UNL     1      92.125  25.519  14.510  1.00  0.00    -0.545 OA
ATOM     11  O   UNL     1      92.125  26.181  12.324  1.00  0.00    -0.545 OA
ENDBRANCH   8   9
ENDBRANCH   1   7
BRANCH   6  12
ATOM     12  O   UNL     1      86.996  25.039  17.375  1.00  0.00    -0.508 OA
ATOM     13  H   UNL     1      86.139  24.772  16.905  1.00  0.00     0.293 HD
ENDBRANCH   6  12
TORSDOF 3
ENDMDL
MODEL 5
REMARK VINA RESULT:    -4.166      1.314      4.867
REMARK INTER + INTRA:          -4.658
REMARK INTER:                  -4.552
REMARK INTRA:                  -0.106
REMARK UNBOUND:                 0.117
REMARK SMILES O=C([O-])C=Cc1ccc(O)cc1
REMARK SMILES IDX 6 1 7 2 12 3 8 4 11 5 9 6 5 7 4 8 2 9 1 10 3 11 10 12
REMARK H PARENT 10 13
REMARK Flexibility Score: inf
ROOT
ATOM      1  C   UNL     1      79.828  16.818   3.375  1.00  0.00    -0.025 A 
ATOM      2  C   UNL     1      79.931  15.452   3.060  1.00  0.00     0.012 A 
ATOM      3  C   UNL     1      79.394  17.197   4.655  1.00  0.00     0.012 A 
ATOM      4  C   UNL     1      79.555  14.483   3.994  1.00  0.00     0.047 A 
ATOM      5  C   UNL     1      79.018  16.226   5.588  1.00  0.00     0.047 A 
ATOM      6  C   UNL     1      79.094  14.865   5.258  1.00  0.00     0.115 A 
ENDROOT
BRANCH   1   7
ATOM      7  C   UNL     1      80.270  17.859   2.424  1.00  0.00     0.010 C 
ATOM      8  C   UNL     1      79.569  18.295   1.365  1.00  0.00     0.025 C 
BRANCH   8   9
ATOM      9  C   UNL     1      78.165  17.952   1.060  1.00  0.00     0.064 C 
ATOM     10  O   UNL     1      77.266  18.832   1.019  1.00  0.00    -0.545 OA
ATOM     11  O   UNL     1      77.845  16.639   0.744  1.00  0.00    -0.545 OA
ENDBRANCH   8   9
ENDBRANCH   1   7
BRANCH   6  12
ATOM     12  O   UNL     1      78.721  13.889   6.179  1.00  0.00    -0.508 OA
ATOM     13  H   UNL     1      77.919  14.013   6.786  1.00  0.00     0.293 HD
ENDBRANCH   6  12
TORSDOF 3
ENDMDL
MODEL 6
REMARK VINA RESULT:    -3.430      2.149      3.414
REMARK INTER + INTRA:          -3.814
REMARK INTER:                  -4.340
REMARK INTRA:                   0.526
REMARK UNBOUND:                 0.117
REMARK SMILES O=C([O-])C=Cc1ccc(O)cc1
REMARK SMILES IDX 6 1 7 2 12 3 8 4 11 5 9 6 5 7 4 8 2 9 1 10 3 11 10 12
REMARK H PARENT 10 13
REMARK Flexibility Score: inf
ROOT
ATOM      1  C   UNL     1      79.545  14.717   5.426  1.00  0.00    -0.025 A 
ATOM      2  C   UNL     1      80.564  14.339   4.534  1.00  0.00     0.012 A 
ATOM      3  C   UNL     1      78.600  15.674   5.024  1.00  0.00     0.012 A 
ATOM      4  C   UNL     1      80.665  14.949   3.280  1.00  0.00     0.047 A 
ATOM      5  C   UNL     1      78.703  16.283   3.770  1.00  0.00     0.047 A 
ATOM      6  C   UNL     1      79.738  15.924   2.895  1.00  0.00     0.115 A 
ENDROOT
BRANCH   1   7
ATOM      7  C   UNL     1      79.386  14.049   6.735  1.00  0.00     0.010 C 
ATOM      8  C   UNL     1      79.762  14.558   7.919  1.00  0.00     0.025 C 
BRANCH   8   9
ATOM      9  C   UNL     1      80.234  15.937   8.155  1.00  0.00     0.064 C 
ATOM     10  O   UNL     1      79.928  16.879   7.378  1.00  0.00    -0.545 OA
ATOM     11  O   UNL     1      80.974  16.212   9.296  1.00  0.00    -0.545 OA
ENDBRANCH   8   9
ENDBRANCH   1   7
BRANCH   6  12
ATOM     12  O   UNL     1      79.851  16.524   1.643  1.00  0.00    -0.508 OA
ATOM     13  H   UNL     1      79.121  16.434   0.946  1.00  0.00     0.293 HD
ENDBRANCH   6  12
TORSDOF 3
ENDMDL
MODEL 7
REMARK VINA RESULT:    -3.380      1.871      2.233
REMARK INTER + INTRA:          -3.757
REMARK INTER:                  -3.646
REMARK INTRA:                  -0.111
REMARK UNBOUND:                 0.117
REMARK SMILES O=C([O-])C=Cc1ccc(O)cc1
REMARK SMILES IDX 6 1 7 2 12 3 8 4 11 5 9 6 5 7 4 8 2 9 1 10 3 11 10 12
REMARK H PARENT 10 13
REMARK Flexibility Score: inf
ROOT
ATOM      1  C   UNL     1      78.986  16.478   3.627  1.00  0.00    -0.025 A 
ATOM      2  C   UNL     1      79.784  17.353   4.386  1.00  0.00     0.012 A 
ATOM      3  C   UNL     1      78.980  16.593   2.228  1.00  0.00     0.012 A 
ATOM      4  C   UNL     1      80.520  18.361   3.756  1.00  0.00     0.047 A 
ATOM      5  C   UNL     1      79.717  17.601   1.601  1.00  0.00     0.047 A 
ATOM      6  C   UNL     1      80.487  18.490   2.364  1.00  0.00     0.115 A 
ENDROOT
BRANCH   1   7
ATOM      7  C   UNL     1      78.242  15.372   4.265  1.00  0.00     0.010 C 
ATOM      8  C   UNL     1      78.786  14.239   4.737  1.00  0.00     0.025 C 
BRANCH   8   9
ATOM      9  C   UNL     1      80.231  13.966   4.870  1.00  0.00     0.064 C 
ATOM     10  O   UNL     1      80.980  13.876   3.862  1.00  0.00    -0.545 OA
ATOM     11  O   UNL     1      80.787  13.875   6.138  1.00  0.00    -0.545 OA
ENDBRANCH   8   9
ENDBRANCH   1   7
BRANCH   6  12
ATOM     12  O   UNL     1      81.225  19.499   1.749  1.00  0.00    -0.508 OA
ATOM     13  H   UNL     1      80.978  20.477   1.857  1.00  0.00     0.293 HD
ENDBRANCH   6  12
TORSDOF 3
ENDMDL
MODEL 8
REMARK VINA RESULT:    -3.079      2.174      4.984
REMARK INTER + INTRA:          -3.412
REMARK INTER:                  -4.142
REMARK INTRA:                   0.729
REMARK UNBOUND:                 0.117
REMARK SMILES O=C([O-])C=Cc1ccc(O)cc1
REMARK SMILES IDX 6 1 7 2 12 3 8 4 11 5 9 6 5 7 4 8 2 9 1 10 3 11 10 12
REMARK H PARENT 10 13
REMARK Flexibility Score: inf
ROOT
ATOM      1  C   UNL     1      79.327  16.036   3.445  1.00  0.00    -0.025 A 
ATOM      2  C   UNL     1      79.532  14.645   3.402  1.00  0.00     0.012 A 
ATOM      3  C   UNL     1      79.416  16.705   4.675  1.00  0.00     0.012 A 
ATOM      4  C   UNL     1      79.768  13.931   4.581  1.00  0.00     0.047 A 
ATOM      5  C   UNL     1      79.653  15.989   5.852  1.00  0.00     0.047 A 
ATOM      6  C   UNL     1      79.826  14.599   5.808  1.00  0.00     0.115 A 
ENDROOT
BRANCH   1   7
ATOM      7  C   UNL     1      79.129  16.819   2.207  1.00  0.00     0.010 C 
ATOM      8  C   UNL     1      78.948  16.303   0.981  1.00  0.00     0.025 C 
BRANCH   8   9
ATOM      9  C   UNL     1      78.733  14.876   0.668  1.00  0.00     0.064 C 
ATOM     10  O   UNL     1      79.666  14.149   0.236  1.00  0.00    -0.545 OA
ATOM     11  O   UNL     1      77.493  14.309   0.922  1.00  0.00    -0.545 OA
ENDBRANCH   8   9
ENDBRANCH   1   7
BRANCH   6  12
ATOM     12  O   UNL     1      80.062  13.875   6.975  1.00  0.00    -0.508 OA
ATOM     13  H   UNL     1      80.623  13.031   6.970  1.00  0.00     0.293 HD
ENDBRANCH   6  12
TORSDOF 3
ENDMDL
