MODEL 1
REMARK VINA RESULT:    -4.771      0.000      0.000
REMARK INTER + INTRA:          -9.189
REMARK INTER:                  -8.397
REMARK INTRA:                  -0.792
REMARK UNBOUND:                -0.792
REMARK SMILES CCCCCCC=CCCCCCCCC(=O)[O-]
REMARK SMILES IDX 10 1 11 2 12 3 13 4 14 5 15 6 16 7 17 8 18 9 9 10 8 11 7 12
REMARK SMILES IDX 6 13 5 14 4 15 3 16 2 17 1 18
REMARK H PARENT
REMARK Flexibility Score: inf
ROOT
ATOM      1  C   UNL     1      -8.219  -0.532 -38.737  1.00  0.00     0.004 C 
ENDROOT
BRANCH   1   2
ATOM      2  C   UNL     1      -8.719  -1.943 -39.080  1.00  0.00     0.000 C 
BRANCH   2   3
ATOM      3  C   UNL     1      -8.442  -2.337 -40.540  1.00  0.00     0.000 C 
BRANCH   3   4
ATOM      4  C   UNL     1      -7.326  -3.381 -40.731  1.00  0.00     0.000 C 
BRANCH   4   5
ATOM      5  C   UNL     1      -6.654  -3.827 -39.415  1.00  0.00     0.006 C 
BRANCH   5   6
ATOM      6  C   UNL     1      -5.127  -3.915 -39.538  1.00  0.00     0.053 C 
BRANCH   6   7
ATOM      7  C   UNL     1      -4.574  -4.881 -38.539  1.00  0.00     0.041 C 
ATOM      8  O   UNL     1      -4.993  -4.875 -37.352  1.00  0.00    -0.550 OA
ATOM      9  O   UNL     1      -3.629  -5.821 -38.931  1.00  0.00    -0.550 OA
ENDBRANCH   6   7
ENDBRANCH   5   6
ENDBRANCH   4   5
ENDBRANCH   3   4
ENDBRANCH   2   3
ENDBRANCH   1   2
BRANCH   1  10
ATOM     10  C   UNL     1      -8.971   0.033 -37.526  1.00  0.00     0.027 C 
BRANCH  10  11
ATOM     11  C   UNL     1     -10.433  -0.327 -37.588  1.00  0.00    -0.031 C 
ATOM     12  C   UNL     1     -11.441   0.503 -37.258  1.00  0.00    -0.031 C 
BRANCH  12  13
ATOM     13  C   UNL     1     -11.268   1.948 -36.857  1.00  0.00     0.027 C 
BRANCH  13  14
ATOM     14  C   UNL     1     -11.708   2.200 -35.407  1.00  0.00     0.004 C 
BRANCH  14  15
ATOM     15  C   UNL     1     -10.527   2.597 -34.506  1.00  0.00     0.000 C 
BRANCH  15  16
ATOM     16  C   UNL     1     -10.923   2.706 -33.025  1.00  0.00    -0.000 C 
BRANCH  16  17
ATOM     17  C   UNL     1     -10.049   3.704 -32.251  1.00  0.00    -0.003 C 
ATOM     18  C   UNL     1     -10.016   5.061 -32.948  1.00  0.00     0.004 C 
ENDBRANCH  16  17
ENDBRANCH  15  16
ENDBRANCH  14  15
ENDBRANCH  13  14
ENDBRANCH  12  13
ENDBRANCH  10  11
ENDBRANCH   1  10
TORSDOF 13
ENDMDL
MODEL 2
REMARK VINA RESULT:    -4.702      4.213      9.065
REMARK INTER + INTRA:          -9.067
REMARK INTER:                  -8.335
REMARK INTRA:                  -0.732
REMARK UNBOUND:                -0.792
REMARK SMILES CCCCCCC=CCCCCCCCC(=O)[O-]
REMARK SMILES IDX 10 1 11 2 12 3 13 4 14 5 15 6 16 7 17 8 18 9 9 10 8 11 7 12
REMARK SMILES IDX 6 13 5 14 4 15 3 16 2 17 1 18
REMARK H PARENT
REMARK Flexibility Score: inf
ROOT
ATOM      1  C   UNL     1     -11.201  -0.271 -37.523  1.00  0.00     0.004 C 
ENDROOT
BRANCH   1   2
ATOM      2  C   UNL     1     -10.402   0.990 -37.162  1.00  0.00     0.000 C 
BRANCH   2   3
ATOM      3  C   UNL     1     -11.300   2.197 -36.848  1.00  0.00     0.000 C 
BRANCH   3   4
ATOM      4  C   UNL     1     -11.683   2.353 -35.364  1.00  0.00     0.000 C 
BRANCH   4   5
ATOM      5  C   UNL     1     -10.472   2.421 -34.409  1.00  0.00     0.006 C 
BRANCH   5   6
ATOM      6  C   UNL     1     -10.288   3.817 -33.799  1.00  0.00     0.053 C 
BRANCH   6   7
ATOM      7  C   UNL     1     -10.330   3.746 -32.305  1.00  0.00     0.041 C 
ATOM      8  O   UNL     1     -11.401   3.445 -31.715  1.00  0.00    -0.550 OA
ATOM      9  O   UNL     1      -9.175   3.968 -31.565  1.00  0.00    -0.550 OA
ENDBRANCH   6   7
ENDBRANCH   5   6
ENDBRANCH   4   5
ENDBRANCH   3   4
ENDBRANCH   2   3
ENDBRANCH   1   2
BRANCH   1  10
ATOM     10  C   UNL     1     -10.487  -1.076 -38.615  1.00  0.00     0.027 C 
BRANCH  10  11
ATOM     11  C   UNL     1      -8.991  -0.936 -38.490  1.00  0.00    -0.031 C 
ATOM     12  C   UNL     1      -8.094  -1.630 -39.217  1.00  0.00    -0.031 C 
BRANCH  12  13
ATOM     13  C   UNL     1      -8.446  -2.589 -40.328  1.00  0.00     0.027 C 
BRANCH  13  14
ATOM     14  C   UNL     1      -7.260  -3.488 -40.708  1.00  0.00     0.004 C 
BRANCH  14  15
ATOM     15  C   UNL     1      -6.434  -3.905 -39.479  1.00  0.00     0.000 C 
BRANCH  15  16
ATOM     16  C   UNL     1      -4.947  -4.106 -39.806  1.00  0.00    -0.000 C 
BRANCH  16  17
ATOM     17  C   UNL     1      -4.211  -4.926 -38.736  1.00  0.00    -0.003 C 
ATOM     18  C   UNL     1      -5.142  -5.285 -37.582  1.00  0.00     0.004 C 
ENDBRANCH  16  17
ENDBRANCH  15  16
ENDBRANCH  14  15
ENDBRANCH  13  14
ENDBRANCH  12  13
ENDBRANCH  10  11
ENDBRANCH   1  10
TORSDOF 13
ENDMDL
MODEL 3
REMARK VINA RESULT:    -4.473      4.304      9.321
REMARK INTER + INTRA:          -8.665
REMARK INTER:                  -7.843
REMARK INTRA:                  -0.822
REMARK UNBOUND:                -0.792
REMARK SMILES CCCCCCC=CCCCCCCCC(=O)[O-]
REMARK SMILES IDX 10 1 11 2 12 3 13 4 14 5 15 6 16 7 17 8 18 9 9 10 8 11 7 12
REMARK SMILES IDX 6 13 5 14 4 15 3 16 2 17 1 18
REMARK H PARENT
REMARK Flexibility Score: inf
ROOT
ATOM      1  C   UNL     1      -9.830   0.829 -36.504  1.00  0.00     0.004 C 
ENDROOT
BRANCH   1   2
ATOM      2  C   UNL     1     -10.948   1.646 -37.167  1.00  0.00     0.000 C 
BRANCH   2   3
ATOM      3  C   UNL     1     -11.692   2.555 -36.174  1.00  0.00     0.000 C 
BRANCH   3   4
ATOM      4  C   UNL     1     -11.289   2.374 -34.699  1.00  0.00     0.000 C 
BRANCH   4   5
ATOM      5  C   UNL     1     -11.528   3.625 -33.827  1.00  0.00     0.006 C 
BRANCH   5   6
ATOM      6  C   UNL     1     -10.275   4.501 -33.706  1.00  0.00     0.053 C 
BRANCH   6   7
ATOM      7  C   UNL     1     -10.018   4.855 -32.275  1.00  0.00     0.041 C 
ATOM      8  O   UNL     1     -10.532   5.889 -31.775  1.00  0.00    -0.550 OA
ATOM      9  O   UNL     1      -9.247   4.016 -31.479  1.00  0.00    -0.550 OA
ENDBRANCH   6   7
ENDBRANCH   5   6
ENDBRANCH   4   5
ENDBRANCH   3   4
ENDBRANCH   2   3
ENDBRANCH   1   2
BRANCH   1  10
ATOM     10  C   UNL     1      -8.973   0.120 -37.559  1.00  0.00     0.027 C 
BRANCH  10  11
ATOM     11  C   UNL     1      -9.607  -1.183 -37.976  1.00  0.00    -0.031 C 
ATOM     12  C   UNL     1      -9.466  -1.750 -39.190  1.00  0.00    -0.031 C 
BRANCH  12  13
ATOM     13  C   UNL     1      -8.582  -1.215 -40.290  1.00  0.00     0.027 C 
BRANCH  13  14
ATOM     14  C   UNL     1      -7.604  -2.278 -40.811  1.00  0.00     0.004 C 
BRANCH  14  15
ATOM     15  C   UNL     1      -7.753  -3.615 -40.064  1.00  0.00     0.000 C 
BRANCH  15  16
ATOM     16  C   UNL     1      -6.488  -4.483 -40.147  1.00  0.00    -0.000 C 
BRANCH  16  17
ATOM     17  C   UNL     1      -5.201  -3.676 -39.921  1.00  0.00    -0.003 C 
ATOM     18  C   UNL     1      -4.128  -4.058 -40.936  1.00  0.00     0.004 C 
ENDBRANCH  16  17
ENDBRANCH  15  16
ENDBRANCH  14  15
ENDBRANCH  13  14
ENDBRANCH  12  13
ENDBRANCH  10  11
ENDBRANCH   1  10
TORSDOF 13
ENDMDL
MODEL 4
REMARK VINA RESULT:    -4.472     11.584     13.353
REMARK INTER + INTRA:          -8.662
REMARK INTER:                  -6.197
REMARK INTRA:                  -2.465
REMARK UNBOUND:                -0.792
REMARK SMILES CCCCCCC=CCCCCCCCC(=O)[O-]
REMARK SMILES IDX 10 1 11 2 12 3 13 4 14 5 15 6 16 7 17 8 18 9 9 10 8 11 7 12
REMARK SMILES IDX 6 13 5 14 4 15 3 16 2 17 1 18
REMARK H PARENT
REMARK Flexibility Score: inf
ROOT
ATOM      1  C   UNL     1      -1.579  -9.659 -32.180  1.00  0.00     0.004 C 
ENDROOT
BRANCH   1   2
ATOM      2  C   UNL     1      -0.528  -9.484 -33.287  1.00  0.00     0.000 C 
BRANCH   2   3
ATOM      3  C   UNL     1       0.864  -9.989 -32.873  1.00  0.00     0.000 C 
BRANCH   3   4
ATOM      4  C   UNL     1       2.045  -9.168 -33.424  1.00  0.00     0.000 C 
BRANCH   4   5
ATOM      5  C   UNL     1       1.645  -8.154 -34.518  1.00  0.00     0.006 C 
BRANCH   5   6
ATOM      6  C   UNL     1       2.093  -6.726 -34.182  1.00  0.00     0.053 C 
BRANCH   6   7
ATOM      7  C   UNL     1       3.409  -6.423 -34.825  1.00  0.00     0.041 C 
ATOM      8  O   UNL     1       3.455  -5.757 -35.892  1.00  0.00    -0.550 OA
ATOM      9  O   UNL     1       4.589  -6.836 -34.220  1.00  0.00    -0.550 OA
ENDBRANCH   6   7
ENDBRANCH   5   6
ENDBRANCH   4   5
ENDBRANCH   3   4
ENDBRANCH   2   3
ENDBRANCH   1   2
BRANCH   1  10
ATOM     10  C   UNL     1      -2.433  -8.394 -32.035  1.00  0.00     0.027 C 
BRANCH  10  11
ATOM     11  C   UNL     1      -1.634  -7.166 -32.389  1.00  0.00    -0.031 C 
ATOM     12  C   UNL     1      -1.330  -6.175 -31.529  1.00  0.00    -0.031 C 
BRANCH  12  13
ATOM     13  C   UNL     1      -1.666  -6.182 -30.057  1.00  0.00     0.027 C 
BRANCH  13  14
ATOM     14  C   UNL     1      -0.443  -6.515 -29.190  1.00  0.00     0.004 C 
BRANCH  14  15
ATOM     15  C   UNL     1      -0.194  -8.030 -29.100  1.00  0.00     0.000 C 
BRANCH  15  16
ATOM     16  C   UNL     1       1.177  -8.439 -29.660  1.00  0.00    -0.000 C 
BRANCH  16  17
ATOM     17  C   UNL     1       1.890  -7.284 -30.379  1.00  0.00    -0.003 C 
ATOM     18  C   UNL     1       3.371  -7.240 -30.014  1.00  0.00     0.004 C 
ENDBRANCH  16  17
ENDBRANCH  15  16
ENDBRANCH  14  15
ENDBRANCH  13  14
ENDBRANCH  12  13
ENDBRANCH  10  11
ENDBRANCH   1  10
TORSDOF 13
ENDMDL
MODEL 5
REMARK VINA RESULT:    -4.390      1.834      3.789
REMARK INTER + INTRA:          -8.519
REMARK INTER:                  -7.684
REMARK INTRA:                  -0.835
REMARK UNBOUND:                -0.792
REMARK SMILES CCCCCCC=CCCCCCCCC(=O)[O-]
REMARK SMILES IDX 10 1 11 2 12 3 13 4 14 5 15 6 16 7 17 8 18 9 9 10 8 11 7 12
REMARK SMILES IDX 6 13 5 14 4 15 3 16 2 17 1 18
REMARK H PARENT
REMARK Flexibility Score: inf
ROOT
ATOM      1  C   UNL     1     -10.755   1.747 -36.850  1.00  0.00     0.004 C 
ENDROOT
BRANCH   1   2
ATOM      2  C   UNL     1      -9.628   0.728 -36.626  1.00  0.00     0.000 C 
BRANCH   2   3
ATOM      3  C   UNL     1      -9.744  -0.501 -37.542  1.00  0.00     0.000 C 
BRANCH   3   4
ATOM      4  C   UNL     1      -8.634  -0.627 -38.603  1.00  0.00     0.000 C 
BRANCH   4   5
ATOM      5  C   UNL     1      -8.926  -1.683 -39.691  1.00  0.00     0.006 C 
BRANCH   5   6
ATOM      6  C   UNL     1      -7.644  -2.239 -40.324  1.00  0.00     0.053 C 
BRANCH   6   7
ATOM      7  C   UNL     1      -7.333  -3.596 -39.777  1.00  0.00     0.041 C 
ATOM      8  O   UNL     1      -6.717  -3.713 -38.685  1.00  0.00    -0.550 OA
ATOM      9  O   UNL     1      -7.767  -4.732 -40.448  1.00  0.00    -0.550 OA
ENDBRANCH   6   7
ENDBRANCH   5   6
ENDBRANCH   4   5
ENDBRANCH   3   4
ENDBRANCH   2   3
ENDBRANCH   1   2
BRANCH   1  10
ATOM     10  C   UNL     1     -11.511   2.021 -35.545  1.00  0.00     0.027 C 
BRANCH  10  11
ATOM     11  C   UNL     1     -10.550   2.332 -34.425  1.00  0.00    -0.031 C 
ATOM     12  C   UNL     1     -10.300   3.567 -33.951  1.00  0.00    -0.031 C 
BRANCH  12  13
ATOM     13  C   UNL     1     -11.007   4.821 -34.405  1.00  0.00     0.027 C 
BRANCH  13  14
ATOM     14  C   UNL     1     -10.801   5.985 -33.425  1.00  0.00     0.004 C 
BRANCH  14  15
ATOM     15  C   UNL     1     -10.697   5.501 -31.968  1.00  0.00     0.000 C 
BRANCH  15  16
ATOM     16  C   UNL     1      -9.442   6.031 -31.257  1.00  0.00    -0.000 C 
BRANCH  16  17
ATOM     17  C   UNL     1      -8.497   6.782 -32.207  1.00  0.00    -0.003 C 
ATOM     18  C   UNL     1      -8.179   8.177 -31.676  1.00  0.00     0.004 C 
ENDBRANCH  16  17
ENDBRANCH  15  16
ENDBRANCH  14  15
ENDBRANCH  13  14
ENDBRANCH  12  13
ENDBRANCH  10  11
ENDBRANCH   1  10
TORSDOF 13
ENDMDL
MODEL 6
REMARK VINA RESULT:    -4.382     11.613     13.268
REMARK INTER + INTRA:          -8.504
REMARK INTER:                  -5.832
REMARK INTRA:                  -2.671
REMARK UNBOUND:                -0.792
REMARK SMILES CCCCCCC=CCCCCCCCC(=O)[O-]
REMARK SMILES IDX 10 1 11 2 12 3 13 4 14 5 15 6 16 7 17 8 18 9 9 10 8 11 7 12
REMARK SMILES IDX 6 13 5 14 4 15 3 16 2 17 1 18
REMARK H PARENT
REMARK Flexibility Score: inf
ROOT
ATOM      1  C   UNL     1       0.861  -8.287 -29.506  1.00  0.00     0.004 C 
ENDROOT
BRANCH   1   2
ATOM      2  C   UNL     1       1.000  -9.559 -30.356  1.00  0.00     0.000 C 
BRANCH   2   3
ATOM      3  C   UNL     1       1.906  -9.361 -31.583  1.00  0.00     0.000 C 
BRANCH   3   4
ATOM      4  C   UNL     1       1.234  -9.646 -32.939  1.00  0.00     0.000 C 
BRANCH   4   5
ATOM      5  C   UNL     1       1.738  -8.745 -34.088  1.00  0.00     0.006 C 
BRANCH   5   6
ATOM      6  C   UNL     1       2.472  -7.500 -33.574  1.00  0.00     0.053 C 
BRANCH   6   7
ATOM      7  C   UNL     1       2.063  -6.291 -34.354  1.00  0.00     0.041 C 
ATOM      8  O   UNL     1       2.725  -5.932 -35.362  1.00  0.00    -0.550 OA
ATOM      9  O   UNL     1       0.921  -5.585 -33.994  1.00  0.00    -0.550 OA
ENDBRANCH   6   7
ENDBRANCH   5   6
ENDBRANCH   4   5
ENDBRANCH   3   4
ENDBRANCH   2   3
ENDBRANCH   1   2
BRANCH   1  10
ATOM     10  C   UNL     1       0.739  -7.047 -30.399  1.00  0.00     0.027 C 
BRANCH  10  11
ATOM     11  C   UNL     1      -0.621  -6.411 -30.249  1.00  0.00    -0.031 C 
ATOM     12  C   UNL     1      -1.632  -6.549 -31.128  1.00  0.00    -0.031 C 
BRANCH  12  13
ATOM     13  C   UNL     1      -1.591  -7.429 -32.354  1.00  0.00     0.027 C 
BRANCH  13  14
ATOM     14  C   UNL     1      -2.221  -8.805 -32.095  1.00  0.00     0.004 C 
BRANCH  14  15
ATOM     15  C   UNL     1      -3.626  -8.691 -31.479  1.00  0.00     0.000 C 
BRANCH  15  16
ATOM     16  C   UNL     1      -3.831  -9.645 -30.292  1.00  0.00    -0.000 C 
BRANCH  16  17
ATOM     17  C   UNL     1      -2.576  -9.779 -29.417  1.00  0.00    -0.003 C 
ATOM     18  C   UNL     1      -2.632  -8.826 -28.227  1.00  0.00     0.004 C 
ENDBRANCH  16  17
ENDBRANCH  15  16
ENDBRANCH  14  15
ENDBRANCH  13  14
ENDBRANCH  12  13
ENDBRANCH  10  11
ENDBRANCH   1  10
TORSDOF 13
ENDMDL
MODEL 7
REMARK VINA RESULT:    -4.359      4.507      8.012
REMARK INTER + INTRA:          -8.463
REMARK INTER:                  -6.605
REMARK INTRA:                  -1.859
REMARK UNBOUND:                -0.792
REMARK SMILES CCCCCCC=CCCCCCCCC(=O)[O-]
REMARK SMILES IDX 10 1 11 2 12 3 13 4 14 5 15 6 16 7 17 8 18 9 9 10 8 11 7 12
REMARK SMILES IDX 6 13 5 14 4 15 3 16 2 17 1 18
REMARK H PARENT
REMARK Flexibility Score: inf
ROOT
ATOM      1  C   UNL     1      -9.675   4.146 -32.005  1.00  0.00     0.004 C 
ENDROOT
BRANCH   1   2
ATOM      2  C   UNL     1     -11.142   3.709 -32.128  1.00  0.00     0.000 C 
BRANCH   2   3
ATOM      3  C   UNL     1     -11.337   2.539 -33.106  1.00  0.00     0.000 C 
BRANCH   3   4
ATOM      4  C   UNL     1     -10.926   2.833 -34.561  1.00  0.00     0.000 C 
BRANCH   4   5
ATOM      5  C   UNL     1     -11.694   1.999 -35.609  1.00  0.00     0.006 C 
BRANCH   5   6
ATOM      6  C   UNL     1     -10.919   1.860 -36.926  1.00  0.00     0.053 C 
BRANCH   6   7
ATOM      7  C   UNL     1     -10.102   0.607 -36.925  1.00  0.00     0.041 C 
ATOM      8  O   UNL     1      -8.918   0.623 -36.498  1.00  0.00    -0.550 OA
ATOM      9  O   UNL     1     -10.664  -0.590 -37.351  1.00  0.00    -0.550 OA
ENDBRANCH   6   7
ENDBRANCH   5   6
ENDBRANCH   4   5
ENDBRANCH   3   4
ENDBRANCH   2   3
ENDBRANCH   1   2
BRANCH   1  10
ATOM     10  C   UNL     1      -9.479   5.559 -32.566  1.00  0.00     0.027 C 
BRANCH  10  11
ATOM     11  C   UNL     1     -10.739   6.374 -32.417  1.00  0.00    -0.031 C 
ATOM     12  C   UNL     1     -10.784   7.635 -31.946  1.00  0.00    -0.031 C 
BRANCH  12  13
ATOM     13  C   UNL     1      -9.574   8.458 -31.576  1.00  0.00     0.027 C 
BRANCH  13  14
ATOM     14  C   UNL     1      -9.409   8.589 -30.055  1.00  0.00     0.004 C 
BRANCH  14  15
ATOM     15  C   UNL     1      -8.295   7.676 -29.514  1.00  0.00     0.000 C 
BRANCH  15  16
ATOM     16  C   UNL     1      -8.838   6.359 -28.937  1.00  0.00    -0.000 C 
BRANCH  16  17
ATOM     17  C   UNL     1     -10.277   6.489 -28.418  1.00  0.00    -0.003 C 
ATOM     18  C   UNL     1     -11.074   5.215 -28.681  1.00  0.00     0.004 C 
ENDBRANCH  16  17
ENDBRANCH  15  16
ENDBRANCH  14  15
ENDBRANCH  13  14
ENDBRANCH  12  13
ENDBRANCH  10  11
ENDBRANCH   1  10
TORSDOF 13
ENDMDL
MODEL 8
REMARK VINA RESULT:    -4.346     11.819     13.486
REMARK INTER + INTRA:          -8.441
REMARK INTER:                  -6.486
REMARK INTRA:                  -1.955
REMARK UNBOUND:                -0.792
REMARK SMILES CCCCCCC=CCCCCCCCC(=O)[O-]
REMARK SMILES IDX 10 1 11 2 12 3 13 4 14 5 15 6 16 7 17 8 18 9 9 10 8 11 7 12
REMARK SMILES IDX 6 13 5 14 4 15 3 16 2 17 1 18
REMARK H PARENT
REMARK Flexibility Score: inf
ROOT
ATOM      1  C   UNL     1       2.964  -7.185 -31.208  1.00  0.00     0.004 C 
ENDROOT
BRANCH   1   2
ATOM      2  C   UNL     1       3.321  -8.582 -31.739  1.00  0.00     0.000 C 
BRANCH   2   3
ATOM      3  C   UNL     1       4.064  -8.537 -33.085  1.00  0.00     0.000 C 
BRANCH   3   4
ATOM      4  C   UNL     1       3.183  -8.793 -34.322  1.00  0.00     0.000 C 
BRANCH   4   5
ATOM      5  C   UNL     1       3.546  -7.916 -35.540  1.00  0.00     0.006 C 
BRANCH   5   6
ATOM      6  C   UNL     1       3.301  -6.424 -35.279  1.00  0.00     0.053 C 
BRANCH   6   7
ATOM      7  C   UNL     1       4.412  -5.602 -35.851  1.00  0.00     0.041 C 
ATOM      8  O   UNL     1       4.193  -4.821 -36.813  1.00  0.00    -0.550 OA
ATOM      9  O   UNL     1       5.682  -5.663 -35.291  1.00  0.00    -0.550 OA
ENDBRANCH   6   7
ENDBRANCH   5   6
ENDBRANCH   4   5
ENDBRANCH   3   4
ENDBRANCH   2   3
ENDBRANCH   1   2
BRANCH   1  10
ATOM     10  C   UNL     1       1.444  -6.991 -31.167  1.00  0.00     0.027 C 
BRANCH  10  11
ATOM     11  C   UNL     1       0.915  -6.620 -32.529  1.00  0.00    -0.031 C 
ATOM     12  C   UNL     1      -0.093  -7.254 -33.157  1.00  0.00    -0.031 C 
BRANCH  12  13
ATOM     13  C   UNL     1      -0.908  -8.376 -32.561  1.00  0.00     0.027 C 
BRANCH  13  14
ATOM     14  C   UNL     1      -2.215  -7.869 -31.934  1.00  0.00     0.004 C 
BRANCH  14  15
ATOM     15  C   UNL     1      -2.130  -7.797 -30.400  1.00  0.00     0.000 C 
BRANCH  15  16
ATOM     16  C   UNL     1      -1.934  -6.362 -29.885  1.00  0.00    -0.000 C 
BRANCH  16  17
ATOM     17  C   UNL     1      -1.138  -6.308 -28.572  1.00  0.00    -0.003 C 
ATOM     18  C   UNL     1      -0.578  -7.681 -28.212  1.00  0.00     0.004 C 
ENDBRANCH  16  17
ENDBRANCH  15  16
ENDBRANCH  14  15
ENDBRANCH  13  14
ENDBRANCH  12  13
ENDBRANCH  10  11
ENDBRANCH   1  10
TORSDOF 13
ENDMDL
MODEL 9
REMARK VINA RESULT:    -4.229      2.777      5.846
REMARK INTER + INTRA:          -8.235
REMARK INTER:                  -7.461
REMARK INTRA:                  -0.774
REMARK UNBOUND:                -0.792
REMARK SMILES CCCCCCC=CCCCCCCCC(=O)[O-]
REMARK SMILES IDX 10 1 11 2 12 3 13 4 14 5 15 6 16 7 17 8 18 9 9 10 8 11 7 12
REMARK SMILES IDX 6 13 5 14 4 15 3 16 2 17 1 18
REMARK H PARENT
REMARK Flexibility Score: inf
ROOT
ATOM      1  C   UNL     1     -10.762   2.521 -34.657  1.00  0.00     0.004 C 
ENDROOT
BRANCH   1   2
ATOM      2  C   UNL     1     -11.495   2.706 -35.994  1.00  0.00     0.000 C 
BRANCH   2   3
ATOM      3  C   UNL     1     -11.269   1.536 -36.965  1.00  0.00     0.000 C 
BRANCH   3   4
ATOM      4  C   UNL     1      -9.932   0.791 -36.787  1.00  0.00     0.000 C 
BRANCH   4   5
ATOM      5  C   UNL     1      -9.756  -0.415 -37.734  1.00  0.00     0.006 C 
BRANCH   5   6
ATOM      6  C   UNL     1      -8.375  -0.435 -38.403  1.00  0.00     0.053 C 
BRANCH   6   7
ATOM      7  C   UNL     1      -8.206  -1.677 -39.219  1.00  0.00     0.041 C 
ATOM      8  O   UNL     1      -7.595  -2.670 -38.744  1.00  0.00    -0.550 OA
ATOM      9  O   UNL     1      -8.764  -1.756 -40.489  1.00  0.00    -0.550 OA
ENDBRANCH   6   7
ENDBRANCH   5   6
ENDBRANCH   4   5
ENDBRANCH   3   4
ENDBRANCH   2   3
ENDBRANCH   1   2
BRANCH   1  10
ATOM     10  C   UNL     1     -10.729   3.835 -33.868  1.00  0.00     0.027 C 
BRANCH  10  11
ATOM     11  C   UNL     1     -10.212   3.607 -32.470  1.00  0.00    -0.031 C 
ATOM     12  C   UNL     1      -9.873   4.586 -31.609  1.00  0.00    -0.031 C 
BRANCH  12  13
ATOM     13  C   UNL     1     -10.039   6.062 -31.878  1.00  0.00     0.027 C 
BRANCH  13  14
ATOM     14  C   UNL     1      -8.698   6.744 -32.190  1.00  0.00     0.004 C 
BRANCH  14  15
ATOM     15  C   UNL     1      -8.252   7.685 -31.058  1.00  0.00     0.000 C 
BRANCH  15  16
ATOM     16  C   UNL     1      -9.121   7.547 -29.797  1.00  0.00    -0.000 C 
BRANCH  16  17
ATOM     17  C   UNL     1      -8.370   6.887 -28.631  1.00  0.00    -0.003 C 
ATOM     18  C   UNL     1      -9.122   5.664 -28.115  1.00  0.00     0.004 C 
ENDBRANCH  16  17
ENDBRANCH  15  16
ENDBRANCH  14  15
ENDBRANCH  13  14
ENDBRANCH  12  13
ENDBRANCH  10  11
ENDBRANCH   1  10
TORSDOF 13
ENDMDL
