MODEL 1
REMARK VINA RESULT:    -5.432      0.000      0.000
REMARK INTER + INTRA:         -15.030
REMARK INTER:                 -12.418
REMARK INTRA:                  -2.611
REMARK UNBOUND:                -2.611
REMARK SMILES CCCCCCCCCCCCCCCCCCCCCCCC(=O)[O-]
REMARK SMILES IDX 13 1 14 2 15 3 16 4 17 5 18 6 19 7 20 8 21 9 22 10 23 11
REMARK SMILES IDX 24 12 25 13 26 14 12 15 11 16 10 17 9 18 8 19 7 20 6 21 5 22
REMARK SMILES IDX 4 23 3 24 2 25 1 26
REMARK H PARENT
REMARK Flexibility Score: inf
ROOT
ATOM      1  C   UNL     1       6.327  57.351  21.525  1.00  0.00     0.000 C 
ENDROOT
BRANCH   1   2
ATOM      2  C   UNL     1       5.009  57.231  22.312  1.00  0.00     0.000 C 
BRANCH   2   3
ATOM      3  C   UNL     1       4.091  58.468  22.255  1.00  0.00     0.000 C 
BRANCH   3   4
ATOM      4  C   UNL     1       2.744  58.184  21.567  1.00  0.00     0.000 C 
BRANCH   4   5
ATOM      5  C   UNL     1       2.202  59.397  20.785  1.00  0.00     0.000 C 
BRANCH   5   6
ATOM      6  C   UNL     1       0.756  59.801  21.126  1.00  0.00     0.000 C 
BRANCH   6   7
ATOM      7  C   UNL     1       0.413  61.232  20.675  1.00  0.00     0.000 C 
BRANCH   7   8
ATOM      8  C   UNL     1      -0.175  61.273  19.255  1.00  0.00     0.000 C 
BRANCH   8   9
ATOM      9  C   UNL     1      -0.790  59.925  18.838  1.00  0.00     0.000 C 
BRANCH   9  10
ATOM     10  C   UNL     1      -0.397  59.518  17.409  1.00  0.00     0.006 C 
BRANCH  10  11
ATOM     11  C   UNL     1       0.852  58.629  17.374  1.00  0.00     0.053 C 
BRANCH  11  12
ATOM     12  C   UNL     1       1.963  59.321  16.650  1.00  0.00     0.041 C 
ATOM     13  O   UNL     1       2.141  60.559  16.797  1.00  0.00    -0.550 OA
ATOM     14  O   UNL     1       2.847  58.587  15.867  1.00  0.00    -0.550 OA
ENDBRANCH  11  12
ENDBRANCH  10  11
ENDBRANCH   9  10
ENDBRANCH   8   9
ENDBRANCH   7   8
ENDBRANCH   6   7
ENDBRANCH   5   6
ENDBRANCH   4   5
ENDBRANCH   3   4
ENDBRANCH   2   3
ENDBRANCH   1   2
BRANCH   1  15
ATOM     15  C   UNL     1       7.430  56.417  22.051  1.00  0.00     0.000 C 
BRANCH  15  16
ATOM     16  C   UNL     1       7.522  55.106  21.255  1.00  0.00     0.000 C 
BRANCH  16  17
ATOM     17  C   UNL     1       6.759  53.952  21.928  1.00  0.00     0.000 C 
BRANCH  17  18
ATOM     18  C   UNL     1       6.407  54.251  23.394  1.00  0.00    -0.000 C 
BRANCH  18  19
ATOM     19  C   UNL     1       7.011  53.225  24.370  1.00  0.00    -0.000 C 
BRANCH  19  20
ATOM     20  C   UNL     1       7.777  53.894  25.524  1.00  0.00    -0.000 C 
BRANCH  20  21
ATOM     21  C   UNL     1       8.600  55.109  25.063  1.00  0.00    -0.000 C 
BRANCH  21  22
ATOM     22  C   UNL     1      10.090  54.997  25.430  1.00  0.00    -0.000 C 
BRANCH  22  23
ATOM     23  C   UNL     1      10.872  53.920  24.654  1.00  0.00    -0.000 C 
BRANCH  23  24
ATOM     24  C   UNL     1      10.624  53.980  23.136  1.00  0.00    -0.000 C 
BRANCH  24  25
ATOM     25  C   UNL     1      10.031  52.674  22.586  1.00  0.00    -0.003 C 
ATOM     26  C   UNL     1      10.216  51.494  23.541  1.00  0.00     0.004 C 
ENDBRANCH  24  25
ENDBRANCH  23  24
ENDBRANCH  22  23
ENDBRANCH  21  22
ENDBRANCH  20  21
ENDBRANCH  19  20
ENDBRANCH  18  19
ENDBRANCH  17  18
ENDBRANCH  16  17
ENDBRANCH  15  16
ENDBRANCH   1  15
TORSDOF 22
ENDMDL
MODEL 2
REMARK VINA RESULT:    -5.416      5.345      8.795
REMARK INTER + INTRA:         -14.992
REMARK INTER:                 -12.290
REMARK INTRA:                  -2.703
REMARK UNBOUND:                -2.611
REMARK SMILES CCCCCCCCCCCCCCCCCCCCCCCC(=O)[O-]
REMARK SMILES IDX 13 1 14 2 15 3 16 4 17 5 18 6 19 7 20 8 21 9 22 10 23 11
REMARK SMILES IDX 24 12 25 13 26 14 12 15 11 16 10 17 9 18 8 19 7 20 6 21 5 22
REMARK SMILES IDX 4 23 3 24 2 25 1 26
REMARK H PARENT
REMARK Flexibility Score: inf
ROOT
ATOM      1  C   UNL     1       9.842  51.428  23.756  1.00  0.00     0.000 C 
ENDROOT
BRANCH   1   2
ATOM      2  C   UNL     1      10.276  52.410  22.652  1.00  0.00     0.000 C 
BRANCH   2   3
ATOM      3  C   UNL     1      10.422  53.879  23.094  1.00  0.00     0.000 C 
BRANCH   3   4
ATOM      4  C   UNL     1      10.692  54.028  24.602  1.00  0.00     0.000 C 
BRANCH   4   5
ATOM      5  C   UNL     1       9.829  55.121  25.261  1.00  0.00     0.000 C 
BRANCH   5   6
ATOM      6  C   UNL     1       8.765  54.607  26.248  1.00  0.00     0.000 C 
BRANCH   6   7
ATOM      7  C   UNL     1       7.650  53.800  25.559  1.00  0.00     0.000 C 
BRANCH   7   8
ATOM      8  C   UNL     1       7.018  54.561  24.382  1.00  0.00     0.000 C 
BRANCH   8   9
ATOM      9  C   UNL     1       6.852  53.675  23.135  1.00  0.00     0.000 C 
BRANCH   9  10
ATOM     10  C   UNL     1       6.254  54.442  21.945  1.00  0.00     0.006 C 
BRANCH  10  11
ATOM     11  C   UNL     1       7.316  54.858  20.920  1.00  0.00     0.053 C 
BRANCH  11  12
ATOM     12  C   UNL     1       6.989  54.293  19.574  1.00  0.00     0.041 C 
ATOM     13  O   UNL     1       6.554  53.116  19.469  1.00  0.00    -0.550 OA
ATOM     14  O   UNL     1       7.097  55.091  18.440  1.00  0.00    -0.550 OA
ENDBRANCH  11  12
ENDBRANCH  10  11
ENDBRANCH   9  10
ENDBRANCH   8   9
ENDBRANCH   7   8
ENDBRANCH   6   7
ENDBRANCH   5   6
ENDBRANCH   4   5
ENDBRANCH   3   4
ENDBRANCH   2   3
ENDBRANCH   1   2
BRANCH   1  15
ATOM     15  C   UNL     1      10.659  50.125  23.758  1.00  0.00     0.000 C 
BRANCH  15  16
ATOM     16  C   UNL     1      10.050  49.049  24.671  1.00  0.00     0.000 C 
BRANCH  16  17
ATOM     17  C   UNL     1      10.326  47.622  24.166  1.00  0.00     0.000 C 
BRANCH  17  18
ATOM     18  C   UNL     1      11.825  47.344  23.966  1.00  0.00    -0.000 C 
BRANCH  18  19
ATOM     19  C   UNL     1      12.609  47.339  25.291  1.00  0.00    -0.000 C 
BRANCH  19  20
ATOM     20  C   UNL     1      12.282  46.114  26.161  1.00  0.00    -0.000 C 
BRANCH  20  21
ATOM     21  C   UNL     1      11.910  46.497  27.604  1.00  0.00    -0.000 C 
BRANCH  21  22
ATOM     22  C   UNL     1      12.048  48.005  27.879  1.00  0.00    -0.000 C 
BRANCH  22  23
ATOM     23  C   UNL     1      12.756  48.364  29.199  1.00  0.00    -0.000 C 
BRANCH  23  24
ATOM     24  C   UNL     1      14.138  49.006  28.980  1.00  0.00    -0.000 C 
BRANCH  24  25
ATOM     25  C   UNL     1      15.212  47.973  28.607  1.00  0.00    -0.003 C 
ATOM     26  C   UNL     1      15.131  46.705  29.459  1.00  0.00     0.004 C 
ENDBRANCH  24  25
ENDBRANCH  23  24
ENDBRANCH  22  23
ENDBRANCH  21  22
ENDBRANCH  20  21
ENDBRANCH  19  20
ENDBRANCH  18  19
ENDBRANCH  17  18
ENDBRANCH  16  17
ENDBRANCH  15  16
ENDBRANCH   1  15
TORSDOF 22
ENDMDL
MODEL 3
REMARK VINA RESULT:    -5.351      7.124     13.848
REMARK INTER + INTRA:         -14.845
REMARK INTER:                 -12.383
REMARK INTRA:                  -2.462
REMARK UNBOUND:                -2.611
REMARK SMILES CCCCCCCCCCCCCCCCCCCCCCCC(=O)[O-]
REMARK SMILES IDX 13 1 14 2 15 3 16 4 17 5 18 6 19 7 20 8 21 9 22 10 23 11
REMARK SMILES IDX 24 12 25 13 26 14 12 15 11 16 10 17 9 18 8 19 7 20 6 21 5 22
REMARK SMILES IDX 4 23 3 24 2 25 1 26
REMARK H PARENT
REMARK Flexibility Score: inf
ROOT
ATOM      1  C   UNL     1      10.639  50.113  23.462  1.00  0.00     0.000 C 
ENDROOT
BRANCH   1   2
ATOM      2  C   UNL     1      10.479  49.096  24.608  1.00  0.00     0.000 C 
BRANCH   2   3
ATOM      3  C   UNL     1      10.304  47.629  24.170  1.00  0.00     0.000 C 
BRANCH   3   4
ATOM      4  C   UNL     1      11.408  46.705  24.713  1.00  0.00     0.000 C 
BRANCH   4   5
ATOM      5  C   UNL     1      10.852  45.483  25.469  1.00  0.00     0.000 C 
BRANCH   5   6
ATOM      6  C   UNL     1      11.106  45.482  26.988  1.00  0.00     0.000 C 
BRANCH   6   7
ATOM      7  C   UNL     1      12.237  44.526  27.404  1.00  0.00     0.000 C 
BRANCH   7   8
ATOM      8  C   UNL     1      12.832  44.885  28.775  1.00  0.00     0.000 C 
BRANCH   8   9
ATOM      9  C   UNL     1      11.889  45.770  29.609  1.00  0.00     0.000 C 
BRANCH   9  10
ATOM     10  C   UNL     1      12.611  46.975  30.230  1.00  0.00     0.006 C 
BRANCH  10  11
ATOM     11  C   UNL     1      13.978  47.238  29.586  1.00  0.00     0.053 C 
BRANCH  11  12
ATOM     12  C   UNL     1      13.897  48.400  28.648  1.00  0.00     0.041 C 
ATOM     13  O   UNL     1      14.219  49.553  29.039  1.00  0.00    -0.550 OA
ATOM     14  O   UNL     1      13.533  48.200  27.321  1.00  0.00    -0.550 OA
ENDBRANCH  11  12
ENDBRANCH  10  11
ENDBRANCH   9  10
ENDBRANCH   8   9
ENDBRANCH   7   8
ENDBRANCH   6   7
ENDBRANCH   5   6
ENDBRANCH   4   5
ENDBRANCH   3   4
ENDBRANCH   2   3
ENDBRANCH   1   2
BRANCH   1  15
ATOM     15  C   UNL     1       9.938  51.452  23.743  1.00  0.00     0.000 C 
BRANCH  15  16
ATOM     16  C   UNL     1      10.246  52.515  22.676  1.00  0.00     0.000 C 
BRANCH  16  17
ATOM     17  C   UNL     1      10.615  53.877  23.289  1.00  0.00     0.000 C 
BRANCH  17  18
ATOM     18  C   UNL     1      10.347  53.937  24.802  1.00  0.00    -0.000 C 
BRANCH  18  19
ATOM     19  C   UNL     1       9.311  55.011  25.178  1.00  0.00    -0.000 C 
BRANCH  19  20
ATOM     20  C   UNL     1       8.007  54.404  25.723  1.00  0.00    -0.000 C 
BRANCH  20  21
ATOM     21  C   UNL     1       7.262  53.562  24.672  1.00  0.00    -0.000 C 
BRANCH  21  22
ATOM     22  C   UNL     1       6.685  54.410  23.525  1.00  0.00    -0.000 C 
BRANCH  22  23
ATOM     23  C   UNL     1       6.655  53.713  22.152  1.00  0.00    -0.000 C 
BRANCH  23  24
ATOM     24  C   UNL     1       7.502  54.442  21.093  1.00  0.00    -0.000 C 
BRANCH  24  25
ATOM     25  C   UNL     1       8.163  55.714  21.645  1.00  0.00    -0.003 C 
ATOM     26  C   UNL     1       7.513  56.993  21.118  1.00  0.00     0.004 C 
ENDBRANCH  24  25
ENDBRANCH  23  24
ENDBRANCH  22  23
ENDBRANCH  21  22
ENDBRANCH  20  21
ENDBRANCH  19  20
ENDBRANCH  18  19
ENDBRANCH  17  18
ENDBRANCH  16  17
ENDBRANCH  15  16
ENDBRANCH   1  15
TORSDOF 22
ENDMDL
MODEL 4
REMARK VINA RESULT:    -5.311      7.043     13.458
REMARK INTER + INTRA:         -14.754
REMARK INTER:                 -12.213
REMARK INTRA:                  -2.541
REMARK UNBOUND:                -2.611
REMARK SMILES CCCCCCCCCCCCCCCCCCCCCCCC(=O)[O-]
REMARK SMILES IDX 13 1 14 2 15 3 16 4 17 5 18 6 19 7 20 8 21 9 22 10 23 11
REMARK SMILES IDX 24 12 25 13 26 14 12 15 11 16 10 17 9 18 8 19 7 20 6 21 5 22
REMARK SMILES IDX 4 23 3 24 2 25 1 26
REMARK H PARENT
REMARK Flexibility Score: inf
ROOT
ATOM      1  C   UNL     1      10.199  51.460  23.896  1.00  0.00     0.000 C 
ENDROOT
BRANCH   1   2
ATOM      2  C   UNL     1      10.244  49.969  23.511  1.00  0.00     0.000 C 
BRANCH   2   3
ATOM      3  C   UNL     1      10.625  49.004  24.650  1.00  0.00     0.000 C 
BRANCH   3   4
ATOM      4  C   UNL     1      11.099  47.632  24.141  1.00  0.00     0.000 C 
BRANCH   4   5
ATOM      5  C   UNL     1      10.149  46.484  24.536  1.00  0.00     0.000 C 
BRANCH   5   6
ATOM      6  C   UNL     1       9.986  46.263  26.051  1.00  0.00     0.000 C 
BRANCH   6   7
ATOM      7  C   UNL     1      10.995  45.250  26.620  1.00  0.00     0.000 C 
BRANCH   7   8
ATOM      8  C   UNL     1      11.791  45.819  27.806  1.00  0.00     0.000 C 
BRANCH   8   9
ATOM      9  C   UNL     1      12.282  47.254  27.546  1.00  0.00     0.000 C 
BRANCH   9  10
ATOM     10  C   UNL     1      12.353  48.091  28.833  1.00  0.00     0.006 C 
BRANCH  10  11
ATOM     11  C   UNL     1      13.523  47.682  29.736  1.00  0.00     0.053 C 
BRANCH  11  12
ATOM     12  C   UNL     1      14.817  47.788  28.992  1.00  0.00     0.041 C 
ATOM     13  O   UNL     1      15.486  46.753  28.735  1.00  0.00    -0.550 OA
ATOM     14  O   UNL     1      15.249  49.023  28.520  1.00  0.00    -0.550 OA
ENDBRANCH  11  12
ENDBRANCH  10  11
ENDBRANCH   9  10
ENDBRANCH   8   9
ENDBRANCH   7   8
ENDBRANCH   6   7
ENDBRANCH   5   6
ENDBRANCH   4   5
ENDBRANCH   3   4
ENDBRANCH   2   3
ENDBRANCH   1   2
BRANCH   1  15
ATOM     15  C   UNL     1      10.380  52.399  22.691  1.00  0.00     0.000 C 
BRANCH  15  16
ATOM     16  C   UNL     1      10.553  53.868  23.109  1.00  0.00     0.000 C 
BRANCH  16  17
ATOM     17  C   UNL     1      10.620  54.043  24.636  1.00  0.00     0.000 C 
BRANCH  17  18
ATOM     18  C   UNL     1       9.692  55.158  25.146  1.00  0.00    -0.000 C 
BRANCH  18  19
ATOM     19  C   UNL     1       8.588  54.629  26.079  1.00  0.00    -0.000 C 
BRANCH  19  20
ATOM     20  C   UNL     1       7.680  53.598  25.389  1.00  0.00    -0.000 C 
BRANCH  20  21
ATOM     21  C   UNL     1       6.824  54.218  24.271  1.00  0.00    -0.000 C 
BRANCH  21  22
ATOM     22  C   UNL     1       6.930  53.450  22.940  1.00  0.00    -0.000 C 
BRANCH  22  23
ATOM     23  C   UNL     1       6.800  54.320  21.676  1.00  0.00    -0.000 C 
BRANCH  23  24
ATOM     24  C   UNL     1       7.861  55.433  21.605  1.00  0.00    -0.000 C 
BRANCH  24  25
ATOM     25  C   UNL     1       7.238  56.835  21.538  1.00  0.00    -0.003 C 
ATOM     26  C   UNL     1       5.915  56.929  22.299  1.00  0.00     0.004 C 
ENDBRANCH  24  25
ENDBRANCH  23  24
ENDBRANCH  22  23
ENDBRANCH  21  22
ENDBRANCH  20  21
ENDBRANCH  19  20
ENDBRANCH  18  19
ENDBRANCH  17  18
ENDBRANCH  16  17
ENDBRANCH  15  16
ENDBRANCH   1  15
TORSDOF 22
ENDMDL
MODEL 5
REMARK VINA RESULT:    -5.280      1.350      3.005
REMARK INTER + INTRA:         -14.682
REMARK INTER:                 -12.406
REMARK INTRA:                  -2.276
REMARK UNBOUND:                -2.611
REMARK SMILES CCCCCCCCCCCCCCCCCCCCCCCC(=O)[O-]
REMARK SMILES IDX 13 1 14 2 15 3 16 4 17 5 18 6 19 7 20 8 21 9 22 10 23 11
REMARK SMILES IDX 24 12 25 13 26 14 12 15 11 16 10 17 9 18 8 19 7 20 6 21 5 22
REMARK SMILES IDX 4 23 3 24 2 25 1 26
REMARK H PARENT
REMARK Flexibility Score: inf
ROOT
ATOM      1  C   UNL     1       3.389  57.984  21.744  1.00  0.00     0.000 C 
ENDROOT
BRANCH   1   2
ATOM      2  C   UNL     1       2.928  59.416  21.412  1.00  0.00     0.000 C 
BRANCH   2   3
ATOM      3  C   UNL     1       2.748  60.350  22.625  1.00  0.00     0.000 C 
BRANCH   3   4
ATOM      4  C   UNL     1       1.574  59.939  23.530  1.00  0.00     0.000 C 
BRANCH   4   5
ATOM      5  C   UNL     1       0.363  59.408  22.739  1.00  0.00     0.000 C 
BRANCH   5   6
ATOM      6  C   UNL     1      -0.921  60.249  22.867  1.00  0.00     0.000 C 
BRANCH   6   7
ATOM      7  C   UNL     1      -1.321  60.934  21.548  1.00  0.00     0.000 C 
BRANCH   7   8
ATOM      8  C   UNL     1      -0.545  60.380  20.342  1.00  0.00     0.000 C 
BRANCH   8   9
ATOM      9  C   UNL     1       0.347  61.446  19.680  1.00  0.00     0.000 C 
BRANCH   9  10
ATOM     10  C   UNL     1      -0.099  61.776  18.247  1.00  0.00     0.006 C 
BRANCH  10  11
ATOM     11  C   UNL     1      -0.212  60.527  17.364  1.00  0.00     0.053 C 
BRANCH  11  12
ATOM     12  C   UNL     1       1.142  59.938  17.120  1.00  0.00     0.041 C 
ATOM     13  O   UNL     1       1.370  58.734  17.409  1.00  0.00    -0.550 OA
ATOM     14  O   UNL     1       2.131  60.699  16.508  1.00  0.00    -0.550 OA
ENDBRANCH  11  12
ENDBRANCH  10  11
ENDBRANCH   9  10
ENDBRANCH   8   9
ENDBRANCH   7   8
ENDBRANCH   6   7
ENDBRANCH   5   6
ENDBRANCH   4   5
ENDBRANCH   3   4
ENDBRANCH   2   3
ENDBRANCH   1   2
BRANCH   1  15
ATOM     15  C   UNL     1       4.643  57.947  22.634  1.00  0.00     0.000 C 
BRANCH  15  16
ATOM     16  C   UNL     1       5.513  56.707  22.375  1.00  0.00     0.000 C 
BRANCH  16  17
ATOM     17  C   UNL     1       7.010  56.979  22.599  1.00  0.00     0.000 C 
BRANCH  17  18
ATOM     18  C   UNL     1       7.884  56.475  21.438  1.00  0.00    -0.000 C 
BRANCH  18  19
ATOM     19  C   UNL     1       7.202  55.361  20.624  1.00  0.00    -0.000 C 
BRANCH  19  20
ATOM     20  C   UNL     1       7.795  53.973  20.918  1.00  0.00    -0.000 C 
BRANCH  20  21
ATOM     21  C   UNL     1       8.602  53.939  22.227  1.00  0.00    -0.000 C 
BRANCH  21  22
ATOM     22  C   UNL     1       7.917  53.111  23.330  1.00  0.00    -0.000 C 
BRANCH  22  23
ATOM     23  C   UNL     1       7.243  53.939  24.441  1.00  0.00    -0.000 C 
BRANCH  23  24
ATOM     24  C   UNL     1       8.105  54.049  25.711  1.00  0.00    -0.000 C 
BRANCH  24  25
ATOM     25  C   UNL     1       9.176  55.144  25.600  1.00  0.00    -0.003 C 
ATOM     26  C   UNL     1      10.598  54.580  25.601  1.00  0.00     0.004 C 
ENDBRANCH  24  25
ENDBRANCH  23  24
ENDBRANCH  22  23
ENDBRANCH  21  22
ENDBRANCH  20  21
ENDBRANCH  19  20
ENDBRANCH  18  19
ENDBRANCH  17  18
ENDBRANCH  16  17
ENDBRANCH  15  16
ENDBRANCH   1  15
TORSDOF 22
ENDMDL
MODEL 6
REMARK VINA RESULT:    -5.247      7.440     13.856
REMARK INTER + INTRA:         -14.606
REMARK INTER:                 -12.037
REMARK INTRA:                  -2.569
REMARK UNBOUND:                -2.611
REMARK SMILES CCCCCCCCCCCCCCCCCCCCCCCC(=O)[O-]
REMARK SMILES IDX 13 1 14 2 15 3 16 4 17 5 18 6 19 7 20 8 21 9 22 10 23 11
REMARK SMILES IDX 24 12 25 13 26 14 12 15 11 16 10 17 9 18 8 19 7 20 6 21 5 22
REMARK SMILES IDX 4 23 3 24 2 25 1 26
REMARK H PARENT
REMARK Flexibility Score: inf
ROOT
ATOM      1  C   UNL     1      10.378  48.972  24.928  1.00  0.00     0.000 C 
ENDROOT
BRANCH   1   2
ATOM      2  C   UNL     1      10.279  47.486  24.534  1.00  0.00     0.000 C 
BRANCH   2   3
ATOM      3  C   UNL     1       9.192  46.679  25.270  1.00  0.00     0.000 C 
BRANCH   3   4
ATOM      4  C   UNL     1       9.162  45.197  24.857  1.00  0.00     0.000 C 
BRANCH   4   5
ATOM      5  C   UNL     1      10.544  44.520  24.948  1.00  0.00     0.000 C 
BRANCH   5   6
ATOM      6  C   UNL     1      10.925  43.997  26.345  1.00  0.00     0.000 C 
BRANCH   6   7
ATOM      7  C   UNL     1      12.423  44.156  26.655  1.00  0.00     0.000 C 
BRANCH   7   8
ATOM      8  C   UNL     1      12.810  45.616  26.943  1.00  0.00     0.000 C 
BRANCH   8   9
ATOM      9  C   UNL     1      11.802  46.316  27.872  1.00  0.00     0.000 C 
BRANCH   9  10
ATOM     10  C   UNL     1      12.138  47.799  28.091  1.00  0.00     0.006 C 
BRANCH  10  11
ATOM     11  C   UNL     1      13.481  48.197  27.466  1.00  0.00     0.053 C 
BRANCH  11  12
ATOM     12  C   UNL     1      14.464  48.561  28.532  1.00  0.00     0.041 C 
ATOM     13  O   UNL     1      15.312  47.717  28.927  1.00  0.00    -0.550 OA
ATOM     14  O   UNL     1      14.491  49.854  29.042  1.00  0.00    -0.550 OA
ENDBRANCH  11  12
ENDBRANCH  10  11
ENDBRANCH   9  10
ENDBRANCH   8   9
ENDBRANCH   7   8
ENDBRANCH   6   7
ENDBRANCH   5   6
ENDBRANCH   4   5
ENDBRANCH   3   4
ENDBRANCH   2   3
ENDBRANCH   1   2
BRANCH   1  15
ATOM     15  C   UNL     1      10.593  49.901  23.721  1.00  0.00     0.000 C 
BRANCH  15  16
ATOM     16  C   UNL     1       9.923  51.272  23.906  1.00  0.00     0.000 C 
BRANCH  16  17
ATOM     17  C   UNL     1      10.208  52.230  22.736  1.00  0.00     0.000 C 
BRANCH  17  18
ATOM     18  C   UNL     1      10.574  53.647  23.207  1.00  0.00    -0.000 C 
BRANCH  18  19
ATOM     19  C   UNL     1      10.282  53.869  24.702  1.00  0.00    -0.000 C 
BRANCH  19  20
ATOM     20  C   UNL     1       9.277  55.008  24.941  1.00  0.00    -0.000 C 
BRANCH  20  21
ATOM     21  C   UNL     1       8.426  55.316  23.697  1.00  0.00    -0.000 C 
BRANCH  21  22
ATOM     22  C   UNL     1       7.110  54.519  23.659  1.00  0.00    -0.000 C 
BRANCH  22  23
ATOM     23  C   UNL     1       6.802  53.837  22.312  1.00  0.00    -0.000 C 
BRANCH  23  24
ATOM     24  C   UNL     1       7.086  54.747  21.104  1.00  0.00    -0.000 C 
BRANCH  24  25
ATOM     25  C   UNL     1       7.183  53.961  19.787  1.00  0.00    -0.003 C 
ATOM     26  C   UNL     1       6.830  54.811  18.566  1.00  0.00     0.004 C 
ENDBRANCH  24  25
ENDBRANCH  23  24
ENDBRANCH  22  23
ENDBRANCH  21  22
ENDBRANCH  20  21
ENDBRANCH  19  20
ENDBRANCH  18  19
ENDBRANCH  17  18
ENDBRANCH  16  17
ENDBRANCH  15  16
ENDBRANCH   1  15
TORSDOF 22
ENDMDL
MODEL 7
REMARK VINA RESULT:    -5.245      5.606      9.780
REMARK INTER + INTRA:         -14.602
REMARK INTER:                 -11.876
REMARK INTRA:                  -2.726
REMARK UNBOUND:                -2.611
REMARK SMILES CCCCCCCCCCCCCCCCCCCCCCCC(=O)[O-]
REMARK SMILES IDX 13 1 14 2 15 3 16 4 17 5 18 6 19 7 20 8 21 9 22 10 23 11
REMARK SMILES IDX 24 12 25 13 26 14 12 15 11 16 10 17 9 18 8 19 7 20 6 21 5 22
REMARK SMILES IDX 4 23 3 24 2 25 1 26
REMARK H PARENT
REMARK Flexibility Score: inf
ROOT
ATOM      1  C   UNL     1      10.437  49.080  24.635  1.00  0.00     0.000 C 
ENDROOT
BRANCH   1   2
ATOM      2  C   UNL     1      10.620  50.136  23.529  1.00  0.00     0.000 C 
BRANCH   2   3
ATOM      3  C   UNL     1       9.898  51.476  23.769  1.00  0.00     0.000 C 
BRANCH   3   4
ATOM      4  C   UNL     1      10.258  52.548  22.726  1.00  0.00     0.000 C 
BRANCH   4   5
ATOM      5  C   UNL     1      10.395  53.957  23.334  1.00  0.00     0.000 C 
BRANCH   5   6
ATOM      6  C   UNL     1      10.467  54.001  24.871  1.00  0.00     0.000 C 
BRANCH   6   7
ATOM      7  C   UNL     1       9.332  54.829  25.500  1.00  0.00     0.000 C 
BRANCH   7   8
ATOM      8  C   UNL     1       7.985  54.090  25.475  1.00  0.00     0.000 C 
BRANCH   8   9
ATOM      9  C   UNL     1       7.049  54.614  24.371  1.00  0.00     0.000 C 
BRANCH   9  10
ATOM     10  C   UNL     1       6.767  53.558  23.291  1.00  0.00     0.006 C 
BRANCH  10  11
ATOM     11  C   UNL     1       6.195  54.170  22.006  1.00  0.00     0.053 C 
BRANCH  11  12
ATOM     12  C   UNL     1       7.292  54.752  21.173  1.00  0.00     0.041 C 
ATOM     13  O   UNL     1       7.975  54.012  20.418  1.00  0.00    -0.550 OA
ATOM     14  O   UNL     1       7.514  56.125  21.177  1.00  0.00    -0.550 OA
ENDBRANCH  11  12
ENDBRANCH  10  11
ENDBRANCH   9  10
ENDBRANCH   8   9
ENDBRANCH   7   8
ENDBRANCH   6   7
ENDBRANCH   5   6
ENDBRANCH   4   5
ENDBRANCH   3   4
ENDBRANCH   2   3
ENDBRANCH   1   2
BRANCH   1  15
ATOM     15  C   UNL     1      10.570  47.638  24.118  1.00  0.00     0.000 C 
BRANCH  15  16
ATOM     16  C   UNL     1       9.829  46.623  25.004  1.00  0.00     0.000 C 
BRANCH  16  17
ATOM     17  C   UNL     1      10.289  45.176  24.755  1.00  0.00     0.000 C 
BRANCH  17  18
ATOM     18  C   UNL     1      10.364  44.348  26.048  1.00  0.00    -0.000 C 
BRANCH  18  19
ATOM     19  C   UNL     1      11.291  44.979  27.103  1.00  0.00    -0.000 C 
BRANCH  19  20
ATOM     20  C   UNL     1      12.779  44.822  26.745  1.00  0.00    -0.000 C 
BRANCH  20  21
ATOM     21  C   UNL     1      13.632  46.006  27.231  1.00  0.00    -0.000 C 
BRANCH  21  22
ATOM     22  C   UNL     1      13.196  47.349  26.618  1.00  0.00    -0.000 C 
BRANCH  22  23
ATOM     23  C   UNL     1      12.573  48.347  27.614  1.00  0.00    -0.000 C 
BRANCH  23  24
ATOM     24  C   UNL     1      13.332  48.407  28.952  1.00  0.00    -0.000 C 
BRANCH  24  25
ATOM     25  C   UNL     1      12.419  48.142  30.157  1.00  0.00    -0.003 C 
ATOM     26  C   UNL     1      12.339  46.659  30.522  1.00  0.00     0.004 C 
ENDBRANCH  24  25
ENDBRANCH  23  24
ENDBRANCH  22  23
ENDBRANCH  21  22
ENDBRANCH  20  21
ENDBRANCH  19  20
ENDBRANCH  18  19
ENDBRANCH  17  18
ENDBRANCH  16  17
ENDBRANCH  15  16
ENDBRANCH   1  15
TORSDOF 22
ENDMDL
MODEL 8
REMARK VINA RESULT:    -5.150      1.544      3.703
REMARK INTER + INTRA:         -14.384
REMARK INTER:                 -12.010
REMARK INTRA:                  -2.374
REMARK UNBOUND:                -2.611
REMARK SMILES CCCCCCCCCCCCCCCCCCCCCCCC(=O)[O-]
REMARK SMILES IDX 13 1 14 2 15 3 16 4 17 5 18 6 19 7 20 8 21 9 22 10 23 11
REMARK SMILES IDX 24 12 25 13 26 14 12 15 11 16 10 17 9 18 8 19 7 20 6 21 5 22
REMARK SMILES IDX 4 23 3 24 2 25 1 26
REMARK H PARENT
REMARK Flexibility Score: inf
ROOT
ATOM      1  C   UNL     1       2.104  60.738  22.566  1.00  0.00     0.000 C 
ENDROOT
BRANCH   1   2
ATOM      2  C   UNL     1       1.531  59.938  23.751  1.00  0.00     0.000 C 
BRANCH   2   3
ATOM      3  C   UNL     1       0.157  60.410  24.264  1.00  0.00     0.000 C 
BRANCH   3   4
ATOM      4  C   UNL     1      -0.744  60.963  23.146  1.00  0.00     0.000 C 
BRANCH   4   5
ATOM      5  C   UNL     1      -1.468  59.856  22.355  1.00  0.00     0.000 C 
BRANCH   5   6
ATOM      6  C   UNL     1      -1.524  60.071  20.831  1.00  0.00     0.000 C 
BRANCH   6   7
ATOM      7  C   UNL     1      -1.014  61.458  20.404  1.00  0.00     0.000 C 
BRANCH   7   8
ATOM      8  C   UNL     1      -0.090  61.390  19.177  1.00  0.00     0.000 C 
BRANCH   8   9
ATOM      9  C   UNL     1       0.419  59.963  18.906  1.00  0.00     0.000 C 
BRANCH   9  10
ATOM     10  C   UNL     1       1.654  59.944  17.992  1.00  0.00     0.006 C 
BRANCH  10  11
ATOM     11  C   UNL     1       1.606  58.810  16.962  1.00  0.00     0.053 C 
BRANCH  11  12
ATOM     12  C   UNL     1       2.652  59.016  15.912  1.00  0.00     0.041 C 
ATOM     13  O   UNL     1       2.943  58.085  15.116  1.00  0.00    -0.550 OA
ATOM     14  O   UNL     1       3.257  60.260  15.767  1.00  0.00    -0.550 OA
ENDBRANCH  11  12
ENDBRANCH  10  11
ENDBRANCH   9  10
ENDBRANCH   8   9
ENDBRANCH   7   8
ENDBRANCH   6   7
ENDBRANCH   5   6
ENDBRANCH   4   5
ENDBRANCH   3   4
ENDBRANCH   2   3
ENDBRANCH   1   2
BRANCH   1  15
ATOM     15  C   UNL     1       3.195  59.975  21.796  1.00  0.00     0.000 C 
BRANCH  15  16
ATOM     16  C   UNL     1       2.735  58.576  21.354  1.00  0.00     0.000 C 
BRANCH  16  17
ATOM     17  C   UNL     1       3.461  57.450  22.111  1.00  0.00     0.000 C 
BRANCH  17  18
ATOM     18  C   UNL     1       4.950  57.757  22.342  1.00  0.00    -0.000 C 
BRANCH  18  19
ATOM     19  C   UNL     1       5.807  56.483  22.452  1.00  0.00    -0.000 C 
BRANCH  19  20
ATOM     20  C   UNL     1       7.189  56.647  21.797  1.00  0.00    -0.000 C 
BRANCH  20  21
ATOM     21  C   UNL     1       7.994  55.336  21.779  1.00  0.00    -0.000 C 
BRANCH  21  22
ATOM     22  C   UNL     1       7.162  54.116  22.213  1.00  0.00    -0.000 C 
BRANCH  22  23
ATOM     23  C   UNL     1       7.677  53.391  23.471  1.00  0.00    -0.000 C 
BRANCH  23  24
ATOM     24  C   UNL     1       8.349  54.344  24.476  1.00  0.00    -0.000 C 
BRANCH  24  25
ATOM     25  C   UNL     1       9.843  54.041  24.663  1.00  0.00    -0.003 C 
ATOM     26  C   UNL     1      10.495  54.927  25.726  1.00  0.00     0.004 C 
ENDBRANCH  24  25
ENDBRANCH  23  24
ENDBRANCH  22  23
ENDBRANCH  21  22
ENDBRANCH  20  21
ENDBRANCH  19  20
ENDBRANCH  18  19
ENDBRANCH  17  18
ENDBRANCH  16  17
ENDBRANCH  15  16
ENDBRANCH   1  15
TORSDOF 22
ENDMDL
MODEL 9
REMARK VINA RESULT:    -5.081      1.345      2.031
REMARK INTER + INTRA:         -14.227
REMARK INTER:                 -11.692
REMARK INTRA:                  -2.535
REMARK UNBOUND:                -2.611
REMARK SMILES CCCCCCCCCCCCCCCCCCCCCCCC(=O)[O-]
REMARK SMILES IDX 13 1 14 2 15 3 16 4 17 5 18 6 19 7 20 8 21 9 22 10 23 11
REMARK SMILES IDX 24 12 25 13 26 14 12 15 11 16 10 17 9 18 8 19 7 20 6 21 5 22
REMARK SMILES IDX 4 23 3 24 2 25 1 26
REMARK H PARENT
REMARK Flexibility Score: inf
ROOT
ATOM      1  C   UNL     1       7.642  56.786  21.539  1.00  0.00     0.000 C 
ENDROOT
BRANCH   1   2
ATOM      2  C   UNL     1       6.678  57.028  22.715  1.00  0.00     0.000 C 
BRANCH   2   3
ATOM      3  C   UNL     1       5.179  56.923  22.373  1.00  0.00     0.000 C 
BRANCH   3   4
ATOM      4  C   UNL     1       4.587  58.245  21.855  1.00  0.00     0.000 C 
BRANCH   4   5
ATOM      5  C   UNL     1       3.074  58.371  22.121  1.00  0.00     0.000 C 
BRANCH   5   6
ATOM      6  C   UNL     1       2.674  59.485  23.106  1.00  0.00     0.000 C 
BRANCH   6   7
ATOM      7  C   UNL     1       1.323  60.134  22.759  1.00  0.00     0.000 C 
BRANCH   7   8
ATOM      8  C   UNL     1       0.819  59.727  21.364  1.00  0.00     0.000 C 
BRANCH   8   9
ATOM      9  C   UNL     1       1.081  60.816  20.308  1.00  0.00     0.000 C 
BRANCH   9  10
ATOM     10  C   UNL     1       1.587  60.234  18.979  1.00  0.00     0.006 C 
BRANCH  10  11
ATOM     11  C   UNL     1       0.842  58.956  18.575  1.00  0.00     0.053 C 
BRANCH  11  12
ATOM     12  C   UNL     1      -0.350  59.292  17.735  1.00  0.00     0.041 C 
ATOM     13  O   UNL     1      -1.379  58.568  17.777  1.00  0.00    -0.550 OA
ATOM     14  O   UNL     1      -0.350  60.445  16.957  1.00  0.00    -0.550 OA
ENDBRANCH  11  12
ENDBRANCH  10  11
ENDBRANCH   9  10
ENDBRANCH   8   9
ENDBRANCH   7   8
ENDBRANCH   6   7
ENDBRANCH   5   6
ENDBRANCH   4   5
ENDBRANCH   3   4
ENDBRANCH   2   3
ENDBRANCH   1   2
BRANCH   1  15
ATOM     15  C   UNL     1       7.257  55.566  20.686  1.00  0.00     0.000 C 
BRANCH  15  16
ATOM     16  C   UNL     1       7.668  54.236  21.339  1.00  0.00     0.000 C 
BRANCH  16  17
ATOM     17  C   UNL     1       6.508  53.570  22.101  1.00  0.00     0.000 C 
BRANCH  17  18
ATOM     18  C   UNL     1       6.924  53.075  23.496  1.00  0.00    -0.000 C 
BRANCH  18  19
ATOM     19  C   UNL     1       6.780  54.162  24.577  1.00  0.00    -0.000 C 
BRANCH  19  20
ATOM     20  C   UNL     1       7.937  54.138  25.590  1.00  0.00    -0.000 C 
BRANCH  20  21
ATOM     21  C   UNL     1       9.076  55.100  25.211  1.00  0.00    -0.000 C 
BRANCH  21  22
ATOM     22  C   UNL     1      10.351  54.369  24.756  1.00  0.00    -0.000 C 
BRANCH  22  23
ATOM     23  C   UNL     1      10.413  54.045  23.251  1.00  0.00    -0.000 C 
BRANCH  23  24
ATOM     24  C   UNL     1      10.759  52.571  22.971  1.00  0.00    -0.000 C 
BRANCH  24  25
ATOM     25  C   UNL     1       9.843  51.599  23.729  1.00  0.00    -0.003 C 
ATOM     26  C   UNL     1      10.368  50.162  23.714  1.00  0.00     0.004 C 
ENDBRANCH  24  25
ENDBRANCH  23  24
ENDBRANCH  22  23
ENDBRANCH  21  22
ENDBRANCH  20  21
ENDBRANCH  19  20
ENDBRANCH  18  19
ENDBRANCH  17  18
ENDBRANCH  16  17
ENDBRANCH  15  16
ENDBRANCH   1  15
TORSDOF 22
ENDMDL
