MODEL 1
REMARK VINA RESULT:    -4.119      0.000      0.000
REMARK INTER + INTRA:          -4.989
REMARK INTER:                  -5.082
REMARK INTRA:                   0.093
REMARK UNBOUND:                 0.093
REMARK SMILES COc1cc(-c2oc3cc(O)cc(O)c3c(=O)c2O)ccc1O
REMARK SMILES IDX 6 1 18 2 16 3 17 4 15 5 13 6 12 7 10 8 9 9 8 10 7 11 5 12
REMARK SMILES IDX 3 13 22 14 4 15 21 16 20 17 2 18 1 19 23 20 19 22 14 24
REMARK SMILES IDX 11 26
REMARK H PARENT 23 21 19 23 14 25 11 27
REMARK Flexibility Score: inf
ROOT
ATOM      1  C   UNL     1      -2.851 -11.533  -5.139  1.00  0.00     0.180 A 
ATOM      2  C   UNL     1      -1.837 -11.250  -6.076  1.00  0.00     0.208 A 
ATOM      3  C   UNL     1      -0.497 -11.322  -5.667  1.00  0.00     0.238 A 
ATOM      4  O   UNL     1       0.419 -11.081  -6.500  1.00  0.00    -0.285 OA
ATOM      5  C   UNL     1      -0.192 -11.654  -4.331  1.00  0.00     0.111 A 
ATOM      6  C   UNL     1       1.131 -11.744  -3.838  1.00  0.00     0.134 A 
ATOM      7  C   UNL     1       1.352 -12.071  -2.492  1.00  0.00     0.093 A 
ATOM      8  C   UNL     1       0.275 -12.310  -1.631  1.00  0.00     0.123 A 
ATOM      9  C   UNL     1      -1.032 -12.223  -2.113  1.00  0.00     0.094 A 
ATOM     10  C   UNL     1      -1.273 -11.900  -3.451  1.00  0.00     0.146 A 
ATOM     11  O   UNL     1      -2.526 -11.828  -3.884  1.00  0.00    -0.452 OA
ENDROOT
BRANCH   1  12
ATOM     12  C   UNL     1      -4.287 -11.496  -5.499  1.00  0.00     0.025 A 
ATOM     13  C   UNL     1      -6.057 -11.953  -7.125  1.00  0.00     0.161 A 
ATOM     14  C   UNL     1      -6.998 -11.390  -6.244  1.00  0.00     0.157 A 
ATOM     15  C   UNL     1      -4.699 -11.995  -6.745  1.00  0.00     0.062 A 
ATOM     16  C   UNL     1      -6.584 -10.875  -5.013  1.00  0.00     0.051 A 
ATOM     17  C   UNL     1      -5.239 -10.920  -4.643  1.00  0.00     0.016 A 
BRANCH  13  18
ATOM     18  O   UNL     1      -6.498 -12.456  -8.359  1.00  0.00    -0.493 OA
ATOM     19  C   UNL     1      -6.352 -11.785  -9.606  1.00  0.00     0.278 C 
ENDBRANCH  13  18
BRANCH  14  20
ATOM     20  O   UNL     1      -8.351 -11.329  -6.579  1.00  0.00    -0.504 OA
ATOM     21  H   UNL     1      -8.917 -12.162  -6.694  1.00  0.00     0.293 HD
ENDBRANCH  14  20
ENDBRANCH   1  12
BRANCH   2  22
ATOM     22  O   UNL     1      -2.167 -10.875  -7.381  1.00  0.00    -0.502 OA
ATOM     23  H   UNL     1      -2.026 -11.489  -8.174  1.00  0.00     0.293 HD
ENDBRANCH   2  22
BRANCH   6  24
ATOM     24  O   UNL     1       2.226 -11.511  -4.672  1.00  0.00    -0.507 OA
ATOM     25  H   UNL     1       2.723 -12.270  -5.123  1.00  0.00     0.293 HD
ENDBRANCH   6  24
BRANCH   8  26
ATOM     26  O   UNL     1       0.493 -12.634  -0.293  1.00  0.00    -0.508 OA
ATOM     27  H   UNL     1      -0.274 -12.850   0.331  1.00  0.00     0.293 HD
ENDBRANCH   8  26
TORSDOF 6
ENDMDL
MODEL 2
REMARK VINA RESULT:    -3.968      1.340      6.988
REMARK INTER + INTRA:          -4.803
REMARK INTER:                  -4.991
REMARK INTRA:                   0.188
REMARK UNBOUND:                 0.093
REMARK SMILES COc1cc(-c2oc3cc(O)cc(O)c3c(=O)c2O)ccc1O
REMARK SMILES IDX 6 1 18 2 16 3 17 4 15 5 13 6 12 7 10 8 9 9 8 10 7 11 5 12
REMARK SMILES IDX 3 13 22 14 4 15 21 16 20 17 2 18 1 19 23 20 19 22 14 24
REMARK SMILES IDX 11 26
REMARK H PARENT 23 21 19 23 14 25 11 27
REMARK Flexibility Score: inf
ROOT
ATOM      1  C   UNL     1      -3.233 -11.602  -4.862  1.00  0.00     0.180 A 
ATOM      2  C   UNL     1      -2.820 -11.532  -6.207  1.00  0.00     0.208 A 
ATOM      3  C   UNL     1      -3.785 -11.319  -7.203  1.00  0.00     0.238 A 
ATOM      4  O   UNL     1      -3.426 -11.243  -8.409  1.00  0.00    -0.285 OA
ATOM      5  C   UNL     1      -5.144 -11.200  -6.843  1.00  0.00     0.111 A 
ATOM      6  C   UNL     1      -6.179 -10.988  -7.785  1.00  0.00     0.134 A 
ATOM      7  C   UNL     1      -7.508 -10.891  -7.348  1.00  0.00     0.093 A 
ATOM      8  C   UNL     1      -7.821 -11.000  -5.988  1.00  0.00     0.123 A 
ATOM      9  C   UNL     1      -6.803 -11.208  -5.056  1.00  0.00     0.094 A 
ATOM     10  C   UNL     1      -5.472 -11.307  -5.471  1.00  0.00     0.146 A 
ATOM     11  O   UNL     1      -4.524 -11.500  -4.562  1.00  0.00    -0.452 OA
ENDROOT
BRANCH   1  12
ATOM     12  C   UNL     1      -2.272 -11.806  -3.754  1.00  0.00     0.025 A 
ATOM     13  C   UNL     1      -0.035 -11.462  -2.823  1.00  0.00     0.161 A 
ATOM     14  C   UNL     1      -0.398 -12.221  -1.696  1.00  0.00     0.157 A 
ATOM     15  C   UNL     1      -0.980 -11.265  -3.852  1.00  0.00     0.062 A 
ATOM     16  C   UNL     1      -1.677 -12.776  -1.608  1.00  0.00     0.051 A 
ATOM     17  C   UNL     1      -2.607 -12.578  -2.630  1.00  0.00     0.016 A 
BRANCH  13  18
ATOM     18  O   UNL     1       1.259 -10.921  -2.890  1.00  0.00    -0.493 OA
ATOM     19  C   UNL     1       2.273 -11.359  -3.787  1.00  0.00     0.278 C 
ENDBRANCH  13  18
BRANCH  14  20
ATOM     20  O   UNL     1       0.504 -12.439  -0.654  1.00  0.00    -0.504 OA
ATOM     21  H   UNL     1       0.394 -13.201   0.004  1.00  0.00     0.293 HD
ENDBRANCH  14  20
ENDBRANCH   1  12
BRANCH   2  22
ATOM     22  O   UNL     1      -1.474 -11.702  -6.542  1.00  0.00    -0.502 OA
ATOM     23  H   UNL     1      -0.824 -10.926  -6.590  1.00  0.00     0.293 HD
ENDBRANCH   2  22
BRANCH   6  24
ATOM     24  O   UNL     1      -5.898 -10.876  -9.147  1.00  0.00    -0.507 OA
ATOM     25  H   UNL     1      -5.320 -11.554  -9.630  1.00  0.00     0.293 HD
ENDBRANCH   6  24
BRANCH   8  26
ATOM     26  O   UNL     1      -9.141 -10.903  -5.554  1.00  0.00    -0.508 OA
ATOM     27  H   UNL     1      -9.379 -10.946  -4.570  1.00  0.00     0.293 HD
ENDBRANCH   8  26
TORSDOF 6
ENDMDL
MODEL 3
REMARK VINA RESULT:    -3.391     14.000     15.273
REMARK INTER + INTRA:          -4.091
REMARK INTER:                  -4.168
REMARK INTRA:                   0.077
REMARK UNBOUND:                 0.093
REMARK SMILES COc1cc(-c2oc3cc(O)cc(O)c3c(=O)c2O)ccc1O
REMARK SMILES IDX 6 1 18 2 16 3 17 4 15 5 13 6 12 7 10 8 9 9 8 10 7 11 5 12
REMARK SMILES IDX 3 13 22 14 4 15 21 16 20 17 2 18 1 19 23 20 19 22 14 24
REMARK SMILES IDX 11 26
REMARK H PARENT 23 21 19 23 14 25 11 27
REMARK Flexibility Score: inf
ROOT
ATOM      1  C   UNL     1     -13.916 -13.276 -13.827  1.00  0.00     0.180 A 
ATOM      2  C   UNL     1     -14.271 -14.548 -14.315  1.00  0.00     0.208 A 
ATOM      3  C   UNL     1     -13.690 -15.004 -15.508  1.00  0.00     0.238 A 
ATOM      4  O   UNL     1     -13.992 -16.146 -15.949  1.00  0.00    -0.285 OA
ATOM      5  C   UNL     1     -12.782 -14.177 -16.202  1.00  0.00     0.111 A 
ATOM      6  C   UNL     1     -12.155 -14.560 -17.412  1.00  0.00     0.134 A 
ATOM      7  C   UNL     1     -11.270 -13.676 -18.047  1.00  0.00     0.093 A 
ATOM      8  C   UNL     1     -11.000 -12.419 -17.494  1.00  0.00     0.123 A 
ATOM      9  C   UNL     1     -11.616 -12.038 -16.301  1.00  0.00     0.094 A 
ATOM     10  C   UNL     1     -12.499 -12.905 -15.652  1.00  0.00     0.146 A 
ATOM     11  O   UNL     1     -13.067 -12.518 -14.516  1.00  0.00    -0.452 OA
ENDROOT
BRANCH   1  12
ATOM     12  C   UNL     1     -14.472 -12.733 -12.567  1.00  0.00     0.025 A 
ATOM     13  C   UNL     1     -15.152 -13.094 -10.244  1.00  0.00     0.161 A 
ATOM     14  C   UNL     1     -15.579 -11.756 -10.171  1.00  0.00     0.157 A 
ATOM     15  C   UNL     1     -14.604 -13.576 -11.451  1.00  0.00     0.062 A 
ATOM     16  C   UNL     1     -15.466 -10.923 -11.288  1.00  0.00     0.051 A 
ATOM     17  C   UNL     1     -14.923 -11.407 -12.480  1.00  0.00     0.016 A 
BRANCH  13  18
ATOM     18  O   UNL     1     -15.284 -13.911  -9.110  1.00  0.00    -0.493 OA
ATOM     19  C   UNL     1     -15.773 -15.247  -9.129  1.00  0.00     0.278 C 
ENDBRANCH  13  18
BRANCH  14  20
ATOM     20  O   UNL     1     -16.125 -11.237  -8.997  1.00  0.00    -0.504 OA
ATOM     21  H   UNL     1     -16.049 -10.256  -8.754  1.00  0.00     0.293 HD
ENDBRANCH  14  20
ENDBRANCH   1  12
BRANCH   2  22
ATOM     22  O   UNL     1     -15.211 -15.328 -13.635  1.00  0.00    -0.502 OA
ATOM     23  H   UNL     1     -15.221 -15.406 -12.625  1.00  0.00     0.293 HD
ENDBRANCH   2  22
BRANCH   6  24
ATOM     24  O   UNL     1     -12.404 -15.807 -17.987  1.00  0.00    -0.507 OA
ATOM     25  H   UNL     1     -11.653 -16.402 -18.315  1.00  0.00     0.293 HD
ENDBRANCH   6  24
BRANCH   8  26
ATOM     26  O   UNL     1     -10.122 -11.540 -18.125  1.00  0.00    -0.508 OA
ATOM     27  H   UNL     1      -9.665 -11.782 -18.996  1.00  0.00     0.293 HD
ENDBRANCH   8  26
TORSDOF 6
ENDMDL
MODEL 4
REMARK VINA RESULT:    -3.256      1.372      2.784
REMARK INTER + INTRA:          -3.924
REMARK INTER:                  -4.372
REMARK INTRA:                   0.448
REMARK UNBOUND:                 0.093
REMARK SMILES COc1cc(-c2oc3cc(O)cc(O)c3c(=O)c2O)ccc1O
REMARK SMILES IDX 6 1 18 2 16 3 17 4 15 5 13 6 12 7 10 8 9 9 8 10 7 11 5 12
REMARK SMILES IDX 3 13 22 14 4 15 21 16 20 17 2 18 1 19 23 20 19 22 14 24
REMARK SMILES IDX 11 26
REMARK H PARENT 23 21 19 23 14 25 11 27
REMARK Flexibility Score: inf
ROOT
ATOM      1  C   UNL     1      -2.889 -11.385  -5.206  1.00  0.00     0.180 A 
ATOM      2  C   UNL     1      -2.687 -11.237  -3.820  1.00  0.00     0.208 A 
ATOM      3  C   UNL     1      -1.379 -11.299  -3.315  1.00  0.00     0.238 A 
ATOM      4  O   UNL     1      -1.185 -11.158  -2.077  1.00  0.00    -0.285 OA
ATOM      5  C   UNL     1      -0.301 -11.526  -4.196  1.00  0.00     0.111 A 
ATOM      6  C   UNL     1       1.045 -11.606  -3.768  1.00  0.00     0.134 A 
ATOM      7  C   UNL     1       2.061 -11.843  -4.705  1.00  0.00     0.093 A 
ATOM      8  C   UNL     1       1.756 -12.002  -6.062  1.00  0.00     0.123 A 
ATOM      9  C   UNL     1       0.429 -11.923  -6.489  1.00  0.00     0.094 A 
ATOM     10  C   UNL     1      -0.597 -11.686  -5.570  1.00  0.00     0.146 A 
ATOM     11  O   UNL     1      -1.850 -11.611  -6.005  1.00  0.00    -0.452 OA
ENDROOT
BRANCH   1  12
ATOM     12  C   UNL     1      -4.236 -11.313  -5.817  1.00  0.00     0.025 A 
ATOM     13  C   UNL     1      -5.648 -11.451  -7.810  1.00  0.00     0.161 A 
ATOM     14  C   UNL     1      -6.770 -11.126  -7.026  1.00  0.00     0.157 A 
ATOM     15  C   UNL     1      -4.382 -11.536  -7.196  1.00  0.00     0.062 A 
ATOM     16  C   UNL     1      -6.621 -10.884  -5.658  1.00  0.00     0.051 A 
ATOM     17  C   UNL     1      -5.364 -10.969  -5.056  1.00  0.00     0.016 A 
BRANCH  13  18
ATOM     18  O   UNL     1      -5.824 -11.682  -9.184  1.00  0.00    -0.493 OA
ATOM     19  C   UNL     1      -6.314 -12.896  -9.743  1.00  0.00     0.278 C 
ENDBRANCH  13  18
BRANCH  14  20
ATOM     20  O   UNL     1      -8.042 -11.033  -7.592  1.00  0.00    -0.504 OA
ATOM     21  H   UNL     1      -8.718 -11.785  -7.527  1.00  0.00     0.293 HD
ENDBRANCH  14  20
ENDBRANCH   1  12
BRANCH   2  22
ATOM     22  O   UNL     1      -3.776 -11.064  -2.963  1.00  0.00    -0.502 OA
ATOM     23  H   UNL     1      -4.488 -11.774  -2.839  1.00  0.00     0.293 HD
ENDBRANCH   2  22
BRANCH   6  24
ATOM     24  O   UNL     1       1.381 -11.452  -2.422  1.00  0.00    -0.507 OA
ATOM     25  H   UNL     1       0.776 -11.785  -1.680  1.00  0.00     0.293 HD
ENDBRANCH   6  24
BRANCH   8  26
ATOM     26  O   UNL     1       2.764 -12.238  -6.994  1.00  0.00    -0.508 OA
ATOM     27  H   UNL     1       3.730 -12.007  -6.798  1.00  0.00     0.293 HD
ENDBRANCH   8  26
TORSDOF 6
ENDMDL
MODEL 5
REMARK VINA RESULT:    -2.655     12.240     15.876
REMARK INTER + INTRA:          -3.182
REMARK INTER:                  -3.069
REMARK INTRA:                  -0.113
REMARK UNBOUND:                 0.093
REMARK SMILES COc1cc(-c2oc3cc(O)cc(O)c3c(=O)c2O)ccc1O
REMARK SMILES IDX 6 1 18 2 16 3 17 4 15 5 13 6 12 7 10 8 9 9 8 10 7 11 5 12
REMARK SMILES IDX 3 13 22 14 4 15 21 16 20 17 2 18 1 19 23 20 19 22 14 24
REMARK SMILES IDX 11 26
REMARK H PARENT 23 21 19 23 14 25 11 27
REMARK Flexibility Score: inf
ROOT
ATOM      1  C   UNL     1     -12.720 -14.378 -15.876  1.00  0.00     0.180 A 
ATOM      2  C   UNL     1     -13.116 -15.580 -16.493  1.00  0.00     0.208 A 
ATOM      3  C   UNL     1     -14.093 -16.372 -15.871  1.00  0.00     0.238 A 
ATOM      4  O   UNL     1     -14.464 -17.446 -16.419  1.00  0.00    -0.285 OA
ATOM      5  C   UNL     1     -14.642 -15.962 -14.638  1.00  0.00     0.111 A 
ATOM      6  C   UNL     1     -15.627 -16.704 -13.944  1.00  0.00     0.134 A 
ATOM      7  C   UNL     1     -16.117 -16.233 -12.716  1.00  0.00     0.093 A 
ATOM      8  C   UNL     1     -15.640 -15.036 -12.171  1.00  0.00     0.123 A 
ATOM      9  C   UNL     1     -14.668 -14.301 -12.853  1.00  0.00     0.094 A 
ATOM     10  C   UNL     1     -14.169 -14.752 -14.078  1.00  0.00     0.146 A 
ATOM     11  O   UNL     1     -13.249 -14.031 -14.706  1.00  0.00    -0.452 OA
ENDROOT
BRANCH   1  12
ATOM     12  C   UNL     1     -11.709 -13.480 -16.480  1.00  0.00     0.025 A 
ATOM     13  C   UNL     1      -9.435 -12.578 -16.481  1.00  0.00     0.161 A 
ATOM     14  C   UNL     1      -9.777 -11.742 -17.560  1.00  0.00     0.157 A 
ATOM     15  C   UNL     1     -10.412 -13.440 -15.943  1.00  0.00     0.062 A 
ATOM     16  C   UNL     1     -11.073 -11.768 -18.081  1.00  0.00     0.051 A 
ATOM     17  C   UNL     1     -12.036 -12.624 -17.543  1.00  0.00     0.016 A 
BRANCH  13  18
ATOM     18  O   UNL     1      -8.128 -12.527 -15.972  1.00  0.00    -0.493 OA
ATOM     19  C   UNL     1      -7.529 -11.374 -15.392  1.00  0.00     0.278 C 
ENDBRANCH  13  18
BRANCH  14  20
ATOM     20  O   UNL     1      -8.841 -10.875 -18.125  1.00  0.00    -0.504 OA
ATOM     21  H   UNL     1      -8.755 -10.752 -19.126  1.00  0.00     0.293 HD
ENDBRANCH  14  20
ENDBRANCH   1  12
BRANCH   2  22
ATOM     22  O   UNL     1     -12.521 -15.989 -17.690  1.00  0.00    -0.502 OA
ATOM     23  H   UNL     1     -11.529 -16.179 -17.765  1.00  0.00     0.293 HD
ENDBRANCH   2  22
BRANCH   6  24
ATOM     24  O   UNL     1     -16.122 -17.902 -14.462  1.00  0.00    -0.507 OA
ATOM     25  H   UNL     1     -16.920 -18.371 -14.050  1.00  0.00     0.293 HD
ENDBRANCH   6  24
BRANCH   8  26
ATOM     26  O   UNL     1     -16.125 -14.568 -10.952  1.00  0.00    -0.508 OA
ATOM     27  H   UNL     1     -16.768 -15.115 -10.393  1.00  0.00     0.293 HD
ENDBRANCH   8  26
TORSDOF 6
ENDMDL
MODEL 6
REMARK VINA RESULT:    -2.483      1.481      2.597
REMARK INTER + INTRA:          -2.970
REMARK INTER:                  -4.301
REMARK INTRA:                   1.331
REMARK UNBOUND:                 0.093
REMARK SMILES COc1cc(-c2oc3cc(O)cc(O)c3c(=O)c2O)ccc1O
REMARK SMILES IDX 6 1 18 2 16 3 17 4 15 5 13 6 12 7 10 8 9 9 8 10 7 11 5 12
REMARK SMILES IDX 3 13 22 14 4 15 21 16 20 17 2 18 1 19 23 20 19 22 14 24
REMARK SMILES IDX 11 26
REMARK H PARENT 23 21 19 23 14 25 11 27
REMARK Flexibility Score: inf
ROOT
ATOM      1  C   UNL     1      -0.857 -11.572  -4.806  1.00  0.00     0.180 A 
ATOM      2  C   UNL     1       0.346 -11.609  -5.537  1.00  0.00     0.208 A 
ATOM      3  C   UNL     1       1.551 -11.822  -4.849  1.00  0.00     0.238 A 
ATOM      4  O   UNL     1       2.634 -11.868  -5.494  1.00  0.00    -0.285 OA
ATOM      5  C   UNL     1       1.536 -11.975  -3.447  1.00  0.00     0.111 A 
ATOM      6  C   UNL     1       2.705 -12.191  -2.679  1.00  0.00     0.134 A 
ATOM      7  C   UNL     1       2.608 -12.324  -1.286  1.00  0.00     0.093 A 
ATOM      8  C   UNL     1       1.365 -12.247  -0.648  1.00  0.00     0.123 A 
ATOM      9  C   UNL     1       0.210 -12.035  -1.402  1.00  0.00     0.094 A 
ATOM     10  C   UNL     1       0.285 -11.901  -2.791  1.00  0.00     0.146 A 
ATOM     11  O   UNL     1      -0.831 -11.705  -3.483  1.00  0.00    -0.452 OA
ENDROOT
BRANCH   1  12
ATOM     12  C   UNL     1      -2.169 -11.369  -5.461  1.00  0.00     0.025 A 
ATOM     13  C   UNL     1      -4.589 -11.065  -5.267  1.00  0.00     0.161 A 
ATOM     14  C   UNL     1      -4.690 -11.043  -6.670  1.00  0.00     0.157 A 
ATOM     15  C   UNL     1      -3.322 -11.235  -4.671  1.00  0.00     0.062 A 
ATOM     16  C   UNL     1      -3.545 -11.197  -7.456  1.00  0.00     0.051 A 
ATOM     17  C   UNL     1      -2.294 -11.365  -6.860  1.00  0.00     0.016 A 
BRANCH  13  18
ATOM     18  O   UNL     1      -5.756 -10.915  -4.501  1.00  0.00    -0.493 OA
ATOM     19  C   UNL     1      -7.077 -10.909  -5.031  1.00  0.00     0.278 C 
ENDBRANCH  13  18
BRANCH  14  20
ATOM     20  O   UNL     1      -5.922 -10.875  -7.301  1.00  0.00    -0.504 OA
ATOM     21  H   UNL     1      -6.556 -10.123  -7.057  1.00  0.00     0.293 HD
ENDBRANCH  14  20
ENDBRANCH   1  12
BRANCH   2  22
ATOM     22  O   UNL     1       0.339 -11.405  -6.919  1.00  0.00    -0.502 OA
ATOM     23  H   UNL     1       0.740 -12.072  -7.568  1.00  0.00     0.293 HD
ENDBRANCH   2  22
BRANCH   6  24
ATOM     24  O   UNL     1       3.959 -12.272  -3.287  1.00  0.00    -0.507 OA
ATOM     25  H   UNL     1       4.316 -11.528  -3.875  1.00  0.00     0.293 HD
ENDBRANCH   6  24
BRANCH   8  26
ATOM     26  O   UNL     1       1.268 -12.378   0.736  1.00  0.00    -0.508 OA
ATOM     27  H   UNL     1       0.398 -12.205   1.224  1.00  0.00     0.293 HD
ENDBRANCH   8  26
TORSDOF 6
ENDMDL
MODEL 7
REMARK VINA RESULT:    -2.093      1.700      7.310
REMARK INTER + INTRA:          -2.489
REMARK INTER:                  -2.721
REMARK INTRA:                   0.232
REMARK UNBOUND:                 0.093
REMARK SMILES COc1cc(-c2oc3cc(O)cc(O)c3c(=O)c2O)ccc1O
REMARK SMILES IDX 6 1 18 2 16 3 17 4 15 5 13 6 12 7 10 8 9 9 8 10 7 11 5 12
REMARK SMILES IDX 3 13 22 14 4 15 21 16 20 17 2 18 1 19 23 20 19 22 14 24
REMARK SMILES IDX 11 26
REMARK H PARENT 23 21 19 23 14 25 11 27
REMARK Flexibility Score: inf
ROOT
ATOM      1  C   UNL     1      -0.441 -11.384  -3.704  1.00  0.00     0.180 A 
ATOM      2  C   UNL     1       0.081 -11.185  -4.997  1.00  0.00     0.208 A 
ATOM      3  C   UNL     1      -0.808 -11.077  -6.077  1.00  0.00     0.238 A 
ATOM      4  O   UNL     1      -0.353 -10.887  -7.238  1.00  0.00    -0.285 OA
ATOM      5  C   UNL     1      -2.196 -11.189  -5.853  1.00  0.00     0.111 A 
ATOM      6  C   UNL     1      -3.158 -11.096  -6.887  1.00  0.00     0.134 A 
ATOM      7  C   UNL     1      -4.521 -11.228  -6.583  1.00  0.00     0.093 A 
ATOM      8  C   UNL     1      -4.939 -11.451  -5.267  1.00  0.00     0.123 A 
ATOM      9  C   UNL     1      -3.994 -11.543  -4.244  1.00  0.00     0.094 A 
ATOM     10  C   UNL     1      -2.631 -11.413  -4.525  1.00  0.00     0.146 A 
ATOM     11  O   UNL     1      -1.754 -11.500  -3.532  1.00  0.00    -0.452 OA
ENDROOT
BRANCH   1  12
ATOM     12  C   UNL     1       0.431 -11.489  -2.511  1.00  0.00     0.025 A 
ATOM     13  C   UNL     1       2.554 -12.190  -1.517  1.00  0.00     0.161 A 
ATOM     14  C   UNL     1       2.095 -11.761  -0.258  1.00  0.00     0.157 A 
ATOM     15  C   UNL     1       1.710 -12.055  -2.639  1.00  0.00     0.062 A 
ATOM     16  C   UNL     1       0.815 -11.217  -0.128  1.00  0.00     0.051 A 
ATOM     17  C   UNL     1      -0.016 -11.086  -1.243  1.00  0.00     0.016 A 
BRANCH  13  18
ATOM     18  O   UNL     1       3.842 -12.740  -1.618  1.00  0.00    -0.493 OA
ATOM     19  C   UNL     1       4.125 -14.134  -1.659  1.00  0.00     0.278 C 
ENDBRANCH  13  18
BRANCH  14  20
ATOM     20  O   UNL     1       2.897 -11.874   0.878  1.00  0.00    -0.504 OA
ATOM     21  H   UNL     1       3.369 -11.076   1.287  1.00  0.00     0.293 HD
ENDBRANCH  14  20
ENDBRANCH   1  12
BRANCH   2  22
ATOM     22  O   UNL     1       1.462 -11.126  -5.199  1.00  0.00    -0.502 OA
ATOM     23  H   UNL     1       1.900 -11.459  -6.050  1.00  0.00     0.293 HD
ENDBRANCH   2  22
BRANCH   6  24
ATOM     24  O   UNL     1      -2.771 -10.875  -8.210  1.00  0.00    -0.507 OA
ATOM     25  H   UNL     1      -1.822 -11.044  -8.523  1.00  0.00     0.293 HD
ENDBRANCH   6  24
BRANCH   8  26
ATOM     26  O   UNL     1      -6.293 -11.583  -4.965  1.00  0.00    -0.508 OA
ATOM     27  H   UNL     1      -6.969 -10.884  -5.248  1.00  0.00     0.293 HD
ENDBRANCH   8  26
TORSDOF 6
ENDMDL
