MODEL 1
REMARK VINA RESULT:    -4.206      0.000      0.000
REMARK INTER + INTRA:          -8.761
REMARK INTER:                  -7.403
REMARK INTRA:                  -1.358
REMARK UNBOUND:                -1.358
REMARK SMILES CCCCCCC=CCCCCCCCC(=O)[O-]
REMARK SMILES IDX 10 1 11 2 12 3 13 4 14 5 15 6 16 7 17 8 18 9 9 10 8 11 7 12
REMARK SMILES IDX 6 13 5 14 4 15 3 16 2 17 1 18
REMARK H PARENT
REMARK Flexibility Score: inf
ROOT
ATOM      1  C   UNL     1      -2.926  32.030  36.653  1.00  0.00     0.004 C 
ENDROOT
BRANCH   1   2
ATOM      2  C   UNL     1      -3.161  32.473  38.106  1.00  0.00     0.000 C 
BRANCH   2   3
ATOM      3  C   UNL     1      -1.989  32.101  39.032  1.00  0.00     0.000 C 
BRANCH   3   4
ATOM      4  C   UNL     1      -1.399  33.317  39.769  1.00  0.00     0.000 C 
BRANCH   4   5
ATOM      5  C   UNL     1      -0.403  34.157  38.949  1.00  0.00     0.006 C 
BRANCH   5   6
ATOM      6  C   UNL     1      -0.940  35.551  38.600  1.00  0.00     0.053 C 
BRANCH   6   7
ATOM      7  C   UNL     1      -0.661  35.875  37.166  1.00  0.00     0.041 C 
ATOM      8  O   UNL     1      -0.047  36.930  36.863  1.00  0.00    -0.550 OA
ATOM      9  O   UNL     1      -1.127  35.037  36.161  1.00  0.00    -0.550 OA
ENDBRANCH   6   7
ENDBRANCH   5   6
ENDBRANCH   4   5
ENDBRANCH   3   4
ENDBRANCH   2   3
ENDBRANCH   1   2
BRANCH   1  10
ATOM     10  C   UNL     1      -2.092  30.743  36.554  1.00  0.00     0.027 C 
BRANCH  10  11
ATOM     11  C   UNL     1      -1.142  30.802  35.390  1.00  0.00    -0.031 C 
ATOM     12  C   UNL     1      -0.162  29.897  35.235  1.00  0.00    -0.031 C 
BRANCH  12  13
ATOM     13  C   UNL     1       0.787  29.957  34.071  1.00  0.00     0.027 C 
BRANCH  13  14
ATOM     14  C   UNL     1       0.199  30.788  32.919  1.00  0.00     0.004 C 
BRANCH  14  15
ATOM     15  C   UNL     1      -0.488  29.922  31.852  1.00  0.00     0.000 C 
BRANCH  15  16
ATOM     16  C   UNL     1      -0.097  28.437  31.957  1.00  0.00    -0.000 C 
BRANCH  16  17
ATOM     17  C   UNL     1      -1.321  27.508  31.975  1.00  0.00    -0.003 C 
ATOM     18  C   UNL     1      -1.779  27.157  33.390  1.00  0.00     0.004 C 
ENDBRANCH  16  17
ENDBRANCH  15  16
ENDBRANCH  14  15
ENDBRANCH  13  14
ENDBRANCH  12  13
ENDBRANCH  10  11
ENDBRANCH   1  10
TORSDOF 13
ENDMDL
MODEL 2
REMARK VINA RESULT:    -4.204      2.687      6.911
REMARK INTER + INTRA:          -8.757
REMARK INTER:                  -7.076
REMARK INTRA:                  -1.681
REMARK UNBOUND:                -1.358
REMARK SMILES CCCCCCC=CCCCCCCCC(=O)[O-]
REMARK SMILES IDX 10 1 11 2 12 3 13 4 14 5 15 6 16 7 17 8 18 9 9 10 8 11 7 12
REMARK SMILES IDX 6 13 5 14 4 15 3 16 2 17 1 18
REMARK H PARENT
REMARK Flexibility Score: inf
ROOT
ATOM      1  C   UNL     1      -1.558  32.160  34.784  1.00  0.00     0.004 C 
ENDROOT
BRANCH   1   2
ATOM      2  C   UNL     1      -1.605  31.006  35.799  1.00  0.00     0.000 C 
BRANCH   2   3
ATOM      3  C   UNL     1      -0.806  29.778  35.331  1.00  0.00     0.000 C 
BRANCH   3   4
ATOM      4  C   UNL     1       0.647  30.118  34.952  1.00  0.00     0.000 C 
BRANCH   4   5
ATOM      5  C   UNL     1       1.044  29.771  33.506  1.00  0.00     0.006 C 
BRANCH   5   6
ATOM      6  C   UNL     1       0.034  28.848  32.813  1.00  0.00     0.053 C 
BRANCH   6   7
ATOM      7  C   UNL     1      -0.536  29.512  31.600  1.00  0.00     0.041 C 
ATOM      8  O   UNL     1      -0.876  28.824  30.602  1.00  0.00    -0.550 OA
ATOM      9  O   UNL     1      -0.642  30.896  31.550  1.00  0.00    -0.550 OA
ENDBRANCH   6   7
ENDBRANCH   5   6
ENDBRANCH   4   5
ENDBRANCH   3   4
ENDBRANCH   2   3
ENDBRANCH   1   2
BRANCH   1  10
ATOM     10  C   UNL     1      -2.772  33.096  34.896  1.00  0.00     0.027 C 
BRANCH  10  11
ATOM     11  C   UNL     1      -2.562  34.128  35.971  1.00  0.00    -0.031 C 
ATOM     12  C   UNL     1      -1.455  34.887  36.009  1.00  0.00    -0.031 C 
BRANCH  12  13
ATOM     13  C   UNL     1      -1.246  35.917  37.083  1.00  0.00     0.027 C 
BRANCH  13  14
ATOM     14  C   UNL     1      -1.495  35.323  38.478  1.00  0.00     0.004 C 
BRANCH  14  15
ATOM     15  C   UNL     1      -0.351  34.412  38.948  1.00  0.00     0.000 C 
BRANCH  15  16
ATOM     16  C   UNL     1      -0.757  32.928  38.989  1.00  0.00    -0.000 C 
BRANCH  16  17
ATOM     17  C   UNL     1      -1.979  32.678  39.886  1.00  0.00    -0.003 C 
ATOM     18  C   UNL     1      -3.073  31.870  39.187  1.00  0.00     0.004 C 
ENDBRANCH  16  17
ENDBRANCH  15  16
ENDBRANCH  14  15
ENDBRANCH  13  14
ENDBRANCH  12  13
ENDBRANCH  10  11
ENDBRANCH   1  10
TORSDOF 13
ENDMDL
MODEL 3
REMARK VINA RESULT:    -4.186      2.704      7.022
REMARK INTER + INTRA:          -8.726
REMARK INTER:                  -7.117
REMARK INTRA:                  -1.609
REMARK UNBOUND:                -1.358
REMARK SMILES CCCCCCC=CCCCCCCCC(=O)[O-]
REMARK SMILES IDX 10 1 11 2 12 3 13 4 14 5 15 6 16 7 17 8 18 9 9 10 8 11 7 12
REMARK SMILES IDX 6 13 5 14 4 15 3 16 2 17 1 18
REMARK H PARENT
REMARK Flexibility Score: inf
ROOT
ATOM      1  C   UNL     1      -1.943  30.291  35.800  1.00  0.00     0.004 C 
ENDROOT
BRANCH   1   2
ATOM      2  C   UNL     1      -0.895  29.302  35.263  1.00  0.00     0.000 C 
BRANCH   2   3
ATOM      3  C   UNL     1       0.434  29.990  34.905  1.00  0.00     0.000 C 
BRANCH   3   4
ATOM      4  C   UNL     1       0.859  29.749  33.445  1.00  0.00     0.000 C 
BRANCH   4   5
ATOM      5  C   UNL     1       0.158  28.569  32.747  1.00  0.00     0.006 C 
BRANCH   5   6
ATOM      6  C   UNL     1      -0.453  28.951  31.394  1.00  0.00     0.053 C 
BRANCH   6   7
ATOM      7  C   UNL     1      -1.592  29.902  31.583  1.00  0.00     0.041 C 
ATOM      8  O   UNL     1      -2.665  29.509  32.109  1.00  0.00    -0.550 OA
ATOM      9  O   UNL     1      -1.487  31.211  31.131  1.00  0.00    -0.550 OA
ENDBRANCH   6   7
ENDBRANCH   5   6
ENDBRANCH   4   5
ENDBRANCH   3   4
ENDBRANCH   2   3
ENDBRANCH   1   2
BRANCH   1  10
ATOM     10  C   UNL     1      -2.063  31.554  34.932  1.00  0.00     0.027 C 
BRANCH  10  11
ATOM     11  C   UNL     1      -1.597  32.772  35.682  1.00  0.00    -0.031 C 
ATOM     12  C   UNL     1      -1.791  34.010  35.202  1.00  0.00    -0.031 C 
BRANCH  12  13
ATOM     13  C   UNL     1      -1.325  35.226  35.951  1.00  0.00     0.027 C 
BRANCH  13  14
ATOM     14  C   UNL     1      -1.910  35.260  37.372  1.00  0.00     0.004 C 
BRANCH  14  15
ATOM     15  C   UNL     1      -0.827  35.355  38.458  1.00  0.00     0.000 C 
BRANCH  15  16
ATOM     16  C   UNL     1      -0.452  33.981  39.039  1.00  0.00    -0.000 C 
BRANCH  16  17
ATOM     17  C   UNL     1      -1.594  33.357  39.857  1.00  0.00    -0.003 C 
ATOM     18  C   UNL     1      -2.099  32.041  39.265  1.00  0.00     0.004 C 
ENDBRANCH  16  17
ENDBRANCH  15  16
ENDBRANCH  14  15
ENDBRANCH  13  14
ENDBRANCH  12  13
ENDBRANCH  10  11
ENDBRANCH   1  10
TORSDOF 13
ENDMDL
MODEL 4
REMARK VINA RESULT:    -4.167      2.924      6.666
REMARK INTER + INTRA:          -8.692
REMARK INTER:                  -6.903
REMARK INTRA:                  -1.790
REMARK UNBOUND:                -1.358
REMARK SMILES CCCCCCC=CCCCCCCCC(=O)[O-]
REMARK SMILES IDX 10 1 11 2 12 3 13 4 14 5 15 6 16 7 17 8 18 9 9 10 8 11 7 12
REMARK SMILES IDX 6 13 5 14 4 15 3 16 2 17 1 18
REMARK H PARENT
REMARK Flexibility Score: inf
ROOT
ATOM      1  C   UNL     1      -2.929  30.500  35.233  1.00  0.00     0.004 C 
ENDROOT
BRANCH   1   2
ATOM      2  C   UNL     1      -2.045  29.505  36.003  1.00  0.00     0.000 C 
BRANCH   2   3
ATOM      3  C   UNL     1      -0.942  28.894  35.123  1.00  0.00     0.000 C 
BRANCH   3   4
ATOM      4  C   UNL     1       0.278  29.819  34.962  1.00  0.00     0.000 C 
BRANCH   4   5
ATOM      5  C   UNL     1       0.706  30.090  33.508  1.00  0.00     0.006 C 
BRANCH   5   6
ATOM      6  C   UNL     1      -0.091  31.223  32.850  1.00  0.00     0.053 C 
BRANCH   6   7
ATOM      7  C   UNL     1      -0.889  30.701  31.698  1.00  0.00     0.041 C 
ATOM      8  O   UNL     1      -1.897  29.976  31.902  1.00  0.00    -0.550 OA
ATOM      9  O   UNL     1      -0.488  30.971  30.396  1.00  0.00    -0.550 OA
ENDBRANCH   6   7
ENDBRANCH   5   6
ENDBRANCH   4   5
ENDBRANCH   3   4
ENDBRANCH   2   3
ENDBRANCH   1   2
BRANCH   1  10
ATOM     10  C   UNL     1      -3.019  31.869  35.924  1.00  0.00     0.027 C 
BRANCH  10  11
ATOM     11  C   UNL     1      -1.982  31.998  37.006  1.00  0.00    -0.031 C 
ATOM     12  C   UNL     1      -2.180  32.779  38.080  1.00  0.00    -0.031 C 
BRANCH  12  13
ATOM     13  C   UNL     1      -1.144  32.908  39.161  1.00  0.00     0.027 C 
BRANCH  13  14
ATOM     14  C   UNL     1      -0.387  34.240  39.047  1.00  0.00     0.004 C 
BRANCH  14  15
ATOM     15  C   UNL     1      -1.227  35.346  38.389  1.00  0.00     0.000 C 
BRANCH  15  16
ATOM     16  C   UNL     1      -0.491  36.032  37.225  1.00  0.00    -0.000 C 
BRANCH  16  17
ATOM     17  C   UNL     1      -1.401  36.261  36.008  1.00  0.00    -0.003 C 
ATOM     18  C   UNL     1      -1.370  35.099  35.015  1.00  0.00     0.004 C 
ENDBRANCH  16  17
ENDBRANCH  15  16
ENDBRANCH  14  15
ENDBRANCH  13  14
ENDBRANCH  12  13
ENDBRANCH  10  11
ENDBRANCH   1  10
TORSDOF 13
ENDMDL
MODEL 5
REMARK VINA RESULT:    -4.144      1.820      3.724
REMARK INTER + INTRA:          -8.652
REMARK INTER:                  -7.743
REMARK INTRA:                  -0.909
REMARK UNBOUND:                -1.358
REMARK SMILES CCCCCCC=CCCCCCCCC(=O)[O-]
REMARK SMILES IDX 10 1 11 2 12 3 13 4 14 5 15 6 16 7 17 8 18 9 9 10 8 11 7 12
REMARK SMILES IDX 6 13 5 14 4 15 3 16 2 17 1 18
REMARK H PARENT
REMARK Flexibility Score: inf
ROOT
ATOM      1  C   UNL     1      -2.350  34.637  39.106  1.00  0.00     0.004 C 
ENDROOT
BRANCH   1   2
ATOM      2  C   UNL     1      -1.550  35.922  38.833  1.00  0.00     0.000 C 
BRANCH   2   3
ATOM      3  C   UNL     1      -0.409  35.702  37.824  1.00  0.00     0.000 C 
BRANCH   3   4
ATOM      4  C   UNL     1      -0.824  36.012  36.374  1.00  0.00     0.000 C 
BRANCH   4   5
ATOM      5  C   UNL     1      -0.388  37.393  35.852  1.00  0.00     0.006 C 
BRANCH   5   6
ATOM      6  C   UNL     1       0.585  38.110  36.794  1.00  0.00     0.053 C 
BRANCH   6   7
ATOM      7  C   UNL     1       1.648  38.814  36.011  1.00  0.00     0.041 C 
ATOM      8  O   UNL     1       1.536  38.944  34.765  1.00  0.00    -0.550 OA
ATOM      9  O   UNL     1       2.789  39.281  36.652  1.00  0.00    -0.550 OA
ENDBRANCH   6   7
ENDBRANCH   5   6
ENDBRANCH   4   5
ENDBRANCH   3   4
ENDBRANCH   2   3
ENDBRANCH   1   2
BRANCH   1  10
ATOM     10  C   UNL     1      -1.449  33.449  39.480  1.00  0.00     0.027 C 
BRANCH  10  11
ATOM     11  C   UNL     1      -1.756  32.249  38.626  1.00  0.00    -0.031 C 
ATOM     12  C   UNL     1      -1.730  32.315  37.286  1.00  0.00    -0.031 C 
BRANCH  12  13
ATOM     13  C   UNL     1      -2.037  31.115  36.433  1.00  0.00     0.027 C 
BRANCH  13  14
ATOM     14  C   UNL     1      -1.159  31.093  35.172  1.00  0.00     0.004 C 
BRANCH  14  15
ATOM     15  C   UNL     1      -0.055  30.027  35.235  1.00  0.00     0.000 C 
BRANCH  15  16
ATOM     16  C   UNL     1       0.609  29.783  33.868  1.00  0.00    -0.000 C 
BRANCH  16  17
ATOM     17  C   UNL     1      -0.394  29.303  32.807  1.00  0.00    -0.003 C 
ATOM     18  C   UNL     1       0.189  28.236  31.879  1.00  0.00     0.004 C 
ENDBRANCH  16  17
ENDBRANCH  15  16
ENDBRANCH  14  15
ENDBRANCH  13  14
ENDBRANCH  12  13
ENDBRANCH  10  11
ENDBRANCH   1  10
TORSDOF 13
ENDMDL
MODEL 6
REMARK VINA RESULT:    -4.127      3.183      7.650
REMARK INTER + INTRA:          -8.621
REMARK INTER:                  -6.923
REMARK INTRA:                  -1.698
REMARK UNBOUND:                -1.358
REMARK SMILES CCCCCCC=CCCCCCCCC(=O)[O-]
REMARK SMILES IDX 10 1 11 2 12 3 13 4 14 5 15 6 16 7 17 8 18 9 9 10 8 11 7 12
REMARK SMILES IDX 6 13 5 14 4 15 3 16 2 17 1 18
REMARK H PARENT
REMARK Flexibility Score: inf
ROOT
ATOM      1  C   UNL     1      -1.353  31.643  33.389  1.00  0.00     0.004 C 
ENDROOT
BRANCH   1   2
ATOM      2  C   UNL     1       0.108  31.368  32.996  1.00  0.00     0.000 C 
BRANCH   2   3
ATOM      3  C   UNL     1       0.651  30.069  33.619  1.00  0.00     0.000 C 
BRANCH   3   4
ATOM      4  C   UNL     1      -0.466  29.120  34.091  1.00  0.00     0.000 C 
BRANCH   4   5
ATOM      5  C   UNL     1      -0.747  27.928  33.158  1.00  0.00     0.006 C 
BRANCH   5   6
ATOM      6  C   UNL     1      -0.038  28.047  31.803  1.00  0.00     0.053 C 
BRANCH   6   7
ATOM      7  C   UNL     1      -1.033  28.280  30.710  1.00  0.00     0.041 C 
ATOM      8  O   UNL     1      -1.175  27.432  29.792  1.00  0.00    -0.550 OA
ATOM      9  O   UNL     1      -1.766  29.460  30.678  1.00  0.00    -0.550 OA
ENDBRANCH   6   7
ENDBRANCH   5   6
ENDBRANCH   4   5
ENDBRANCH   3   4
ENDBRANCH   2   3
ENDBRANCH   1   2
BRANCH   1  10
ATOM     10  C   UNL     1      -1.509  32.920  34.230  1.00  0.00     0.027 C 
BRANCH  10  11
ATOM     11  C   UNL     1      -2.304  32.652  35.478  1.00  0.00    -0.031 C 
ATOM     12  C   UNL     1      -1.802  31.923  36.488  1.00  0.00    -0.031 C 
BRANCH  12  13
ATOM     13  C   UNL     1      -2.597  31.656  37.735  1.00  0.00     0.027 C 
BRANCH  13  14
ATOM     14  C   UNL     1      -2.466  32.816  38.735  1.00  0.00     0.004 C 
BRANCH  14  15
ATOM     15  C   UNL     1      -1.054  32.930  39.329  1.00  0.00     0.000 C 
BRANCH  15  16
ATOM     16  C   UNL     1      -0.387  34.280  39.009  1.00  0.00    -0.000 C 
BRANCH  16  17
ATOM     17  C   UNL     1      -1.350  35.263  38.325  1.00  0.00    -0.003 C 
ATOM     18  C   UNL     1      -0.865  35.705  36.944  1.00  0.00     0.004 C 
ENDBRANCH  16  17
ENDBRANCH  15  16
ENDBRANCH  14  15
ENDBRANCH  13  14
ENDBRANCH  12  13
ENDBRANCH  10  11
ENDBRANCH   1  10
TORSDOF 13
ENDMDL
MODEL 7
REMARK VINA RESULT:    -4.098      2.258      3.341
REMARK INTER + INTRA:          -8.572
REMARK INTER:                  -7.015
REMARK INTRA:                  -1.556
REMARK UNBOUND:                -1.358
REMARK SMILES CCCCCCC=CCCCCCCCC(=O)[O-]
REMARK SMILES IDX 10 1 11 2 12 3 13 4 14 5 15 6 16 7 17 8 18 9 9 10 8 11 7 12
REMARK SMILES IDX 6 13 5 14 4 15 3 16 2 17 1 18
REMARK H PARENT
REMARK Flexibility Score: inf
ROOT
ATOM      1  C   UNL     1      -2.035  33.924  36.576  1.00  0.00     0.004 C 
ENDROOT
BRANCH   1   2
ATOM      2  C   UNL     1      -1.227  35.096  37.157  1.00  0.00     0.000 C 
BRANCH   2   3
ATOM      3  C   UNL     1      -0.816  34.859  38.621  1.00  0.00     0.000 C 
BRANCH   3   4
ATOM      4  C   UNL     1      -0.618  33.368  38.953  1.00  0.00     0.000 C 
BRANCH   4   5
ATOM      5  C   UNL     1      -1.470  32.841  40.122  1.00  0.00     0.006 C 
BRANCH   5   6
ATOM      6  C   UNL     1      -2.558  31.856  39.674  1.00  0.00     0.053 C 
BRANCH   6   7
ATOM      7  C   UNL     1      -3.863  32.565  39.493  1.00  0.00     0.041 C 
ATOM      8  O   UNL     1      -4.626  32.254  38.542  1.00  0.00    -0.550 OA
ATOM      9  O   UNL     1      -4.213  33.606  40.345  1.00  0.00    -0.550 OA
ENDBRANCH   6   7
ENDBRANCH   5   6
ENDBRANCH   4   5
ENDBRANCH   3   4
ENDBRANCH   2   3
ENDBRANCH   1   2
BRANCH   1  10
ATOM     10  C   UNL     1      -1.876  33.794  35.053  1.00  0.00     0.027 C 
BRANCH  10  11
ATOM     11  C   UNL     1      -1.446  32.404  34.671  1.00  0.00    -0.031 C 
ATOM     12  C   UNL     1      -1.436  31.402  35.564  1.00  0.00    -0.031 C 
BRANCH  12  13
ATOM     13  C   UNL     1      -1.006  30.013  35.182  1.00  0.00     0.027 C 
BRANCH  13  14
ATOM     14  C   UNL     1       0.514  29.945  34.961  1.00  0.00     0.004 C 
BRANCH  14  15
ATOM     15  C   UNL     1       0.891  29.766  33.482  1.00  0.00     0.000 C 
BRANCH  15  16
ATOM     16  C   UNL     1       0.109  28.625  32.808  1.00  0.00    -0.000 C 
BRANCH  16  17
ATOM     17  C   UNL     1      -0.435  29.023  31.426  1.00  0.00    -0.003 C 
ATOM     18  C   UNL     1      -1.149  30.375  31.436  1.00  0.00     0.004 C 
ENDBRANCH  16  17
ENDBRANCH  15  16
ENDBRANCH  14  15
ENDBRANCH  13  14
ENDBRANCH  12  13
ENDBRANCH  10  11
ENDBRANCH   1  10
TORSDOF 13
ENDMDL
MODEL 8
REMARK VINA RESULT:    -4.064      2.905      4.387
REMARK INTER + INTRA:          -8.511
REMARK INTER:                  -7.459
REMARK INTRA:                  -1.053
REMARK UNBOUND:                -1.358
REMARK SMILES CCCCCCC=CCCCCCCCC(=O)[O-]
REMARK SMILES IDX 10 1 11 2 12 3 13 4 14 5 15 6 16 7 17 8 18 9 9 10 8 11 7 12
REMARK SMILES IDX 6 13 5 14 4 15 3 16 2 17 1 18
REMARK H PARENT
REMARK Flexibility Score: inf
ROOT
ATOM      1  C   UNL     1      -1.504  34.635  35.600  1.00  0.00     0.004 C 
ENDROOT
BRANCH   1   2
ATOM      2  C   UNL     1      -1.673  36.050  36.177  1.00  0.00     0.000 C 
BRANCH   2   3
ATOM      3  C   UNL     1      -0.415  36.539  36.915  1.00  0.00     0.000 C 
BRANCH   3   4
ATOM      4  C   UNL     1       0.279  37.713  36.201  1.00  0.00     0.000 C 
BRANCH   4   5
ATOM      5  C   UNL     1       1.054  38.672  37.123  1.00  0.00     0.006 C 
BRANCH   5   6
ATOM      6  C   UNL     1       2.218  39.375  36.415  1.00  0.00     0.053 C 
BRANCH   6   7
ATOM      7  C   UNL     1       1.705  40.418  35.474  1.00  0.00     0.041 C 
ATOM      8  O   UNL     1       1.194  41.478  35.920  1.00  0.00    -0.550 OA
ATOM      9  O   UNL     1       1.744  40.197  34.103  1.00  0.00    -0.550 OA
ENDBRANCH   6   7
ENDBRANCH   5   6
ENDBRANCH   4   5
ENDBRANCH   3   4
ENDBRANCH   2   3
ENDBRANCH   1   2
BRANCH   1  10
ATOM     10  C   UNL     1      -1.723  34.586  34.079  1.00  0.00     0.027 C 
BRANCH  10  11
ATOM     11  C   UNL     1      -1.165  33.318  33.493  1.00  0.00    -0.031 C 
ATOM     12  C   UNL     1      -0.436  33.326  32.366  1.00  0.00    -0.031 C 
BRANCH  12  13
ATOM     13  C   UNL     1       0.121  32.058  31.781  1.00  0.00     0.027 C 
BRANCH  13  14
ATOM     14  C   UNL     1      -0.500  30.821  32.448  1.00  0.00     0.004 C 
BRANCH  14  15
ATOM     15  C   UNL     1       0.549  29.911  33.106  1.00  0.00     0.000 C 
BRANCH  15  16
ATOM     16  C   UNL     1       0.607  30.088  34.634  1.00  0.00    -0.000 C 
BRANCH  16  17
ATOM     17  C   UNL     1      -0.649  29.549  35.335  1.00  0.00    -0.003 C 
ATOM     18  C   UNL     1      -1.491  30.653  35.976  1.00  0.00     0.004 C 
ENDBRANCH  16  17
ENDBRANCH  15  16
ENDBRANCH  14  15
ENDBRANCH  13  14
ENDBRANCH  12  13
ENDBRANCH  10  11
ENDBRANCH   1  10
TORSDOF 13
ENDMDL
MODEL 9
REMARK VINA RESULT:    -4.016      2.783      6.801
REMARK INTER + INTRA:          -8.426
REMARK INTER:                  -6.646
REMARK INTRA:                  -1.780
REMARK UNBOUND:                -1.358
REMARK SMILES CCCCCCC=CCCCCCCCC(=O)[O-]
REMARK SMILES IDX 10 1 11 2 12 3 13 4 14 5 15 6 16 7 17 8 18 9 9 10 8 11 7 12
REMARK SMILES IDX 6 13 5 14 4 15 3 16 2 17 1 18
REMARK H PARENT
REMARK Flexibility Score: inf
ROOT
ATOM      1  C   UNL     1       0.561  30.064  34.914  1.00  0.00     0.004 C 
ENDROOT
BRANCH   1   2
ATOM      2  C   UNL     1       0.807  29.687  33.444  1.00  0.00     0.000 C 
BRANCH   2   3
ATOM      3  C   UNL     1      -0.502  29.503  32.657  1.00  0.00     0.000 C 
BRANCH   3   4
ATOM      4  C   UNL     1      -0.585  30.407  31.414  1.00  0.00     0.000 C 
BRANCH   4   5
ATOM      5  C   UNL     1      -0.897  31.887  31.702  1.00  0.00     0.006 C 
BRANCH   5   6
ATOM      6  C   UNL     1       0.351  32.777  31.682  1.00  0.00     0.053 C 
BRANCH   6   7
ATOM      7  C   UNL     1       0.541  33.381  30.326  1.00  0.00     0.041 C 
ATOM      8  O   UNL     1       1.579  34.044  30.068  1.00  0.00    -0.550 OA
ATOM      9  O   UNL     1      -0.453  33.255  29.364  1.00  0.00    -0.550 OA
ENDBRANCH   6   7
ENDBRANCH   5   6
ENDBRANCH   4   5
ENDBRANCH   3   4
ENDBRANCH   2   3
ENDBRANCH   1   2
BRANCH   1  10
ATOM     10  C   UNL     1      -0.933  30.106  35.272  1.00  0.00     0.027 C 
BRANCH  10  11
ATOM     11  C   UNL     1      -1.332  31.469  35.767  1.00  0.00    -0.031 C 
ATOM     12  C   UNL     1      -2.049  32.311  35.006  1.00  0.00    -0.031 C 
BRANCH  12  13
ATOM     13  C   UNL     1      -2.448  33.673  35.501  1.00  0.00     0.027 C 
BRANCH  13  14
ATOM     14  C   UNL     1      -1.389  34.726  35.138  1.00  0.00     0.004 C 
BRANCH  14  15
ATOM     15  C   UNL     1      -1.003  35.615  36.330  1.00  0.00     0.000 C 
BRANCH  15  16
ATOM     16  C   UNL     1      -1.649  35.148  37.647  1.00  0.00    -0.000 C 
BRANCH  16  17
ATOM     17  C   UNL     1      -0.608  34.703  38.686  1.00  0.00    -0.003 C 
ATOM     18  C   UNL     1      -0.774  33.242  39.104  1.00  0.00     0.004 C 
ENDBRANCH  16  17
ENDBRANCH  15  16
ENDBRANCH  14  15
ENDBRANCH  13  14
ENDBRANCH  12  13
ENDBRANCH  10  11
ENDBRANCH   1  10
TORSDOF 13
ENDMDL
