MODEL 1
REMARK VINA RESULT:    -5.786      0.000      0.000
REMARK INTER + INTRA:          -5.786
REMARK INTER:                  -5.786
REMARK INTRA:                   0.000
REMARK UNBOUND:                 0.000
REMARK SMILES C=C1CCC[C@@]2(C)CC(=O)C(=C(C)C)C[C@H]12
REMARK SMILES IDX 13 1 12 2 11 3 15 4 16 5 2 6 1 7 3 8 4 9 5 10 6 11 8 12 9 13
REMARK SMILES IDX 10 14 7 15 14 16
REMARK H PARENT
REMARK Flexibility Score: inf
ROOT
ATOM      1  C   UNL     1      40.757  56.960  22.506  1.00  0.00     0.039 C 
ATOM      2  C   UNL     1      40.126  56.657  23.847  1.00  0.00    -0.070 C 
ATOM      3  C   UNL     1      40.891  56.413  24.952  1.00  0.00    -0.006 C 
ATOM      4  C   UNL     1      42.411  56.461  24.879  1.00  0.00     0.047 C 
ATOM      5  C   UNL     1      43.083  56.847  26.223  1.00  0.00     0.025 C 
ATOM      6  C   UNL     1      44.614  56.790  26.214  1.00  0.00    -0.073 C 
ATOM      7  C   UNL     1      45.349  56.587  25.103  1.00  0.00     0.008 C 
ATOM      8  C   UNL     1      45.343  56.999  27.521  1.00  0.00     0.031 C 
ATOM      9  C   UNL     1      44.389  57.447  28.630  1.00  0.00     0.005 C 
ATOM     10  C   UNL     1      43.201  56.484  28.792  1.00  0.00     0.008 C 
ATOM     11  C   UNL     1      42.531  56.027  27.440  1.00  0.00    -0.018 C 
ATOM     12  C   UNL     1      41.004  56.268  27.535  1.00  0.00     0.088 C 
ATOM     13  C   UNL     1      40.300  55.969  26.245  1.00  0.00     0.159 C 
ATOM     14  O   UNL     1      39.218  55.324  26.284  1.00  0.00    -0.295 OA
ATOM     15  C   UNL     1      42.798  54.507  27.250  1.00  0.00     0.012 C 
ATOM     16  C   UNL     1      38.616  56.676  23.911  1.00  0.00     0.039 C 
ENDROOT
TORSDOF 0
ENDMDL
MODEL 2
REMARK VINA RESULT:    -5.606      1.322      1.627
REMARK INTER + INTRA:          -5.606
REMARK INTER:                  -5.606
REMARK INTRA:                   0.000
REMARK UNBOUND:                 0.000
REMARK SMILES C=C1CCC[C@@]2(C)CC(=O)C(=C(C)C)C[C@H]12
REMARK SMILES IDX 13 1 12 2 11 3 15 4 16 5 2 6 1 7 3 8 4 9 5 10 6 11 8 12 9 13
REMARK SMILES IDX 10 14 7 15 14 16
REMARK H PARENT
REMARK Flexibility Score: inf
ROOT
ATOM      1  C   UNL     1      39.936  56.611  23.819  1.00  0.00     0.039 C 
ATOM      2  C   UNL     1      40.104  56.065  25.220  1.00  0.00    -0.070 C 
ATOM      3  C   UNL     1      41.299  56.150  25.876  1.00  0.00    -0.006 C 
ATOM      4  C   UNL     1      42.502  56.821  25.228  1.00  0.00     0.047 C 
ATOM      5  C   UNL     1      43.490  57.440  26.252  1.00  0.00     0.025 C 
ATOM      6  C   UNL     1      44.769  58.020  25.638  1.00  0.00    -0.073 C 
ATOM      7  C   UNL     1      44.973  58.146  24.313  1.00  0.00     0.008 C 
ATOM      8  C   UNL     1      45.853  58.501  26.575  1.00  0.00     0.031 C 
ATOM      9  C   UNL     1      45.377  58.508  28.029  1.00  0.00     0.005 C 
ATOM     10  C   UNL     1      44.824  57.140  28.460  1.00  0.00     0.008 C 
ATOM     11  C   UNL     1      43.861  56.457  27.415  1.00  0.00    -0.018 C 
ATOM     12  C   UNL     1      42.554  56.046  28.138  1.00  0.00     0.088 C 
ATOM     13  C   UNL     1      41.531  55.493  27.192  1.00  0.00     0.159 C 
ATOM     14  O   UNL     1      40.895  54.458  27.529  1.00  0.00    -0.295 OA
ATOM     15  C   UNL     1      44.561  55.184  26.862  1.00  0.00     0.012 C 
ATOM     16  C   UNL     1      38.880  55.458  25.867  1.00  0.00     0.039 C 
ENDROOT
TORSDOF 0
ENDMDL
MODEL 3
REMARK VINA RESULT:    -5.319      2.994      5.522
REMARK INTER + INTRA:          -5.319
REMARK INTER:                  -5.319
REMARK INTRA:                   0.000
REMARK UNBOUND:                 0.000
REMARK SMILES C=C1CCC[C@@]2(C)CC(=O)C(=C(C)C)C[C@H]12
REMARK SMILES IDX 13 1 12 2 11 3 15 4 16 5 2 6 1 7 3 8 4 9 5 10 6 11 8 12 9 13
REMARK SMILES IDX 10 14 7 15 14 16
REMARK H PARENT
REMARK Flexibility Score: inf
ROOT
ATOM      1  C   UNL     1      46.981  55.645  22.821  1.00  0.00     0.039 C 
ATOM      2  C   UNL     1      47.566  56.383  24.004  1.00  0.00    -0.070 C 
ATOM      3  C   UNL     1      46.775  56.831  25.023  1.00  0.00    -0.006 C 
ATOM      4  C   UNL     1      45.273  56.582  25.016  1.00  0.00     0.047 C 
ATOM      5  C   UNL     1      44.652  56.507  26.437  1.00  0.00     0.025 C 
ATOM      6  C   UNL     1      43.126  56.374  26.463  1.00  0.00    -0.073 C 
ATOM      7  C   UNL     1      42.374  56.169  25.365  1.00  0.00     0.008 C 
ATOM      8  C   UNL     1      42.427  56.451  27.800  1.00  0.00     0.031 C 
ATOM      9  C   UNL     1      43.428  56.449  28.958  1.00  0.00     0.005 C 
ATOM     10  C   UNL     1      44.486  57.555  28.807  1.00  0.00     0.008 C 
ATOM     11  C   UNL     1      45.095  57.694  27.360  1.00  0.00    -0.018 C 
ATOM     12  C   UNL     1      46.640  57.676  27.467  1.00  0.00     0.088 C 
ATOM     13  C   UNL     1      47.303  57.686  26.122  1.00  0.00     0.159 C 
ATOM     14  O   UNL     1      48.295  58.443  25.945  1.00  0.00    -0.295 OA
ATOM     15  C   UNL     1      44.640  59.057  26.765  1.00  0.00     0.012 C 
ATOM     16  C   UNL     1      49.067  56.567  24.019  1.00  0.00     0.039 C 
ENDROOT
TORSDOF 0
ENDMDL
MODEL 4
REMARK VINA RESULT:    -5.031      2.639      4.628
REMARK INTER + INTRA:          -5.031
REMARK INTER:                  -5.031
REMARK INTRA:                   0.000
REMARK UNBOUND:                 0.000
REMARK SMILES C=C1CCC[C@@]2(C)CC(=O)C(=C(C)C)C[C@H]12
REMARK SMILES IDX 13 1 12 2 11 3 15 4 16 5 2 6 1 7 3 8 4 9 5 10 6 11 8 12 9 13
REMARK SMILES IDX 10 14 7 15 14 16
REMARK H PARENT
REMARK Flexibility Score: inf
ROOT
ATOM      1  C   UNL     1      46.694  60.137  24.866  1.00  0.00     0.039 C 
ATOM      2  C   UNL     1      45.959  59.142  23.996  1.00  0.00    -0.070 C 
ATOM      3  C   UNL     1      45.240  58.118  24.542  1.00  0.00    -0.006 C 
ATOM      4  C   UNL     1      45.132  57.952  26.052  1.00  0.00     0.047 C 
ATOM      5  C   UNL     1      43.823  57.254  26.506  1.00  0.00     0.025 C 
ATOM      6  C   UNL     1      43.738  56.968  28.009  1.00  0.00    -0.073 C 
ATOM      7  C   UNL     1      44.632  57.421  28.909  1.00  0.00     0.008 C 
ATOM      8  C   UNL     1      42.570  56.153  28.514  1.00  0.00     0.031 C 
ATOM      9  C   UNL     1      41.532  55.919  27.415  1.00  0.00     0.005 C 
ATOM     10  C   UNL     1      42.157  55.294  26.157  1.00  0.00     0.008 C 
ATOM     11  C   UNL     1      43.519  55.945  25.701  1.00  0.00    -0.018 C 
ATOM     12  C   UNL     1      43.417  56.310  24.200  1.00  0.00     0.088 C 
ATOM     13  C   UNL     1      44.630  57.043  23.709  1.00  0.00     0.159 C 
ATOM     14  O   UNL     1      45.124  56.715  22.597  1.00  0.00    -0.295 OA
ATOM     15  C   UNL     1      44.652  54.898  25.897  1.00  0.00     0.012 C 
ATOM     16  C   UNL     1      46.028  59.361  22.501  1.00  0.00     0.039 C 
ENDROOT
TORSDOF 0
ENDMDL
MODEL 5
REMARK VINA RESULT:    -4.989      1.987      5.436
REMARK INTER + INTRA:          -4.989
REMARK INTER:                  -4.989
REMARK INTRA:                   0.000
REMARK UNBOUND:                 0.000
REMARK SMILES C=C1CCC[C@@]2(C)CC(=O)C(=C(C)C)C[C@H]12
REMARK SMILES IDX 13 1 12 2 11 3 15 4 16 5 2 6 1 7 3 8 4 9 5 10 6 11 8 12 9 13
REMARK SMILES IDX 10 14 7 15 14 16
REMARK H PARENT
REMARK Flexibility Score: inf
ROOT
ATOM      1  C   UNL     1      44.059  57.126  29.333  1.00  0.00     0.039 C 
ATOM      2  C   UNL     1      44.703  57.166  27.965  1.00  0.00    -0.070 C 
ATOM      3  C   UNL     1      44.023  56.769  26.849  1.00  0.00    -0.006 C 
ATOM      4  C   UNL     1      42.580  56.291  26.939  1.00  0.00     0.047 C 
ATOM      5  C   UNL     1      41.766  56.535  25.640  1.00  0.00     0.025 C 
ATOM      6  C   UNL     1      40.346  55.960  25.658  1.00  0.00    -0.073 C 
ATOM      7  C   UNL     1      39.766  55.429  26.751  1.00  0.00     0.008 C 
ATOM      8  C   UNL     1      39.539  56.016  24.381  1.00  0.00     0.031 C 
ATOM      9  C   UNL     1      40.243  56.851  23.309  1.00  0.00     0.005 C 
ATOM     10  C   UNL     1      41.679  56.366  23.051  1.00  0.00     0.008 C 
ATOM     11  C   UNL     1      42.515  56.055  24.350  1.00  0.00    -0.018 C 
ATOM     12  C   UNL     1      43.866  56.807  24.265  1.00  0.00     0.088 C 
ATOM     13  C   UNL     1      44.679  56.660  25.516  1.00  0.00     0.159 C 
ATOM     14  O   UNL     1      45.913  56.426  25.409  1.00  0.00    -0.295 OA
ATOM     15  C   UNL     1      42.785  54.524  24.404  1.00  0.00     0.012 C 
ATOM     16  C   UNL     1      46.115  57.702  27.890  1.00  0.00     0.039 C 
ENDROOT
TORSDOF 0
ENDMDL
MODEL 6
REMARK VINA RESULT:    -4.933      1.852      3.133
REMARK INTER + INTRA:          -4.933
REMARK INTER:                  -4.933
REMARK INTRA:                   0.000
REMARK UNBOUND:                 0.000
REMARK SMILES C=C1CCC[C@@]2(C)CC(=O)C(=C(C)C)C[C@H]12
REMARK SMILES IDX 13 1 12 2 11 3 15 4 16 5 2 6 1 7 3 8 4 9 5 10 6 11 8 12 9 13
REMARK SMILES IDX 10 14 7 15 14 16
REMARK H PARENT
REMARK Flexibility Score: inf
ROOT
ATOM      1  C   UNL     1      41.117  56.448  24.388  1.00  0.00     0.039 C 
ATOM      2  C   UNL     1      41.566  56.322  25.827  1.00  0.00    -0.070 C 
ATOM      3  C   UNL     1      42.876  56.481  26.178  1.00  0.00    -0.006 C 
ATOM      4  C   UNL     1      43.932  56.815  25.134  1.00  0.00     0.047 C 
ATOM      5  C   UNL     1      45.137  57.609  25.705  1.00  0.00     0.025 C 
ATOM      6  C   UNL     1      46.271  57.860  24.705  1.00  0.00    -0.073 C 
ATOM      7  C   UNL     1      46.188  57.574  23.392  1.00  0.00     0.008 C 
ATOM      8  C   UNL     1      47.546  58.488  25.218  1.00  0.00     0.031 C 
ATOM      9  C   UNL     1      47.396  58.964  26.664  1.00  0.00     0.005 C 
ATOM     10  C   UNL     1      46.905  57.841  27.592  1.00  0.00     0.008 C 
ATOM     11  C   UNL     1      45.718  56.978  27.016  1.00  0.00    -0.018 C 
ATOM     12  C   UNL     1      44.587  56.922  28.071  1.00  0.00     0.088 C 
ATOM     13  C   UNL     1      43.366  56.217  27.560  1.00  0.00     0.159 C 
ATOM     14  O   UNL     1      42.786  55.392  28.315  1.00  0.00    -0.295 OA
ATOM     15  C   UNL     1      46.242  55.538  26.752  1.00  0.00     0.012 C 
ATOM     16  C   UNL     1      40.492  56.050  26.856  1.00  0.00     0.039 C 
ENDROOT
TORSDOF 0
ENDMDL
MODEL 7
REMARK VINA RESULT:    -4.883      2.523      5.004
REMARK INTER + INTRA:          -4.883
REMARK INTER:                  -4.883
REMARK INTRA:                   0.000
REMARK UNBOUND:                 0.000
REMARK SMILES C=C1CCC[C@@]2(C)CC(=O)C(=C(C)C)C[C@H]12
REMARK SMILES IDX 13 1 12 2 11 3 15 4 16 5 2 6 1 7 3 8 4 9 5 10 6 11 8 12 9 13
REMARK SMILES IDX 10 14 7 15 14 16
REMARK H PARENT
REMARK Flexibility Score: inf
ROOT
ATOM      1  C   UNL     1      44.036  57.158  29.378  1.00  0.00     0.039 C 
ATOM      2  C   UNL     1      43.499  56.789  28.013  1.00  0.00    -0.070 C 
ATOM      3  C   UNL     1      44.228  57.010  26.880  1.00  0.00    -0.006 C 
ATOM      4  C   UNL     1      45.623  57.616  26.951  1.00  0.00     0.047 C 
ATOM      5  C   UNL     1      46.545  57.186  25.779  1.00  0.00     0.025 C 
ATOM      6  C   UNL     1      47.916  57.870  25.759  1.00  0.00    -0.073 C 
ATOM      7  C   UNL     1      48.375  58.656  26.750  1.00  0.00     0.008 C 
ATOM      8  C   UNL     1      48.815  57.626  24.569  1.00  0.00     0.031 C 
ATOM      9  C   UNL     1      48.253  56.537  23.654  1.00  0.00     0.005 C 
ATOM     10  C   UNL     1      46.809  56.837  23.220  1.00  0.00     0.008 C 
ATOM     11  C   UNL     1      45.860  57.332  24.378  1.00  0.00    -0.018 C 
ATOM     12  C   UNL     1      44.576  56.467  24.372  1.00  0.00     0.088 C 
ATOM     13  C   UNL     1      43.665  56.793  25.518  1.00  0.00     0.159 C 
ATOM     14  O   UNL     1      42.429  56.896  25.295  1.00  0.00    -0.295 OA
ATOM     15  C   UNL     1      45.479  58.814  24.099  1.00  0.00     0.012 C 
ATOM     16  C   UNL     1      42.137  56.133  27.970  1.00  0.00     0.039 C 
ENDROOT
TORSDOF 0
ENDMDL
MODEL 8
REMARK VINA RESULT:    -4.849      2.668      4.062
REMARK INTER + INTRA:          -4.849
REMARK INTER:                  -4.849
REMARK INTRA:                   0.000
REMARK UNBOUND:                 0.000
REMARK SMILES C=C1CCC[C@@]2(C)CC(=O)C(=C(C)C)C[C@H]12
REMARK SMILES IDX 13 1 12 2 11 3 15 4 16 5 2 6 1 7 3 8 4 9 5 10 6 11 8 12 9 13
REMARK SMILES IDX 10 14 7 15 14 16
REMARK H PARENT
REMARK Flexibility Score: inf
ROOT
ATOM      1  C   UNL     1      41.267  53.007  28.253  1.00  0.00     0.039 C 
ATOM      2  C   UNL     1      41.951  53.047  26.905  1.00  0.00    -0.070 C 
ATOM      3  C   UNL     1      42.787  54.072  26.564  1.00  0.00    -0.006 C 
ATOM      4  C   UNL     1      43.080  55.203  27.540  1.00  0.00     0.047 C 
ATOM      5  C   UNL     1      44.472  55.857  27.330  1.00  0.00     0.025 C 
ATOM      6  C   UNL     1      44.749  57.073  28.220  1.00  0.00    -0.073 C 
ATOM      7  C   UNL     1      43.942  57.465  29.224  1.00  0.00     0.008 C 
ATOM      8  C   UNL     1      46.013  57.863  27.972  1.00  0.00     0.031 C 
ATOM      9  C   UNL     1      46.927  57.159  26.966  1.00  0.00     0.005 C 
ATOM     10  C   UNL     1      46.196  56.835  25.653  1.00  0.00     0.008 C 
ATOM     11  C   UNL     1      44.755  56.222  25.833  1.00  0.00    -0.018 C 
ATOM     12  C   UNL     1      44.658  54.926  24.990  1.00  0.00     0.088 C 
ATOM     13  C   UNL     1      43.356  54.211  25.194  1.00  0.00     0.159 C 
ATOM     14  O   UNL     1      42.754  53.754  24.185  1.00  0.00    -0.295 OA
ATOM     15  C   UNL     1      43.715  57.251  25.307  1.00  0.00     0.012 C 
ATOM     16  C   UNL     1      41.695  51.884  25.975  1.00  0.00     0.039 C 
ENDROOT
TORSDOF 0
ENDMDL
MODEL 9
REMARK VINA RESULT:    -4.747      2.589      4.011
REMARK INTER + INTRA:          -4.747
REMARK INTER:                  -4.747
REMARK INTRA:                   0.000
REMARK UNBOUND:                 0.000
REMARK SMILES C=C1CCC[C@@]2(C)CC(=O)C(=C(C)C)C[C@H]12
REMARK SMILES IDX 13 1 12 2 11 3 15 4 16 5 2 6 1 7 3 8 4 9 5 10 6 11 8 12 9 13
REMARK SMILES IDX 10 14 7 15 14 16
REMARK H PARENT
REMARK Flexibility Score: inf
ROOT
ATOM      1  C   UNL     1      45.039  52.213  26.326  1.00  0.00     0.039 C 
ATOM      2  C   UNL     1      43.879  53.176  26.443  1.00  0.00    -0.070 C 
ATOM      3  C   UNL     1      44.083  54.509  26.660  1.00  0.00    -0.006 C 
ATOM      4  C   UNL     1      45.490  55.079  26.769  1.00  0.00     0.047 C 
ATOM      5  C   UNL     1      45.591  56.565  26.331  1.00  0.00     0.025 C 
ATOM      6  C   UNL     1      46.970  57.201  26.539  1.00  0.00    -0.073 C 
ATOM      7  C   UNL     1      48.064  56.511  26.913  1.00  0.00     0.008 C 
ATOM      8  C   UNL     1      47.115  58.684  26.286  1.00  0.00     0.031 C 
ATOM      9  C   UNL     1      45.854  59.270  25.648  1.00  0.00     0.005 C 
ATOM     10  C   UNL     1      44.593  58.957  26.470  1.00  0.00     0.008 C 
ATOM     11  C   UNL     1      44.488  57.469  26.979  1.00  0.00    -0.018 C 
ATOM     12  C   UNL     1      43.102  56.904  26.582  1.00  0.00     0.088 C 
ATOM     13  C   UNL     1      42.960  55.451  26.925  1.00  0.00     0.159 C 
ATOM     14  O   UNL     1      41.886  55.059  27.455  1.00  0.00    -0.295 OA
ATOM     15  C   UNL     1      44.614  57.471  28.529  1.00  0.00     0.012 C 
ATOM     16  C   UNL     1      42.492  52.599  26.270  1.00  0.00     0.039 C 
ENDROOT
TORSDOF 0
ENDMDL
