MODEL 1
REMARK VINA RESULT:     7.675      0.000      0.000
REMARK INTER + INTRA:          14.081
REMARK INTER:                  10.143
REMARK INTRA:                   3.938
REMARK UNBOUND:                 3.938
REMARK SMILES CC(C)=CCC[C@H](C(=O)[O-])[C@@H]1CC[C@@]2(C)C3=C(CC[C@@]12C)[C@@]1(C)CC[C@H](O)C(C)(C)[C@@H]1CC3
REMARK SMILES IDX 6 1 7 2 8 3 9 4 10 5 11 6 12 7 20 8 13 9 14 10 19 11 21 12
REMARK SMILES IDX 15 13 16 14 18 15 17 16 33 17 22 18 32 19 31 20 24 21 23 22
REMARK SMILES IDX 28 23 25 24 26 25 29 26 30 27 27 28 5 30 4 31 2 32 1 33 3 34
REMARK H PARENT 27 29
REMARK Flexibility Score: inf
ROOT
ATOM      1  C   UNL     1      29.123  42.679  23.019  1.00  0.00     0.014 C 
ENDROOT
BRANCH   1   2
ATOM      2  C   UNL     1      29.050  42.131  21.568  1.00  0.00     0.039 C 
BRANCH   2   3
ATOM      3  C   UNL     1      28.472  43.195  20.665  1.00  0.00     0.045 C 
ATOM      4  O   UNL     1      29.112  43.597  19.656  1.00  0.00    -0.550 OA
ATOM      5  O   UNL     1      27.222  43.737  20.940  1.00  0.00    -0.550 OA
ENDBRANCH   2   3
BRANCH   2   6
ATOM      6  C   UNL     1      28.257  40.784  21.405  1.00  0.00     0.004 C 
ATOM      7  C   UNL     1      29.121  39.524  21.389  1.00  0.00     0.006 C 
ATOM      8  C   UNL     1      27.220  40.643  20.217  1.00  0.00    -0.020 C 
ATOM      9  C   UNL     1      28.212  38.443  20.846  1.00  0.00     0.012 C 
ATOM     10  C   UNL     1      27.361  39.115  19.746  1.00  0.00    -0.006 C 
ATOM     11  C   UNL     1      25.790  40.967  20.754  1.00  0.00     0.012 C 
ATOM     12  C   UNL     1      27.447  41.665  19.060  1.00  0.00     0.012 C 
ATOM     13  C   UNL     1      28.168  38.994  18.412  1.00  0.00     0.017 C 
ATOM     14  C   UNL     1      26.015  38.335  19.641  1.00  0.00    -0.064 C 
ATOM     15  C   UNL     1      25.153  39.776  21.447  1.00  0.00     0.032 C 
ATOM     16  C   UNL     1      24.941  38.675  20.428  1.00  0.00    -0.064 C 
ATOM     17  C   UNL     1      25.967  37.123  18.709  1.00  0.00     0.032 C 
ATOM     18  C   UNL     1      23.624  37.854  20.440  1.00  0.00    -0.008 C 
ATOM     19  C   UNL     1      24.719  36.246  18.805  1.00  0.00     0.009 C 
ATOM     20  C   UNL     1      23.480  37.119  19.056  1.00  0.00     0.007 C 
ATOM     21  C   UNL     1      22.385  38.783  20.626  1.00  0.00     0.014 C 
ATOM     22  C   UNL     1      23.741  36.908  21.666  1.00  0.00     0.016 C 
ATOM     23  C   UNL     1      22.094  36.424  18.729  1.00  0.00    -0.006 C 
ATOM     24  C   UNL     1      21.047  38.067  20.425  1.00  0.00     0.033 C 
ATOM     25  C   UNL     1      20.946  37.440  19.027  1.00  0.00     0.120 C 
ATOM     26  C   UNL     1      21.876  35.083  19.482  1.00  0.00     0.014 C 
ATOM     27  C   UNL     1      22.029  36.103  17.207  1.00  0.00     0.014 C 
BRANCH  25  28
ATOM     28  O   UNL     1      19.673  36.874  18.820  1.00  0.00    -0.393 OA
ATOM     29  H   UNL     1      19.171  37.455  18.192  1.00  0.00     0.210 HD
ENDBRANCH  25  28
ENDBRANCH   2   6
ENDBRANCH   1   2
BRANCH   1  30
ATOM     30  C   UNL     1      28.571  44.109  23.118  1.00  0.00     0.028 C 
BRANCH  30  31
ATOM     31  C   UNL     1      27.195  44.123  23.739  1.00  0.00    -0.028 C 
ATOM     32  C   UNL     1      26.984  43.978  25.063  1.00  0.00    -0.080 C 
ATOM     33  C   UNL     1      25.568  43.995  25.578  1.00  0.00     0.039 C 
ATOM     34  C   UNL     1      28.131  43.797  26.030  1.00  0.00     0.039 C 
ENDBRANCH  30  31
ENDBRANCH   1  30
TORSDOF 6
ENDMDL
MODEL 2
REMARK VINA RESULT:     8.683      5.267      6.802
REMARK INTER + INTRA:          15.413
REMARK INTER:                  15.119
REMARK INTRA:                   0.293
REMARK UNBOUND:                 3.938
REMARK SMILES CC(C)=CCC[C@H](C(=O)[O-])[C@@H]1CC[C@@]2(C)C3=C(CC[C@@]12C)[C@@]1(C)CC[C@H](O)C(C)(C)[C@@H]1CC3
REMARK SMILES IDX 6 1 7 2 8 3 9 4 10 5 11 6 12 7 20 8 13 9 14 10 19 11 21 12
REMARK SMILES IDX 15 13 16 14 18 15 17 16 33 17 22 18 32 19 31 20 24 21 23 22
REMARK SMILES IDX 28 23 25 24 26 25 29 26 30 27 27 28 5 30 4 31 2 32 1 33 3 34
REMARK H PARENT 27 29
REMARK Flexibility Score: inf
ROOT
ATOM      1  C   UNL     1      26.460  39.321  19.828  1.00  0.00     0.014 C 
ENDROOT
BRANCH   1   2
ATOM      2  C   UNL     1      26.429  38.977  21.342  1.00  0.00     0.039 C 
BRANCH   2   3
ATOM      3  C   UNL     1      26.901  40.176  22.131  1.00  0.00     0.045 C 
ATOM      4  O   UNL     1      28.018  40.161  22.714  1.00  0.00    -0.550 OA
ATOM      5  O   UNL     1      26.104  41.311  22.213  1.00  0.00    -0.550 OA
ENDBRANCH   2   3
BRANCH   2   6
ATOM      6  C   UNL     1      27.241  37.696  21.750  1.00  0.00     0.004 C 
ATOM      7  C   UNL     1      28.692  37.671  21.271  1.00  0.00     0.006 C 
ATOM      8  C   UNL     1      26.631  36.268  21.439  1.00  0.00    -0.020 C 
ATOM      9  C   UNL     1      29.125  36.230  21.436  1.00  0.00     0.012 C 
ATOM     10  C   UNL     1      27.902  35.370  21.046  1.00  0.00    -0.006 C 
ATOM     11  C   UNL     1      25.906  35.740  22.716  1.00  0.00     0.012 C 
ATOM     12  C   UNL     1      25.527  36.285  20.336  1.00  0.00     0.012 C 
ATOM     13  C   UNL     1      27.988  35.135  19.503  1.00  0.00     0.017 C 
ATOM     14  C   UNL     1      28.008  34.016  21.811  1.00  0.00    -0.064 C 
ATOM     15  C   UNL     1      26.869  35.109  23.704  1.00  0.00     0.032 C 
ATOM     16  C   UNL     1      27.479  33.875  23.071  1.00  0.00    -0.064 C 
ATOM     17  C   UNL     1      28.806  32.889  21.152  1.00  0.00     0.032 C 
ATOM     18  C   UNL     1      27.664  32.585  23.913  1.00  0.00    -0.008 C 
ATOM     19  C   UNL     1      29.089  31.664  22.021  1.00  0.00     0.009 C 
ATOM     20  C   UNL     1      27.886  31.375  22.931  1.00  0.00     0.007 C 
ATOM     21  C   UNL     1      26.395  32.287  24.769  1.00  0.00     0.014 C 
ATOM     22  C   UNL     1      28.860  32.879  24.859  1.00  0.00     0.016 C 
ATOM     23  C   UNL     1      27.844  29.912  23.539  1.00  0.00    -0.006 C 
ATOM     24  C   UNL     1      26.423  30.916  25.449  1.00  0.00     0.033 C 
ATOM     25  C   UNL     1      26.565  29.779  24.426  1.00  0.00     0.120 C 
ATOM     26  C   UNL     1      29.125  29.529  24.330  1.00  0.00     0.014 C 
ATOM     27  C   UNL     1      27.700  28.880  22.383  1.00  0.00     0.014 C 
BRANCH  25  28
ATOM     28  O   UNL     1      26.487  28.522  25.056  1.00  0.00    -0.393 OA
ATOM     29  H   UNL     1      27.331  28.370  25.554  1.00  0.00     0.210 HD
ENDBRANCH  25  28
ENDBRANCH   2   6
ENDBRANCH   1   2
BRANCH   1  30
ATOM     30  C   UNL     1      27.666  40.202  19.467  1.00  0.00     0.028 C 
BRANCH  30  31
ATOM     31  C   UNL     1      27.224  41.512  18.859  1.00  0.00    -0.028 C 
ATOM     32  C   UNL     1      27.539  42.712  19.390  1.00  0.00    -0.080 C 
ATOM     33  C   UNL     1      27.036  43.959  18.709  1.00  0.00     0.039 C 
ATOM     34  C   UNL     1      28.376  42.827  20.642  1.00  0.00     0.039 C 
ENDBRANCH  30  31
ENDBRANCH   1  30
TORSDOF 6
ENDMDL
MODEL 3
REMARK VINA RESULT:     9.751      4.906      6.885
REMARK INTER + INTRA:          16.824
REMARK INTER:                  15.477
REMARK INTRA:                   1.347
REMARK UNBOUND:                 3.938
REMARK SMILES CC(C)=CCC[C@H](C(=O)[O-])[C@@H]1CC[C@@]2(C)C3=C(CC[C@@]12C)[C@@]1(C)CC[C@H](O)C(C)(C)[C@@H]1CC3
REMARK SMILES IDX 6 1 7 2 8 3 9 4 10 5 11 6 12 7 20 8 13 9 14 10 19 11 21 12
REMARK SMILES IDX 15 13 16 14 18 15 17 16 33 17 22 18 32 19 31 20 24 21 23 22
REMARK SMILES IDX 28 23 25 24 26 25 29 26 30 27 27 28 5 30 4 31 2 32 1 33 3 34
REMARK H PARENT 27 29
REMARK Flexibility Score: inf
ROOT
ATOM      1  C   UNL     1      26.113  39.746  19.849  1.00  0.00     0.014 C 
ENDROOT
BRANCH   1   2
ATOM      2  C   UNL     1      26.426  39.554  21.358  1.00  0.00     0.039 C 
BRANCH   2   3
ATOM      3  C   UNL     1      27.141  40.781  21.875  1.00  0.00     0.045 C 
ATOM      4  O   UNL     1      28.382  40.756  22.093  1.00  0.00    -0.550 OA
ATOM      5  O   UNL     1      26.430  41.952  22.108  1.00  0.00    -0.550 OA
ENDBRANCH   2   3
BRANCH   2   6
ATOM      6  C   UNL     1      27.238  38.257  21.709  1.00  0.00     0.004 C 
ATOM      7  C   UNL     1      28.684  38.246  21.213  1.00  0.00     0.006 C 
ATOM      8  C   UNL     1      26.621  36.843  21.350  1.00  0.00    -0.020 C 
ATOM      9  C   UNL     1      29.114  36.799  21.319  1.00  0.00     0.012 C 
ATOM     10  C   UNL     1      27.885  35.957  20.910  1.00  0.00    -0.006 C 
ATOM     11  C   UNL     1      25.908  36.269  22.614  1.00  0.00     0.012 C 
ATOM     12  C   UNL     1      25.506  36.904  20.260  1.00  0.00     0.012 C 
ATOM     13  C   UNL     1      27.955  35.781  19.358  1.00  0.00     0.017 C 
ATOM     14  C   UNL     1      27.995  34.575  21.622  1.00  0.00    -0.064 C 
ATOM     15  C   UNL     1      26.879  35.598  23.567  1.00  0.00     0.032 C 
ATOM     16  C   UNL     1      27.478  34.388  22.881  1.00  0.00    -0.064 C 
ATOM     17  C   UNL     1      28.782  33.471  20.913  1.00  0.00     0.032 C 
ATOM     18  C   UNL     1      27.668  33.066  23.672  1.00  0.00    -0.008 C 
ATOM     19  C   UNL     1      29.071  32.214  21.731  1.00  0.00     0.009 C 
ATOM     20  C   UNL     1      27.877  31.894  22.643  1.00  0.00     0.007 C 
ATOM     21  C   UNL     1      26.407  32.739  24.529  1.00  0.00     0.014 C 
ATOM     22  C   UNL     1      28.875  33.320  24.615  1.00  0.00     0.016 C 
ATOM     23  C   UNL     1      27.837  30.409  23.195  1.00  0.00    -0.006 C 
ATOM     24  C   UNL     1      26.438  31.343  25.157  1.00  0.00     0.033 C 
ATOM     25  C   UNL     1      26.566  30.246  24.090  1.00  0.00     0.120 C 
ATOM     26  C   UNL     1      29.125  29.992  23.957  1.00  0.00     0.014 C 
ATOM     27  C   UNL     1      27.678  29.422  22.002  1.00  0.00     0.014 C 
BRANCH  25  28
ATOM     28  O   UNL     1      26.491  28.966  24.672  1.00  0.00    -0.393 OA
ATOM     29  H   UNL     1      26.132  28.336  23.996  1.00  0.00     0.210 HD
ENDBRANCH  25  28
ENDBRANCH   2   6
ENDBRANCH   1   2
BRANCH   1  30
ATOM     30  C   UNL     1      26.985  40.843  19.220  1.00  0.00     0.028 C 
BRANCH  30  31
ATOM     31  C   UNL     1      27.910  40.273  18.172  1.00  0.00    -0.028 C 
ATOM     32  C   UNL     1      27.610  39.177  17.444  1.00  0.00    -0.080 C 
ATOM     33  C   UNL     1      28.612  38.684  16.431  1.00  0.00     0.039 C 
ATOM     34  C   UNL     1      26.303  38.441  17.625  1.00  0.00     0.039 C 
ENDBRANCH  30  31
ENDBRANCH   1  30
TORSDOF 6
ENDMDL
