MODEL 1
REMARK VINA RESULT:    -4.485      0.000      0.000
REMARK INTER + INTRA:          -9.873
REMARK INTER:                  -8.680
REMARK INTRA:                  -1.193
REMARK UNBOUND:                -1.193
REMARK SMILES CCCCCCCCCCCCCCCCCC(=O)[O-]
REMARK SMILES IDX 10 1 11 2 12 3 13 4 14 5 15 6 16 7 17 8 18 9 19 10 20 11
REMARK SMILES IDX 9 12 8 13 7 14 6 15 5 16 4 17 3 18 2 19 1 20
REMARK H PARENT
REMARK Flexibility Score: inf
ROOT
ATOM      1  C   UNL     1      10.778  48.509  97.903  1.00  0.00     0.000 C 
ENDROOT
BRANCH   1   2
ATOM      2  C   UNL     1      11.613  49.646  97.292  1.00  0.00     0.000 C 
BRANCH   2   3
ATOM      3  C   UNL     1      13.110  49.301  97.319  1.00  0.00     0.000 C 
BRANCH   3   4
ATOM      4  C   UNL     1      14.008  50.533  97.123  1.00  0.00     0.000 C 
BRANCH   4   5
ATOM      5  C   UNL     1      14.105  50.965  95.649  1.00  0.00     0.000 C 
BRANCH   5   6
ATOM      6  C   UNL     1      14.250  49.770  94.693  1.00  0.00     0.000 C 
BRANCH   6   7
ATOM      7  C   UNL     1      15.665  49.653  94.100  1.00  0.00     0.006 C 
BRANCH   7   8
ATOM      8  C   UNL     1      16.341  48.326  94.472  1.00  0.00     0.053 C 
BRANCH   8   9
ATOM      9  C   UNL     1      16.626  47.491  93.261  1.00  0.00     0.041 C 
ATOM     10  O   UNL     1      15.747  47.342  92.372  1.00  0.00    -0.550 OA
ATOM     11  O   UNL     1      17.875  46.906  93.099  1.00  0.00    -0.550 OA
ENDBRANCH   8   9
ENDBRANCH   7   8
ENDBRANCH   6   7
ENDBRANCH   5   6
ENDBRANCH   4   5
ENDBRANCH   3   4
ENDBRANCH   2   3
ENDBRANCH   1   2
BRANCH   1  12
ATOM     12  C   UNL     1      10.070  47.653  96.840  1.00  0.00     0.000 C 
BRANCH  12  13
ATOM     13  C   UNL     1      10.603  47.914  95.420  1.00  0.00    -0.000 C 
BRANCH  13  14
ATOM     14  C   UNL     1      10.160  46.836  94.416  1.00  0.00    -0.000 C 
BRANCH  14  15
ATOM     15  C   UNL     1       9.703  45.538  95.105  1.00  0.00    -0.000 C 
BRANCH  15  16
ATOM     16  C   UNL     1      10.623  44.347  94.788  1.00  0.00    -0.000 C 
BRANCH  16  17
ATOM     17  C   UNL     1      10.636  43.296  95.911  1.00  0.00    -0.000 C 
BRANCH  17  18
ATOM     18  C   UNL     1      11.649  42.164  95.660  1.00  0.00    -0.000 C 
BRANCH  18  19
ATOM     19  C   UNL     1      12.881  42.569  94.830  1.00  0.00    -0.003 C 
ATOM     20  C   UNL     1      14.202  42.163  95.481  1.00  0.00     0.004 C 
ENDBRANCH  18  19
ENDBRANCH  17  18
ENDBRANCH  16  17
ENDBRANCH  15  16
ENDBRANCH  14  15
ENDBRANCH  13  14
ENDBRANCH  12  13
ENDBRANCH   1  12
TORSDOF 16
ENDMDL
MODEL 2
REMARK VINA RESULT:    -4.468      1.833      3.157
REMARK INTER + INTRA:          -9.840
REMARK INTER:                  -8.117
REMARK INTRA:                  -1.723
REMARK UNBOUND:                -1.193
REMARK SMILES CCCCCCCCCCCCCCCCCC(=O)[O-]
REMARK SMILES IDX 10 1 11 2 12 3 13 4 14 5 15 6 16 7 17 8 18 9 19 10 20 11
REMARK SMILES IDX 9 12 8 13 7 14 6 15 5 16 4 17 3 18 2 19 1 20
REMARK H PARENT
REMARK Flexibility Score: inf
ROOT
ATOM      1  C   UNL     1      10.497  49.584  98.368  1.00  0.00     0.000 C 
ENDROOT
BRANCH   1   2
ATOM      2  C   UNL     1      11.013  48.557  97.347  1.00  0.00     0.000 C 
BRANCH   2   3
ATOM      3  C   UNL     1      12.253  49.091  96.612  1.00  0.00     0.000 C 
BRANCH   3   4
ATOM      4  C   UNL     1      13.274  49.736  97.563  1.00  0.00     0.000 C 
BRANCH   4   5
ATOM      5  C   UNL     1      14.070  50.870  96.893  1.00  0.00     0.000 C 
BRANCH   5   6
ATOM      6  C   UNL     1      14.277  50.636  95.388  1.00  0.00     0.000 C 
BRANCH   6   7
ATOM      7  C   UNL     1      15.527  49.792  95.085  1.00  0.00     0.006 C 
BRANCH   7   8
ATOM      8  C   UNL     1      15.556  49.302  93.630  1.00  0.00     0.053 C 
BRANCH   8   9
ATOM      9  C   UNL     1      16.260  47.985  93.504  1.00  0.00     0.041 C 
ATOM     10  O   UNL     1      16.133  47.296  92.459  1.00  0.00    -0.550 OA
ATOM     11  O   UNL     1      17.085  47.538  94.527  1.00  0.00    -0.550 OA
ENDBRANCH   8   9
ENDBRANCH   7   8
ENDBRANCH   6   7
ENDBRANCH   5   6
ENDBRANCH   4   5
ENDBRANCH   3   4
ENDBRANCH   2   3
ENDBRANCH   1   2
BRANCH   1  12
ATOM     12  C   UNL     1       9.044  50.010  98.101  1.00  0.00     0.000 C 
BRANCH  12  13
ATOM     13  C   UNL     1       8.188  48.866  97.530  1.00  0.00    -0.000 C 
BRANCH  13  14
ATOM     14  C   UNL     1       7.445  49.270  96.246  1.00  0.00    -0.000 C 
BRANCH  14  15
ATOM     15  C   UNL     1       8.403  49.587  95.083  1.00  0.00    -0.000 C 
BRANCH  15  16
ATOM     16  C   UNL     1       8.456  48.459  94.039  1.00  0.00    -0.000 C 
BRANCH  16  17
ATOM     17  C   UNL     1       7.405  47.366  94.298  1.00  0.00    -0.000 C 
BRANCH  17  18
ATOM     18  C   UNL     1       8.029  45.973  94.502  1.00  0.00    -0.000 C 
BRANCH  18  19
ATOM     19  C   UNL     1       9.192  45.924  95.509  1.00  0.00    -0.003 C 
ATOM     20  C   UNL     1       9.991  44.624  95.438  1.00  0.00     0.004 C 
ENDBRANCH  18  19
ENDBRANCH  17  18
ENDBRANCH  16  17
ENDBRANCH  15  16
ENDBRANCH  14  15
ENDBRANCH  13  14
ENDBRANCH  12  13
ENDBRANCH   1  12
TORSDOF 16
ENDMDL
MODEL 3
REMARK VINA RESULT:    -4.436      1.269      2.198
REMARK INTER + INTRA:          -9.777
REMARK INTER:                  -8.477
REMARK INTRA:                  -1.300
REMARK UNBOUND:                -1.193
REMARK SMILES CCCCCCCCCCCCCCCCCC(=O)[O-]
REMARK SMILES IDX 10 1 11 2 12 3 13 4 14 5 15 6 16 7 17 8 18 9 19 10 20 11
REMARK SMILES IDX 9 12 8 13 7 14 6 15 5 16 4 17 3 18 2 19 1 20
REMARK H PARENT
REMARK Flexibility Score: inf
ROOT
ATOM      1  C   UNL     1      12.654  49.584  97.323  1.00  0.00     0.000 C 
ENDROOT
BRANCH   1   2
ATOM      2  C   UNL     1      14.022  49.339  96.667  1.00  0.00     0.000 C 
BRANCH   2   3
ATOM      3  C   UNL     1      14.655  50.663  96.210  1.00  0.00     0.000 C 
BRANCH   3   4
ATOM      4  C   UNL     1      15.571  50.493  94.988  1.00  0.00     0.000 C 
BRANCH   4   5
ATOM      5  C   UNL     1      15.048  49.437  93.999  1.00  0.00     0.000 C 
BRANCH   5   6
ATOM      6  C   UNL     1      16.094  48.357  93.682  1.00  0.00     0.000 C 
BRANCH   6   7
ATOM      7  C   UNL     1      16.317  48.171  92.171  1.00  0.00     0.006 C 
BRANCH   7   8
ATOM      8  C   UNL     1      16.124  46.713  91.731  1.00  0.00     0.053 C 
BRANCH   8   9
ATOM      9  C   UNL     1      17.113  45.801  92.390  1.00  0.00     0.041 C 
ATOM     10  O   UNL     1      18.348  46.012  92.271  1.00  0.00    -0.550 OA
ATOM     11  O   UNL     1      16.668  44.737  93.164  1.00  0.00    -0.550 OA
ENDBRANCH   8   9
ENDBRANCH   7   8
ENDBRANCH   6   7
ENDBRANCH   5   6
ENDBRANCH   4   5
ENDBRANCH   3   4
ENDBRANCH   2   3
ENDBRANCH   1   2
BRANCH   1  12
ATOM     12  C   UNL     1      11.536  48.728  96.707  1.00  0.00     0.000 C 
BRANCH  12  13
ATOM     13  C   UNL     1      11.690  48.562  95.184  1.00  0.00    -0.000 C 
BRANCH  13  14
ATOM     14  C   UNL     1      10.664  47.582  94.591  1.00  0.00    -0.000 C 
BRANCH  14  15
ATOM     15  C   UNL     1       9.825  46.877  95.672  1.00  0.00    -0.000 C 
BRANCH  15  16
ATOM     16  C   UNL     1       9.282  45.517  95.203  1.00  0.00    -0.000 C 
BRANCH  16  17
ATOM     17  C   UNL     1      10.155  44.340  95.672  1.00  0.00    -0.000 C 
BRANCH  17  18
ATOM     18  C   UNL     1      11.156  43.873  94.599  1.00  0.00    -0.000 C 
BRANCH  18  19
ATOM     19  C   UNL     1      11.857  42.537  94.902  1.00  0.00    -0.003 C 
ATOM     20  C   UNL     1      11.610  42.041  96.326  1.00  0.00     0.004 C 
ENDBRANCH  18  19
ENDBRANCH  17  18
ENDBRANCH  16  17
ENDBRANCH  15  16
ENDBRANCH  14  15
ENDBRANCH  13  14
ENDBRANCH  12  13
ENDBRANCH   1  12
TORSDOF 16
ENDMDL
MODEL 4
REMARK VINA RESULT:    -4.372      4.131      6.428
REMARK INTER + INTRA:          -9.654
REMARK INTER:                  -7.727
REMARK INTRA:                  -1.927
REMARK UNBOUND:                -1.193
REMARK SMILES CCCCCCCCCCCCCCCCCC(=O)[O-]
REMARK SMILES IDX 10 1 11 2 12 3 13 4 14 5 15 6 16 7 17 8 18 9 19 10 20 11
REMARK SMILES IDX 9 12 8 13 7 14 6 15 5 16 4 17 3 18 2 19 1 20
REMARK H PARENT
REMARK Flexibility Score: inf
ROOT
ATOM      1  C   UNL     1       8.886  49.231  97.985  1.00  0.00     0.000 C 
ENDROOT
BRANCH   1   2
ATOM      2  C   UNL     1       8.472  50.687  97.717  1.00  0.00     0.000 C 
BRANCH   2   3
ATOM      3  C   UNL     1       7.252  50.746  96.784  1.00  0.00     0.000 C 
BRANCH   3   4
ATOM      4  C   UNL     1       7.341  49.739  95.627  1.00  0.00     0.000 C 
BRANCH   4   5
ATOM      5  C   UNL     1       8.185  50.261  94.452  1.00  0.00     0.000 C 
BRANCH   5   6
ATOM      6  C   UNL     1       8.763  49.126  93.591  1.00  0.00     0.000 C 
BRANCH   6   7
ATOM      7  C   UNL     1      10.160  49.454  93.036  1.00  0.00     0.006 C 
BRANCH   7   8
ATOM      8  C   UNL     1      10.293  50.929  92.636  1.00  0.00     0.053 C 
BRANCH   8   9
ATOM      9  C   UNL     1       9.854  51.162  91.223  1.00  0.00     0.041 C 
ATOM     10  O   UNL     1       9.789  50.202  90.412  1.00  0.00    -0.550 OA
ATOM     11  O   UNL     1       9.483  52.436  90.812  1.00  0.00    -0.550 OA
ENDBRANCH   8   9
ENDBRANCH   7   8
ENDBRANCH   6   7
ENDBRANCH   5   6
ENDBRANCH   4   5
ENDBRANCH   3   4
ENDBRANCH   2   3
ENDBRANCH   1   2
BRANCH   1  12
ATOM     12  C   UNL     1      10.410  49.030  97.949  1.00  0.00     0.000 C 
BRANCH  12  13
ATOM     13  C   UNL     1      10.898  48.449  96.609  1.00  0.00    -0.000 C 
BRANCH  13  14
ATOM     14  C   UNL     1      12.172  49.141  96.096  1.00  0.00    -0.000 C 
BRANCH  14  15
ATOM     15  C   UNL     1      13.217  49.355  97.205  1.00  0.00    -0.000 C 
BRANCH  15  16
ATOM     16  C   UNL     1      14.113  50.577  96.944  1.00  0.00    -0.000 C 
BRANCH  16  17
ATOM     17  C   UNL     1      14.233  50.910  95.446  1.00  0.00    -0.000 C 
BRANCH  17  18
ATOM     18  C   UNL     1      15.620  50.572  94.868  1.00  0.00    -0.000 C 
BRANCH  18  19
ATOM     19  C   UNL     1      15.899  49.069  94.688  1.00  0.00    -0.003 C 
ATOM     20  C   UNL     1      15.798  48.611  93.234  1.00  0.00     0.004 C 
ENDBRANCH  18  19
ENDBRANCH  17  18
ENDBRANCH  16  17
ENDBRANCH  15  16
ENDBRANCH  14  15
ENDBRANCH  13  14
ENDBRANCH  12  13
ENDBRANCH   1  12
TORSDOF 16
ENDMDL
MODEL 5
REMARK VINA RESULT:    -4.316      2.965      6.391
REMARK INTER + INTRA:          -9.546
REMARK INTER:                  -7.743
REMARK INTRA:                  -1.803
REMARK UNBOUND:                -1.193
REMARK SMILES CCCCCCCCCCCCCCCCCC(=O)[O-]
REMARK SMILES IDX 10 1 11 2 12 3 13 4 14 5 15 6 16 7 17 8 18 9 19 10 20 11
REMARK SMILES IDX 9 12 8 13 7 14 6 15 5 16 4 17 3 18 2 19 1 20
REMARK H PARENT
REMARK Flexibility Score: inf
ROOT
ATOM      1  C   UNL     1       8.773  49.556  93.774  1.00  0.00     0.000 C 
ENDROOT
BRANCH   1   2
ATOM      2  C   UNL     1       8.613  48.311  92.886  1.00  0.00     0.000 C 
BRANCH   2   3
ATOM      3  C   UNL     1       9.653  47.241  93.252  1.00  0.00     0.000 C 
BRANCH   3   4
ATOM      4  C   UNL     1       9.190  46.331  94.401  1.00  0.00     0.000 C 
BRANCH   4   5
ATOM      5  C   UNL     1      10.268  45.320  94.826  1.00  0.00     0.000 C 
BRANCH   5   6
ATOM      6  C   UNL     1      11.089  44.798  93.636  1.00  0.00     0.000 C 
BRANCH   6   7
ATOM      7  C   UNL     1      11.782  43.457  93.934  1.00  0.00     0.006 C 
BRANCH   7   8
ATOM      8  C   UNL     1      11.223  42.785  95.196  1.00  0.00     0.053 C 
BRANCH   8   9
ATOM      9  C   UNL     1      12.317  42.352  96.123  1.00  0.00     0.041 C 
ATOM     10  O   UNL     1      13.493  42.214  95.697  1.00  0.00    -0.550 OA
ATOM     11  O   UNL     1      12.042  42.134  97.467  1.00  0.00    -0.550 OA
ENDBRANCH   8   9
ENDBRANCH   7   8
ENDBRANCH   6   7
ENDBRANCH   5   6
ENDBRANCH   4   5
ENDBRANCH   3   4
ENDBRANCH   2   3
ENDBRANCH   1   2
BRANCH   1  12
ATOM     12  C   UNL     1       7.483  49.921  94.526  1.00  0.00     0.000 C 
BRANCH  12  13
ATOM     13  C   UNL     1       7.745  50.339  95.983  1.00  0.00    -0.000 C 
BRANCH  13  14
ATOM     14  C   UNL     1       8.383  49.214  96.814  1.00  0.00    -0.000 C 
BRANCH  14  15
ATOM     15  C   UNL     1       9.152  49.744  98.038  1.00  0.00    -0.000 C 
BRANCH  15  16
ATOM     16  C   UNL     1      10.612  49.265  98.070  1.00  0.00    -0.000 C 
BRANCH  16  17
ATOM     17  C   UNL     1      11.043  48.596  96.752  1.00  0.00    -0.000 C 
BRANCH  17  18
ATOM     18  C   UNL     1      12.436  49.049  96.279  1.00  0.00    -0.000 C 
BRANCH  18  19
ATOM     19  C   UNL     1      13.299  49.729  97.358  1.00  0.00    -0.003 C 
ATOM     20  C   UNL     1      14.302  50.727  96.782  1.00  0.00     0.004 C 
ENDBRANCH  18  19
ENDBRANCH  17  18
ENDBRANCH  16  17
ENDBRANCH  15  16
ENDBRANCH  14  15
ENDBRANCH  13  14
ENDBRANCH  12  13
ENDBRANCH   1  12
TORSDOF 16
ENDMDL
MODEL 6
REMARK VINA RESULT:    -4.300      2.724      3.952
REMARK INTER + INTRA:          -9.516
REMARK INTER:                  -7.436
REMARK INTRA:                  -2.080
REMARK UNBOUND:                -1.193
REMARK SMILES CCCCCCCCCCCCCCCCCC(=O)[O-]
REMARK SMILES IDX 10 1 11 2 12 3 13 4 14 5 15 6 16 7 17 8 18 9 19 10 20 11
REMARK SMILES IDX 9 12 8 13 7 14 6 15 5 16 4 17 3 18 2 19 1 20
REMARK H PARENT
REMARK Flexibility Score: inf
ROOT
ATOM      1  C   UNL     1       8.801  49.238  97.559  1.00  0.00     0.000 C 
ENDROOT
BRANCH   1   2
ATOM      2  C   UNL     1      10.098  48.412  97.532  1.00  0.00     0.000 C 
BRANCH   2   3
ATOM      3  C   UNL     1      11.298  49.264  97.972  1.00  0.00     0.000 C 
BRANCH   3   4
ATOM      4  C   UNL     1      12.455  49.229  96.960  1.00  0.00     0.000 C 
BRANCH   4   5
ATOM      5  C   UNL     1      13.749  49.843  97.519  1.00  0.00     0.000 C 
BRANCH   5   6
ATOM      6  C   UNL     1      14.121  51.164  96.828  1.00  0.00     0.000 C 
BRANCH   6   7
ATOM      7  C   UNL     1      14.332  51.003  95.313  1.00  0.00     0.006 C 
BRANCH   7   8
ATOM      8  C   UNL     1      15.720  50.440  94.978  1.00  0.00     0.053 C 
BRANCH   8   9
ATOM      9  C   UNL     1      15.630  49.084  94.347  1.00  0.00     0.041 C 
ATOM     10  O   UNL     1      16.576  48.263  94.469  1.00  0.00    -0.550 OA
ATOM     11  O   UNL     1      14.485  48.717  93.652  1.00  0.00    -0.550 OA
ENDBRANCH   8   9
ENDBRANCH   7   8
ENDBRANCH   6   7
ENDBRANCH   5   6
ENDBRANCH   4   5
ENDBRANCH   3   4
ENDBRANCH   2   3
ENDBRANCH   1   2
BRANCH   1  12
ATOM     12  C   UNL     1       7.894  48.963  96.349  1.00  0.00     0.000 C 
BRANCH  12  13
ATOM     13  C   UNL     1       7.621  50.228  95.516  1.00  0.00    -0.000 C 
BRANCH  13  14
ATOM     14  C   UNL     1       7.696  49.965  94.003  1.00  0.00    -0.000 C 
BRANCH  14  15
ATOM     15  C   UNL     1       8.893  50.668  93.338  1.00  0.00    -0.000 C 
BRANCH  15  16
ATOM     16  C   UNL     1       9.836  49.682  92.628  1.00  0.00    -0.000 C 
BRANCH  16  17
ATOM     17  C   UNL     1      11.054  49.306  93.489  1.00  0.00    -0.000 C 
BRANCH  17  18
ATOM     18  C   UNL     1      11.020  47.843  93.969  1.00  0.00    -0.000 C 
BRANCH  18  19
ATOM     19  C   UNL     1       9.834  47.015  93.442  1.00  0.00    -0.003 C 
ATOM     20  C   UNL     1      10.250  45.952  92.427  1.00  0.00     0.004 C 
ENDBRANCH  18  19
ENDBRANCH  17  18
ENDBRANCH  16  17
ENDBRANCH  15  16
ENDBRANCH  14  15
ENDBRANCH  13  14
ENDBRANCH  12  13
ENDBRANCH   1  12
TORSDOF 16
ENDMDL
MODEL 7
REMARK VINA RESULT:    -4.281      3.783      7.622
REMARK INTER + INTRA:          -9.478
REMARK INTER:                  -8.053
REMARK INTRA:                  -1.424
REMARK UNBOUND:                -1.193
REMARK SMILES CCCCCCCCCCCCCCCCCC(=O)[O-]
REMARK SMILES IDX 10 1 11 2 12 3 13 4 14 5 15 6 16 7 17 8 18 9 19 10 20 11
REMARK SMILES IDX 9 12 8 13 7 14 6 15 5 16 4 17 3 18 2 19 1 20
REMARK H PARENT
REMARK Flexibility Score: inf
ROOT
ATOM      1  C   UNL     1      15.822  48.505  93.312  1.00  0.00     0.000 C 
ENDROOT
BRANCH   1   2
ATOM      2  C   UNL     1      15.950  49.031  94.751  1.00  0.00     0.000 C 
BRANCH   2   3
ATOM      3  C   UNL     1      15.637  50.534  94.815  1.00  0.00     0.000 C 
BRANCH   3   4
ATOM      4  C   UNL     1      14.228  50.824  95.357  1.00  0.00     0.000 C 
BRANCH   4   5
ATOM      5  C   UNL     1      14.189  50.898  96.893  1.00  0.00     0.000 C 
BRANCH   5   6
ATOM      6  C   UNL     1      13.297  49.810  97.512  1.00  0.00     0.000 C 
BRANCH   6   7
ATOM      7  C   UNL     1      12.415  49.101  96.470  1.00  0.00     0.006 C 
BRANCH   7   8
ATOM      8  C   UNL     1      11.063  48.668  97.053  1.00  0.00     0.053 C 
BRANCH   8   9
ATOM      9  C   UNL     1      10.133  48.173  95.988  1.00  0.00     0.041 C 
ATOM     10  O   UNL     1       9.580  47.048  96.101  1.00  0.00    -0.550 OA
ATOM     11  O   UNL     1       9.851  48.971  94.887  1.00  0.00    -0.550 OA
ENDBRANCH   8   9
ENDBRANCH   7   8
ENDBRANCH   6   7
ENDBRANCH   5   6
ENDBRANCH   4   5
ENDBRANCH   3   4
ENDBRANCH   2   3
ENDBRANCH   1   2
BRANCH   1  12
ATOM     12  C   UNL     1      16.619  47.212  93.077  1.00  0.00     0.000 C 
BRANCH  12  13
ATOM     13  C   UNL     1      17.446  46.795  94.306  1.00  0.00    -0.000 C 
BRANCH  13  14
ATOM     14  C   UNL     1      18.803  46.182  93.925  1.00  0.00    -0.000 C 
BRANCH  14  15
ATOM     15  C   UNL     1      18.967  46.007  92.404  1.00  0.00    -0.000 C 
BRANCH  15  16
ATOM     16  C   UNL     1      20.172  46.782  91.848  1.00  0.00    -0.000 C 
BRANCH  16  17
ATOM     17  C   UNL     1      20.295  46.664  90.318  1.00  0.00    -0.000 C 
BRANCH  17  18
ATOM     18  C   UNL     1      20.081  48.007  89.596  1.00  0.00    -0.000 C 
BRANCH  18  19
ATOM     19  C   UNL     1      18.799  48.760  89.992  1.00  0.00    -0.003 C 
ATOM     20  C   UNL     1      17.523  48.054  89.536  1.00  0.00     0.004 C 
ENDBRANCH  18  19
ENDBRANCH  17  18
ENDBRANCH  16  17
ENDBRANCH  15  16
ENDBRANCH  14  15
ENDBRANCH  13  14
ENDBRANCH  12  13
ENDBRANCH   1  12
TORSDOF 16
ENDMDL
MODEL 8
REMARK VINA RESULT:    -4.257      3.166      6.074
REMARK INTER + INTRA:          -9.433
REMARK INTER:                  -7.448
REMARK INTRA:                  -1.985
REMARK UNBOUND:                -1.193
REMARK SMILES CCCCCCCCCCCCCCCCCC(=O)[O-]
REMARK SMILES IDX 10 1 11 2 12 3 13 4 14 5 15 6 16 7 17 8 18 9 19 10 20 11
REMARK SMILES IDX 9 12 8 13 7 14 6 15 5 16 4 17 3 18 2 19 1 20
REMARK H PARENT
REMARK Flexibility Score: inf
ROOT
ATOM      1  C   UNL     1       8.961  50.024  98.083  1.00  0.00     0.000 C 
ENDROOT
BRANCH   1   2
ATOM      2  C   UNL     1       8.079  48.874  97.570  1.00  0.00     0.000 C 
BRANCH   2   3
ATOM      3  C   UNL     1       7.219  49.333  96.382  1.00  0.00     0.000 C 
BRANCH   3   4
ATOM      4  C   UNL     1       7.950  50.331  95.470  1.00  0.00     0.000 C 
BRANCH   4   5
ATOM      5  C   UNL     1       8.223  49.761  94.068  1.00  0.00     0.000 C 
BRANCH   5   6
ATOM      6  C   UNL     1       9.629  49.153  93.942  1.00  0.00     0.000 C 
BRANCH   6   7
ATOM      7  C   UNL     1       9.653  47.645  94.248  1.00  0.00     0.006 C 
BRANCH   7   8
ATOM      8  C   UNL     1      10.882  46.952  93.644  1.00  0.00     0.053 C 
BRANCH   8   9
ATOM      9  C   UNL     1      10.511  46.085  92.479  1.00  0.00     0.041 C 
ATOM     10  O   UNL     1      11.389  45.396  91.896  1.00  0.00    -0.550 OA
ATOM     11  O   UNL     1       9.189  46.013  92.061  1.00  0.00    -0.550 OA
ENDBRANCH   8   9
ENDBRANCH   7   8
ENDBRANCH   6   7
ENDBRANCH   5   6
ENDBRANCH   4   5
ENDBRANCH   3   4
ENDBRANCH   2   3
ENDBRANCH   1   2
BRANCH   1  12
ATOM     12  C   UNL     1      10.395  49.575  98.409  1.00  0.00     0.000 C 
BRANCH  12  13
ATOM     13  C   UNL     1      10.923  48.521  97.420  1.00  0.00    -0.000 C 
BRANCH  13  14
ATOM     14  C   UNL     1      12.206  48.973  96.705  1.00  0.00    -0.000 C 
BRANCH  14  15
ATOM     15  C   UNL     1      12.971  50.055  97.489  1.00  0.00    -0.000 C 
BRANCH  15  16
ATOM     16  C   UNL     1      14.385  50.295  96.936  1.00  0.00    -0.000 C 
BRANCH  16  17
ATOM     17  C   UNL     1      14.375  51.037  95.588  1.00  0.00    -0.000 C 
BRANCH  17  18
ATOM     18  C   UNL     1      15.530  50.614  94.663  1.00  0.00    -0.000 C 
BRANCH  18  19
ATOM     19  C   UNL     1      15.394  49.205  94.058  1.00  0.00    -0.003 C 
ATOM     20  C   UNL     1      16.413  48.212  94.616  1.00  0.00     0.004 C 
ENDBRANCH  18  19
ENDBRANCH  17  18
ENDBRANCH  16  17
ENDBRANCH  15  16
ENDBRANCH  14  15
ENDBRANCH  13  14
ENDBRANCH  12  13
ENDBRANCH   1  12
TORSDOF 16
ENDMDL
MODEL 9
REMARK VINA RESULT:    -4.199      1.394      1.891
REMARK INTER + INTRA:          -9.320
REMARK INTER:                  -8.137
REMARK INTRA:                  -1.182
REMARK UNBOUND:                -1.193
REMARK SMILES CCCCCCCCCCCCCCCCCC(=O)[O-]
REMARK SMILES IDX 10 1 11 2 12 3 13 4 14 5 15 6 16 7 17 8 18 9 19 10 20 11
REMARK SMILES IDX 9 12 8 13 7 14 6 15 5 16 4 17 3 18 2 19 1 20
REMARK H PARENT
REMARK Flexibility Score: inf
ROOT
ATOM      1  C   UNL     1      11.288  48.892  97.321  1.00  0.00     0.000 C 
ENDROOT
BRANCH   1   2
ATOM      2  C   UNL     1      12.601  49.648  97.582  1.00  0.00     0.000 C 
BRANCH   2   3
ATOM      3  C   UNL     1      13.565  49.496  96.395  1.00  0.00     0.000 C 
BRANCH   3   4
ATOM      4  C   UNL     1      14.246  50.819  96.010  1.00  0.00     0.000 C 
BRANCH   4   5
ATOM      5  C   UNL     1      15.459  50.612  95.086  1.00  0.00     0.000 C 
BRANCH   5   6
ATOM      6  C   UNL     1      15.637  49.143  94.667  1.00  0.00     0.000 C 
BRANCH   6   7
ATOM      7  C   UNL     1      15.946  48.987  93.168  1.00  0.00     0.006 C 
BRANCH   7   8
ATOM      8  C   UNL     1      15.983  47.515  92.735  1.00  0.00     0.053 C 
BRANCH   8   9
ATOM      9  C   UNL     1      17.340  46.913  92.937  1.00  0.00     0.041 C 
ATOM     10  O   UNL     1      17.601  46.276  93.990  1.00  0.00    -0.550 OA
ATOM     11  O   UNL     1      18.304  47.026  91.944  1.00  0.00    -0.550 OA
ENDBRANCH   8   9
ENDBRANCH   7   8
ENDBRANCH   6   7
ENDBRANCH   5   6
ENDBRANCH   4   5
ENDBRANCH   3   4
ENDBRANCH   2   3
ENDBRANCH   1   2
BRANCH   1  12
ATOM     12  C   UNL     1      11.297  48.126  95.989  1.00  0.00     0.000 C 
BRANCH  12  13
ATOM     13  C   UNL     1      10.028  48.375  95.155  1.00  0.00    -0.000 C 
BRANCH  13  14
ATOM     14  C   UNL     1      10.288  48.282  93.642  1.00  0.00    -0.000 C 
BRANCH  14  15
ATOM     15  C   UNL     1      11.253  47.140  93.277  1.00  0.00    -0.000 C 
BRANCH  15  16
ATOM     16  C   UNL     1      10.641  45.751  93.521  1.00  0.00    -0.000 C 
BRANCH  16  17
ATOM     17  C   UNL     1      11.430  44.628  92.823  1.00  0.00    -0.000 C 
BRANCH  17  18
ATOM     18  C   UNL     1      11.869  43.514  93.791  1.00  0.00    -0.000 C 
BRANCH  18  19
ATOM     19  C   UNL     1      11.058  43.434  95.098  1.00  0.00    -0.003 C 
ATOM     20  C   UNL     1      11.279  42.129  95.860  1.00  0.00     0.004 C 
ENDBRANCH  18  19
ENDBRANCH  17  18
ENDBRANCH  16  17
ENDBRANCH  15  16
ENDBRANCH  14  15
ENDBRANCH  13  14
ENDBRANCH  12  13
ENDBRANCH   1  12
TORSDOF 16
ENDMDL
