MODEL 1
REMARK VINA RESULT:     0.698      0.000      0.000
REMARK INTER + INTRA:          -0.399
REMARK INTER:                   1.840
REMARK INTRA:                  -2.239
REMARK UNBOUND:                -2.239
REMARK SMILES CCCCCCCCCCCCCCCCCCCCCCCCCCCCCC(=O)[O-]
REMARK SMILES IDX 16 1 17 2 18 3 19 4 20 5 21 6 22 7 23 8 24 9 25 10 26 11
REMARK SMILES IDX 27 12 28 13 29 14 30 15 31 16 32 17 15 18 14 19 13 20 12 21
REMARK SMILES IDX 11 22 10 23 9 24 8 25 7 26 6 27 5 28 4 29 3 30 2 31 1 32
REMARK H PARENT
REMARK Flexibility Score: inf
ROOT
ATOM      1  C   UNL     1      53.230  79.150  36.098  1.00  0.00     0.000 C 
ENDROOT
BRANCH   1   2
ATOM      2  C   UNL     1      53.497  79.510  34.626  1.00  0.00     0.000 C 
BRANCH   2   3
ATOM      3  C   UNL     1      53.681  81.020  34.401  1.00  0.00     0.000 C 
BRANCH   3   4
ATOM      4  C   UNL     1      53.900  81.376  32.920  1.00  0.00     0.000 C 
BRANCH   4   5
ATOM      5  C   UNL     1      55.358  81.764  32.618  1.00  0.00     0.000 C 
BRANCH   5   6
ATOM      6  C   UNL     1      55.567  83.290  32.599  1.00  0.00     0.000 C 
BRANCH   6   7
ATOM      7  C   UNL     1      56.452  83.746  31.426  1.00  0.00     0.000 C 
BRANCH   7   8
ATOM      8  C   UNL     1      55.672  84.550  30.377  1.00  0.00     0.000 C 
BRANCH   8   9
ATOM      9  C   UNL     1      54.841  83.621  29.485  1.00  0.00     0.000 C 
BRANCH   9  10
ATOM     10  C   UNL     1      53.347  83.971  29.554  1.00  0.00     0.000 C 
BRANCH  10  11
ATOM     11  C   UNL     1      53.044  85.125  30.527  1.00  0.00     0.000 C 
BRANCH  11  12
ATOM     12  C   UNL     1      52.261  84.720  31.790  1.00  0.00     0.000 C 
BRANCH  12  13
ATOM     13  C   UNL     1      50.899  84.082  31.468  1.00  0.00     0.006 C 
BRANCH  13  14
ATOM     14  C   UNL     1      49.775  84.649  32.346  1.00  0.00     0.053 C 
BRANCH  14  15
ATOM     15  C   UNL     1      48.598  83.726  32.398  1.00  0.00     0.041 C 
ATOM     16  O   UNL     1      48.056  83.326  31.335  1.00  0.00    -0.550 OA
ATOM     17  O   UNL     1      48.122  83.276  33.623  1.00  0.00    -0.550 OA
ENDBRANCH  14  15
ENDBRANCH  13  14
ENDBRANCH  12  13
ENDBRANCH  11  12
ENDBRANCH  10  11
ENDBRANCH   9  10
ENDBRANCH   8   9
ENDBRANCH   7   8
ENDBRANCH   6   7
ENDBRANCH   5   6
ENDBRANCH   4   5
ENDBRANCH   3   4
ENDBRANCH   2   3
ENDBRANCH   1   2
BRANCH   1  18
ATOM     18  C   UNL     1      53.514  80.321  37.058  1.00  0.00     0.000 C 
BRANCH  18  19
ATOM     19  C   UNL     1      52.804  80.230  38.424  1.00  0.00     0.000 C 
BRANCH  19  20
ATOM     20  C   UNL     1      51.338  80.705  38.426  1.00  0.00     0.000 C 
BRANCH  20  21
ATOM     21  C   UNL     1      50.383  79.845  39.273  1.00  0.00     0.000 C 
BRANCH  21  22
ATOM     22  C   UNL     1      49.001  80.496  39.450  1.00  0.00     0.000 C 
BRANCH  22  23
ATOM     23  C   UNL     1      48.449  80.257  40.863  1.00  0.00     0.000 C 
BRANCH  23  24
ATOM     24  C   UNL     1      47.936  81.554  41.519  1.00  0.00    -0.000 C 
BRANCH  24  25
ATOM     25  C   UNL     1      48.824  82.775  41.220  1.00  0.00    -0.000 C 
BRANCH  25  26
ATOM     26  C   UNL     1      49.201  83.556  42.497  1.00  0.00    -0.000 C 
BRANCH  26  27
ATOM     27  C   UNL     1      48.183  83.366  43.635  1.00  0.00    -0.000 C 
BRANCH  27  28
ATOM     28  C   UNL     1      48.669  82.415  44.747  1.00  0.00    -0.000 C 
BRANCH  28  29
ATOM     29  C   UNL     1      48.922  83.144  46.075  1.00  0.00    -0.000 C 
BRANCH  29  30
ATOM     30  C   UNL     1      49.131  82.143  47.223  1.00  0.00    -0.000 C 
BRANCH  30  31
ATOM     31  C   UNL     1      48.677  80.721  46.854  1.00  0.00    -0.003 C 
ATOM     32  C   UNL     1      48.885  79.722  47.993  1.00  0.00     0.004 C 
ENDBRANCH  30  31
ENDBRANCH  29  30
ENDBRANCH  28  29
ENDBRANCH  27  28
ENDBRANCH  26  27
ENDBRANCH  25  26
ENDBRANCH  24  25
ENDBRANCH  23  24
ENDBRANCH  22  23
ENDBRANCH  21  22
ENDBRANCH  20  21
ENDBRANCH  19  20
ENDBRANCH  18  19
ENDBRANCH   1  18
TORSDOF 28
ENDMDL
MODEL 2
REMARK VINA RESULT:     0.905      1.321      2.270
REMARK INTER + INTRA:           0.147
REMARK INTER:                   2.022
REMARK INTRA:                  -1.875
REMARK UNBOUND:                -2.239
REMARK SMILES CCCCCCCCCCCCCCCCCCCCCCCCCCCCCC(=O)[O-]
REMARK SMILES IDX 16 1 17 2 18 3 19 4 20 5 21 6 22 7 23 8 24 9 25 10 26 11
REMARK SMILES IDX 27 12 28 13 29 14 30 15 31 16 32 17 15 18 14 19 13 20 12 21
REMARK SMILES IDX 11 22 10 23 9 24 8 25 7 26 6 27 5 28 4 29 3 30 2 31 1 32
REMARK H PARENT
REMARK Flexibility Score: inf
ROOT
ATOM      1  C   UNL     1      52.809  80.485  37.602  1.00  0.00     0.000 C 
ENDROOT
BRANCH   1   2
ATOM      2  C   UNL     1      53.681  79.557  36.737  1.00  0.00     0.000 C 
BRANCH   2   3
ATOM      3  C   UNL     1      53.320  79.614  35.244  1.00  0.00     0.000 C 
BRANCH   3   4
ATOM      4  C   UNL     1      54.008  80.779  34.511  1.00  0.00     0.000 C 
BRANCH   4   5
ATOM      5  C   UNL     1      53.491  80.954  33.073  1.00  0.00     0.000 C 
BRANCH   5   6
ATOM      6  C   UNL     1      54.308  81.990  32.277  1.00  0.00     0.000 C 
BRANCH   6   7
ATOM      7  C   UNL     1      54.505  81.579  30.808  1.00  0.00     0.000 C 
BRANCH   7   8
ATOM      8  C   UNL     1      54.209  82.724  29.830  1.00  0.00     0.000 C 
BRANCH   8   9
ATOM      9  C   UNL     1      52.907  83.440  30.208  1.00  0.00     0.000 C 
BRANCH   9  10
ATOM     10  C   UNL     1      51.688  82.750  29.577  1.00  0.00     0.000 C 
BRANCH  10  11
ATOM     11  C   UNL     1      50.791  82.049  30.614  1.00  0.00     0.000 C 
BRANCH  11  12
ATOM     12  C   UNL     1      49.387  82.661  30.775  1.00  0.00     0.000 C 
BRANCH  12  13
ATOM     13  C   UNL     1      49.353  84.168  30.470  1.00  0.00     0.006 C 
BRANCH  13  14
ATOM     14  C   UNL     1      48.609  84.960  31.555  1.00  0.00     0.053 C 
BRANCH  14  15
ATOM     15  C   UNL     1      49.158  84.676  32.918  1.00  0.00     0.041 C 
ATOM     16  O   UNL     1      48.402  84.260  33.833  1.00  0.00    -0.550 OA
ATOM     17  O   UNL     1      50.515  84.837  33.166  1.00  0.00    -0.550 OA
ENDBRANCH  14  15
ENDBRANCH  13  14
ENDBRANCH  12  13
ENDBRANCH  11  12
ENDBRANCH  10  11
ENDBRANCH   9  10
ENDBRANCH   8   9
ENDBRANCH   7   8
ENDBRANCH   6   7
ENDBRANCH   5   6
ENDBRANCH   4   5
ENDBRANCH   3   4
ENDBRANCH   2   3
ENDBRANCH   1   2
BRANCH   1  18
ATOM     18  C   UNL     1      51.475  79.835  38.013  1.00  0.00     0.000 C 
BRANCH  18  19
ATOM     19  C   UNL     1      50.666  80.618  39.065  1.00  0.00     0.000 C 
BRANCH  19  20
ATOM     20  C   UNL     1      49.437  79.876  39.624  1.00  0.00     0.000 C 
BRANCH  20  21
ATOM     21  C   UNL     1      48.278  80.788  40.065  1.00  0.00     0.000 C 
BRANCH  21  22
ATOM     22  C   UNL     1      48.556  81.492  41.403  1.00  0.00     0.000 C 
BRANCH  22  23
ATOM     23  C   UNL     1      48.826  82.990  41.199  1.00  0.00     0.000 C 
BRANCH  23  24
ATOM     24  C   UNL     1      47.961  83.872  42.122  1.00  0.00    -0.000 C 
BRANCH  24  25
ATOM     25  C   UNL     1      48.134  83.538  43.614  1.00  0.00    -0.000 C 
BRANCH  25  26
ATOM     26  C   UNL     1      49.572  83.798  44.113  1.00  0.00    -0.000 C 
BRANCH  26  27
ATOM     27  C   UNL     1      49.619  84.278  45.574  1.00  0.00    -0.000 C 
BRANCH  27  28
ATOM     28  C   UNL     1      48.506  83.681  46.457  1.00  0.00    -0.000 C 
BRANCH  28  29
ATOM     29  C   UNL     1      49.000  82.503  47.310  1.00  0.00    -0.000 C 
BRANCH  29  30
ATOM     30  C   UNL     1      49.084  81.215  46.476  1.00  0.00    -0.000 C 
BRANCH  30  31
ATOM     31  C   UNL     1      48.693  79.965  47.282  1.00  0.00    -0.003 C 
ATOM     32  C   UNL     1      48.847  78.673  46.479  1.00  0.00     0.004 C 
ENDBRANCH  30  31
ENDBRANCH  29  30
ENDBRANCH  28  29
ENDBRANCH  27  28
ENDBRANCH  26  27
ENDBRANCH  25  26
ENDBRANCH  24  25
ENDBRANCH  23  24
ENDBRANCH  22  23
ENDBRANCH  21  22
ENDBRANCH  20  21
ENDBRANCH  19  20
ENDBRANCH  18  19
ENDBRANCH   1  18
TORSDOF 28
ENDMDL
MODEL 3
REMARK VINA RESULT:     1.100      1.239      2.839
REMARK INTER + INTRA:           0.661
REMARK INTER:                   2.677
REMARK INTRA:                  -2.016
REMARK UNBOUND:                -2.239
REMARK SMILES CCCCCCCCCCCCCCCCCCCCCCCCCCCCCC(=O)[O-]
REMARK SMILES IDX 16 1 17 2 18 3 19 4 20 5 21 6 22 7 23 8 24 9 25 10 26 11
REMARK SMILES IDX 27 12 28 13 29 14 30 15 31 16 32 17 15 18 14 19 13 20 12 21
REMARK SMILES IDX 11 22 10 23 9 24 8 25 7 26 6 27 5 28 4 29 3 30 2 31 1 32
REMARK H PARENT
REMARK Flexibility Score: inf
ROOT
ATOM      1  C   UNL     1      53.777  81.006  33.166  1.00  0.00     0.000 C 
ENDROOT
BRANCH   1   2
ATOM      2  C   UNL     1      55.012  81.583  32.452  1.00  0.00     0.000 C 
BRANCH   2   3
ATOM      3  C   UNL     1      55.337  83.023  32.882  1.00  0.00     0.000 C 
BRANCH   3   4
ATOM      4  C   UNL     1      55.497  83.978  31.687  1.00  0.00     0.000 C 
BRANCH   4   5
ATOM      5  C   UNL     1      56.454  83.424  30.617  1.00  0.00     0.000 C 
BRANCH   5   6
ATOM      6  C   UNL     1      55.759  83.217  29.257  1.00  0.00     0.000 C 
BRANCH   6   7
ATOM      7  C   UNL     1      54.716  82.087  29.297  1.00  0.00     0.000 C 
BRANCH   7   8
ATOM      8  C   UNL     1      53.317  82.561  28.879  1.00  0.00     0.000 C 
BRANCH   8   9
ATOM      9  C   UNL     1      53.169  84.073  29.085  1.00  0.00     0.000 C 
BRANCH   9  10
ATOM     10  C   UNL     1      51.848  84.412  29.790  1.00  0.00     0.000 C 
BRANCH  10  11
ATOM     11  C   UNL     1      51.035  83.163  30.178  1.00  0.00     0.000 C 
BRANCH  11  12
ATOM     12  C   UNL     1      49.506  83.336  30.108  1.00  0.00     0.000 C 
BRANCH  12  13
ATOM     13  C   UNL     1      48.835  83.284  31.491  1.00  0.00     0.006 C 
BRANCH  13  14
ATOM     14  C   UNL     1      48.650  84.683  32.095  1.00  0.00     0.053 C 
BRANCH  14  15
ATOM     15  C   UNL     1      49.579  84.914  33.246  1.00  0.00     0.041 C 
ATOM     16  O   UNL     1      49.146  84.883  34.427  1.00  0.00    -0.550 OA
ATOM     17  O   UNL     1      50.932  85.125  33.014  1.00  0.00    -0.550 OA
ENDBRANCH  14  15
ENDBRANCH  13  14
ENDBRANCH  12  13
ENDBRANCH  11  12
ENDBRANCH  10  11
ENDBRANCH   9  10
ENDBRANCH   8   9
ENDBRANCH   7   8
ENDBRANCH   6   7
ENDBRANCH   5   6
ENDBRANCH   4   5
ENDBRANCH   3   4
ENDBRANCH   2   3
ENDBRANCH   1   2
BRANCH   1  18
ATOM     18  C   UNL     1      53.953  80.932  34.694  1.00  0.00     0.000 C 
BRANCH  18  19
ATOM     19  C   UNL     1      53.445  79.630  35.346  1.00  0.00     0.000 C 
BRANCH  19  20
ATOM     20  C   UNL     1      53.504  79.608  36.885  1.00  0.00     0.000 C 
BRANCH  20  21
ATOM     21  C   UNL     1      52.994  80.889  37.569  1.00  0.00     0.000 C 
BRANCH  21  22
ATOM     22  C   UNL     1      52.182  80.596  38.841  1.00  0.00     0.000 C 
BRANCH  22  23
ATOM     23  C   UNL     1      50.783  80.062  38.499  1.00  0.00     0.000 C 
BRANCH  23  24
ATOM     24  C   UNL     1      49.891  79.916  39.747  1.00  0.00    -0.000 C 
BRANCH  24  25
ATOM     25  C   UNL     1      48.654  80.832  39.717  1.00  0.00    -0.000 C 
BRANCH  25  26
ATOM     26  C   UNL     1      48.303  81.392  41.113  1.00  0.00    -0.000 C 
BRANCH  26  27
ATOM     27  C   UNL     1      49.009  82.724  41.418  1.00  0.00    -0.000 C 
BRANCH  27  28
ATOM     28  C   UNL     1      48.383  83.499  42.594  1.00  0.00    -0.000 C 
BRANCH  28  29
ATOM     29  C   UNL     1      48.259  82.644  43.863  1.00  0.00    -0.000 C 
BRANCH  29  30
ATOM     30  C   UNL     1      49.308  83.053  44.910  1.00  0.00    -0.000 C 
BRANCH  30  31
ATOM     31  C   UNL     1      48.898  82.659  46.339  1.00  0.00    -0.003 C 
ATOM     32  C   UNL     1      49.691  81.465  46.872  1.00  0.00     0.004 C 
ENDBRANCH  30  31
ENDBRANCH  29  30
ENDBRANCH  28  29
ENDBRANCH  27  28
ENDBRANCH  26  27
ENDBRANCH  25  26
ENDBRANCH  24  25
ENDBRANCH  23  24
ENDBRANCH  22  23
ENDBRANCH  21  22
ENDBRANCH  20  21
ENDBRANCH  19  20
ENDBRANCH  18  19
ENDBRANCH   1  18
TORSDOF 28
ENDMDL
MODEL 4
REMARK VINA RESULT:     1.599      1.705      2.303
REMARK INTER + INTRA:           1.978
REMARK INTER:                   4.166
REMARK INTRA:                  -2.189
REMARK UNBOUND:                -2.239
REMARK SMILES CCCCCCCCCCCCCCCCCCCCCCCCCCCCCC(=O)[O-]
REMARK SMILES IDX 16 1 17 2 18 3 19 4 20 5 21 6 22 7 23 8 24 9 25 10 26 11
REMARK SMILES IDX 27 12 28 13 29 14 30 15 31 16 32 17 15 18 14 19 13 20 12 21
REMARK SMILES IDX 11 22 10 23 9 24 8 25 7 26 6 27 5 28 4 29 3 30 2 31 1 32
REMARK H PARENT
REMARK Flexibility Score: inf
ROOT
ATOM      1  C   UNL     1      53.147  79.255  36.357  1.00  0.00     0.000 C 
ENDROOT
BRANCH   1   2
ATOM      2  C   UNL     1      53.516  79.426  34.873  1.00  0.00     0.000 C 
BRANCH   2   3
ATOM      3  C   UNL     1      53.114  80.799  34.308  1.00  0.00     0.000 C 
BRANCH   3   4
ATOM      4  C   UNL     1      53.573  80.999  32.853  1.00  0.00     0.000 C 
BRANCH   4   5
ATOM      5  C   UNL     1      54.509  82.210  32.695  1.00  0.00     0.000 C 
BRANCH   5   6
ATOM      6  C   UNL     1      53.749  83.549  32.734  1.00  0.00     0.000 C 
BRANCH   6   7
ATOM      7  C   UNL     1      54.685  84.760  32.583  1.00  0.00     0.000 C 
BRANCH   7   8
ATOM      8  C   UNL     1      55.324  84.841  31.190  1.00  0.00     0.000 C 
BRANCH   8   9
ATOM      9  C   UNL     1      56.808  84.459  31.247  1.00  0.00     0.000 C 
BRANCH   9  10
ATOM     10  C   UNL     1      57.237  83.703  29.981  1.00  0.00     0.000 C 
BRANCH  10  11
ATOM     11  C   UNL     1      56.166  83.724  28.875  1.00  0.00     0.000 C 
BRANCH  11  12
ATOM     12  C   UNL     1      55.139  82.579  28.944  1.00  0.00     0.000 C 
BRANCH  12  13
ATOM     13  C   UNL     1      53.685  83.080  28.927  1.00  0.00     0.006 C 
BRANCH  13  14
ATOM     14  C   UNL     1      52.677  81.926  29.024  1.00  0.00     0.053 C 
BRANCH  14  15
ATOM     15  C   UNL     1      51.450  82.329  29.779  1.00  0.00     0.041 C 
ATOM     16  O   UNL     1      50.870  83.415  29.516  1.00  0.00    -0.550 OA
ATOM     17  O   UNL     1      50.923  81.487  30.750  1.00  0.00    -0.550 OA
ENDBRANCH  14  15
ENDBRANCH  13  14
ENDBRANCH  12  13
ENDBRANCH  11  12
ENDBRANCH  10  11
ENDBRANCH   9  10
ENDBRANCH   8   9
ENDBRANCH   7   8
ENDBRANCH   6   7
ENDBRANCH   5   6
ENDBRANCH   4   5
ENDBRANCH   3   4
ENDBRANCH   2   3
ENDBRANCH   1   2
BRANCH   1  18
ATOM     18  C   UNL     1      53.880  80.254  37.272  1.00  0.00     0.000 C 
BRANCH  18  19
ATOM     19  C   UNL     1      53.133  80.618  38.570  1.00  0.00     0.000 C 
BRANCH  19  20
ATOM     20  C   UNL     1      51.633  80.918  38.394  1.00  0.00     0.000 C 
BRANCH  20  21
ATOM     21  C   UNL     1      50.693  80.001  39.197  1.00  0.00     0.000 C 
BRANCH  21  22
ATOM     22  C   UNL     1      49.356  80.679  39.540  1.00  0.00     0.000 C 
BRANCH  22  23
ATOM     23  C   UNL     1      48.811  80.187  40.889  1.00  0.00     0.000 C 
BRANCH  23  24
ATOM     24  C   UNL     1      48.201  81.328  41.726  1.00  0.00    -0.000 C 
BRANCH  24  25
ATOM     25  C   UNL     1      48.659  82.725  41.270  1.00  0.00    -0.000 C 
BRANCH  25  26
ATOM     26  C   UNL     1      49.042  83.636  42.456  1.00  0.00    -0.000 C 
BRANCH  26  27
ATOM     27  C   UNL     1      48.430  83.170  43.788  1.00  0.00    -0.000 C 
BRANCH  27  28
ATOM     28  C   UNL     1      49.164  83.715  45.030  1.00  0.00    -0.000 C 
BRANCH  28  29
ATOM     29  C   UNL     1      49.721  82.595  45.922  1.00  0.00    -0.000 C 
BRANCH  29  30
ATOM     30  C   UNL     1      48.624  82.010  46.824  1.00  0.00    -0.000 C 
BRANCH  30  31
ATOM     31  C   UNL     1      48.752  80.487  46.995  1.00  0.00    -0.003 C 
ATOM     32  C   UNL     1      48.335  79.717  45.742  1.00  0.00     0.004 C 
ENDBRANCH  30  31
ENDBRANCH  29  30
ENDBRANCH  28  29
ENDBRANCH  27  28
ENDBRANCH  26  27
ENDBRANCH  25  26
ENDBRANCH  24  25
ENDBRANCH  23  24
ENDBRANCH  22  23
ENDBRANCH  21  22
ENDBRANCH  20  21
ENDBRANCH  19  20
ENDBRANCH  18  19
ENDBRANCH   1  18
TORSDOF 28
ENDMDL
MODEL 5
REMARK VINA RESULT:     1.705      2.414      3.855
REMARK INTER + INTRA:           2.256
REMARK INTER:                   4.472
REMARK INTRA:                  -2.216
REMARK UNBOUND:                -2.239
REMARK SMILES CCCCCCCCCCCCCCCCCCCCCCCCCCCCCC(=O)[O-]
REMARK SMILES IDX 16 1 17 2 18 3 19 4 20 5 21 6 22 7 23 8 24 9 25 10 26 11
REMARK SMILES IDX 27 12 28 13 29 14 30 15 31 16 32 17 15 18 14 19 13 20 12 21
REMARK SMILES IDX 11 22 10 23 9 24 8 25 7 26 6 27 5 28 4 29 3 30 2 31 1 32
REMARK H PARENT
REMARK Flexibility Score: inf
ROOT
ATOM      1  C   UNL     1      52.939  80.679  37.811  1.00  0.00     0.000 C 
ENDROOT
BRANCH   1   2
ATOM      2  C   UNL     1      53.806  79.602  37.135  1.00  0.00     0.000 C 
BRANCH   2   3
ATOM      3  C   UNL     1      53.602  79.536  35.613  1.00  0.00     0.000 C 
BRANCH   3   4
ATOM      4  C   UNL     1      53.586  80.927  34.955  1.00  0.00     0.000 C 
BRANCH   4   5
ATOM      5  C   UNL     1      53.801  80.859  33.433  1.00  0.00     0.000 C 
BRANCH   5   6
ATOM      6  C   UNL     1      52.591  81.396  32.645  1.00  0.00     0.000 C 
BRANCH   6   7
ATOM      7  C   UNL     1      52.856  82.785  32.037  1.00  0.00     0.000 C 
BRANCH   7   8
ATOM      8  C   UNL     1      51.791  83.191  31.010  1.00  0.00     0.000 C 
BRANCH   8   9
ATOM      9  C   UNL     1      51.417  82.006  30.112  1.00  0.00     0.000 C 
BRANCH   9  10
ATOM     10  C   UNL     1      52.347  81.916  28.893  1.00  0.00     0.000 C 
BRANCH  10  11
ATOM     11  C   UNL     1      53.382  80.782  29.008  1.00  0.00     0.000 C 
BRANCH  11  12
ATOM     12  C   UNL     1      54.815  81.242  29.335  1.00  0.00     0.000 C 
BRANCH  12  13
ATOM     13  C   UNL     1      55.021  82.751  29.120  1.00  0.00     0.006 C 
BRANCH  13  14
ATOM     14  C   UNL     1      56.333  83.248  29.744  1.00  0.00     0.053 C 
BRANCH  14  15
ATOM     15  C   UNL     1      56.096  83.920  31.060  1.00  0.00     0.041 C 
ATOM     16  O   UNL     1      56.548  83.417  32.121  1.00  0.00    -0.550 OA
ATOM     17  O   UNL     1      55.407  85.125  31.110  1.00  0.00    -0.550 OA
ENDBRANCH  14  15
ENDBRANCH  13  14
ENDBRANCH  12  13
ENDBRANCH  11  12
ENDBRANCH  10  11
ENDBRANCH   9  10
ENDBRANCH   8   9
ENDBRANCH   7   8
ENDBRANCH   6   7
ENDBRANCH   5   6
ENDBRANCH   4   5
ENDBRANCH   3   4
ENDBRANCH   2   3
ENDBRANCH   1   2
BRANCH   1  18
ATOM     18  C   UNL     1      51.442  80.317  37.824  1.00  0.00     0.000 C 
BRANCH  18  19
ATOM     19  C   UNL     1      50.788  80.301  39.220  1.00  0.00     0.000 C 
BRANCH  19  20
ATOM     20  C   UNL     1      49.371  79.697  39.267  1.00  0.00     0.000 C 
BRANCH  20  21
ATOM     21  C   UNL     1      48.288  80.636  39.827  1.00  0.00     0.000 C 
BRANCH  21  22
ATOM     22  C   UNL     1      48.877  81.905  40.464  1.00  0.00     0.000 C 
BRANCH  22  23
ATOM     23  C   UNL     1      47.978  82.432  41.592  1.00  0.00     0.000 C 
BRANCH  23  24
ATOM     24  C   UNL     1      48.788  83.051  42.747  1.00  0.00    -0.000 C 
BRANCH  24  25
ATOM     25  C   UNL     1      47.999  84.104  43.544  1.00  0.00    -0.000 C 
BRANCH  25  26
ATOM     26  C   UNL     1      48.025  83.834  45.064  1.00  0.00    -0.000 C 
BRANCH  26  27
ATOM     27  C   UNL     1      49.144  82.864  45.479  1.00  0.00    -0.000 C 
BRANCH  27  28
ATOM     28  C   UNL     1      49.241  82.647  47.002  1.00  0.00    -0.000 C 
BRANCH  28  29
ATOM     29  C   UNL     1      47.929  82.126  47.607  1.00  0.00    -0.000 C 
BRANCH  29  30
ATOM     30  C   UNL     1      48.202  81.148  48.760  1.00  0.00    -0.000 C 
BRANCH  30  31
ATOM     31  C   UNL     1      49.217  80.057  48.379  1.00  0.00    -0.003 C 
ATOM     32  C   UNL     1      48.691  79.116  47.294  1.00  0.00     0.004 C 
ENDBRANCH  30  31
ENDBRANCH  29  30
ENDBRANCH  28  29
ENDBRANCH  27  28
ENDBRANCH  26  27
ENDBRANCH  25  26
ENDBRANCH  24  25
ENDBRANCH  23  24
ENDBRANCH  22  23
ENDBRANCH  21  22
ENDBRANCH  20  21
ENDBRANCH  19  20
ENDBRANCH  18  19
ENDBRANCH   1  18
TORSDOF 28
ENDMDL
MODEL 6
REMARK VINA RESULT:     2.009      1.582      2.646
REMARK INTER + INTRA:           3.058
REMARK INTER:                   5.197
REMARK INTRA:                  -2.138
REMARK UNBOUND:                -2.239
REMARK SMILES CCCCCCCCCCCCCCCCCCCCCCCCCCCCCC(=O)[O-]
REMARK SMILES IDX 16 1 17 2 18 3 19 4 20 5 21 6 22 7 23 8 24 9 25 10 26 11
REMARK SMILES IDX 27 12 28 13 29 14 30 15 31 16 32 17 15 18 14 19 13 20 12 21
REMARK SMILES IDX 11 22 10 23 9 24 8 25 7 26 6 27 5 28 4 29 3 30 2 31 1 32
REMARK H PARENT
REMARK Flexibility Score: inf
ROOT
ATOM      1  C   UNL     1      52.783  80.439  37.577  1.00  0.00     0.000 C 
ENDROOT
BRANCH   1   2
ATOM      2  C   UNL     1      53.561  79.636  36.519  1.00  0.00     0.000 C 
BRANCH   2   3
ATOM      3  C   UNL     1      53.262  80.090  35.081  1.00  0.00     0.000 C 
BRANCH   3   4
ATOM      4  C   UNL     1      54.253  81.154  34.577  1.00  0.00     0.000 C 
BRANCH   4   5
ATOM      5  C   UNL     1      53.924  81.634  33.153  1.00  0.00     0.000 C 
BRANCH   5   6
ATOM      6  C   UNL     1      52.973  80.673  32.414  1.00  0.00     0.000 C 
BRANCH   6   7
ATOM      7  C   UNL     1      51.755  81.397  31.816  1.00  0.00     0.000 C 
BRANCH   7   8
ATOM      8  C   UNL     1      51.566  81.098  30.323  1.00  0.00     0.000 C 
BRANCH   8   9
ATOM      9  C   UNL     1      52.920  80.973  29.615  1.00  0.00     0.000 C 
BRANCH   9  10
ATOM     10  C   UNL     1      53.289  82.273  28.884  1.00  0.00     0.000 C 
BRANCH  10  11
ATOM     11  C   UNL     1      54.264  83.156  29.683  1.00  0.00     0.000 C 
BRANCH  11  12
ATOM     12  C   UNL     1      53.596  84.227  30.566  1.00  0.00     0.000 C 
BRANCH  12  13
ATOM     13  C   UNL     1      52.474  84.986  29.837  1.00  0.00     0.006 C 
BRANCH  13  14
ATOM     14  C   UNL     1      51.150  84.942  30.612  1.00  0.00     0.053 C 
BRANCH  14  15
ATOM     15  C   UNL     1      50.011  84.528  29.733  1.00  0.00     0.041 C 
ATOM     16  O   UNL     1      50.166  83.616  28.880  1.00  0.00    -0.550 OA
ATOM     17  O   UNL     1      48.766  85.125  29.883  1.00  0.00    -0.550 OA
ENDBRANCH  14  15
ENDBRANCH  13  14
ENDBRANCH  12  13
ENDBRANCH  11  12
ENDBRANCH  10  11
ENDBRANCH   9  10
ENDBRANCH   8   9
ENDBRANCH   7   8
ENDBRANCH   6   7
ENDBRANCH   5   6
ENDBRANCH   4   5
ENDBRANCH   3   4
ENDBRANCH   2   3
ENDBRANCH   1   2
BRANCH   1  18
ATOM     18  C   UNL     1      51.406  79.826  37.896  1.00  0.00     0.000 C 
BRANCH  18  19
ATOM     19  C   UNL     1      50.692  80.432  39.120  1.00  0.00     0.000 C 
BRANCH  19  20
ATOM     20  C   UNL     1      49.304  79.835  39.424  1.00  0.00     0.000 C 
BRANCH  20  21
ATOM     21  C   UNL     1      48.256  80.852  39.909  1.00  0.00     0.000 C 
BRANCH  21  22
ATOM     22  C   UNL     1      48.655  81.525  41.233  1.00  0.00     0.000 C 
BRANCH  22  23
ATOM     23  C   UNL     1      48.978  83.013  41.026  1.00  0.00     0.000 C 
BRANCH  23  24
ATOM     24  C   UNL     1      48.148  83.926  41.948  1.00  0.00    -0.000 C 
BRANCH  24  25
ATOM     25  C   UNL     1      48.062  83.408  43.395  1.00  0.00    -0.000 C 
BRANCH  25  26
ATOM     26  C   UNL     1      49.366  83.648  44.185  1.00  0.00    -0.000 C 
BRANCH  26  27
ATOM     27  C   UNL     1      49.113  84.028  45.654  1.00  0.00    -0.000 C 
BRANCH  27  28
ATOM     28  C   UNL     1      48.123  83.091  46.373  1.00  0.00    -0.000 C 
BRANCH  28  29
ATOM     29  C   UNL     1      48.424  81.607  46.114  1.00  0.00    -0.000 C 
BRANCH  29  30
ATOM     30  C   UNL     1      49.525  81.094  47.055  1.00  0.00    -0.000 C 
BRANCH  30  31
ATOM     31  C   UNL     1      49.219  79.693  47.611  1.00  0.00    -0.003 C 
ATOM     32  C   UNL     1      48.892  78.681  46.513  1.00  0.00     0.004 C 
ENDBRANCH  30  31
ENDBRANCH  29  30
ENDBRANCH  28  29
ENDBRANCH  27  28
ENDBRANCH  26  27
ENDBRANCH  25  26
ENDBRANCH  24  25
ENDBRANCH  23  24
ENDBRANCH  22  23
ENDBRANCH  21  22
ENDBRANCH  20  21
ENDBRANCH  19  20
ENDBRANCH  18  19
ENDBRANCH   1  18
TORSDOF 28
ENDMDL
MODEL 7
REMARK VINA RESULT:     2.027      3.609     11.441
REMARK INTER + INTRA:           3.105
REMARK INTER:                   4.828
REMARK INTRA:                  -1.723
REMARK UNBOUND:                -2.239
REMARK SMILES CCCCCCCCCCCCCCCCCCCCCCCCCCCCCC(=O)[O-]
REMARK SMILES IDX 16 1 17 2 18 3 19 4 20 5 21 6 22 7 23 8 24 9 25 10 26 11
REMARK SMILES IDX 27 12 28 13 29 14 30 15 31 16 32 17 15 18 14 19 13 20 12 21
REMARK SMILES IDX 11 22 10 23 9 24 8 25 7 26 6 27 5 28 4 29 3 30 2 31 1 32
REMARK H PARENT
REMARK Flexibility Score: inf
ROOT
ATOM      1  C   UNL     1      53.562  80.113  33.827  1.00  0.00     0.000 C 
ENDROOT
BRANCH   1   2
ATOM      2  C   UNL     1      53.001  80.588  35.179  1.00  0.00     0.000 C 
BRANCH   2   3
ATOM      3  C   UNL     1      53.463  79.720  36.360  1.00  0.00     0.000 C 
BRANCH   3   4
ATOM      4  C   UNL     1      53.951  80.556  37.556  1.00  0.00     0.000 C 
BRANCH   4   5
ATOM      5  C   UNL     1      52.926  80.594  38.702  1.00  0.00     0.000 C 
BRANCH   5   6
ATOM      6  C   UNL     1      51.513  80.189  38.241  1.00  0.00     0.000 C 
BRANCH   6   7
ATOM      7  C   UNL     1      50.486  80.238  39.385  1.00  0.00     0.000 C 
BRANCH   7   8
ATOM      8  C   UNL     1      49.183  79.505  39.039  1.00  0.00     0.000 C 
BRANCH   8   9
ATOM      9  C   UNL     1      48.021  80.023  39.894  1.00  0.00     0.000 C 
BRANCH   9  10
ATOM     10  C   UNL     1      48.130  81.538  40.123  1.00  0.00     0.000 C 
BRANCH  10  11
ATOM     11  C   UNL     1      48.434  81.904  41.588  1.00  0.00     0.000 C 
BRANCH  11  12
ATOM     12  C   UNL     1      48.181  83.378  41.954  1.00  0.00     0.000 C 
BRANCH  12  13
ATOM     13  C   UNL     1      49.208  83.928  42.958  1.00  0.00     0.006 C 
BRANCH  13  14
ATOM     14  C   UNL     1      48.555  84.332  44.288  1.00  0.00     0.053 C 
BRANCH  14  15
ATOM     15  C   UNL     1      49.475  84.100  45.445  1.00  0.00     0.041 C 
ATOM     16  O   UNL     1      49.185  84.545  46.586  1.00  0.00    -0.550 OA
ATOM     17  O   UNL     1      50.637  83.360  45.271  1.00  0.00    -0.550 OA
ENDBRANCH  14  15
ENDBRANCH  13  14
ENDBRANCH  12  13
ENDBRANCH  11  12
ENDBRANCH  10  11
ENDBRANCH   9  10
ENDBRANCH   8   9
ENDBRANCH   7   8
ENDBRANCH   6   7
ENDBRANCH   5   6
ENDBRANCH   4   5
ENDBRANCH   3   4
ENDBRANCH   2   3
ENDBRANCH   1   2
BRANCH   1  18
ATOM     18  C   UNL     1      53.813  81.274  32.846  1.00  0.00     0.000 C 
BRANCH  18  19
ATOM     19  C   UNL     1      55.012  82.177  33.198  1.00  0.00     0.000 C 
BRANCH  19  20
ATOM     20  C   UNL     1      55.689  82.857  31.993  1.00  0.00     0.000 C 
BRANCH  20  21
ATOM     21  C   UNL     1      55.516  84.385  31.933  1.00  0.00     0.000 C 
BRANCH  21  22
ATOM     22  C   UNL     1      55.736  84.949  30.520  1.00  0.00     0.000 C 
BRANCH  22  23
ATOM     23  C   UNL     1      54.676  84.425  29.539  1.00  0.00     0.000 C 
BRANCH  23  24
ATOM     24  C   UNL     1      53.244  84.791  29.973  1.00  0.00    -0.000 C 
BRANCH  24  25
ATOM     25  C   UNL     1      52.364  83.561  30.258  1.00  0.00    -0.000 C 
BRANCH  25  26
ATOM     26  C   UNL     1      51.785  82.939  28.969  1.00  0.00    -0.000 C 
BRANCH  26  27
ATOM     27  C   UNL     1      50.251  82.843  28.990  1.00  0.00    -0.000 C 
BRANCH  27  28
ATOM     28  C   UNL     1      49.594  83.668  30.114  1.00  0.00    -0.000 C 
BRANCH  28  29
ATOM     29  C   UNL     1      49.596  82.932  31.462  1.00  0.00    -0.000 C 
BRANCH  29  30
ATOM     30  C   UNL     1      48.992  83.808  32.571  1.00  0.00    -0.000 C 
BRANCH  30  31
ATOM     31  C   UNL     1      49.764  85.124  32.766  1.00  0.00    -0.003 C 
ATOM     32  C   UNL     1      51.196  84.901  33.254  1.00  0.00     0.004 C 
ENDBRANCH  30  31
ENDBRANCH  29  30
ENDBRANCH  28  29
ENDBRANCH  27  28
ENDBRANCH  26  27
ENDBRANCH  25  26
ENDBRANCH  24  25
ENDBRANCH  23  24
ENDBRANCH  22  23
ENDBRANCH  21  22
ENDBRANCH  20  21
ENDBRANCH  19  20
ENDBRANCH  18  19
ENDBRANCH   1  18
TORSDOF 28
ENDMDL
MODEL 8
REMARK VINA RESULT:     2.195      1.399      2.273
REMARK INTER + INTRA:           3.548
REMARK INTER:                   5.373
REMARK INTRA:                  -1.825
REMARK UNBOUND:                -2.239
REMARK SMILES CCCCCCCCCCCCCCCCCCCCCCCCCCCCCC(=O)[O-]
REMARK SMILES IDX 16 1 17 2 18 3 19 4 20 5 21 6 22 7 23 8 24 9 25 10 26 11
REMARK SMILES IDX 27 12 28 13 29 14 30 15 31 16 32 17 15 18 14 19 13 20 12 21
REMARK SMILES IDX 11 22 10 23 9 24 8 25 7 26 6 27 5 28 4 29 3 30 2 31 1 32
REMARK H PARENT
REMARK Flexibility Score: inf
ROOT
ATOM      1  C   UNL     1      53.214  80.525  33.778  1.00  0.00     0.000 C 
ENDROOT
BRANCH   1   2
ATOM      2  C   UNL     1      53.589  81.719  32.883  1.00  0.00     0.000 C 
BRANCH   2   3
ATOM      3  C   UNL     1      55.052  82.160  33.051  1.00  0.00     0.000 C 
BRANCH   3   4
ATOM      4  C   UNL     1      55.245  83.672  32.840  1.00  0.00     0.000 C 
BRANCH   4   5
ATOM      5  C   UNL     1      56.504  83.994  32.017  1.00  0.00     0.000 C 
BRANCH   5   6
ATOM      6  C   UNL     1      56.365  83.577  30.541  1.00  0.00     0.000 C 
BRANCH   6   7
ATOM      7  C   UNL     1      55.497  84.557  29.733  1.00  0.00     0.000 C 
BRANCH   7   8
ATOM      8  C   UNL     1      54.444  83.842  28.875  1.00  0.00     0.000 C 
BRANCH   8   9
ATOM      9  C   UNL     1      53.358  83.213  29.756  1.00  0.00     0.000 C 
BRANCH   9  10
ATOM     10  C   UNL     1      51.978  83.305  29.090  1.00  0.00     0.000 C 
BRANCH  10  11
ATOM     11  C   UNL     1      51.040  84.308  29.786  1.00  0.00     0.000 C 
BRANCH  11  12
ATOM     12  C   UNL     1      51.668  85.074  30.965  1.00  0.00     0.000 C 
BRANCH  12  13
ATOM     13  C   UNL     1      50.970  84.783  32.305  1.00  0.00     0.006 C 
BRANCH  13  14
ATOM     14  C   UNL     1      50.202  83.454  32.278  1.00  0.00     0.053 C 
BRANCH  14  15
ATOM     15  C   UNL     1      48.843  83.616  31.672  1.00  0.00     0.041 C 
ATOM     16  O   UNL     1      48.402  82.758  30.865  1.00  0.00    -0.550 OA
ATOM     17  O   UNL     1      48.049  84.698  32.028  1.00  0.00    -0.550 OA
ENDBRANCH  14  15
ENDBRANCH  13  14
ENDBRANCH  12  13
ENDBRANCH  11  12
ENDBRANCH  10  11
ENDBRANCH   9  10
ENDBRANCH   8   9
ENDBRANCH   7   8
ENDBRANCH   6   7
ENDBRANCH   5   6
ENDBRANCH   4   5
ENDBRANCH   3   4
ENDBRANCH   2   3
ENDBRANCH   1   2
BRANCH   1  18
ATOM     18  C   UNL     1      54.104  80.416  35.030  1.00  0.00     0.000 C 
BRANCH  18  19
ATOM     19  C   UNL     1      53.476  79.650  36.211  1.00  0.00     0.000 C 
BRANCH  19  20
ATOM     20  C   UNL     1      52.761  80.532  37.252  1.00  0.00     0.000 C 
BRANCH  20  21
ATOM     21  C   UNL     1      51.843  79.769  38.223  1.00  0.00     0.000 C 
BRANCH  21  22
ATOM     22  C   UNL     1      50.857  80.694  38.955  1.00  0.00     0.000 C 
BRANCH  22  23
ATOM     23  C   UNL     1      49.574  79.946  39.344  1.00  0.00     0.000 C 
BRANCH  23  24
ATOM     24  C   UNL     1      48.722  80.732  40.360  1.00  0.00    -0.000 C 
BRANCH  24  25
ATOM     25  C   UNL     1      48.217  82.078  39.812  1.00  0.00    -0.000 C 
BRANCH  25  26
ATOM     26  C   UNL     1      47.882  83.083  40.936  1.00  0.00    -0.000 C 
BRANCH  26  27
ATOM     27  C   UNL     1      48.521  82.706  42.284  1.00  0.00    -0.000 C 
BRANCH  27  28
ATOM     28  C   UNL     1      48.673  83.897  43.251  1.00  0.00    -0.000 C 
BRANCH  28  29
ATOM     29  C   UNL     1      50.121  84.088  43.726  1.00  0.00    -0.000 C 
BRANCH  29  30
ATOM     30  C   UNL     1      50.380  83.319  45.031  1.00  0.00    -0.000 C 
BRANCH  30  31
ATOM     31  C   UNL     1      49.337  83.634  46.117  1.00  0.00    -0.003 C 
ATOM     32  C   UNL     1      49.264  85.125  46.450  1.00  0.00     0.004 C 
ENDBRANCH  30  31
ENDBRANCH  29  30
ENDBRANCH  28  29
ENDBRANCH  27  28
ENDBRANCH  26  27
ENDBRANCH  25  26
ENDBRANCH  24  25
ENDBRANCH  23  24
ENDBRANCH  22  23
ENDBRANCH  21  22
ENDBRANCH  20  21
ENDBRANCH  19  20
ENDBRANCH  18  19
ENDBRANCH   1  18
TORSDOF 28
ENDMDL
MODEL 9
REMARK VINA RESULT:     2.298      4.203     12.141
REMARK INTER + INTRA:           3.820
REMARK INTER:                   5.010
REMARK INTRA:                  -1.190
REMARK UNBOUND:                -2.239
REMARK SMILES CCCCCCCCCCCCCCCCCCCCCCCCCCCCCC(=O)[O-]
REMARK SMILES IDX 16 1 17 2 18 3 19 4 20 5 21 6 22 7 23 8 24 9 25 10 26 11
REMARK SMILES IDX 27 12 28 13 29 14 30 15 31 16 32 17 15 18 14 19 13 20 12 21
REMARK SMILES IDX 11 22 10 23 9 24 8 25 7 26 6 27 5 28 4 29 3 30 2 31 1 32
REMARK H PARENT
REMARK Flexibility Score: inf
ROOT
ATOM      1  C   UNL     1      53.760  80.125  36.851  1.00  0.00     0.000 C 
ENDROOT
BRANCH   1   2
ATOM      2  C   UNL     1      52.790  80.819  37.824  1.00  0.00     0.000 C 
BRANCH   2   3
ATOM      3  C   UNL     1      51.664  79.893  38.312  1.00  0.00     0.000 C 
BRANCH   3   4
ATOM      4  C   UNL     1      50.591  80.641  39.123  1.00  0.00     0.000 C 
BRANCH   4   5
ATOM      5  C   UNL     1      49.326  79.794  39.344  1.00  0.00     0.000 C 
BRANCH   5   6
ATOM      6  C   UNL     1      48.046  80.649  39.387  1.00  0.00     0.000 C 
BRANCH   6   7
ATOM      7  C   UNL     1      47.881  81.392  40.724  1.00  0.00     0.000 C 
BRANCH   7   8
ATOM      8  C   UNL     1      49.122  82.212  41.100  1.00  0.00     0.000 C 
BRANCH   8   9
ATOM      9  C   UNL     1      48.722  83.578  41.669  1.00  0.00     0.000 C 
BRANCH   9  10
ATOM     10  C   UNL     1      47.890  83.426  42.950  1.00  0.00     0.000 C 
BRANCH  10  11
ATOM     11  C   UNL     1      48.734  83.537  44.233  1.00  0.00     0.000 C 
BRANCH  11  12
ATOM     12  C   UNL     1      47.924  83.597  45.541  1.00  0.00     0.000 C 
BRANCH  12  13
ATOM     13  C   UNL     1      48.579  82.806  46.686  1.00  0.00     0.006 C 
BRANCH  13  14
ATOM     14  C   UNL     1      48.660  81.305  46.376  1.00  0.00     0.053 C 
BRANCH  14  15
ATOM     15  C   UNL     1      49.101  80.519  47.571  1.00  0.00     0.041 C 
ATOM     16  O   UNL     1      50.057  80.925  48.281  1.00  0.00    -0.550 OA
ATOM     17  O   UNL     1      48.429  79.356  47.923  1.00  0.00    -0.550 OA
ENDBRANCH  14  15
ENDBRANCH  13  14
ENDBRANCH  12  13
ENDBRANCH  11  12
ENDBRANCH  10  11
ENDBRANCH   9  10
ENDBRANCH   8   9
ENDBRANCH   7   8
ENDBRANCH   6   7
ENDBRANCH   5   6
ENDBRANCH   4   5
ENDBRANCH   3   4
ENDBRANCH   2   3
ENDBRANCH   1   2
BRANCH   1  18
ATOM     18  C   UNL     1      53.317  80.246  35.381  1.00  0.00     0.000 C 
BRANCH  18  19
ATOM     19  C   UNL     1      54.018  81.360  34.579  1.00  0.00     0.000 C 
BRANCH  19  20
ATOM     20  C   UNL     1      54.269  81.033  33.095  1.00  0.00     0.000 C 
BRANCH  20  21
ATOM     21  C   UNL     1      53.383  81.809  32.104  1.00  0.00     0.000 C 
BRANCH  21  22
ATOM     22  C   UNL     1      52.973  83.192  32.635  1.00  0.00     0.000 C 
BRANCH  22  23
ATOM     23  C   UNL     1      52.607  84.144  31.487  1.00  0.00     0.000 C 
BRANCH  23  24
ATOM     24  C   UNL     1      53.216  83.702  30.142  1.00  0.00    -0.000 C 
BRANCH  24  25
ATOM     25  C   UNL     1      52.272  82.811  29.315  1.00  0.00    -0.000 C 
BRANCH  25  26
ATOM     26  C   UNL     1      50.956  83.529  28.947  1.00  0.00    -0.000 C 
BRANCH  26  27
ATOM     27  C   UNL     1      49.708  82.783  29.449  1.00  0.00    -0.000 C 
BRANCH  27  28
ATOM     28  C   UNL     1      49.696  82.556  30.974  1.00  0.00    -0.000 C 
BRANCH  28  29
ATOM     29  C   UNL     1      48.459  83.167  31.650  1.00  0.00    -0.000 C 
BRANCH  29  30
ATOM     30  C   UNL     1      48.619  84.686  31.824  1.00  0.00    -0.000 C 
BRANCH  30  31
ATOM     31  C   UNL     1      48.539  85.121  33.297  1.00  0.00    -0.003 C 
ATOM     32  C   UNL     1      49.894  85.060  34.004  1.00  0.00     0.004 C 
ENDBRANCH  30  31
ENDBRANCH  29  30
ENDBRANCH  28  29
ENDBRANCH  27  28
ENDBRANCH  26  27
ENDBRANCH  25  26
ENDBRANCH  24  25
ENDBRANCH  23  24
ENDBRANCH  22  23
ENDBRANCH  21  22
ENDBRANCH  20  21
ENDBRANCH  19  20
ENDBRANCH  18  19
ENDBRANCH   1  18
TORSDOF 28
ENDMDL
