MODEL 1
REMARK VINA RESULT:    -2.111      0.000      0.000
REMARK INTER + INTRA:          -2.111
REMARK INTER:                  -2.111
REMARK INTRA:                   0.000
REMARK UNBOUND:                 0.000
REMARK SMILES CC(=O)[O-]
REMARK SMILES IDX 1 1 2 2 3 3 4 4
REMARK H PARENT
REMARK Flexibility Score: inf
ROOT
ATOM      1  C   UNL     1      20.626  21.391  47.125  1.00  0.00     0.063 C 
ATOM      2  C   UNL     1      21.002  22.247  45.964  1.00  0.00     0.038 C 
ATOM      3  O   UNL     1      20.107  22.782  45.256  1.00  0.00    -0.550 OA
ATOM      4  O   UNL     1      22.338  22.412  45.625  1.00  0.00    -0.550 OA
ENDROOT
TORSDOF 0
ENDMDL
MODEL 2
REMARK VINA RESULT:    -2.086      1.450      2.048
REMARK INTER + INTRA:          -2.086
REMARK INTER:                  -2.086
REMARK INTRA:                   0.000
REMARK UNBOUND:                 0.000
REMARK SMILES CC(=O)[O-]
REMARK SMILES IDX 1 1 2 2 3 3 4 4
REMARK H PARENT
REMARK Flexibility Score: inf
ROOT
ATOM      1  C   UNL     1      19.927  22.796  45.546  1.00  0.00     0.063 C 
ATOM      2  C   UNL     1      21.035  22.016  46.165  1.00  0.00     0.038 C 
ATOM      3  O   UNL     1      22.231  22.251  45.844  1.00  0.00    -0.550 OA
ATOM      4  O   UNL     1      20.750  20.990  47.056  1.00  0.00    -0.550 OA
ENDROOT
TORSDOF 0
ENDMDL
MODEL 3
REMARK VINA RESULT:    -1.900      1.800      1.816
REMARK INTER + INTRA:          -1.900
REMARK INTER:                  -1.900
REMARK INTRA:                   0.000
REMARK UNBOUND:                 0.000
REMARK SMILES CC(=O)[O-]
REMARK SMILES IDX 1 1 2 2 3 3 4 4
REMARK H PARENT
REMARK Flexibility Score: inf
ROOT
ATOM      1  C   UNL     1      19.116  23.089  47.123  1.00  0.00     0.063 C 
ATOM      2  C   UNL     1      20.187  22.268  46.490  1.00  0.00     0.038 C 
ATOM      3  O   UNL     1      20.641  22.585  45.358  1.00  0.00    -0.550 OA
ATOM      4  O   UNL     1      20.650  21.121  47.121  1.00  0.00    -0.550 OA
ENDROOT
TORSDOF 0
ENDMDL
MODEL 4
REMARK VINA RESULT:    -1.699      2.182      2.491
REMARK INTER + INTRA:          -1.699
REMARK INTER:                  -1.699
REMARK INTRA:                   0.000
REMARK UNBOUND:                 0.000
REMARK SMILES CC(=O)[O-]
REMARK SMILES IDX 1 1 2 2 3 3 4 4
REMARK H PARENT
REMARK Flexibility Score: inf
ROOT
ATOM      1  C   UNL     1      20.751  22.250  45.719  1.00  0.00     0.063 C 
ATOM      2  C   UNL     1      19.486  23.000  45.959  1.00  0.00     0.038 C 
ATOM      3  O   UNL     1      19.019  23.097  47.125  1.00  0.00    -0.550 OA
ATOM      4  O   UNL     1      18.787  23.546  44.890  1.00  0.00    -0.550 OA
ENDROOT
TORSDOF 0
ENDMDL
MODEL 5
REMARK VINA RESULT:    -1.682     17.067     17.529
REMARK INTER + INTRA:          -1.682
REMARK INTER:                  -1.682
REMARK INTRA:                   0.000
REMARK UNBOUND:                 0.000
REMARK SMILES CC(=O)[O-]
REMARK SMILES IDX 1 1 2 2 3 3 4 4
REMARK H PARENT
REMARK Flexibility Score: inf
ROOT
ATOM      1  C   UNL     1      33.367   9.642  40.036  1.00  0.00     0.063 C 
ATOM      2  C   UNL     1      33.206  10.946  40.739  1.00  0.00     0.038 C 
ATOM      3  O   UNL     1      33.806  11.971  40.317  1.00  0.00    -0.550 OA
ATOM      4  O   UNL     1      32.438  11.025  41.893  1.00  0.00    -0.550 OA
ENDROOT
TORSDOF 0
ENDMDL
MODEL 6
REMARK VINA RESULT:    -1.652     20.389     20.860
REMARK INTER + INTRA:          -1.652
REMARK INTER:                  -1.652
REMARK INTRA:                   0.000
REMARK UNBOUND:                 0.000
REMARK SMILES CC(=O)[O-]
REMARK SMILES IDX 1 1 2 2 3 3 4 4
REMARK H PARENT
REMARK Flexibility Score: inf
ROOT
ATOM      1  C   UNL     1      31.861  21.365  26.919  1.00  0.00     0.063 C 
ATOM      2  C   UNL     1      30.558  21.687  27.566  1.00  0.00     0.038 C 
ATOM      3  O   UNL     1      29.516  21.058  27.238  1.00  0.00    -0.550 OA
ATOM      4  O   UNL     1      30.476  22.719  28.492  1.00  0.00    -0.550 OA
ENDROOT
TORSDOF 0
ENDMDL
MODEL 7
REMARK VINA RESULT:    -1.626     20.563     21.086
REMARK INTER + INTRA:          -1.626
REMARK INTER:                  -1.626
REMARK INTRA:                   0.000
REMARK UNBOUND:                 0.000
REMARK SMILES CC(=O)[O-]
REMARK SMILES IDX 1 1 2 2 3 3 4 4
REMARK H PARENT
REMARK Flexibility Score: inf
ROOT
ATOM      1  C   UNL     1      30.012  21.509  27.576  1.00  0.00     0.063 C 
ATOM      2  C   UNL     1      31.486  21.684  27.715  1.00  0.00     0.038 C 
ATOM      3  O   UNL     1      32.267  21.162  26.875  1.00  0.00    -0.550 OA
ATOM      4  O   UNL     1      32.006  22.377  28.800  1.00  0.00    -0.550 OA
ENDROOT
TORSDOF 0
ENDMDL
MODEL 8
REMARK VINA RESULT:    -1.346     16.976     17.438
REMARK INTER + INTRA:          -1.346
REMARK INTER:                  -1.346
REMARK INTRA:                   0.000
REMARK UNBOUND:                 0.000
REMARK SMILES CC(=O)[O-]
REMARK SMILES IDX 1 1 2 2 3 3 4 4
REMARK H PARENT
REMARK Flexibility Score: inf
ROOT
ATOM      1  C   UNL     1      33.800  12.170  40.362  1.00  0.00     0.063 C 
ATOM      2  C   UNL     1      33.101  10.944  40.839  1.00  0.00     0.038 C 
ATOM      3  O   UNL     1      32.433  10.971  41.908  1.00  0.00    -0.550 OA
ATOM      4  O   UNL     1      33.228   9.753  40.137  1.00  0.00    -0.550 OA
ENDROOT
TORSDOF 0
ENDMDL
MODEL 9
REMARK VINA RESULT:    -1.297     20.032     20.341
REMARK INTER + INTRA:          -1.297
REMARK INTER:                  -1.297
REMARK INTRA:                   0.000
REMARK UNBOUND:                 0.000
REMARK SMILES CC(=O)[O-]
REMARK SMILES IDX 1 1 2 2 3 3 4 4
REMARK H PARENT
REMARK Flexibility Score: inf
ROOT
ATOM      1  C   UNL     1      30.998  23.716  29.646  1.00  0.00     0.063 C 
ATOM      2  C   UNL     1      32.089  22.923  29.011  1.00  0.00     0.038 C 
ATOM      3  O   UNL     1      33.288  23.291  29.127  1.00  0.00    -0.550 OA
ATOM      4  O   UNL     1      31.782  21.807  28.244  1.00  0.00    -0.550 OA
ENDROOT
TORSDOF 0
ENDMDL
