MODEL 1
REMARK VINA RESULT:    -5.446      0.000      0.000
REMARK INTER + INTRA:         -15.528
REMARK INTER:                 -12.449
REMARK INTRA:                  -3.079
REMARK UNBOUND:                -3.079
REMARK SMILES CCCCCCCCCCCCCCCCCCCCCCCC(=O)[O-]
REMARK SMILES IDX 13 1 14 2 15 3 16 4 17 5 18 6 19 7 20 8 21 9 22 10 23 11
REMARK SMILES IDX 24 12 25 13 26 14 12 15 11 16 10 17 9 18 8 19 7 20 6 21 5 22
REMARK SMILES IDX 4 23 3 24 2 25 1 26
REMARK H PARENT
REMARK Flexibility Score: inf
ROOT
ATOM      1  C   UNL     1     -22.279 -26.834  17.162  1.00  0.00     0.000 C 
ENDROOT
BRANCH   1   2
ATOM      2  C   UNL     1     -22.949 -26.099  15.993  1.00  0.00     0.000 C 
BRANCH   2   3
ATOM      3  C   UNL     1     -21.933 -25.533  14.989  1.00  0.00     0.000 C 
BRANCH   3   4
ATOM      4  C   UNL     1     -20.575 -25.208  15.638  1.00  0.00     0.000 C 
BRANCH   4   5
ATOM      5  C   UNL     1     -19.680 -24.352  14.718  1.00  0.00     0.000 C 
BRANCH   5   6
ATOM      6  C   UNL     1     -20.252 -24.163  13.303  1.00  0.00     0.000 C 
BRANCH   6   7
ATOM      7  C   UNL     1     -20.206 -22.701  12.828  1.00  0.00     0.000 C 
BRANCH   7   8
ATOM      8  C   UNL     1     -19.067 -22.443  11.828  1.00  0.00     0.000 C 
BRANCH   8   9
ATOM      9  C   UNL     1     -19.059 -20.997  11.303  1.00  0.00     0.000 C 
BRANCH   9  10
ATOM     10  C   UNL     1     -19.836 -20.839   9.983  1.00  0.00     0.006 C 
BRANCH  10  11
ATOM     11  C   UNL     1     -20.094 -22.158   9.238  1.00  0.00     0.053 C 
BRANCH  11  12
ATOM     12  C   UNL     1     -21.552 -22.493   9.177  1.00  0.00     0.041 C 
ATOM     13  O   UNL     1     -22.357 -21.722   8.591  1.00  0.00    -0.550 OA
ATOM     14  O   UNL     1     -22.028 -23.643   9.795  1.00  0.00    -0.550 OA
ENDBRANCH  11  12
ENDBRANCH  10  11
ENDBRANCH   9  10
ENDBRANCH   8   9
ENDBRANCH   7   8
ENDBRANCH   6   7
ENDBRANCH   5   6
ENDBRANCH   4   5
ENDBRANCH   3   4
ENDBRANCH   2   3
ENDBRANCH   1   2
BRANCH   1  15
ATOM     15  C   UNL     1     -22.947 -28.193  17.410  1.00  0.00     0.000 C 
BRANCH  15  16
ATOM     16  C   UNL     1     -21.920 -29.333  17.347  1.00  0.00     0.000 C 
BRANCH  16  17
ATOM     17  C   UNL     1     -20.942 -29.180  16.169  1.00  0.00     0.000 C 
BRANCH  17  18
ATOM     18  C   UNL     1     -21.472 -29.819  14.877  1.00  0.00    -0.000 C 
BRANCH  18  19
ATOM     19  C   UNL     1     -20.744 -29.261  13.648  1.00  0.00    -0.000 C 
BRANCH  19  20
ATOM     20  C   UNL     1     -19.672 -28.240  14.064  1.00  0.00    -0.000 C 
BRANCH  20  21
ATOM     21  C   UNL     1     -18.784 -27.802  12.888  1.00  0.00    -0.000 C 
BRANCH  21  22
ATOM     22  C   UNL     1     -17.548 -27.011  13.344  1.00  0.00    -0.000 C 
BRANCH  22  23
ATOM     23  C   UNL     1     -17.275 -27.233  14.837  1.00  0.00    -0.000 C 
BRANCH  23  24
ATOM     24  C   UNL     1     -16.477 -26.060  15.430  1.00  0.00    -0.000 C 
BRANCH  24  25
ATOM     25  C   UNL     1     -15.440 -26.516  16.467  1.00  0.00    -0.003 C 
ATOM     26  C   UNL     1     -14.237 -25.576  16.555  1.00  0.00     0.004 C 
ENDBRANCH  24  25
ENDBRANCH  23  24
ENDBRANCH  22  23
ENDBRANCH  21  22
ENDBRANCH  20  21
ENDBRANCH  19  20
ENDBRANCH  18  19
ENDBRANCH  17  18
ENDBRANCH  16  17
ENDBRANCH  15  16
ENDBRANCH   1  15
TORSDOF 22
ENDMDL
MODEL 2
REMARK VINA RESULT:    -5.195      5.519      8.817
REMARK INTER + INTRA:         -14.954
REMARK INTER:                 -13.089
REMARK INTRA:                  -1.865
REMARK UNBOUND:                -3.079
REMARK SMILES CCCCCCCCCCCCCCCCCCCCCCCC(=O)[O-]
REMARK SMILES IDX 13 1 14 2 15 3 16 4 17 5 18 6 19 7 20 8 21 9 22 10 23 11
REMARK SMILES IDX 24 12 25 13 26 14 12 15 11 16 10 17 9 18 8 19 7 20 6 21 5 22
REMARK SMILES IDX 4 23 3 24 2 25 1 26
REMARK H PARENT
REMARK Flexibility Score: inf
ROOT
ATOM      1  C   UNL     1     -24.187 -23.869   9.115  1.00  0.00     0.000 C 
ENDROOT
BRANCH   1   2
ATOM      2  C   UNL     1     -23.360 -22.658   8.660  1.00  0.00     0.000 C 
BRANCH   2   3
ATOM      3  C   UNL     1     -21.873 -22.784   9.028  1.00  0.00     0.000 C 
BRANCH   3   4
ATOM      4  C   UNL     1     -21.005 -21.699   8.365  1.00  0.00     0.000 C 
BRANCH   4   5
ATOM      5  C   UNL     1     -20.349 -20.765   9.404  1.00  0.00     0.000 C 
BRANCH   5   6
ATOM      6  C   UNL     1     -19.291 -21.459  10.277  1.00  0.00     0.000 C 
BRANCH   6   7
ATOM      7  C   UNL     1     -19.461 -21.160  11.776  1.00  0.00     0.000 C 
BRANCH   7   8
ATOM      8  C   UNL     1     -19.742 -22.427  12.600  1.00  0.00     0.000 C 
BRANCH   8   9
ATOM      9  C   UNL     1     -18.780 -23.578  12.260  1.00  0.00     0.000 C 
BRANCH   9  10
ATOM     10  C   UNL     1     -18.854 -24.734  13.274  1.00  0.00     0.006 C 
BRANCH  10  11
ATOM     11  C   UNL     1     -19.356 -24.324  14.667  1.00  0.00     0.053 C 
BRANCH  11  12
ATOM     12  C   UNL     1     -20.356 -25.297  15.212  1.00  0.00     0.041 C 
ATOM     13  O   UNL     1     -21.561 -25.240  14.851  1.00  0.00    -0.550 OA
ATOM     14  O   UNL     1     -19.962 -26.248  16.146  1.00  0.00    -0.550 OA
ENDBRANCH  11  12
ENDBRANCH  10  11
ENDBRANCH   9  10
ENDBRANCH   8   9
ENDBRANCH   7   8
ENDBRANCH   6   7
ENDBRANCH   5   6
ENDBRANCH   4   5
ENDBRANCH   3   4
ENDBRANCH   2   3
ENDBRANCH   1   2
BRANCH   1  15
ATOM     15  C   UNL     1     -23.734 -25.144   8.393  1.00  0.00     0.000 C 
BRANCH  15  16
ATOM     16  C   UNL     1     -24.878 -26.165   8.306  1.00  0.00     0.000 C 
BRANCH  16  17
ATOM     17  C   UNL     1     -26.092 -25.763   9.161  1.00  0.00     0.000 C 
BRANCH  17  18
ATOM     18  C   UNL     1     -26.801 -26.976   9.783  1.00  0.00    -0.000 C 
BRANCH  18  19
ATOM     19  C   UNL     1     -26.480 -28.259   9.004  1.00  0.00    -0.000 C 
BRANCH  19  20
ATOM     20  C   UNL     1     -27.638 -28.634   8.067  1.00  0.00    -0.000 C 
BRANCH  20  21
ATOM     21  C   UNL     1     -27.190 -29.535   6.904  1.00  0.00    -0.000 C 
BRANCH  21  22
ATOM     22  C   UNL     1     -26.645 -28.733   5.712  1.00  0.00    -0.000 C 
BRANCH  22  23
ATOM     23  C   UNL     1     -25.140 -28.966   5.536  1.00  0.00    -0.000 C 
BRANCH  23  24
ATOM     24  C   UNL     1     -24.675 -30.187   6.346  1.00  0.00    -0.000 C 
BRANCH  24  25
ATOM     25  C   UNL     1     -23.175 -30.472   6.178  1.00  0.00    -0.003 C 
ATOM     26  C   UNL     1     -22.899 -31.762   5.405  1.00  0.00     0.004 C 
ENDBRANCH  24  25
ENDBRANCH  23  24
ENDBRANCH  22  23
ENDBRANCH  21  22
ENDBRANCH  20  21
ENDBRANCH  19  20
ENDBRANCH  18  19
ENDBRANCH  17  18
ENDBRANCH  16  17
ENDBRANCH  15  16
ENDBRANCH   1  15
TORSDOF 22
ENDMDL
MODEL 3
REMARK VINA RESULT:    -5.188      1.635      4.756
REMARK INTER + INTRA:         -14.940
REMARK INTER:                 -11.445
REMARK INTRA:                  -3.495
REMARK UNBOUND:                -3.079
REMARK SMILES CCCCCCCCCCCCCCCCCCCCCCCC(=O)[O-]
REMARK SMILES IDX 13 1 14 2 15 3 16 4 17 5 18 6 19 7 20 8 21 9 22 10 23 11
REMARK SMILES IDX 24 12 25 13 26 14 12 15 11 16 10 17 9 18 8 19 7 20 6 21 5 22
REMARK SMILES IDX 4 23 3 24 2 25 1 26
REMARK H PARENT
REMARK Flexibility Score: inf
ROOT
ATOM      1  C   UNL     1     -19.515 -26.278  15.521  1.00  0.00     0.000 C 
ENDROOT
BRANCH   1   2
ATOM      2  C   UNL     1     -18.697 -27.577  15.485  1.00  0.00     0.000 C 
BRANCH   2   3
ATOM      3  C   UNL     1     -17.563 -27.534  14.449  1.00  0.00     0.000 C 
BRANCH   3   4
ATOM      4  C   UNL     1     -16.927 -26.138  14.323  1.00  0.00     0.000 C 
BRANCH   4   5
ATOM      5  C   UNL     1     -16.631 -25.765  12.855  1.00  0.00     0.000 C 
BRANCH   5   6
ATOM      6  C   UNL     1     -17.628 -26.367  11.852  1.00  0.00     0.000 C 
BRANCH   6   7
ATOM      7  C   UNL     1     -18.372 -25.299  11.032  1.00  0.00     0.000 C 
BRANCH   7   8
ATOM      8  C   UNL     1     -19.783 -25.020  11.574  1.00  0.00     0.000 C 
BRANCH   8   9
ATOM      9  C   UNL     1     -19.864 -23.697  12.356  1.00  0.00     0.000 C 
BRANCH   9  10
ATOM     10  C   UNL     1     -18.806 -22.673  11.903  1.00  0.00     0.006 C 
BRANCH  10  11
ATOM     11  C   UNL     1     -19.379 -21.302  11.512  1.00  0.00     0.053 C 
BRANCH  11  12
ATOM     12  C   UNL     1     -19.701 -21.224  10.051  1.00  0.00     0.041 C 
ATOM     13  O   UNL     1     -20.253 -20.197   9.577  1.00  0.00    -0.550 OA
ATOM     14  O   UNL     1     -19.418 -22.300   9.218  1.00  0.00    -0.550 OA
ENDBRANCH  11  12
ENDBRANCH  10  11
ENDBRANCH   9  10
ENDBRANCH   8   9
ENDBRANCH   7   8
ENDBRANCH   6   7
ENDBRANCH   5   6
ENDBRANCH   4   5
ENDBRANCH   3   4
ENDBRANCH   2   3
ENDBRANCH   1   2
BRANCH   1  15
ATOM     15  C   UNL     1     -20.811 -26.424  14.715  1.00  0.00     0.000 C 
BRANCH  15  16
ATOM     16  C   UNL     1     -21.876 -25.427  15.195  1.00  0.00     0.000 C 
BRANCH  16  17
ATOM     17  C   UNL     1     -23.226 -26.104  15.490  1.00  0.00     0.000 C 
BRANCH  17  18
ATOM     18  C   UNL     1     -23.656 -25.945  16.956  1.00  0.00    -0.000 C 
BRANCH  18  19
ATOM     19  C   UNL     1     -22.803 -26.827  17.878  1.00  0.00    -0.000 C 
BRANCH  19  20
ATOM     20  C   UNL     1     -22.802 -28.285  17.392  1.00  0.00    -0.000 C 
BRANCH  20  21
ATOM     21  C   UNL     1     -21.436 -28.967  17.574  1.00  0.00    -0.000 C 
BRANCH  21  22
ATOM     22  C   UNL     1     -21.403 -30.388  16.987  1.00  0.00    -0.000 C 
BRANCH  22  23
ATOM     23  C   UNL     1     -22.236 -30.470  15.702  1.00  0.00    -0.000 C 
BRANCH  23  24
ATOM     24  C   UNL     1     -21.429 -29.971  14.492  1.00  0.00    -0.000 C 
BRANCH  24  25
ATOM     25  C   UNL     1     -21.665 -30.822  13.234  1.00  0.00    -0.003 C 
ATOM     26  C   UNL     1     -20.367 -31.179  12.509  1.00  0.00     0.004 C 
ENDBRANCH  24  25
ENDBRANCH  23  24
ENDBRANCH  22  23
ENDBRANCH  21  22
ENDBRANCH  20  21
ENDBRANCH  19  20
ENDBRANCH  18  19
ENDBRANCH  17  18
ENDBRANCH  16  17
ENDBRANCH  15  16
ENDBRANCH   1  15
TORSDOF 22
ENDMDL
MODEL 4
REMARK VINA RESULT:    -5.188      3.478      7.554
REMARK INTER + INTRA:         -14.938
REMARK INTER:                 -11.417
REMARK INTRA:                  -3.521
REMARK UNBOUND:                -3.079
REMARK SMILES CCCCCCCCCCCCCCCCCCCCCCCC(=O)[O-]
REMARK SMILES IDX 13 1 14 2 15 3 16 4 17 5 18 6 19 7 20 8 21 9 22 10 23 11
REMARK SMILES IDX 24 12 25 13 26 14 12 15 11 16 10 17 9 18 8 19 7 20 6 21 5 22
REMARK SMILES IDX 4 23 3 24 2 25 1 26
REMARK H PARENT
REMARK Flexibility Score: inf
ROOT
ATOM      1  C   UNL     1     -20.765 -23.466  12.842  1.00  0.00     0.000 C 
ENDROOT
BRANCH   1   2
ATOM      2  C   UNL     1     -20.570 -24.786  13.601  1.00  0.00     0.000 C 
BRANCH   2   3
ATOM      3  C   UNL     1     -19.769 -24.611  14.901  1.00  0.00     0.000 C 
BRANCH   3   4
ATOM      4  C   UNL     1     -18.662 -25.668  15.061  1.00  0.00     0.000 C 
BRANCH   4   5
ATOM      5  C   UNL     1     -17.617 -25.592  13.927  1.00  0.00     0.000 C 
BRANCH   5   6
ATOM      6  C   UNL     1     -17.382 -26.934  13.214  1.00  0.00     0.000 C 
BRANCH   6   7
ATOM      7  C   UNL     1     -18.384 -28.021  13.637  1.00  0.00     0.000 C 
BRANCH   7   8
ATOM      8  C   UNL     1     -19.155 -28.608  12.444  1.00  0.00     0.000 C 
BRANCH   8   9
ATOM      9  C   UNL     1     -20.540 -29.145  12.843  1.00  0.00     0.000 C 
BRANCH   9  10
ATOM     10  C   UNL     1     -21.065 -28.523  14.150  1.00  0.00     0.006 C 
BRANCH  10  11
ATOM     11  C   UNL     1     -21.551 -29.548  15.187  1.00  0.00     0.053 C 
BRANCH  11  12
ATOM     12  C   UNL     1     -20.989 -29.278  16.550  1.00  0.00     0.041 C 
ATOM     13  O   UNL     1     -20.412 -28.186  16.794  1.00  0.00    -0.550 OA
ATOM     14  O   UNL     1     -21.076 -30.247  17.542  1.00  0.00    -0.550 OA
ENDBRANCH  11  12
ENDBRANCH  10  11
ENDBRANCH   9  10
ENDBRANCH   8   9
ENDBRANCH   7   8
ENDBRANCH   6   7
ENDBRANCH   5   6
ENDBRANCH   4   5
ENDBRANCH   3   4
ENDBRANCH   2   3
ENDBRANCH   1   2
BRANCH   1  15
ATOM     15  C   UNL     1     -19.447 -22.685  12.754  1.00  0.00     0.000 C 
BRANCH  15  16
ATOM     16  C   UNL     1     -19.673 -21.285  12.165  1.00  0.00     0.000 C 
BRANCH  16  17
ATOM     17  C   UNL     1     -19.060 -21.132  10.762  1.00  0.00     0.000 C 
BRANCH  17  18
ATOM     18  C   UNL     1     -20.124 -20.904   9.678  1.00  0.00    -0.000 C 
BRANCH  18  19
ATOM     19  C   UNL     1     -20.284 -22.149   8.795  1.00  0.00    -0.000 C 
BRANCH  19  20
ATOM     20  C   UNL     1     -19.137 -23.142   9.037  1.00  0.00    -0.000 C 
BRANCH  20  21
ATOM     21  C   UNL     1     -19.629 -24.495   9.575  1.00  0.00    -0.000 C 
BRANCH  21  22
ATOM     22  C   UNL     1     -18.480 -25.387  10.072  1.00  0.00    -0.000 C 
BRANCH  22  23
ATOM     23  C   UNL     1     -18.382 -26.670   9.239  1.00  0.00    -0.000 C 
BRANCH  23  24
ATOM     24  C   UNL     1     -16.936 -26.920   8.782  1.00  0.00    -0.000 C 
BRANCH  24  25
ATOM     25  C   UNL     1     -16.636 -26.305   7.407  1.00  0.00    -0.003 C 
ATOM     26  C   UNL     1     -15.367 -25.453   7.403  1.00  0.00     0.004 C 
ENDBRANCH  24  25
ENDBRANCH  23  24
ENDBRANCH  22  23
ENDBRANCH  21  22
ENDBRANCH  20  21
ENDBRANCH  19  20
ENDBRANCH  18  19
ENDBRANCH  17  18
ENDBRANCH  16  17
ENDBRANCH  15  16
ENDBRANCH   1  15
TORSDOF 22
ENDMDL
MODEL 5
REMARK VINA RESULT:    -5.161      5.111      7.401
REMARK INTER + INTRA:         -14.878
REMARK INTER:                 -12.514
REMARK INTRA:                  -2.364
REMARK UNBOUND:                -3.079
REMARK SMILES CCCCCCCCCCCCCCCCCCCCCCCC(=O)[O-]
REMARK SMILES IDX 13 1 14 2 15 3 16 4 17 5 18 6 19 7 20 8 21 9 22 10 23 11
REMARK SMILES IDX 24 12 25 13 26 14 12 15 11 16 10 17 9 18 8 19 7 20 6 21 5 22
REMARK SMILES IDX 4 23 3 24 2 25 1 26
REMARK H PARENT
REMARK Flexibility Score: inf
ROOT
ATOM      1  C   UNL     1     -22.576 -26.554  18.140  1.00  0.00     0.000 C 
ENDROOT
BRANCH   1   2
ATOM      2  C   UNL     1     -23.659 -25.508  17.838  1.00  0.00     0.000 C 
BRANCH   2   3
ATOM      3  C   UNL     1     -24.631 -25.962  16.738  1.00  0.00     0.000 C 
BRANCH   3   4
ATOM      4  C   UNL     1     -24.631 -25.018  15.521  1.00  0.00     0.000 C 
BRANCH   4   5
ATOM      5  C   UNL     1     -25.597 -23.829  15.708  1.00  0.00     0.000 C 
BRANCH   5   6
ATOM      6  C   UNL     1     -26.858 -23.916  14.833  1.00  0.00     0.000 C 
BRANCH   6   7
ATOM      7  C   UNL     1     -27.826 -25.023  15.285  1.00  0.00     0.000 C 
BRANCH   7   8
ATOM      8  C   UNL     1     -28.758 -24.563  16.417  1.00  0.00     0.000 C 
BRANCH   8   9
ATOM      9  C   UNL     1     -29.172 -23.088  16.279  1.00  0.00     0.000 C 
BRANCH   9  10
ATOM     10  C   UNL     1     -28.775 -22.242  17.503  1.00  0.00     0.006 C 
BRANCH  10  11
ATOM     11  C   UNL     1     -29.943 -21.484  18.153  1.00  0.00     0.053 C 
BRANCH  11  12
ATOM     12  C   UNL     1     -29.817 -20.001  17.978  1.00  0.00     0.041 C 
ATOM     13  O   UNL     1     -29.206 -19.310  18.835  1.00  0.00    -0.550 OA
ATOM     14  O   UNL     1     -30.404 -19.378  16.883  1.00  0.00    -0.550 OA
ENDBRANCH  11  12
ENDBRANCH  10  11
ENDBRANCH   9  10
ENDBRANCH   8   9
ENDBRANCH   7   8
ENDBRANCH   6   7
ENDBRANCH   5   6
ENDBRANCH   4   5
ENDBRANCH   3   4
ENDBRANCH   2   3
ENDBRANCH   1   2
BRANCH   1  15
ATOM     15  C   UNL     1     -23.070 -27.967  17.802  1.00  0.00     0.000 C 
BRANCH  15  16
ATOM     16  C   UNL     1     -21.957 -28.799  17.148  1.00  0.00     0.000 C 
BRANCH  16  17
ATOM     17  C   UNL     1     -21.029 -27.949  16.263  1.00  0.00     0.000 C 
BRANCH  17  18
ATOM     18  C   UNL     1     -21.702 -27.512  14.953  1.00  0.00    -0.000 C 
BRANCH  18  19
ATOM     19  C   UNL     1     -21.131 -26.176  14.460  1.00  0.00    -0.000 C 
BRANCH  19  20
ATOM     20  C   UNL     1     -20.135 -25.598  15.478  1.00  0.00    -0.000 C 
BRANCH  20  21
ATOM     21  C   UNL     1     -19.093 -24.674  14.827  1.00  0.00    -0.000 C 
BRANCH  21  22
ATOM     22  C   UNL     1     -18.529 -25.249  13.519  1.00  0.00    -0.000 C 
BRANCH  22  23
ATOM     23  C   UNL     1     -18.388 -24.154  12.454  1.00  0.00    -0.000 C 
BRANCH  23  24
ATOM     24  C   UNL     1     -19.727 -23.438  12.221  1.00  0.00    -0.000 C 
BRANCH  24  25
ATOM     25  C   UNL     1     -19.568 -21.916  12.089  1.00  0.00    -0.003 C 
ATOM     26  C   UNL     1     -19.464 -21.455  10.635  1.00  0.00     0.004 C 
ENDBRANCH  24  25
ENDBRANCH  23  24
ENDBRANCH  22  23
ENDBRANCH  21  22
ENDBRANCH  20  21
ENDBRANCH  19  20
ENDBRANCH  18  19
ENDBRANCH  17  18
ENDBRANCH  16  17
ENDBRANCH  15  16
ENDBRANCH   1  15
TORSDOF 22
ENDMDL
MODEL 6
REMARK VINA RESULT:    -5.110      1.775      3.695
REMARK INTER + INTRA:         -14.761
REMARK INTER:                 -11.655
REMARK INTRA:                  -3.106
REMARK UNBOUND:                -3.079
REMARK SMILES CCCCCCCCCCCCCCCCCCCCCCCC(=O)[O-]
REMARK SMILES IDX 13 1 14 2 15 3 16 4 17 5 18 6 19 7 20 8 21 9 22 10 23 11
REMARK SMILES IDX 24 12 25 13 26 14 12 15 11 16 10 17 9 18 8 19 7 20 6 21 5 22
REMARK SMILES IDX 4 23 3 24 2 25 1 26
REMARK H PARENT
REMARK Flexibility Score: inf
ROOT
ATOM      1  C   UNL     1     -21.329 -29.501  14.736  1.00  0.00     0.000 C 
ENDROOT
BRANCH   1   2
ATOM      2  C   UNL     1     -21.379 -30.409  13.499  1.00  0.00     0.000 C 
BRANCH   2   3
ATOM      3  C   UNL     1     -20.465 -29.917  12.366  1.00  0.00     0.000 C 
BRANCH   3   4
ATOM      4  C   UNL     1     -20.013 -28.459  12.559  1.00  0.00     0.000 C 
BRANCH   4   5
ATOM      5  C   UNL     1     -18.490 -28.347  12.783  1.00  0.00     0.000 C 
BRANCH   5   6
ATOM      6  C   UNL     1     -17.820 -27.254  11.934  1.00  0.00     0.000 C 
BRANCH   6   7
ATOM      7  C   UNL     1     -18.605 -26.926  10.652  1.00  0.00     0.000 C 
BRANCH   7   8
ATOM      8  C   UNL     1     -18.380 -25.481  10.179  1.00  0.00     0.000 C 
BRANCH   8   9
ATOM      9  C   UNL     1     -19.389 -24.495  10.794  1.00  0.00     0.000 C 
BRANCH   9  10
ATOM     10  C   UNL     1     -18.733 -23.510  11.779  1.00  0.00     0.006 C 
BRANCH  10  11
ATOM     11  C   UNL     1     -19.633 -22.334  12.191  1.00  0.00     0.053 C 
BRANCH  11  12
ATOM     12  C   UNL     1     -19.333 -21.095  11.405  1.00  0.00     0.041 C 
ATOM     13  O   UNL     1     -19.204 -19.987  11.989  1.00  0.00    -0.550 OA
ATOM     14  O   UNL     1     -19.230 -21.158  10.020  1.00  0.00    -0.550 OA
ENDBRANCH  11  12
ENDBRANCH  10  11
ENDBRANCH   9  10
ENDBRANCH   8   9
ENDBRANCH   7   8
ENDBRANCH   6   7
ENDBRANCH   5   6
ENDBRANCH   4   5
ENDBRANCH   3   4
ENDBRANCH   2   3
ENDBRANCH   1   2
BRANCH   1  15
ATOM     15  C   UNL     1     -21.922 -30.209  15.960  1.00  0.00     0.000 C 
BRANCH  15  16
ATOM     16  C   UNL     1     -21.422 -29.570  17.265  1.00  0.00     0.000 C 
BRANCH  16  17
ATOM     17  C   UNL     1     -22.553 -28.894  18.060  1.00  0.00     0.000 C 
BRANCH  17  18
ATOM     18  C   UNL     1     -23.189 -27.723  17.296  1.00  0.00    -0.000 C 
BRANCH  18  19
ATOM     19  C   UNL     1     -22.443 -26.412  17.579  1.00  0.00    -0.000 C 
BRANCH  19  20
ATOM     20  C   UNL     1     -21.933 -25.780  16.275  1.00  0.00    -0.000 C 
BRANCH  20  21
ATOM     21  C   UNL     1     -20.464 -26.126  15.985  1.00  0.00    -0.000 C 
BRANCH  21  22
ATOM     22  C   UNL     1     -19.932 -25.434  14.720  1.00  0.00    -0.000 C 
BRANCH  22  23
ATOM     23  C   UNL     1     -18.453 -25.064  14.878  1.00  0.00    -0.000 C 
BRANCH  23  24
ATOM     24  C   UNL     1     -17.684 -26.174  15.612  1.00  0.00    -0.000 C 
BRANCH  24  25
ATOM     25  C   UNL     1     -16.163 -26.067  15.419  1.00  0.00    -0.003 C 
ATOM     26  C   UNL     1     -15.422 -25.754  16.719  1.00  0.00     0.004 C 
ENDBRANCH  24  25
ENDBRANCH  23  24
ENDBRANCH  22  23
ENDBRANCH  21  22
ENDBRANCH  20  21
ENDBRANCH  19  20
ENDBRANCH  18  19
ENDBRANCH  17  18
ENDBRANCH  16  17
ENDBRANCH  15  16
ENDBRANCH   1  15
TORSDOF 22
ENDMDL
MODEL 7
REMARK VINA RESULT:    -5.054      3.215      7.693
REMARK INTER + INTRA:         -14.633
REMARK INTER:                 -11.170
REMARK INTRA:                  -3.463
REMARK UNBOUND:                -3.079
REMARK SMILES CCCCCCCCCCCCCCCCCCCCCCCC(=O)[O-]
REMARK SMILES IDX 13 1 14 2 15 3 16 4 17 5 18 6 19 7 20 8 21 9 22 10 23 11
REMARK SMILES IDX 24 12 25 13 26 14 12 15 11 16 10 17 9 18 8 19 7 20 6 21 5 22
REMARK SMILES IDX 4 23 3 24 2 25 1 26
REMARK H PARENT
REMARK Flexibility Score: inf
ROOT
ATOM      1  C   UNL     1     -17.641 -27.275  13.859  1.00  0.00     0.000 C 
ENDROOT
BRANCH   1   2
ATOM      2  C   UNL     1     -17.855 -27.371  12.341  1.00  0.00     0.000 C 
BRANCH   2   3
ATOM      3  C   UNL     1     -18.144 -28.806  11.873  1.00  0.00     0.000 C 
BRANCH   3   4
ATOM      4  C   UNL     1     -19.636 -29.042  11.575  1.00  0.00     0.000 C 
BRANCH   4   5
ATOM      5  C   UNL     1     -20.143 -30.374  12.167  1.00  0.00     0.000 C 
BRANCH   5   6
ATOM      6  C   UNL     1     -21.036 -30.198  13.406  1.00  0.00     0.000 C 
BRANCH   6   7
ATOM      7  C   UNL     1     -21.010 -28.766  13.965  1.00  0.00     0.000 C 
BRANCH   7   8
ATOM      8  C   UNL     1     -21.357 -28.712  15.461  1.00  0.00     0.000 C 
BRANCH   8   9
ATOM      9  C   UNL     1     -20.582 -27.613  16.208  1.00  0.00     0.000 C 
BRANCH   9  10
ATOM     10  C   UNL     1     -21.501 -26.508  16.761  1.00  0.00     0.006 C 
BRANCH  10  11
ATOM     11  C   UNL     1     -23.001 -26.770  16.555  1.00  0.00     0.053 C 
BRANCH  11  12
ATOM     12  C   UNL     1     -23.676 -27.196  17.823  1.00  0.00     0.041 C 
ATOM     13  O   UNL     1     -24.624 -26.517  18.297  1.00  0.00    -0.550 OA
ATOM     14  O   UNL     1     -23.234 -28.327  18.500  1.00  0.00    -0.550 OA
ENDBRANCH  11  12
ENDBRANCH  10  11
ENDBRANCH   9  10
ENDBRANCH   8   9
ENDBRANCH   7   8
ENDBRANCH   6   7
ENDBRANCH   5   6
ENDBRANCH   4   5
ENDBRANCH   3   4
ENDBRANCH   2   3
ENDBRANCH   1   2
BRANCH   1  15
ATOM     15  C   UNL     1     -17.813 -25.830  14.345  1.00  0.00     0.000 C 
BRANCH  15  16
ATOM     16  C   UNL     1     -18.541 -24.976  13.297  1.00  0.00     0.000 C 
BRANCH  16  17
ATOM     17  C   UNL     1     -19.948 -24.557  13.754  1.00  0.00     0.000 C 
BRANCH  17  18
ATOM     18  C   UNL     1     -20.347 -23.169  13.230  1.00  0.00    -0.000 C 
BRANCH  18  19
ATOM     19  C   UNL     1     -19.171 -22.493  12.513  1.00  0.00    -0.000 C 
BRANCH  19  20
ATOM     20  C   UNL     1     -19.575 -21.107  11.988  1.00  0.00    -0.000 C 
BRANCH  20  21
ATOM     21  C   UNL     1     -19.107 -20.862  10.544  1.00  0.00    -0.000 C 
BRANCH  21  22
ATOM     22  C   UNL     1     -20.257 -20.950   9.527  1.00  0.00    -0.000 C 
BRANCH  22  23
ATOM     23  C   UNL     1     -20.289 -22.327   8.854  1.00  0.00    -0.000 C 
BRANCH  23  24
ATOM     24  C   UNL     1     -21.293 -23.258   9.554  1.00  0.00    -0.000 C 
BRANCH  24  25
ATOM     25  C   UNL     1     -20.715 -24.656   9.821  1.00  0.00    -0.003 C 
ATOM     26  C   UNL     1     -19.197 -24.714   9.640  1.00  0.00     0.004 C 
ENDBRANCH  24  25
ENDBRANCH  23  24
ENDBRANCH  22  23
ENDBRANCH  21  22
ENDBRANCH  20  21
ENDBRANCH  19  20
ENDBRANCH  18  19
ENDBRANCH  17  18
ENDBRANCH  16  17
ENDBRANCH  15  16
ENDBRANCH   1  15
TORSDOF 22
ENDMDL
MODEL 8
REMARK VINA RESULT:    -5.042      2.578      6.707
REMARK INTER + INTRA:         -14.605
REMARK INTER:                 -11.156
REMARK INTRA:                  -3.450
REMARK UNBOUND:                -3.079
REMARK SMILES CCCCCCCCCCCCCCCCCCCCCCCC(=O)[O-]
REMARK SMILES IDX 13 1 14 2 15 3 16 4 17 5 18 6 19 7 20 8 21 9 22 10 23 11
REMARK SMILES IDX 24 12 25 13 26 14 12 15 11 16 10 17 9 18 8 19 7 20 6 21 5 22
REMARK SMILES IDX 4 23 3 24 2 25 1 26
REMARK H PARENT
REMARK Flexibility Score: inf
ROOT
ATOM      1  C   UNL     1     -19.545 -27.919  13.390  1.00  0.00     0.000 C 
ENDROOT
BRANCH   1   2
ATOM      2  C   UNL     1     -19.196 -28.736  12.137  1.00  0.00     0.000 C 
BRANCH   2   3
ATOM      3  C   UNL     1     -19.377 -30.247  12.346  1.00  0.00     0.000 C 
BRANCH   3   4
ATOM      4  C   UNL     1     -20.757 -30.748  11.885  1.00  0.00     0.000 C 
BRANCH   4   5
ATOM      5  C   UNL     1     -21.586 -31.324  13.052  1.00  0.00     0.000 C 
BRANCH   5   6
ATOM      6  C   UNL     1     -21.753 -30.351  14.230  1.00  0.00     0.000 C 
BRANCH   6   7
ATOM      7  C   UNL     1     -22.084 -31.062  15.553  1.00  0.00     0.000 C 
BRANCH   7   8
ATOM      8  C   UNL     1     -21.596 -30.276  16.781  1.00  0.00     0.000 C 
BRANCH   8   9
ATOM      9  C   UNL     1     -22.493 -29.069  17.103  1.00  0.00     0.000 C 
BRANCH   9  10
ATOM     10  C   UNL     1     -21.784 -27.722  16.868  1.00  0.00     0.006 C 
BRANCH  10  11
ATOM     11  C   UNL     1     -22.273 -26.957  15.628  1.00  0.00     0.053 C 
BRANCH  11  12
ATOM     12  C   UNL     1     -23.258 -25.885  15.982  1.00  0.00     0.041 C 
ATOM     13  O   UNL     1     -23.635 -25.737  17.174  1.00  0.00    -0.550 OA
ATOM     14  O   UNL     1     -23.783 -25.068  14.988  1.00  0.00    -0.550 OA
ENDBRANCH  11  12
ENDBRANCH  10  11
ENDBRANCH   9  10
ENDBRANCH   8   9
ENDBRANCH   7   8
ENDBRANCH   6   7
ENDBRANCH   5   6
ENDBRANCH   4   5
ENDBRANCH   3   4
ENDBRANCH   2   3
ENDBRANCH   1   2
BRANCH   1  15
ATOM     15  C   UNL     1     -18.312 -27.728  14.281  1.00  0.00     0.000 C 
BRANCH  15  16
ATOM     16  C   UNL     1     -18.561 -26.650  15.346  1.00  0.00     0.000 C 
BRANCH  16  17
ATOM     17  C   UNL     1     -18.426 -25.224  14.783  1.00  0.00     0.000 C 
BRANCH  17  18
ATOM     18  C   UNL     1     -19.674 -24.368  15.046  1.00  0.00    -0.000 C 
BRANCH  18  19
ATOM     19  C   UNL     1     -20.495 -24.185  13.762  1.00  0.00    -0.000 C 
BRANCH  19  20
ATOM     20  C   UNL     1     -19.754 -23.285  12.762  1.00  0.00    -0.000 C 
BRANCH  20  21
ATOM     21  C   UNL     1     -20.208 -23.513  11.311  1.00  0.00    -0.000 C 
BRANCH  21  22
ATOM     22  C   UNL     1     -19.130 -24.195  10.454  1.00  0.00    -0.000 C 
BRANCH  22  23
ATOM     23  C   UNL     1     -18.254 -25.120  11.309  1.00  0.00    -0.000 C 
BRANCH  23  24
ATOM     24  C   UNL     1     -17.353 -25.996  10.424  1.00  0.00    -0.000 C 
BRANCH  24  25
ATOM     25  C   UNL     1     -15.931 -26.139  10.987  1.00  0.00    -0.003 C 
ATOM     26  C   UNL     1     -15.761 -25.458  12.346  1.00  0.00     0.004 C 
ENDBRANCH  24  25
ENDBRANCH  23  24
ENDBRANCH  22  23
ENDBRANCH  21  22
ENDBRANCH  20  21
ENDBRANCH  19  20
ENDBRANCH  18  19
ENDBRANCH  17  18
ENDBRANCH  16  17
ENDBRANCH  15  16
ENDBRANCH   1  15
TORSDOF 22
ENDMDL
MODEL 9
REMARK VINA RESULT:    -5.035      3.020      5.965
REMARK INTER + INTRA:         -14.590
REMARK INTER:                 -11.234
REMARK INTRA:                  -3.356
REMARK UNBOUND:                -3.079
REMARK SMILES CCCCCCCCCCCCCCCCCCCCCCCC(=O)[O-]
REMARK SMILES IDX 13 1 14 2 15 3 16 4 17 5 18 6 19 7 20 8 21 9 22 10 23 11
REMARK SMILES IDX 24 12 25 13 26 14 12 15 11 16 10 17 9 18 8 19 7 20 6 21 5 22
REMARK SMILES IDX 4 23 3 24 2 25 1 26
REMARK H PARENT
REMARK Flexibility Score: inf
ROOT
ATOM      1  C   UNL     1     -21.497 -25.698  16.846  1.00  0.00     0.000 C 
ENDROOT
BRANCH   1   2
ATOM      2  C   UNL     1     -22.856 -26.070  16.234  1.00  0.00     0.000 C 
BRANCH   2   3
ATOM      3  C   UNL     1     -23.730 -26.897  17.190  1.00  0.00     0.000 C 
BRANCH   3   4
ATOM      4  C   UNL     1     -22.915 -27.915  18.007  1.00  0.00     0.000 C 
BRANCH   4   5
ATOM      5  C   UNL     1     -22.867 -29.300  17.327  1.00  0.00     0.000 C 
BRANCH   5   6
ATOM      6  C   UNL     1     -21.443 -29.858  17.162  1.00  0.00     0.000 C 
BRANCH   6   7
ATOM      7  C   UNL     1     -20.654 -29.162  16.040  1.00  0.00     0.000 C 
BRANCH   7   8
ATOM      8  C   UNL     1     -21.349 -29.276  14.674  1.00  0.00     0.000 C 
BRANCH   8   9
ATOM      9  C   UNL     1     -21.706 -30.729  14.313  1.00  0.00     0.000 C 
BRANCH   9  10
ATOM     10  C   UNL     1     -21.039 -31.198  13.007  1.00  0.00     0.006 C 
BRANCH  10  11
ATOM     11  C   UNL     1     -20.429 -30.066  12.165  1.00  0.00     0.053 C 
BRANCH  11  12
ATOM     12  C   UNL     1     -19.697 -30.589  10.968  1.00  0.00     0.041 C 
ATOM     13  O   UNL     1     -20.328 -31.131  10.023  1.00  0.00    -0.550 OA
ATOM     14  O   UNL     1     -18.310 -30.506  10.910  1.00  0.00    -0.550 OA
ENDBRANCH  11  12
ENDBRANCH  10  11
ENDBRANCH   9  10
ENDBRANCH   8   9
ENDBRANCH   7   8
ENDBRANCH   6   7
ENDBRANCH   5   6
ENDBRANCH   4   5
ENDBRANCH   3   4
ENDBRANCH   2   3
ENDBRANCH   1   2
BRANCH   1  15
ATOM     15  C   UNL     1     -20.375 -25.833  15.809  1.00  0.00     0.000 C 
BRANCH  15  16
ATOM     16  C   UNL     1     -20.617 -24.907  14.608  1.00  0.00     0.000 C 
BRANCH  16  17
ATOM     17  C   UNL     1     -19.462 -23.915  14.387  1.00  0.00     0.000 C 
BRANCH  17  18
ATOM     18  C   UNL     1     -19.195 -23.647  12.898  1.00  0.00    -0.000 C 
BRANCH  18  19
ATOM     19  C   UNL     1     -19.225 -24.952  12.090  1.00  0.00    -0.000 C 
BRANCH  19  20
ATOM     20  C   UNL     1     -17.956 -25.781  12.343  1.00  0.00    -0.000 C 
BRANCH  20  21
ATOM     21  C   UNL     1     -18.256 -27.132  13.014  1.00  0.00    -0.000 C 
BRANCH  21  22
ATOM     22  C   UNL     1     -17.349 -27.406  14.223  1.00  0.00    -0.000 C 
BRANCH  22  23
ATOM     23  C   UNL     1     -16.457 -26.195  14.526  1.00  0.00    -0.000 C 
BRANCH  23  24
ATOM     24  C   UNL     1     -16.579 -25.778  16.000  1.00  0.00    -0.000 C 
BRANCH  24  25
ATOM     25  C   UNL     1     -15.365 -26.209  16.838  1.00  0.00    -0.003 C 
ATOM     26  C   UNL     1     -14.091 -25.449  16.469  1.00  0.00     0.004 C 
ENDBRANCH  24  25
ENDBRANCH  23  24
ENDBRANCH  22  23
ENDBRANCH  21  22
ENDBRANCH  20  21
ENDBRANCH  19  20
ENDBRANCH  18  19
ENDBRANCH  17  18
ENDBRANCH  16  17
ENDBRANCH  15  16
ENDBRANCH   1  15
TORSDOF 22
ENDMDL
