MODEL 1
REMARK VINA RESULT:    -4.012      0.000      0.000
REMARK INTER + INTRA:          -4.540
REMARK INTER:                  -4.364
REMARK INTRA:                  -0.176
REMARK UNBOUND:                -0.176
REMARK SMILES O=C([O-])c1ccccc1O
REMARK SMILES IDX 4 1 9 2 5 3 8 4 6 5 7 6 2 7 1 8 3 9 10 10
REMARK H PARENT 10 11
REMARK Flexibility Score: inf
ROOT
ATOM      1  C   UNL     1      19.476  11.010  -8.812  1.00  0.00     0.039 A 
ATOM      2  C   UNL     1      20.802  10.667  -9.183  1.00  0.00     0.124 A 
ATOM      3  C   UNL     1      18.945  10.483  -7.620  1.00  0.00     0.014 A 
ATOM      4  C   UNL     1      21.530   9.766  -8.395  1.00  0.00     0.047 A 
ATOM      5  C   UNL     1      19.692   9.602  -6.834  1.00  0.00     0.001 A 
ATOM      6  C   UNL     1      20.980   9.236  -7.227  1.00  0.00     0.004 A 
ENDROOT
BRANCH   1   7
ATOM      7  C   UNL     1      18.616  11.874  -9.650  1.00  0.00     0.075 C 
ATOM      8  O   UNL     1      18.861  13.106  -9.747  1.00  0.00    -0.545 OA
ATOM      9  O   UNL     1      17.493  11.358 -10.284  1.00  0.00    -0.545 OA
ENDBRANCH   1   7
BRANCH   2  10
ATOM     10  O   UNL     1      21.439  11.221 -10.294  1.00  0.00    -0.507 OA
ATOM     11  H   UNL     1      20.999  11.892 -10.910  1.00  0.00     0.293 HD
ENDBRANCH   2  10
TORSDOF 2
ENDMDL
MODEL 2
REMARK VINA RESULT:    -3.811      1.153      2.149
REMARK INTER + INTRA:          -4.320
REMARK INTER:                  -4.084
REMARK INTRA:                  -0.236
REMARK UNBOUND:                -0.176
REMARK SMILES O=C([O-])c1ccccc1O
REMARK SMILES IDX 4 1 9 2 5 3 8 4 6 5 7 6 2 7 1 8 3 9 10 10
REMARK H PARENT 10 11
REMARK Flexibility Score: inf
ROOT
ATOM      1  C   UNL     1      19.627  11.074  -9.217  1.00  0.00     0.039 A 
ATOM      2  C   UNL     1      19.202  10.240  -8.151  1.00  0.00     0.124 A 
ATOM      3  C   UNL     1      20.980  11.047  -9.603  1.00  0.00     0.014 A 
ATOM      4  C   UNL     1      20.141   9.459  -7.466  1.00  0.00     0.047 A 
ATOM      5  C   UNL     1      21.901  10.247  -8.923  1.00  0.00     0.001 A 
ATOM      6  C   UNL     1      21.483   9.460  -7.848  1.00  0.00     0.004 A 
ENDROOT
BRANCH   1   7
ATOM      7  C   UNL     1      18.709  12.000  -9.915  1.00  0.00     0.075 C 
ATOM      8  O   UNL     1      18.948  13.237  -9.929  1.00  0.00    -0.545 OA
ATOM      9  O   UNL     1      17.540  11.533 -10.504  1.00  0.00    -0.545 OA
ENDBRANCH   1   7
BRANCH   2  10
ATOM     10  O   UNL     1      17.864  10.132  -7.769  1.00  0.00    -0.507 OA
ATOM     11  H   UNL     1      17.438   9.263  -7.475  1.00  0.00     0.293 HD
ENDBRANCH   2  10
TORSDOF 2
ENDMDL
MODEL 3
REMARK VINA RESULT:    -3.629      2.788      3.723
REMARK INTER + INTRA:          -4.123
REMARK INTER:                  -3.938
REMARK INTRA:                  -0.185
REMARK UNBOUND:                -0.176
REMARK SMILES O=C([O-])c1ccccc1O
REMARK SMILES IDX 4 1 9 2 5 3 8 4 6 5 7 6 2 7 1 8 3 9 10 10
REMARK H PARENT 10 11
REMARK Flexibility Score: inf
ROOT
ATOM      1  C   UNL     1      20.418   9.988  -7.282  1.00  0.00     0.039 A 
ATOM      2  C   UNL     1      21.370   9.998  -8.333  1.00  0.00     0.124 A 
ATOM      3  C   UNL     1      19.193  10.656  -7.467  1.00  0.00     0.014 A 
ATOM      4  C   UNL     1      21.103  10.722  -9.502  1.00  0.00     0.047 A 
ATOM      5  C   UNL     1      18.933  11.355  -8.648  1.00  0.00     0.001 A 
ATOM      6  C   UNL     1      19.891  11.396  -9.661  1.00  0.00     0.004 A 
ENDROOT
BRANCH   1   7
ATOM      7  C   UNL     1      20.678   9.332  -5.982  1.00  0.00     0.075 C 
ATOM      8  O   UNL     1      20.835  10.027  -4.943  1.00  0.00    -0.545 OA
ATOM      9  O   UNL     1      20.822   7.953  -5.897  1.00  0.00    -0.545 OA
ENDBRANCH   1   7
BRANCH   2  10
ATOM     10  O   UNL     1      22.566   9.282  -8.271  1.00  0.00    -0.507 OA
ATOM     11  H   UNL     1      22.632   8.291  -8.463  1.00  0.00     0.293 HD
ENDBRANCH   2  10
TORSDOF 2
ENDMDL
MODEL 4
REMARK VINA RESULT:    -3.621      1.949      4.298
REMARK INTER + INTRA:          -4.115
REMARK INTER:                  -3.870
REMARK INTRA:                  -0.245
REMARK UNBOUND:                -0.176
REMARK SMILES O=C([O-])c1ccccc1O
REMARK SMILES IDX 4 1 9 2 5 3 8 4 6 5 7 6 2 7 1 8 3 9 10 10
REMARK H PARENT 10 11
REMARK Flexibility Score: inf
ROOT
ATOM      1  C   UNL     1      18.633  11.657  -9.345  1.00  0.00     0.039 A 
ATOM      2  C   UNL     1      17.431  11.356 -10.035  1.00  0.00     0.124 A 
ATOM      3  C   UNL     1      19.227  12.919  -9.531  1.00  0.00     0.014 A 
ATOM      4  C   UNL     1      16.895  12.289 -10.932  1.00  0.00     0.047 A 
ATOM      5  C   UNL     1      18.668  13.847 -10.413  1.00  0.00     0.001 A 
ATOM      6  C   UNL     1      17.509  13.528 -11.121  1.00  0.00     0.004 A 
ENDROOT
BRANCH   1   7
ATOM      7  C   UNL     1      19.307  10.679  -8.463  1.00  0.00     0.075 C 
ATOM      8  O   UNL     1      20.512  10.372  -8.665  1.00  0.00    -0.545 OA
ATOM      9  O   UNL     1      18.609  10.037  -7.448  1.00  0.00    -0.545 OA
ENDBRANCH   1   7
BRANCH   2  10
ATOM     10  O   UNL     1      16.725  10.169  -9.834  1.00  0.00    -0.507 OA
ATOM     11  H   UNL     1      16.056  10.039  -9.087  1.00  0.00     0.293 HD
ENDBRANCH   2  10
TORSDOF 2
ENDMDL
MODEL 5
REMARK VINA RESULT:    -3.339      1.185      3.130
REMARK INTER + INTRA:          -3.808
REMARK INTER:                  -3.560
REMARK INTRA:                  -0.248
REMARK UNBOUND:                -0.176
REMARK SMILES O=C([O-])c1ccccc1O
REMARK SMILES IDX 4 1 9 2 5 3 8 4 6 5 7 6 2 7 1 8 3 9 10 10
REMARK H PARENT 10 11
REMARK Flexibility Score: inf
ROOT
ATOM      1  C   UNL     1      21.101  10.378  -8.803  1.00  0.00     0.039 A 
ATOM      2  C   UNL     1      19.871  11.048  -9.029  1.00  0.00     0.124 A 
ATOM      3  C   UNL     1      21.230   9.559  -7.666  1.00  0.00     0.014 A 
ATOM      4  C   UNL     1      18.838  10.934  -8.089  1.00  0.00     0.047 A 
ATOM      5  C   UNL     1      20.183   9.439  -6.749  1.00  0.00     0.001 A 
ATOM      6  C   UNL     1      18.991  10.134  -6.956  1.00  0.00     0.004 A 
ENDROOT
BRANCH   1   7
ATOM      7  C   UNL     1      22.267  10.537  -9.699  1.00  0.00     0.075 C 
ATOM      8  O   UNL     1      23.125   9.618  -9.788  1.00  0.00    -0.545 OA
ATOM      9  O   UNL     1      22.470  11.719 -10.399  1.00  0.00    -0.545 OA
ENDBRANCH   1   7
BRANCH   2  10
ATOM     10  O   UNL     1      19.624  11.799 -10.178  1.00  0.00    -0.507 OA
ATOM     11  H   UNL     1      20.326  11.984 -10.883  1.00  0.00     0.293 HD
ENDBRANCH   2  10
TORSDOF 2
ENDMDL
MODEL 6
REMARK VINA RESULT:    -3.228      2.173      3.311
REMARK INTER + INTRA:          -3.687
REMARK INTER:                  -3.441
REMARK INTRA:                  -0.246
REMARK UNBOUND:                -0.176
REMARK SMILES O=C([O-])c1ccccc1O
REMARK SMILES IDX 4 1 9 2 5 3 8 4 6 5 7 6 2 7 1 8 3 9 10 10
REMARK H PARENT 10 11
REMARK Flexibility Score: inf
ROOT
ATOM      1  C   UNL     1      21.067  10.523  -8.916  1.00  0.00     0.039 A 
ATOM      2  C   UNL     1      20.946   9.638  -7.813  1.00  0.00     0.124 A 
ATOM      3  C   UNL     1      19.969  11.333  -9.262  1.00  0.00     0.014 A 
ATOM      4  C   UNL     1      19.725   9.540  -7.135  1.00  0.00     0.047 A 
ATOM      5  C   UNL     1      18.765  11.238  -8.562  1.00  0.00     0.001 A 
ATOM      6  C   UNL     1      18.639  10.336  -7.505  1.00  0.00     0.004 A 
ENDROOT
BRANCH   1   7
ATOM      7  C   UNL     1      22.294  10.601  -9.739  1.00  0.00     0.075 C 
ATOM      8  O   UNL     1      22.564  11.657 -10.372  1.00  0.00    -0.545 OA
ATOM      9  O   UNL     1      23.125   9.498  -9.883  1.00  0.00    -0.545 OA
ENDBRANCH   1   7
BRANCH   2  10
ATOM     10  O   UNL     1      22.014   8.873  -7.343  1.00  0.00    -0.507 OA
ATOM     11  H   UNL     1      21.911   8.134  -6.660  1.00  0.00     0.293 HD
ENDBRANCH   2  10
TORSDOF 2
ENDMDL
MODEL 7
REMARK VINA RESULT:    -3.160     11.980     13.109
REMARK INTER + INTRA:          -3.613
REMARK INTER:                  -3.363
REMARK INTRA:                  -0.250
REMARK UNBOUND:                -0.176
REMARK SMILES O=C([O-])c1ccccc1O
REMARK SMILES IDX 4 1 9 2 5 3 8 4 6 5 7 6 2 7 1 8 3 9 10 10
REMARK H PARENT 10 11
REMARK Flexibility Score: inf
ROOT
ATOM      1  C   UNL     1      21.210  -1.607  -8.230  1.00  0.00     0.039 A 
ATOM      2  C   UNL     1      21.308  -2.350  -7.026  1.00  0.00     0.124 A 
ATOM      3  C   UNL     1      19.989  -1.607  -8.932  1.00  0.00     0.014 A 
ATOM      4  C   UNL     1      20.219  -3.117  -6.594  1.00  0.00     0.047 A 
ATOM      5  C   UNL     1      18.905  -2.360  -8.476  1.00  0.00     0.001 A 
ATOM      6  C   UNL     1      19.023  -3.122  -7.314  1.00  0.00     0.004 A 
ENDROOT
BRANCH   1   7
ATOM      7  C   UNL     1      22.353  -0.859  -8.797  1.00  0.00     0.075 C 
ATOM      8  O   UNL     1      22.701  -1.047  -9.993  1.00  0.00    -0.545 OA
ATOM      9  O   UNL     1      23.100   0.006  -8.007  1.00  0.00    -0.545 OA
ENDBRANCH   1   7
BRANCH   2  10
ATOM     10  O   UNL     1      22.447  -2.326  -6.219  1.00  0.00    -0.507 OA
ATOM     11  H   UNL     1      22.535  -1.741  -5.399  1.00  0.00     0.293 HD
ENDBRANCH   2  10
TORSDOF 2
ENDMDL
MODEL 8
REMARK VINA RESULT:    -3.127     11.715     12.713
REMARK INTER + INTRA:          -3.577
REMARK INTER:                  -3.359
REMARK INTRA:                  -0.219
REMARK UNBOUND:                -0.176
REMARK SMILES O=C([O-])c1ccccc1O
REMARK SMILES IDX 4 1 9 2 5 3 8 4 6 5 7 6 2 7 1 8 3 9 10 10
REMARK H PARENT 10 11
REMARK Flexibility Score: inf
ROOT
ATOM      1  C   UNL     1      20.068  -1.430  -8.529  1.00  0.00     0.039 A 
ATOM      2  C   UNL     1      19.554  -2.393  -7.624  1.00  0.00     0.124 A 
ATOM      3  C   UNL     1      21.449  -1.161  -8.525  1.00  0.00     0.014 A 
ATOM      4  C   UNL     1      20.414  -3.007  -6.705  1.00  0.00     0.047 A 
ATOM      5  C   UNL     1      22.297  -1.798  -7.616  1.00  0.00     0.001 A 
ATOM      6  C   UNL     1      21.778  -2.714  -6.700  1.00  0.00     0.004 A 
ENDROOT
BRANCH   1   7
ATOM      7  C   UNL     1      19.200  -0.669  -9.455  1.00  0.00     0.075 C 
ATOM      8  O   UNL     1      18.542  -1.272 -10.344  1.00  0.00    -0.545 OA
ATOM      9  O   UNL     1      19.150   0.718  -9.404  1.00  0.00    -0.545 OA
ENDBRANCH   1   7
BRANCH   2  10
ATOM     10  O   UNL     1      18.216  -2.790  -7.628  1.00  0.00    -0.507 OA
ATOM     11  H   UNL     1      17.460  -2.202  -7.303  1.00  0.00     0.293 HD
ENDBRANCH   2  10
TORSDOF 2
ENDMDL
MODEL 9
REMARK VINA RESULT:    -2.940     11.950     13.196
REMARK INTER + INTRA:          -3.374
REMARK INTER:                  -3.170
REMARK INTRA:                  -0.204
REMARK UNBOUND:                -0.176
REMARK SMILES O=C([O-])c1ccccc1O
REMARK SMILES IDX 4 1 9 2 5 3 8 4 6 5 7 6 2 7 1 8 3 9 10 10
REMARK H PARENT 10 11
REMARK Flexibility Score: inf
ROOT
ATOM      1  C   UNL     1      21.219  -2.007  -7.491  1.00  0.00     0.039 A 
ATOM      2  C   UNL     1      21.008  -1.008  -8.476  1.00  0.00     0.124 A 
ATOM      3  C   UNL     1      20.224  -2.981  -7.287  1.00  0.00     0.014 A 
ATOM      4  C   UNL     1      19.796  -0.971  -9.177  1.00  0.00     0.047 A 
ATOM      5  C   UNL     1      19.029  -2.942  -8.009  1.00  0.00     0.001 A 
ATOM      6  C   UNL     1      18.811  -1.932  -8.947  1.00  0.00     0.004 A 
ENDROOT
BRANCH   1   7
ATOM      7  C   UNL     1      22.431  -2.042  -6.643  1.00  0.00     0.075 C 
ATOM      8  O   UNL     1      23.125  -3.092  -6.577  1.00  0.00    -0.545 OA
ATOM      9  O   UNL     1      22.783  -0.951  -5.859  1.00  0.00    -0.545 OA
ENDBRANCH   1   7
BRANCH   2  10
ATOM     10  O   UNL     1      21.982  -0.065  -8.810  1.00  0.00    -0.507 OA
ATOM     11  H   UNL     1      21.889   0.923  -8.617  1.00  0.00     0.293 HD
ENDBRANCH   2  10
TORSDOF 2
ENDMDL
