MODEL 1
REMARK VINA RESULT:    -2.991      0.000      0.000
REMARK INTER + INTRA:          -6.281
REMARK INTER:                  -5.788
REMARK INTRA:                  -0.492
REMARK UNBOUND:                -0.492
REMARK SMILES CCCCCCCCCCCCCCCCCC(=O)[O-]
REMARK SMILES IDX 10 1 11 2 12 3 13 4 14 5 15 6 16 7 17 8 18 9 19 10 20 11
REMARK SMILES IDX 9 12 8 13 7 14 6 15 5 16 4 17 3 18 2 19 1 20
REMARK H PARENT
REMARK Flexibility Score: inf
ROOT
ATOM      1  C   UNL     1      23.877   1.734  -2.981  1.00  0.00     0.000 C 
ENDROOT
BRANCH   1   2
ATOM      2  C   UNL     1      23.908   3.223  -2.589  1.00  0.00     0.000 C 
BRANCH   2   3
ATOM      3  C   UNL     1      25.235   3.710  -1.979  1.00  0.00     0.000 C 
BRANCH   3   4
ATOM      4  C   UNL     1      25.300   5.240  -1.830  1.00  0.00     0.000 C 
BRANCH   4   5
ATOM      5  C   UNL     1      26.549   5.714  -1.066  1.00  0.00     0.000 C 
BRANCH   5   6
ATOM      6  C   UNL     1      26.763   7.241  -1.031  1.00  0.00     0.000 C 
BRANCH   6   7
ATOM      7  C   UNL     1      28.234   7.694  -1.010  1.00  0.00     0.006 C 
BRANCH   7   8
ATOM      8  C   UNL     1      28.388   9.219  -1.003  1.00  0.00     0.053 C 
BRANCH   8   9
ATOM      9  C   UNL     1      28.482   9.742  -2.401  1.00  0.00     0.041 C 
ATOM     10  O   UNL     1      28.616   8.947  -3.367  1.00  0.00    -0.550 OA
ATOM     11  O   UNL     1      28.470  11.112  -2.633  1.00  0.00    -0.550 OA
ENDBRANCH   8   9
ENDBRANCH   7   8
ENDBRANCH   6   7
ENDBRANCH   5   6
ENDBRANCH   4   5
ENDBRANCH   3   4
ENDBRANCH   2   3
ENDBRANCH   1   2
BRANCH   1  12
ATOM     12  C   UNL     1      22.568   1.034  -2.573  1.00  0.00     0.000 C 
BRANCH  12  13
ATOM     13  C   UNL     1      22.540  -0.447  -2.981  1.00  0.00    -0.000 C 
BRANCH  13  14
ATOM     14  C   UNL     1      23.654  -1.265  -2.302  1.00  0.00    -0.000 C 
BRANCH  14  15
ATOM     15  C   UNL     1      24.626  -1.895  -3.311  1.00  0.00    -0.000 C 
BRANCH  15  16
ATOM     16  C   UNL     1      25.768  -2.666  -2.628  1.00  0.00    -0.000 C 
BRANCH  16  17
ATOM     17  C   UNL     1      26.219  -3.902  -3.426  1.00  0.00    -0.000 C 
BRANCH  17  18
ATOM     18  C   UNL     1      26.498  -5.159  -2.582  1.00  0.00    -0.000 C 
BRANCH  18  19
ATOM     19  C   UNL     1      27.854  -5.111  -1.865  1.00  0.00    -0.003 C 
ATOM     20  C   UNL     1      27.681  -4.799  -0.380  1.00  0.00     0.004 C 
ENDBRANCH  18  19
ENDBRANCH  17  18
ENDBRANCH  16  17
ENDBRANCH  15  16
ENDBRANCH  14  15
ENDBRANCH  13  14
ENDBRANCH  12  13
ENDBRANCH   1  12
TORSDOF 16
ENDMDL
MODEL 2
REMARK VINA RESULT:    -2.874      0.885      1.369
REMARK INTER + INTRA:          -6.055
REMARK INTER:                  -5.262
REMARK INTRA:                  -0.793
REMARK UNBOUND:                -0.492
REMARK SMILES CCCCCCCCCCCCCCCCCC(=O)[O-]
REMARK SMILES IDX 10 1 11 2 12 3 13 4 14 5 15 6 16 7 17 8 18 9 19 10 20 11
REMARK SMILES IDX 9 12 8 13 7 14 6 15 5 16 4 17 3 18 2 19 1 20
REMARK H PARENT
REMARK Flexibility Score: inf
ROOT
ATOM      1  C   UNL     1      23.516   1.397  -3.241  1.00  0.00     0.000 C 
ENDROOT
BRANCH   1   2
ATOM      2  C   UNL     1      24.060   2.482  -2.293  1.00  0.00     0.000 C 
BRANCH   2   3
ATOM      3  C   UNL     1      23.770   3.931  -2.724  1.00  0.00     0.000 C 
BRANCH   3   4
ATOM      4  C   UNL     1      24.883   4.912  -2.318  1.00  0.00     0.000 C 
BRANCH   4   5
ATOM      5  C   UNL     1      25.741   4.394  -1.151  1.00  0.00     0.000 C 
BRANCH   5   6
ATOM      6  C   UNL     1      26.879   5.332  -0.699  1.00  0.00     0.000 C 
BRANCH   6   7
ATOM      7  C   UNL     1      26.726   6.801  -1.134  1.00  0.00     0.006 C 
BRANCH   7   8
ATOM      8  C   UNL     1      28.065   7.544  -1.205  1.00  0.00     0.053 C 
BRANCH   8   9
ATOM      9  C   UNL     1      27.903   8.843  -1.929  1.00  0.00     0.041 C 
ATOM     10  O   UNL     1      27.963   9.931  -1.300  1.00  0.00    -0.550 OA
ATOM     11  O   UNL     1      27.638   8.850  -3.293  1.00  0.00    -0.550 OA
ENDBRANCH   8   9
ENDBRANCH   7   8
ENDBRANCH   6   7
ENDBRANCH   5   6
ENDBRANCH   4   5
ENDBRANCH   3   4
ENDBRANCH   2   3
ENDBRANCH   1   2
BRANCH   1  12
ATOM     12  C   UNL     1      22.508   0.455  -2.558  1.00  0.00     0.000 C 
BRANCH  12  13
ATOM     13  C   UNL     1      23.104  -0.930  -2.263  1.00  0.00    -0.000 C 
BRANCH  13  14
ATOM     14  C   UNL     1      24.170  -1.344  -3.292  1.00  0.00    -0.000 C 
BRANCH  14  15
ATOM     15  C   UNL     1      25.339  -2.115  -2.659  1.00  0.00    -0.000 C 
BRANCH  15  16
ATOM     16  C   UNL     1      25.756  -3.340  -3.489  1.00  0.00    -0.000 C 
BRANCH  16  17
ATOM     17  C   UNL     1      27.170  -3.843  -3.147  1.00  0.00    -0.000 C 
BRANCH  17  18
ATOM     18  C   UNL     1      27.289  -5.363  -2.929  1.00  0.00    -0.000 C 
BRANCH  18  19
ATOM     19  C   UNL     1      27.160  -5.768  -1.453  1.00  0.00    -0.003 C 
ATOM     20  C   UNL     1      27.596  -4.632  -0.531  1.00  0.00     0.004 C 
ENDBRANCH  18  19
ENDBRANCH  17  18
ENDBRANCH  16  17
ENDBRANCH  15  16
ENDBRANCH  14  15
ENDBRANCH  13  14
ENDBRANCH  12  13
ENDBRANCH   1  12
TORSDOF 16
ENDMDL
MODEL 3
REMARK VINA RESULT:    -2.817      4.784     10.800
REMARK INTER + INTRA:          -5.943
REMARK INTER:                  -5.273
REMARK INTRA:                  -0.671
REMARK UNBOUND:                -0.492
REMARK SMILES CCCCCCCCCCCCCCCCCC(=O)[O-]
REMARK SMILES IDX 10 1 11 2 12 3 13 4 14 5 15 6 16 7 17 8 18 9 19 10 20 11
REMARK SMILES IDX 9 12 8 13 7 14 6 15 5 16 4 17 3 18 2 19 1 20
REMARK H PARENT
REMARK Flexibility Score: inf
ROOT
ATOM      1  C   UNL     1      23.803   2.938  -2.572  1.00  0.00     0.000 C 
ENDROOT
BRANCH   1   2
ATOM      2  C   UNL     1      23.847   1.442  -2.933  1.00  0.00     0.000 C 
BRANCH   2   3
ATOM      3  C   UNL     1      22.568   0.651  -2.599  1.00  0.00     0.000 C 
BRANCH   3   4
ATOM      4  C   UNL     1      22.750  -0.870  -2.739  1.00  0.00     0.000 C 
BRANCH   4   5
ATOM      5  C   UNL     1      24.117  -1.359  -2.230  1.00  0.00     0.000 C 
BRANCH   5   6
ATOM      6  C   UNL     1      24.963  -2.142  -3.255  1.00  0.00     0.000 C 
BRANCH   6   7
ATOM      7  C   UNL     1      26.230  -2.806  -2.684  1.00  0.00     0.006 C 
BRANCH   7   8
ATOM      8  C   UNL     1      26.177  -4.337  -2.742  1.00  0.00     0.053 C 
BRANCH   8   9
ATOM      9  C   UNL     1      27.388  -4.926  -2.091  1.00  0.00     0.041 C 
ATOM     10  O   UNL     1      28.161  -5.671  -2.747  1.00  0.00    -0.550 OA
ATOM     11  O   UNL     1      27.636  -4.691  -0.744  1.00  0.00    -0.550 OA
ENDBRANCH   8   9
ENDBRANCH   7   8
ENDBRANCH   6   7
ENDBRANCH   5   6
ENDBRANCH   4   5
ENDBRANCH   3   4
ENDBRANCH   2   3
ENDBRANCH   1   2
BRANCH   1  12
ATOM     12  C   UNL     1      25.200   3.542  -2.347  1.00  0.00     0.000 C 
BRANCH  12  13
ATOM     13  C   UNL     1      25.265   4.428  -1.094  1.00  0.00    -0.000 C 
BRANCH  13  14
ATOM     14  C   UNL     1      26.607   5.170  -0.966  1.00  0.00    -0.000 C 
BRANCH  14  15
ATOM     15  C   UNL     1      26.469   6.686  -1.175  1.00  0.00    -0.000 C 
BRANCH  15  16
ATOM     16  C   UNL     1      27.777   7.443  -0.886  1.00  0.00    -0.000 C 
BRANCH  16  17
ATOM     17  C   UNL     1      27.557   8.942  -0.619  1.00  0.00    -0.000 C 
BRANCH  17  18
ATOM     18  C   UNL     1      28.243   9.892  -1.618  1.00  0.00    -0.000 C 
BRANCH  18  19
ATOM     19  C   UNL     1      28.550   9.224  -2.966  1.00  0.00    -0.003 C 
ATOM     20  C   UNL     1      27.419   9.454  -3.964  1.00  0.00     0.004 C 
ENDBRANCH  18  19
ENDBRANCH  17  18
ENDBRANCH  16  17
ENDBRANCH  15  16
ENDBRANCH  14  15
ENDBRANCH  13  14
ENDBRANCH  12  13
ENDBRANCH   1  12
TORSDOF 16
ENDMDL
MODEL 4
REMARK VINA RESULT:    -2.526      4.821     10.751
REMARK INTER + INTRA:          -5.381
REMARK INTER:                  -4.747
REMARK INTRA:                  -0.634
REMARK UNBOUND:                -0.492
REMARK SMILES CCCCCCCCCCCCCCCCCC(=O)[O-]
REMARK SMILES IDX 10 1 11 2 12 3 13 4 14 5 15 6 16 7 17 8 18 9 19 10 20 11
REMARK SMILES IDX 9 12 8 13 7 14 6 15 5 16 4 17 3 18 2 19 1 20
REMARK H PARENT
REMARK Flexibility Score: inf
ROOT
ATOM      1  C   UNL     1      23.820   1.466  -3.092  1.00  0.00     0.000 C 
ENDROOT
BRANCH   1   2
ATOM      2  C   UNL     1      22.648   0.562  -2.665  1.00  0.00     0.000 C 
BRANCH   2   3
ATOM      3  C   UNL     1      23.020  -0.909  -2.404  1.00  0.00     0.000 C 
BRANCH   3   4
ATOM      4  C   UNL     1      24.195  -1.394  -3.270  1.00  0.00     0.000 C 
BRANCH   4   5
ATOM      5  C   UNL     1      25.101  -2.401  -2.540  1.00  0.00     0.000 C 
BRANCH   5   6
ATOM      6  C   UNL     1      26.281  -2.950  -3.368  1.00  0.00     0.000 C 
BRANCH   6   7
ATOM      7  C   UNL     1      26.115  -4.399  -3.860  1.00  0.00     0.006 C 
BRANCH   7   8
ATOM      8  C   UNL     1      26.229  -5.428  -2.730  1.00  0.00     0.053 C 
BRANCH   8   9
ATOM      9  C   UNL     1      27.551  -5.305  -2.043  1.00  0.00     0.041 C 
ATOM     10  O   UNL     1      28.599  -5.715  -2.606  1.00  0.00    -0.550 OA
ATOM     11  O   UNL     1      27.621  -4.782  -0.757  1.00  0.00    -0.550 OA
ENDBRANCH   8   9
ENDBRANCH   7   8
ENDBRANCH   6   7
ENDBRANCH   5   6
ENDBRANCH   4   5
ENDBRANCH   3   4
ENDBRANCH   2   3
ENDBRANCH   1   2
BRANCH   1  12
ATOM     12  C   UNL     1      23.816   2.829  -2.379  1.00  0.00     0.000 C 
BRANCH  12  13
ATOM     13  C   UNL     1      25.225   3.429  -2.247  1.00  0.00    -0.000 C 
BRANCH  13  14
ATOM     14  C   UNL     1      25.199   4.955  -2.057  1.00  0.00    -0.000 C 
BRANCH  14  15
ATOM     15  C   UNL     1      25.909   5.405  -0.770  1.00  0.00    -0.000 C 
BRANCH  15  16
ATOM     16  C   UNL     1      27.128   6.300  -1.051  1.00  0.00    -0.000 C 
BRANCH  16  17
ATOM     17  C   UNL     1      26.741   7.704  -1.546  1.00  0.00    -0.000 C 
BRANCH  17  18
ATOM     18  C   UNL     1      27.862   8.477  -2.263  1.00  0.00    -0.000 C 
BRANCH  18  19
ATOM     19  C   UNL     1      28.358   9.692  -1.466  1.00  0.00    -0.003 C 
ATOM     20  C   UNL     1      27.923   9.606  -0.005  1.00  0.00     0.004 C 
ENDBRANCH  18  19
ENDBRANCH  17  18
ENDBRANCH  16  17
ENDBRANCH  15  16
ENDBRANCH  14  15
ENDBRANCH  13  14
ENDBRANCH  12  13
ENDBRANCH   1  12
TORSDOF 16
ENDMDL
MODEL 5
REMARK VINA RESULT:    -2.293      4.551     10.615
REMARK INTER + INTRA:          -4.930
REMARK INTER:                  -4.470
REMARK INTRA:                  -0.460
REMARK UNBOUND:                -0.492
REMARK SMILES CCCCCCCCCCCCCCCCCC(=O)[O-]
REMARK SMILES IDX 10 1 11 2 12 3 13 4 14 5 15 6 16 7 17 8 18 9 19 10 20 11
REMARK SMILES IDX 9 12 8 13 7 14 6 15 5 16 4 17 3 18 2 19 1 20
REMARK H PARENT
REMARK Flexibility Score: inf
ROOT
ATOM      1  C   UNL     1      22.895   0.217  -2.301  1.00  0.00     0.000 C 
ENDROOT
BRANCH   1   2
ATOM      2  C   UNL     1      23.366  -1.249  -2.297  1.00  0.00     0.000 C 
BRANCH   2   3
ATOM      3  C   UNL     1      24.382  -1.612  -3.396  1.00  0.00     0.000 C 
BRANCH   3   4
ATOM      4  C   UNL     1      25.586  -2.406  -2.861  1.00  0.00     0.000 C 
BRANCH   4   5
ATOM      5  C   UNL     1      25.773  -3.759  -3.570  1.00  0.00     0.000 C 
BRANCH   5   6
ATOM      6  C   UNL     1      27.222  -4.097  -3.978  1.00  0.00     0.000 C 
BRANCH   6   7
ATOM      7  C   UNL     1      27.887  -5.216  -3.157  1.00  0.00     0.006 C 
BRANCH   7   8
ATOM      8  C   UNL     1      27.084  -5.595  -1.907  1.00  0.00     0.053 C 
BRANCH   8   9
ATOM      9  C   UNL     1      27.586  -4.844  -0.715  1.00  0.00     0.041 C 
ATOM     10  O   UNL     1      26.987  -3.811  -0.318  1.00  0.00    -0.550 OA
ATOM     11  O   UNL     1      28.746  -5.256  -0.071  1.00  0.00    -0.550 OA
ENDBRANCH   8   9
ENDBRANCH   7   8
ENDBRANCH   6   7
ENDBRANCH   5   6
ENDBRANCH   4   5
ENDBRANCH   3   4
ENDBRANCH   2   3
ENDBRANCH   1   2
BRANCH   1  12
ATOM     12  C   UNL     1      23.856   1.153  -3.054  1.00  0.00     0.000 C 
BRANCH  12  13
ATOM     13  C   UNL     1      23.716   2.619  -2.615  1.00  0.00    -0.000 C 
BRANCH  13  14
ATOM     14  C   UNL     1      25.066   3.248  -2.229  1.00  0.00    -0.000 C 
BRANCH  14  15
ATOM     15  C   UNL     1      24.994   4.779  -2.111  1.00  0.00    -0.000 C 
BRANCH  15  16
ATOM     16  C   UNL     1      26.151   5.362  -1.282  1.00  0.00    -0.000 C 
BRANCH  16  17
ATOM     17  C   UNL     1      26.310   6.882  -1.458  1.00  0.00    -0.000 C 
BRANCH  17  18
ATOM     18  C   UNL     1      27.585   7.483  -0.839  1.00  0.00    -0.000 C 
BRANCH  18  19
ATOM     19  C   UNL     1      27.468   8.989  -0.569  1.00  0.00    -0.003 C 
ATOM     20  C   UNL     1      28.674   9.743  -1.122  1.00  0.00     0.004 C 
ENDBRANCH  18  19
ENDBRANCH  17  18
ENDBRANCH  16  17
ENDBRANCH  15  16
ENDBRANCH  14  15
ENDBRANCH  13  14
ENDBRANCH  12  13
ENDBRANCH   1  12
TORSDOF 16
ENDMDL
MODEL 6
REMARK VINA RESULT:    -1.750      1.257      2.869
REMARK INTER + INTRA:          -3.879
REMARK INTER:                  -3.156
REMARK INTRA:                  -0.723
REMARK UNBOUND:                -0.492
REMARK SMILES CCCCCCCCCCCCCCCCCC(=O)[O-]
REMARK SMILES IDX 10 1 11 2 12 3 13 4 14 5 15 6 16 7 17 8 18 9 19 10 20 11
REMARK SMILES IDX 9 12 8 13 7 14 6 15 5 16 4 17 3 18 2 19 1 20
REMARK H PARENT
REMARK Flexibility Score: inf
ROOT
ATOM      1  C   UNL     1      25.393   3.929  -1.134  1.00  0.00     0.000 C 
ENDROOT
BRANCH   1   2
ATOM      2  C   UNL     1      26.926   3.801  -1.198  1.00  0.00     0.000 C 
BRANCH   2   3
ATOM      3  C   UNL     1      27.672   4.242   0.075  1.00  0.00     0.000 C 
BRANCH   3   4
ATOM      4  C   UNL     1      28.974   5.003  -0.227  1.00  0.00     0.000 C 
BRANCH   4   5
ATOM      5  C   UNL     1      28.763   6.521  -0.361  1.00  0.00     0.000 C 
BRANCH   5   6
ATOM      6  C   UNL     1      27.322   6.962  -0.690  1.00  0.00     0.000 C 
BRANCH   6   7
ATOM      7  C   UNL     1      27.191   7.932  -1.878  1.00  0.00     0.006 C 
BRANCH   7   8
ATOM      8  C   UNL     1      28.534   8.540  -2.301  1.00  0.00     0.053 C 
BRANCH   8   9
ATOM      9  C   UNL     1      28.581   9.994  -1.954  1.00  0.00     0.041 C 
ATOM     10  O   UNL     1      28.834  10.356  -0.775  1.00  0.00    -0.550 OA
ATOM     11  O   UNL     1      28.298  10.949  -2.922  1.00  0.00    -0.550 OA
ENDBRANCH   8   9
ENDBRANCH   7   8
ENDBRANCH   6   7
ENDBRANCH   5   6
ENDBRANCH   4   5
ENDBRANCH   3   4
ENDBRANCH   2   3
ENDBRANCH   1   2
BRANCH   1  12
ATOM     12  C   UNL     1      24.736   3.975  -2.525  1.00  0.00     0.000 C 
BRANCH  12  13
ATOM     13  C   UNL     1      23.507   3.060  -2.628  1.00  0.00    -0.000 C 
BRANCH  13  14
ATOM     14  C   UNL     1      23.889   1.581  -2.819  1.00  0.00    -0.000 C 
BRANCH  14  15
ATOM     15  C   UNL     1      22.708   0.627  -2.581  1.00  0.00    -0.000 C 
BRANCH  15  16
ATOM     16  C   UNL     1      23.011  -0.811  -3.033  1.00  0.00    -0.000 C 
BRANCH  16  17
ATOM     17  C   UNL     1      24.308  -1.371  -2.422  1.00  0.00    -0.000 C 
BRANCH  17  18
ATOM     18  C   UNL     1      25.098  -2.331  -3.330  1.00  0.00    -0.000 C 
BRANCH  18  19
ATOM     19  C   UNL     1      26.080  -3.219  -2.554  1.00  0.00    -0.003 C 
ATOM     20  C   UNL     1      26.651  -4.318  -3.446  1.00  0.00     0.004 C 
ENDBRANCH  18  19
ENDBRANCH  17  18
ENDBRANCH  16  17
ENDBRANCH  15  16
ENDBRANCH  14  15
ENDBRANCH  13  14
ENDBRANCH  12  13
ENDBRANCH   1  12
TORSDOF 16
ENDMDL
MODEL 7
REMARK VINA RESULT:    -1.263      4.552     11.184
REMARK INTER + INTRA:          -2.936
REMARK INTER:                  -2.365
REMARK INTRA:                  -0.572
REMARK UNBOUND:                -0.492
REMARK SMILES CCCCCCCCCCCCCCCCCC(=O)[O-]
REMARK SMILES IDX 10 1 11 2 12 3 13 4 14 5 15 6 16 7 17 8 18 9 19 10 20 11
REMARK SMILES IDX 9 12 8 13 7 14 6 15 5 16 4 17 3 18 2 19 1 20
REMARK H PARENT
REMARK Flexibility Score: inf
ROOT
ATOM      1  C   UNL     1      24.840   4.545  -2.484  1.00  0.00     0.000 C 
ENDROOT
BRANCH   1   2
ATOM      2  C   UNL     1      23.933   3.413  -1.967  1.00  0.00     0.000 C 
BRANCH   2   3
ATOM      3  C   UNL     1      23.348   2.496  -3.057  1.00  0.00     0.000 C 
BRANCH   3   4
ATOM      4  C   UNL     1      23.825   1.039  -2.934  1.00  0.00     0.000 C 
BRANCH   4   5
ATOM      5  C   UNL     1      22.669   0.046  -2.725  1.00  0.00     0.000 C 
BRANCH   5   6
ATOM      6  C   UNL     1      23.087  -1.430  -2.555  1.00  0.00     0.000 C 
BRANCH   6   7
ATOM      7  C   UNL     1      24.588  -1.658  -2.296  1.00  0.00     0.006 C 
BRANCH   7   8
ATOM      8  C   UNL     1      25.300  -2.333  -3.473  1.00  0.00     0.053 C 
BRANCH   8   9
ATOM      9  C   UNL     1      25.983  -3.584  -3.022  1.00  0.00     0.041 C 
ATOM     10  O   UNL     1      26.627  -3.600  -1.940  1.00  0.00    -0.550 OA
ATOM     11  O   UNL     1      25.951  -4.721  -3.820  1.00  0.00    -0.550 OA
ENDBRANCH   8   9
ENDBRANCH   7   8
ENDBRANCH   6   7
ENDBRANCH   5   6
ENDBRANCH   4   5
ENDBRANCH   3   4
ENDBRANCH   2   3
ENDBRANCH   1   2
BRANCH   1  12
ATOM     12  C   UNL     1      26.049   4.810  -1.570  1.00  0.00     0.000 C 
BRANCH  12  13
ATOM     13  C   UNL     1      26.015   6.211  -0.939  1.00  0.00    -0.000 C 
BRANCH  13  14
ATOM     14  C   UNL     1      27.034   7.170  -1.579  1.00  0.00    -0.000 C 
BRANCH  14  15
ATOM     15  C   UNL     1      28.253   7.427  -0.679  1.00  0.00    -0.000 C 
BRANCH  15  16
ATOM     16  C   UNL     1      29.109   8.608  -1.168  1.00  0.00    -0.000 C 
BRANCH  16  17
ATOM     17  C   UNL     1      28.267   9.829  -1.578  1.00  0.00    -0.000 C 
BRANCH  17  18
ATOM     18  C   UNL     1      28.533  10.360  -2.998  1.00  0.00    -0.000 C 
BRANCH  18  19
ATOM     19  C   UNL     1      28.974  11.830  -3.016  1.00  0.00    -0.003 C 
ATOM     20  C   UNL     1      28.260  12.606  -4.120  1.00  0.00     0.004 C 
ENDBRANCH  18  19
ENDBRANCH  17  18
ENDBRANCH  16  17
ENDBRANCH  15  16
ENDBRANCH  14  15
ENDBRANCH  13  14
ENDBRANCH  12  13
ENDBRANCH   1  12
TORSDOF 16
ENDMDL
MODEL 8
REMARK VINA RESULT:    -0.768      1.538      2.180
REMARK INTER + INTRA:          -1.979
REMARK INTER:                  -1.175
REMARK INTRA:                  -0.804
REMARK UNBOUND:                -0.492
REMARK SMILES CCCCCCCCCCCCCCCCCC(=O)[O-]
REMARK SMILES IDX 10 1 11 2 12 3 13 4 14 5 15 6 16 7 17 8 18 9 19 10 20 11
REMARK SMILES IDX 9 12 8 13 7 14 6 15 5 16 4 17 3 18 2 19 1 20
REMARK H PARENT
REMARK Flexibility Score: inf
ROOT
ATOM      1  C   UNL     1      24.747   2.759  -2.339  1.00  0.00     0.000 C 
ENDROOT
BRANCH   1   2
ATOM      2  C   UNL     1      25.030   4.203  -1.883  1.00  0.00     0.000 C 
BRANCH   2   3
ATOM      3  C   UNL     1      26.031   4.337  -0.721  1.00  0.00     0.000 C 
BRANCH   3   4
ATOM      4  C   UNL     1      27.477   4.013  -1.135  1.00  0.00     0.000 C 
BRANCH   4   5
ATOM      5  C   UNL     1      28.452   4.004   0.055  1.00  0.00     0.000 C 
BRANCH   5   6
ATOM      6  C   UNL     1      29.055   5.375   0.426  1.00  0.00     0.000 C 
BRANCH   6   7
ATOM      7  C   UNL     1      29.125   6.391  -0.728  1.00  0.00     0.006 C 
BRANCH   7   8
ATOM      8  C   UNL     1      28.198   7.595  -0.519  1.00  0.00     0.053 C 
BRANCH   8   9
ATOM      9  C   UNL     1      27.563   7.996  -1.812  1.00  0.00     0.041 C 
ATOM     10  O   UNL     1      28.207   8.682  -2.649  1.00  0.00    -0.550 OA
ATOM     11  O   UNL     1      26.242   7.654  -2.074  1.00  0.00    -0.550 OA
ENDBRANCH   8   9
ENDBRANCH   7   8
ENDBRANCH   6   7
ENDBRANCH   5   6
ENDBRANCH   4   5
ENDBRANCH   3   4
ENDBRANCH   2   3
ENDBRANCH   1   2
BRANCH   1  12
ATOM     12  C   UNL     1      23.260   2.508  -2.643  1.00  0.00     0.000 C 
BRANCH  12  13
ATOM     13  C   UNL     1      22.973   1.043  -3.011  1.00  0.00    -0.000 C 
BRANCH  13  14
ATOM     14  C   UNL     1      24.224   0.153  -2.899  1.00  0.00    -0.000 C 
BRANCH  14  15
ATOM     15  C   UNL     1      23.895  -1.345  -2.992  1.00  0.00    -0.000 C 
BRANCH  15  16
ATOM     16  C   UNL     1      25.067  -2.172  -3.547  1.00  0.00    -0.000 C 
BRANCH  16  17
ATOM     17  C   UNL     1      25.642  -3.164  -2.520  1.00  0.00    -0.000 C 
BRANCH  17  18
ATOM     18  C   UNL     1      27.122  -3.534  -2.726  1.00  0.00    -0.000 C 
BRANCH  18  19
ATOM     19  C   UNL     1      27.310  -4.920  -3.359  1.00  0.00    -0.003 C 
ATOM     20  C   UNL     1      26.049  -5.365  -4.094  1.00  0.00     0.004 C 
ENDBRANCH  18  19
ENDBRANCH  17  18
ENDBRANCH  16  17
ENDBRANCH  15  16
ENDBRANCH  14  15
ENDBRANCH  13  14
ENDBRANCH  12  13
ENDBRANCH   1  12
TORSDOF 16
ENDMDL
MODEL 9
REMARK VINA RESULT:    -0.604      1.538      2.700
REMARK INTER + INTRA:          -1.661
REMARK INTER:                  -1.181
REMARK INTRA:                  -0.480
REMARK UNBOUND:                -0.492
REMARK SMILES CCCCCCCCCCCCCCCCCC(=O)[O-]
REMARK SMILES IDX 10 1 11 2 12 3 13 4 14 5 15 6 16 7 17 8 18 9 19 10 20 11
REMARK SMILES IDX 9 12 8 13 7 14 6 15 5 16 4 17 3 18 2 19 1 20
REMARK H PARENT
REMARK Flexibility Score: inf
ROOT
ATOM      1  C   UNL     1      25.386   3.621  -1.899  1.00  0.00     0.000 C 
ENDROOT
BRANCH   1   2
ATOM      2  C   UNL     1      25.757   4.692  -0.856  1.00  0.00     0.000 C 
BRANCH   2   3
ATOM      3  C   UNL     1      26.553   5.890  -1.405  1.00  0.00     0.000 C 
BRANCH   3   4
ATOM      4  C   UNL     1      25.661   6.940  -2.089  1.00  0.00     0.000 C 
BRANCH   4   5
ATOM      5  C   UNL     1      26.468   8.024  -2.825  1.00  0.00     0.000 C 
BRANCH   5   6
ATOM      6  C   UNL     1      27.937   8.173  -2.377  1.00  0.00     0.000 C 
BRANCH   6   7
ATOM      7  C   UNL     1      28.541   9.575  -2.575  1.00  0.00     0.006 C 
BRANCH   7   8
ATOM      8  C   UNL     1      28.886  10.268  -1.252  1.00  0.00     0.053 C 
BRANCH   8   9
ATOM      9  C   UNL     1      28.382   9.464  -0.095  1.00  0.00     0.041 C 
ATOM     10  O   UNL     1      29.125   8.611   0.456  1.00  0.00    -0.550 OA
ATOM     11  O   UNL     1      27.073   9.623   0.344  1.00  0.00    -0.550 OA
ENDBRANCH   8   9
ENDBRANCH   7   8
ENDBRANCH   6   7
ENDBRANCH   5   6
ENDBRANCH   4   5
ENDBRANCH   3   4
ENDBRANCH   2   3
ENDBRANCH   1   2
BRANCH   1  12
ATOM     12  C   UNL     1      24.024   3.881  -2.566  1.00  0.00     0.000 C 
BRANCH  12  13
ATOM     13  C   UNL     1      23.328   2.585  -3.010  1.00  0.00    -0.000 C 
BRANCH  13  14
ATOM     14  C   UNL     1      24.209   1.341  -2.794  1.00  0.00    -0.000 C 
BRANCH  14  15
ATOM     15  C   UNL     1      23.456   0.192  -2.106  1.00  0.00    -0.000 C 
BRANCH  15  16
ATOM     16  C   UNL     1      23.339  -1.055  -2.998  1.00  0.00    -0.000 C 
BRANCH  16  17
ATOM     17  C   UNL     1      24.705  -1.603  -3.446  1.00  0.00    -0.000 C 
BRANCH  17  18
ATOM     18  C   UNL     1      25.107  -2.950  -2.819  1.00  0.00    -0.000 C 
BRANCH  18  19
ATOM     19  C   UNL     1      26.628  -3.125  -2.698  1.00  0.00    -0.003 C 
ATOM     20  C   UNL     1      26.976  -4.419  -1.967  1.00  0.00     0.004 C 
ENDBRANCH  18  19
ENDBRANCH  17  18
ENDBRANCH  16  17
ENDBRANCH  15  16
ENDBRANCH  14  15
ENDBRANCH  13  14
ENDBRANCH  12  13
ENDBRANCH   1  12
TORSDOF 16
ENDMDL
