MODEL 1
REMARK VINA RESULT:    -6.844      0.000      0.000
REMARK INTER + INTRA:          -8.347
REMARK INTER:                  -8.244
REMARK INTRA:                  -0.103
REMARK UNBOUND:                -0.103
REMARK SMILES O=c1c(O)c(-c2ccc(O)c(O)c2)oc2cc(O)cc(O)c12
REMARK SMILES IDX 5 1 3 2 2 3 1 4 22 5 20 6 19 7 17 8 16 9 15 10 14 11 6 12
REMARK SMILES IDX 7 13 8 14 9 15 13 16 11 17 10 18 12 20 4 22 21 24 18 26
REMARK H PARENT 10 19 12 21 4 23 21 25 18 27
REMARK Flexibility Score: inf
ROOT
ATOM      1  C   UNL     1     128.275 115.830 101.866  1.00  0.00     0.180 A 
ATOM      2  C   UNL     1     128.140 114.622 101.155  1.00  0.00     0.208 A 
ATOM      3  C   UNL     1     129.266 114.087 100.510  1.00  0.00     0.238 A 
ATOM      4  O   UNL     1     129.155 113.010  99.861  1.00  0.00    -0.285 OA
ATOM      5  C   UNL     1     130.505 114.753 100.601  1.00  0.00     0.111 A 
ATOM      6  C   UNL     1     131.687 114.278  99.983  1.00  0.00     0.134 A 
ATOM      7  C   UNL     1     132.884 114.995 100.129  1.00  0.00     0.093 A 
ATOM      8  C   UNL     1     132.923 116.172 100.878  1.00  0.00     0.123 A 
ATOM      9  C   UNL     1     131.758 116.647 101.490  1.00  0.00     0.094 A 
ATOM     10  C   UNL     1     130.555 115.948 101.355  1.00  0.00     0.146 A 
ATOM     11  O   UNL     1     129.462 116.423 101.942  1.00  0.00    -0.452 OA
ENDROOT
BRANCH   1  12
ATOM     12  C   UNL     1     127.131 116.467 102.557  1.00  0.00     0.025 A 
ATOM     13  C   UNL     1     125.994 116.834 101.819  1.00  0.00     0.016 A 
ATOM     14  C   UNL     1     124.896 117.418 102.455  1.00  0.00     0.051 A 
ATOM     15  C   UNL     1     124.911 117.629 103.840  1.00  0.00     0.157 A 
ATOM     16  C   UNL     1     127.134 116.663 103.950  1.00  0.00     0.062 A 
ATOM     17  C   UNL     1     126.034 117.246 104.591  1.00  0.00     0.158 A 
BRANCH  15  18
ATOM     18  O   UNL     1     123.814 118.215 104.472  1.00  0.00    -0.504 OA
ATOM     19  H   UNL     1     123.091 118.691 103.945  1.00  0.00     0.293 HD
ENDBRANCH  15  18
BRANCH  17  20
ATOM     20  O   UNL     1     126.074 117.429 105.973  1.00  0.00    -0.504 OA
ATOM     21  H   UNL     1     125.254 117.309 106.556  1.00  0.00     0.293 HD
ENDBRANCH  17  20
ENDBRANCH   1  12
BRANCH   2  22
ATOM     22  O   UNL     1     126.913 113.955 101.121  1.00  0.00    -0.502 OA
ATOM     23  H   UNL     1     126.047 114.398 101.404  1.00  0.00     0.293 HD
ENDBRANCH   2  22
BRANCH   6  24
ATOM     24  O   UNL     1     131.682 113.103  99.229  1.00  0.00    -0.507 OA
ATOM     25  H   UNL     1     131.502 113.111  98.232  1.00  0.00     0.293 HD
ENDBRANCH   6  24
BRANCH   8  26
ATOM     26  O   UNL     1     134.125 116.865 101.007  1.00  0.00    -0.508 OA
ATOM     27  H   UNL     1     134.177 117.866 100.863  1.00  0.00     0.293 HD
ENDBRANCH   8  26
TORSDOF 6
ENDMDL
MODEL 2
REMARK VINA RESULT:    -6.679      4.466     10.227
REMARK INTER + INTRA:          -8.149
REMARK INTER:                  -8.585
REMARK INTRA:                   0.436
REMARK UNBOUND:                -0.103
REMARK SMILES O=c1c(O)c(-c2ccc(O)c(O)c2)oc2cc(O)cc(O)c12
REMARK SMILES IDX 5 1 3 2 2 3 1 4 22 5 20 6 19 7 17 8 16 9 15 10 14 11 6 12
REMARK SMILES IDX 7 13 8 14 9 15 13 16 11 17 10 18 12 20 4 22 21 24 18 26
REMARK H PARENT 10 19 12 21 4 23 21 25 18 27
REMARK Flexibility Score: inf
ROOT
ATOM      1  C   UNL     1     123.008 117.506 105.489  1.00  0.00     0.180 A 
ATOM      2  C   UNL     1     122.918 117.080 106.827  1.00  0.00     0.208 A 
ATOM      3  C   UNL     1     121.660 117.061 107.449  1.00  0.00     0.238 A 
ATOM      4  O   UNL     1     121.568 116.691 108.652  1.00  0.00    -0.285 OA
ATOM      5  C   UNL     1     120.516 117.449 106.722  1.00  0.00     0.111 A 
ATOM      6  C   UNL     1     119.213 117.454 107.274  1.00  0.00     0.134 A 
ATOM      7  C   UNL     1     118.123 117.845 106.481  1.00  0.00     0.093 A 
ATOM      8  C   UNL     1     118.311 118.227 105.151  1.00  0.00     0.123 A 
ATOM      9  C   UNL     1     119.596 118.224 104.601  1.00  0.00     0.094 A 
ATOM     10  C   UNL     1     120.694 117.840 105.374  1.00  0.00     0.146 A 
ATOM     11  O   UNL     1     121.906 117.850 104.829  1.00  0.00    -0.452 OA
ENDROOT
BRANCH   1  12
ATOM     12  C   UNL     1     124.300 117.571 104.768  1.00  0.00     0.025 A 
ATOM     13  C   UNL     1     125.499 117.584 105.499  1.00  0.00     0.016 A 
ATOM     14  C   UNL     1     126.729 117.624 104.839  1.00  0.00     0.051 A 
ATOM     15  C   UNL     1     126.781 117.636 103.439  1.00  0.00     0.157 A 
ATOM     16  C   UNL     1     124.357 117.563 103.363  1.00  0.00     0.062 A 
ATOM     17  C   UNL     1     125.588 117.601 102.699  1.00  0.00     0.158 A 
BRANCH  15  18
ATOM     18  O   UNL     1     128.010 117.678 102.783  1.00  0.00    -0.504 OA
ATOM     19  H   UNL     1     128.086 117.511 101.787  1.00  0.00     0.293 HD
ENDBRANCH  15  18
BRANCH  17  20
ATOM     20  O   UNL     1     125.606 117.597 101.304  1.00  0.00    -0.504 OA
ATOM     21  H   UNL     1     126.210 116.979 100.775  1.00  0.00     0.293 HD
ENDBRANCH  17  20
ENDBRANCH   1  12
BRANCH   2  22
ATOM     22  O   UNL     1     124.059 116.654 107.511  1.00  0.00    -0.502 OA
ATOM     23  H   UNL     1     124.992 116.944 107.244  1.00  0.00     0.293 HD
ENDBRANCH   2  22
BRANCH   6  24
ATOM     24  O   UNL     1     118.991 117.076 108.600  1.00  0.00    -0.507 OA
ATOM     25  H   UNL     1     118.667 117.737 109.295  1.00  0.00     0.293 HD
ENDBRANCH   6  24
BRANCH   8  26
ATOM     26  O   UNL     1     117.211 118.610 104.386  1.00  0.00    -0.508 OA
ATOM     27  H   UNL     1     116.406 119.060 104.805  1.00  0.00     0.293 HD
ENDBRANCH   8  26
TORSDOF 6
ENDMDL
MODEL 3
REMARK VINA RESULT:    -6.612      5.220      9.380
REMARK INTER + INTRA:          -8.069
REMARK INTER:                  -8.302
REMARK INTRA:                   0.234
REMARK UNBOUND:                -0.103
REMARK SMILES O=c1c(O)c(-c2ccc(O)c(O)c2)oc2cc(O)cc(O)c12
REMARK SMILES IDX 5 1 3 2 2 3 1 4 22 5 20 6 19 7 17 8 16 9 15 10 14 11 6 12
REMARK SMILES IDX 7 13 8 14 9 15 13 16 11 17 10 18 12 20 4 22 21 24 18 26
REMARK H PARENT 10 19 12 21 4 23 21 25 18 27
REMARK Flexibility Score: inf
ROOT
ATOM      1  C   UNL     1     123.571 117.634 104.157  1.00  0.00     0.180 A 
ATOM      2  C   UNL     1     124.380 117.291 105.258  1.00  0.00     0.208 A 
ATOM      3  C   UNL     1     123.776 117.108 106.512  1.00  0.00     0.238 A 
ATOM      4  O   UNL     1     124.491 116.812 107.507  1.00  0.00    -0.285 OA
ATOM      5  C   UNL     1     122.379 117.250 106.641  1.00  0.00     0.111 A 
ATOM      6  C   UNL     1     121.694 117.079 107.867  1.00  0.00     0.134 A 
ATOM      7  C   UNL     1     120.299 117.228 107.911  1.00  0.00     0.093 A 
ATOM      8  C   UNL     1     119.580 117.544 106.756  1.00  0.00     0.123 A 
ATOM      9  C   UNL     1     120.252 117.715 105.542  1.00  0.00     0.094 A 
ATOM     10  C   UNL     1     121.640 117.572 105.478  1.00  0.00     0.146 A 
ATOM     11  O   UNL     1     122.255 117.745 104.313  1.00  0.00    -0.452 OA
ENDROOT
BRANCH   1  12
ATOM     12  C   UNL     1     124.135 117.861 102.807  1.00  0.00     0.025 A 
ATOM     13  C   UNL     1     125.403 118.450 102.678  1.00  0.00     0.016 A 
ATOM     14  C   UNL     1     125.963 118.654 101.414  1.00  0.00     0.051 A 
ATOM     15  C   UNL     1     125.270 118.260 100.262  1.00  0.00     0.157 A 
ATOM     16  C   UNL     1     123.452 117.448 101.649  1.00  0.00     0.062 A 
ATOM     17  C   UNL     1     124.011 117.650 100.381  1.00  0.00     0.158 A 
BRANCH  15  18
ATOM     18  O   UNL     1     125.830 118.468  99.002  1.00  0.00    -0.504 OA
ATOM     19  H   UNL     1     125.268 118.777  98.217  1.00  0.00     0.293 HD
ENDBRANCH  15  18
BRANCH  17  20
ATOM     20  O   UNL     1     123.302 117.233  99.255  1.00  0.00    -0.504 OA
ATOM     21  H   UNL     1     122.608 117.819  98.808  1.00  0.00     0.293 HD
ENDBRANCH  17  20
ENDBRANCH   1  12
BRANCH   2  22
ATOM     22  O   UNL     1     125.755 117.108 105.094  1.00  0.00    -0.502 OA
ATOM     23  H   UNL     1     126.328 116.649 105.792  1.00  0.00     0.293 HD
ENDBRANCH   2  22
BRANCH   6  24
ATOM     24  O   UNL     1     122.383 116.762 109.039  1.00  0.00    -0.507 OA
ATOM     25  H   UNL     1     123.379 116.576 109.038  1.00  0.00     0.293 HD
ENDBRANCH   6  24
BRANCH   8  26
ATOM     26  O   UNL     1     118.195 117.687 106.828  1.00  0.00    -0.508 OA
ATOM     27  H   UNL     1     117.731 117.907 107.702  1.00  0.00     0.293 HD
ENDBRANCH   8  26
TORSDOF 6
ENDMDL
MODEL 4
REMARK VINA RESULT:    -6.592      1.747      2.141
REMARK INTER + INTRA:          -8.044
REMARK INTER:                  -7.846
REMARK INTRA:                  -0.198
REMARK UNBOUND:                -0.103
REMARK SMILES O=c1c(O)c(-c2ccc(O)c(O)c2)oc2cc(O)cc(O)c12
REMARK SMILES IDX 5 1 3 2 2 3 1 4 22 5 20 6 19 7 17 8 16 9 15 10 14 11 6 12
REMARK SMILES IDX 7 13 8 14 9 15 13 16 11 17 10 18 12 20 4 22 21 24 18 26
REMARK H PARENT 10 19 12 21 4 23 21 25 18 27
REMARK Flexibility Score: inf
ROOT
ATOM      1  C   UNL     1     128.303 114.602 100.856  1.00  0.00     0.180 A 
ATOM      2  C   UNL     1     127.871 113.277 100.655  1.00  0.00     0.208 A 
ATOM      3  C   UNL     1     128.729 112.377 100.003  1.00  0.00     0.238 A 
ATOM      4  O   UNL     1     128.349 111.190  99.808  1.00  0.00    -0.285 OA
ATOM      5  C   UNL     1     130.004 112.807  99.583  1.00  0.00     0.111 A 
ATOM      6  C   UNL     1     130.928 111.961  98.924  1.00  0.00     0.134 A 
ATOM      7  C   UNL     1     132.183 112.462  98.546  1.00  0.00     0.093 A 
ATOM      8  C   UNL     1     132.530 113.788  98.814  1.00  0.00     0.123 A 
ATOM      9  C   UNL     1     131.621 114.628  99.464  1.00  0.00     0.094 A 
ATOM     10  C   UNL     1     130.366 114.148  99.847  1.00  0.00     0.146 A 
ATOM     11  O   UNL     1     129.519 114.969 100.459  1.00  0.00    -0.452 OA
ENDROOT
BRANCH   1  12
ATOM     12  C   UNL     1     127.451 115.616 101.518  1.00  0.00     0.025 A 
ATOM     13  C   UNL     1     126.282 116.058 100.880  1.00  0.00     0.016 A 
ATOM     14  C   UNL     1     125.452 116.999 101.496  1.00  0.00     0.051 A 
ATOM     15  C   UNL     1     125.770 117.498 102.765  1.00  0.00     0.157 A 
ATOM     16  C   UNL     1     127.756 116.104 102.801  1.00  0.00     0.062 A 
ATOM     17  C   UNL     1     126.926 117.045 103.422  1.00  0.00     0.158 A 
BRANCH  15  18
ATOM     18  O   UNL     1     124.942 118.439 103.377  1.00  0.00    -0.504 OA
ATOM     19  H   UNL     1     123.933 118.360 103.339  1.00  0.00     0.293 HD
ENDBRANCH  15  18
BRANCH  17  20
ATOM     20  O   UNL     1     127.263 117.512 104.692  1.00  0.00    -0.504 OA
ATOM     21  H   UNL     1     127.984 117.074 105.253  1.00  0.00     0.293 HD
ENDBRANCH  17  20
ENDBRANCH   1  12
BRANCH   2  22
ATOM     22  O   UNL     1     126.623 112.862 101.124  1.00  0.00    -0.502 OA
ATOM     23  H   UNL     1     126.477 111.954 101.548  1.00  0.00     0.293 HD
ENDBRANCH   2  22
BRANCH   6  24
ATOM     24  O   UNL     1     130.612 110.630  98.643  1.00  0.00    -0.507 OA
ATOM     25  H   UNL     1     130.097 110.369  97.811  1.00  0.00     0.293 HD
ENDBRANCH   6  24
BRANCH   8  26
ATOM     26  O   UNL     1     133.783 114.261  98.427  1.00  0.00    -0.508 OA
ATOM     27  H   UNL     1     133.942 115.244  98.239  1.00  0.00     0.293 HD
ENDBRANCH   8  26
TORSDOF 6
ENDMDL
MODEL 5
REMARK VINA RESULT:    -6.550      4.542      7.488
REMARK INTER + INTRA:          -7.993
REMARK INTER:                  -7.691
REMARK INTRA:                  -0.302
REMARK UNBOUND:                -0.103
REMARK SMILES O=c1c(O)c(-c2ccc(O)c(O)c2)oc2cc(O)cc(O)c12
REMARK SMILES IDX 5 1 3 2 2 3 1 4 22 5 20 6 19 7 17 8 16 9 15 10 14 11 6 12
REMARK SMILES IDX 7 13 8 14 9 15 13 16 11 17 10 18 12 20 4 22 21 24 18 26
REMARK H PARENT 10 19 12 21 4 23 21 25 18 27
REMARK Flexibility Score: inf
ROOT
ATOM      1  C   UNL     1     124.058 117.306 101.421  1.00  0.00     0.180 A 
ATOM      2  C   UNL     1     125.465 117.367 101.431  1.00  0.00     0.208 A 
ATOM      3  C   UNL     1     126.126 117.551 102.655  1.00  0.00     0.238 A 
ATOM      4  O   UNL     1     127.386 117.618 102.675  1.00  0.00    -0.285 OA
ATOM      5  C   UNL     1     125.377 117.650 103.845  1.00  0.00     0.111 A 
ATOM      6  C   UNL     1     125.968 117.831 105.119  1.00  0.00     0.134 A 
ATOM      7  C   UNL     1     125.152 117.911 106.258  1.00  0.00     0.093 A 
ATOM      8  C   UNL     1     123.764 117.812 106.149  1.00  0.00     0.123 A 
ATOM      9  C   UNL     1     123.175 117.634 104.893  1.00  0.00     0.094 A 
ATOM     10  C   UNL     1     123.969 117.553 103.746  1.00  0.00     0.146 A 
ATOM     11  O   UNL     1     123.385 117.388 102.565  1.00  0.00    -0.452 OA
ENDROOT
BRANCH   1  12
ATOM     12  C   UNL     1     123.287 117.132 100.169  1.00  0.00     0.025 A 
ATOM     13  C   UNL     1     122.725 115.881  99.871  1.00  0.00     0.016 A 
ATOM     14  C   UNL     1     121.976 115.701  98.706  1.00  0.00     0.051 A 
ATOM     15  C   UNL     1     121.764 116.772  97.829  1.00  0.00     0.157 A 
ATOM     16  C   UNL     1     123.055 118.211  99.296  1.00  0.00     0.062 A 
ATOM     17  C   UNL     1     122.303 118.034  98.129  1.00  0.00     0.158 A 
BRANCH  15  18
ATOM     18  O   UNL     1     121.018 116.589  96.665  1.00  0.00    -0.504 OA
ATOM     19  H   UNL     1     120.909 117.331  95.983  1.00  0.00     0.293 HD
ENDBRANCH  15  18
BRANCH  17  20
ATOM     20  O   UNL     1     122.098 119.125  97.284  1.00  0.00    -0.504 OA
ATOM     21  H   UNL     1     121.261 119.219  96.720  1.00  0.00     0.293 HD
ENDBRANCH  17  20
ENDBRANCH   1  12
BRANCH   2  22
ATOM     22  O   UNL     1     126.186 117.217 100.245  1.00  0.00    -0.502 OA
ATOM     23  H   UNL     1     125.964 117.736  99.404  1.00  0.00     0.293 HD
ENDBRANCH   2  22
BRANCH   6  24
ATOM     24  O   UNL     1     127.352 117.933 105.262  1.00  0.00    -0.507 OA
ATOM     25  H   UNL     1     127.922 117.134 105.513  1.00  0.00     0.293 HD
ENDBRANCH   6  24
BRANCH   8  26
ATOM     26  O   UNL     1     122.978 117.895 107.296  1.00  0.00    -0.508 OA
ATOM     27  H   UNL     1     122.316 117.166 107.538  1.00  0.00     0.293 HD
ENDBRANCH   8  26
TORSDOF 6
ENDMDL
MODEL 6
REMARK VINA RESULT:    -6.536      4.579      7.577
REMARK INTER + INTRA:          -7.976
REMARK INTER:                  -8.101
REMARK INTRA:                   0.125
REMARK UNBOUND:                -0.103
REMARK SMILES O=c1c(O)c(-c2ccc(O)c(O)c2)oc2cc(O)cc(O)c12
REMARK SMILES IDX 5 1 3 2 2 3 1 4 22 5 20 6 19 7 17 8 16 9 15 10 14 11 6 12
REMARK SMILES IDX 7 13 8 14 9 15 13 16 11 17 10 18 12 20 4 22 21 24 18 26
REMARK H PARENT 10 19 12 21 4 23 21 25 18 27
REMARK Flexibility Score: inf
ROOT
ATOM      1  C   UNL     1     122.417 117.634 105.392  1.00  0.00     0.180 A 
ATOM      2  C   UNL     1     123.555 117.602 106.221  1.00  0.00     0.208 A 
ATOM      3  C   UNL     1     124.824 117.520 105.627  1.00  0.00     0.238 A 
ATOM      4  O   UNL     1     125.850 117.479 106.359  1.00  0.00    -0.285 OA
ATOM      5  C   UNL     1     124.936 117.491 104.222  1.00  0.00     0.111 A 
ATOM      6  C   UNL     1     126.177 117.414 103.546  1.00  0.00     0.134 A 
ATOM      7  C   UNL     1     126.205 117.399 102.142  1.00  0.00     0.093 A 
ATOM      8  C   UNL     1     125.020 117.463 101.406  1.00  0.00     0.123 A 
ATOM      9  C   UNL     1     123.792 117.539 102.069  1.00  0.00     0.094 A 
ATOM     10  C   UNL     1     123.742 117.553 103.465  1.00  0.00     0.146 A 
ATOM     11  O   UNL     1     122.562 117.621 104.071  1.00  0.00    -0.452 OA
ENDROOT
BRANCH   1  12
ATOM     12  C   UNL     1     121.044 117.702 105.943  1.00  0.00     0.025 A 
ATOM     13  C   UNL     1     120.068 118.458 105.274  1.00  0.00     0.016 A 
ATOM     14  C   UNL     1     118.762 118.518 105.765  1.00  0.00     0.051 A 
ATOM     15  C   UNL     1     118.407 117.812 106.922  1.00  0.00     0.157 A 
ATOM     16  C   UNL     1     120.680 116.978 107.092  1.00  0.00     0.062 A 
ATOM     17  C   UNL     1     119.371 117.035 107.585  1.00  0.00     0.158 A 
BRANCH  15  18
ATOM     18  O   UNL     1     117.103 117.876 107.410  1.00  0.00    -0.504 OA
ATOM     19  H   UNL     1     116.566 118.735 107.377  1.00  0.00     0.293 HD
ENDBRANCH  15  18
BRANCH  17  20
ATOM     20  O   UNL     1     119.046 116.308 108.731  1.00  0.00    -0.504 OA
ATOM     21  H   UNL     1     118.732 116.758 109.583  1.00  0.00     0.293 HD
ENDBRANCH  17  20
ENDBRANCH   1  12
BRANCH   2  22
ATOM     22  O   UNL     1     123.420 117.681 107.609  1.00  0.00    -0.502 OA
ATOM     23  H   UNL     1     123.412 118.565 108.104  1.00  0.00     0.293 HD
ENDBRANCH   2  22
BRANCH   6  24
ATOM     24  O   UNL     1     127.379 117.351 104.253  1.00  0.00    -0.507 OA
ATOM     25  H   UNL     1     128.264 117.586 103.821  1.00  0.00     0.293 HD
ENDBRANCH   6  24
BRANCH   8  26
ATOM     26  O   UNL     1     125.077 117.447 100.014  1.00  0.00    -0.508 OA
ATOM     27  H   UNL     1     125.334 118.273  99.485  1.00  0.00     0.293 HD
ENDBRANCH   8  26
TORSDOF 6
ENDMDL
MODEL 7
REMARK VINA RESULT:    -6.279      5.077      7.688
REMARK INTER + INTRA:          -7.667
REMARK INTER:                  -7.359
REMARK INTRA:                  -0.308
REMARK UNBOUND:                -0.103
REMARK SMILES O=c1c(O)c(-c2ccc(O)c(O)c2)oc2cc(O)cc(O)c12
REMARK SMILES IDX 5 1 3 2 2 3 1 4 22 5 20 6 19 7 17 8 16 9 15 10 14 11 6 12
REMARK SMILES IDX 7 13 8 14 9 15 13 16 11 17 10 18 12 20 4 22 21 24 18 26
REMARK H PARENT 10 19 12 21 4 23 21 25 18 27
REMARK Flexibility Score: inf
ROOT
ATOM      1  C   UNL     1     131.173 115.828  96.813  1.00  0.00     0.180 A 
ATOM      2  C   UNL     1     131.663 115.023  95.767  1.00  0.00     0.208 A 
ATOM      3  C   UNL     1     130.884 114.867  94.610  1.00  0.00     0.238 A 
ATOM      4  O   UNL     1     131.308 114.140  93.670  1.00  0.00    -0.285 OA
ATOM      5  C   UNL     1     129.645 115.531  94.509  1.00  0.00     0.111 A 
ATOM      6  C   UNL     1     128.803 115.430  93.375  1.00  0.00     0.134 A 
ATOM      7  C   UNL     1     127.586 116.130  93.347  1.00  0.00     0.093 A 
ATOM      8  C   UNL     1     127.199 116.926  94.427  1.00  0.00     0.123 A 
ATOM      9  C   UNL     1     128.026 117.030  95.549  1.00  0.00     0.094 A 
ATOM     10  C   UNL     1     129.240 116.339  95.597  1.00  0.00     0.146 A 
ATOM     11  O   UNL     1     130.006 116.450  96.677  1.00  0.00    -0.452 OA
ENDROOT
BRANCH   1  12
ATOM     12  C   UNL     1     131.926 116.026  98.072  1.00  0.00     0.025 A 
ATOM     13  C   UNL     1     132.929 117.006  98.130  1.00  0.00     0.016 A 
ATOM     14  C   UNL     1     133.638 117.224  99.315  1.00  0.00     0.051 A 
ATOM     15  C   UNL     1     133.343 116.477 100.463  1.00  0.00     0.157 A 
ATOM     16  C   UNL     1     131.619 115.292  99.233  1.00  0.00     0.062 A 
ATOM     17  C   UNL     1     132.326 115.510 100.421  1.00  0.00     0.158 A 
BRANCH  15  18
ATOM     18  O   UNL     1     134.053 116.695 101.643  1.00  0.00    -0.504 OA
ATOM     19  H   UNL     1     134.391 115.925 102.208  1.00  0.00     0.293 HD
ENDBRANCH  15  18
BRANCH  17  20
ATOM     20  O   UNL     1     131.998 114.760 101.551  1.00  0.00    -0.504 OA
ATOM     21  H   UNL     1     132.123 113.755 101.584  1.00  0.00     0.293 HD
ENDBRANCH  17  20
ENDBRANCH   1  12
BRANCH   2  22
ATOM     22  O   UNL     1     132.917 114.416  95.871  1.00  0.00    -0.502 OA
ATOM     23  H   UNL     1     133.109 113.498  95.488  1.00  0.00     0.293 HD
ENDBRANCH   2  22
BRANCH   6  24
ATOM     24  O   UNL     1     129.162 114.643  92.280  1.00  0.00    -0.507 OA
ATOM     25  H   UNL     1     130.118 114.596  91.947  1.00  0.00     0.293 HD
ENDBRANCH   6  24
BRANCH   8  26
ATOM     26  O   UNL     1     125.986 117.611  94.373  1.00  0.00    -0.508 OA
ATOM     27  H   UNL     1     125.711 118.137  93.552  1.00  0.00     0.293 HD
ENDBRANCH   8  26
TORSDOF 6
ENDMDL
MODEL 8
REMARK VINA RESULT:    -6.171      2.645      7.441
REMARK INTER + INTRA:          -7.537
REMARK INTER:                  -7.208
REMARK INTRA:                  -0.329
REMARK UNBOUND:                -0.103
REMARK SMILES O=c1c(O)c(-c2ccc(O)c(O)c2)oc2cc(O)cc(O)c12
REMARK SMILES IDX 5 1 3 2 2 3 1 4 22 5 20 6 19 7 17 8 16 9 15 10 14 11 6 12
REMARK SMILES IDX 7 13 8 14 9 15 13 16 11 17 10 18 12 20 4 22 21 24 18 26
REMARK H PARENT 10 19 12 21 4 23 21 25 18 27
REMARK Flexibility Score: inf
ROOT
ATOM      1  C   UNL     1     127.364 114.807 100.738  1.00  0.00     0.180 A 
ATOM      2  C   UNL     1     128.031 115.617 101.676  1.00  0.00     0.208 A 
ATOM      3  C   UNL     1     127.321 116.653 102.303  1.00  0.00     0.238 A 
ATOM      4  O   UNL     1     127.911 117.392 103.138  1.00  0.00    -0.285 OA
ATOM      5  C   UNL     1     125.959 116.849 101.998  1.00  0.00     0.111 A 
ATOM      6  C   UNL     1     125.172 117.867 102.588  1.00  0.00     0.134 A 
ATOM      7  C   UNL     1     123.818 117.992 102.238  1.00  0.00     0.093 A 
ATOM      8  C   UNL     1     123.239 117.120 101.314  1.00  0.00     0.123 A 
ATOM      9  C   UNL     1     124.011 116.113 100.727  1.00  0.00     0.094 A 
ATOM     10  C   UNL     1     125.361 115.974 101.061  1.00  0.00     0.146 A 
ATOM     11  O   UNL     1     126.074 115.012 100.486  1.00  0.00    -0.452 OA
ENDROOT
BRANCH   1  12
ATOM     12  C   UNL     1     128.047 113.706 100.021  1.00  0.00     0.025 A 
ATOM     13  C   UNL     1     127.915 112.389 100.490  1.00  0.00     0.016 A 
ATOM     14  C   UNL     1     128.535 111.333  99.817  1.00  0.00     0.051 A 
ATOM     15  C   UNL     1     129.283 111.575  98.657  1.00  0.00     0.157 A 
ATOM     16  C   UNL     1     128.782 113.942  98.845  1.00  0.00     0.062 A 
ATOM     17  C   UNL     1     129.403 112.886  98.168  1.00  0.00     0.158 A 
BRANCH  15  18
ATOM     18  O   UNL     1     129.902 110.520  97.989  1.00  0.00    -0.504 OA
ATOM     19  H   UNL     1     130.293 109.732  98.491  1.00  0.00     0.293 HD
ENDBRANCH  15  18
BRANCH  17  20
ATOM     20  O   UNL     1     130.128 113.159  97.008  1.00  0.00    -0.504 OA
ATOM     21  H   UNL     1     131.118 113.371  97.029  1.00  0.00     0.293 HD
ENDBRANCH  17  20
ENDBRANCH   1  12
BRANCH   2  22
ATOM     22  O   UNL     1     129.367 115.371 101.998  1.00  0.00    -0.502 OA
ATOM     23  H   UNL     1     129.655 115.049 102.914  1.00  0.00     0.293 HD
ENDBRANCH   2  22
BRANCH   6  24
ATOM     24  O   UNL     1     125.721 118.754 103.516  1.00  0.00    -0.507 OA
ATOM     25  H   UNL     1     125.140 119.299 104.142  1.00  0.00     0.293 HD
ENDBRANCH   6  24
BRANCH   8  26
ATOM     26  O   UNL     1     121.893 117.266 100.984  1.00  0.00    -0.508 OA
ATOM     27  H   UNL     1     121.163 116.831 101.537  1.00  0.00     0.293 HD
ENDBRANCH   8  26
TORSDOF 6
ENDMDL
MODEL 9
REMARK VINA RESULT:    -6.068      1.900      6.893
REMARK INTER + INTRA:          -7.413
REMARK INTER:                  -7.247
REMARK INTRA:                  -0.166
REMARK UNBOUND:                -0.103
REMARK SMILES O=c1c(O)c(-c2ccc(O)c(O)c2)oc2cc(O)cc(O)c12
REMARK SMILES IDX 5 1 3 2 2 3 1 4 22 5 20 6 19 7 17 8 16 9 15 10 14 11 6 12
REMARK SMILES IDX 7 13 8 14 9 15 13 16 11 17 10 18 12 20 4 22 21 24 18 26
REMARK H PARENT 10 19 12 21 4 23 21 25 18 27
REMARK Flexibility Score: inf
ROOT
ATOM      1  C   UNL     1     127.870 115.043 100.654  1.00  0.00     0.180 A 
ATOM      2  C   UNL     1     126.666 115.180  99.937  1.00  0.00     0.208 A 
ATOM      3  C   UNL     1     125.602 115.881 100.527  1.00  0.00     0.238 A 
ATOM      4  O   UNL     1     124.515 116.002  99.899  1.00  0.00    -0.285 OA
ATOM      5  C   UNL     1     125.764 116.446 101.808  1.00  0.00     0.111 A 
ATOM      6  C   UNL     1     124.744 117.170 102.470  1.00  0.00     0.134 A 
ATOM      7  C   UNL     1     124.987 117.711 103.742  1.00  0.00     0.093 A 
ATOM      8  C   UNL     1     126.227 117.543 104.362  1.00  0.00     0.123 A 
ATOM      9  C   UNL     1     127.239 116.828 103.713  1.00  0.00     0.094 A 
ATOM     10  C   UNL     1     127.016 116.281 102.447  1.00  0.00     0.146 A 
ATOM     11  O   UNL     1     127.992 115.602 101.854  1.00  0.00    -0.452 OA
ENDROOT
BRANCH   1  12
ATOM     12  C   UNL     1     129.030 114.303 100.108  1.00  0.00     0.025 A 
ATOM     13  C   UNL     1     130.253 114.969  99.930  1.00  0.00     0.016 A 
ATOM     14  C   UNL     1     131.367 114.285  99.437  1.00  0.00     0.051 A 
ATOM     15  C   UNL     1     131.279 112.921  99.128  1.00  0.00     0.157 A 
ATOM     16  C   UNL     1     128.952 112.929  99.816  1.00  0.00     0.062 A 
ATOM     17  C   UNL     1     130.066 112.240  99.323  1.00  0.00     0.158 A 
BRANCH  15  18
ATOM     18  O   UNL     1     132.391 112.241  98.633  1.00  0.00    -0.504 OA
ATOM     19  H   UNL     1     132.650 111.326  98.981  1.00  0.00     0.293 HD
ENDBRANCH  15  18
BRANCH  17  20
ATOM     20  O   UNL     1     129.950 110.879  99.040  1.00  0.00    -0.504 OA
ATOM     21  H   UNL     1     130.137 110.504  98.118  1.00  0.00     0.293 HD
ENDBRANCH  17  20
ENDBRANCH   1  12
BRANCH   2  22
ATOM     22  O   UNL     1     126.547 114.654  98.649  1.00  0.00    -0.502 OA
ATOM     23  H   UNL     1     126.035 115.127  97.914  1.00  0.00     0.293 HD
ENDBRANCH   2  22
BRANCH   6  24
ATOM     24  O   UNL     1     123.494 117.357 101.876  1.00  0.00    -0.507 OA
ATOM     25  H   UNL     1     123.098 116.675 101.242  1.00  0.00     0.293 HD
ENDBRANCH   6  24
BRANCH   8  26
ATOM     26  O   UNL     1     126.442 118.090 105.625  1.00  0.00    -0.508 OA
ATOM     27  H   UNL     1     127.199 118.740 105.798  1.00  0.00     0.293 HD
ENDBRANCH   8  26
TORSDOF 6
ENDMDL
