MODEL 1
REMARK VINA RESULT:    -5.993      0.000      0.000
REMARK INTER + INTRA:          -6.518
REMARK INTER:                  -6.518
REMARK INTRA:                   0.000
REMARK UNBOUND:                 0.000
REMARK SMILES Cc1cc(O)c2c(c1)C(=O)c1cc(O)cc(O)c1C2=O
REMARK SMILES IDX 1 1 2 2 8 3 7 4 6 5 4 6 3 7 19 8 20 9 18 10 11 11 9 12 10 13
REMARK SMILES IDX 12 14 13 15 15 16 16 17 5 18 17 20 14 22
REMARK H PARENT 5 19 17 21 14 23
REMARK Flexibility Score: inf
ROOT
ATOM      1  C   UNL     1      32.883   6.977 108.674  1.00  0.00     0.044 C 
ATOM      2  C   UNL     1      33.184   8.083 107.704  1.00  0.00    -0.047 A 
ATOM      3  C   UNL     1      34.386   8.792 107.795  1.00  0.00     0.016 A 
ATOM      4  C   UNL     1      34.658   9.857 106.920  1.00  0.00     0.038 A 
ATOM      5  C   UNL     1      33.699  10.236 105.953  1.00  0.00     0.076 A 
ATOM      6  C   UNL     1      32.502   9.483 105.835  1.00  0.00     0.127 A 
ATOM      7  C   UNL     1      32.245   8.440 106.731  1.00  0.00     0.050 A 
ATOM      8  C   UNL     1      33.960  11.456 105.147  1.00  0.00     0.201 C 
ATOM      9  O   UNL     1      32.995  12.150 104.730  1.00  0.00    -0.288 OA
ATOM     10  C   UNL     1      35.350  11.958 104.996  1.00  0.00     0.076 A 
ATOM     11  C   UNL     1      36.306  11.577 105.965  1.00  0.00     0.041 A 
ATOM     12  C   UNL     1      35.947  10.583 107.004  1.00  0.00     0.194 C 
ATOM     13  O   UNL     1      36.751  10.335 107.945  1.00  0.00    -0.289 OA
ATOM     14  C   UNL     1      37.593  12.139 105.936  1.00  0.00     0.059 A 
ATOM     15  C   UNL     1      37.942  13.062 104.946  1.00  0.00     0.120 A 
ATOM     16  C   UNL     1      37.015  13.410 103.965  1.00  0.00     0.093 A 
ATOM     17  C   UNL     1      35.733  12.849 103.960  1.00  0.00     0.131 A 
ENDROOT
BRANCH   6  18
ATOM     18  O   UNL     1      31.561   9.714 104.828  1.00  0.00    -0.507 OA
ATOM     19  H   UNL     1      31.758  10.244 103.991  1.00  0.00     0.293 HD
ENDBRANCH   6  18
BRANCH  17  20
ATOM     20  O   UNL     1      34.891  13.175 102.894  1.00  0.00    -0.507 OA
ATOM     21  H   UNL     1      34.449  14.079 102.788  1.00  0.00     0.293 HD
ENDBRANCH  17  20
BRANCH  15  22
ATOM     22  O   UNL     1      39.214  13.632 104.922  1.00  0.00    -0.508 OA
ATOM     23  H   UNL     1      39.442  14.394 104.296  1.00  0.00     0.293 HD
ENDBRANCH  15  22
TORSDOF 3
ENDMDL
MODEL 2
REMARK VINA RESULT:    -5.770      2.329      6.949
REMARK INTER + INTRA:          -6.276
REMARK INTER:                  -6.276
REMARK INTRA:                   0.000
REMARK UNBOUND:                 0.000
REMARK SMILES Cc1cc(O)c2c(c1)C(=O)c1cc(O)cc(O)c1C2=O
REMARK SMILES IDX 1 1 2 2 8 3 7 4 6 5 4 6 3 7 19 8 20 9 18 10 11 11 9 12 10 13
REMARK SMILES IDX 12 14 13 15 15 16 16 17 5 18 17 20 14 22
REMARK H PARENT 5 19 17 21 14 23
REMARK Flexibility Score: inf
ROOT
ATOM      1  C   UNL     1      34.364  13.144 104.349  1.00  0.00     0.044 C 
ATOM      2  C   UNL     1      34.283  11.900 105.187  1.00  0.00    -0.047 A 
ATOM      3  C   UNL     1      33.177  11.050 105.081  1.00  0.00     0.016 A 
ATOM      4  C   UNL     1      33.072   9.907 105.892  1.00  0.00     0.038 A 
ATOM      5  C   UNL     1      34.078   9.624 106.843  1.00  0.00     0.076 A 
ATOM      6  C   UNL     1      35.220  10.464 106.913  1.00  0.00     0.127 A 
ATOM      7  C   UNL     1      35.292  11.607 106.110  1.00  0.00     0.050 A 
ATOM      8  C   UNL     1      33.860   8.492 107.780  1.00  0.00     0.201 C 
ATOM      9  O   UNL     1      34.359   8.529 108.936  1.00  0.00    -0.288 OA
ATOM     10  C   UNL     1      32.902   7.414 107.424  1.00  0.00     0.076 A 
ATOM     11  C   UNL     1      31.896   7.701 106.472  1.00  0.00     0.041 A 
ATOM     12  C   UNL     1      31.912   8.996 105.752  1.00  0.00     0.194 C 
ATOM     13  O   UNL     1      30.949   9.311 104.998  1.00  0.00    -0.289 OA
ATOM     14  C   UNL     1      30.891   6.756 106.211  1.00  0.00     0.059 A 
ATOM     15  C   UNL     1      30.884   5.526 106.874  1.00  0.00     0.120 A 
ATOM     16  C   UNL     1      31.896   5.223 107.783  1.00  0.00     0.093 A 
ATOM     17  C   UNL     1      32.921   6.138 108.046  1.00  0.00     0.131 A 
ENDROOT
BRANCH   6  18
ATOM     18  O   UNL     1      36.314  10.185 107.737  1.00  0.00    -0.507 OA
ATOM     19  H   UNL     1      37.274  10.325 107.457  1.00  0.00     0.293 HD
ENDBRANCH   6  18
BRANCH  17  20
ATOM     20  O   UNL     1      33.948   5.728 108.898  1.00  0.00    -0.507 OA
ATOM     21  H   UNL     1      33.789   5.346 109.821  1.00  0.00     0.293 HD
ENDBRANCH  17  20
BRANCH  15  22
ATOM     22  O   UNL     1      29.880   4.591 106.627  1.00  0.00    -0.508 OA
ATOM     23  H   UNL     1      29.646   3.873 107.301  1.00  0.00     0.293 HD
ENDBRANCH  15  22
TORSDOF 3
ENDMDL
MODEL 3
REMARK VINA RESULT:    -5.652      0.973      1.159
REMARK INTER + INTRA:          -6.147
REMARK INTER:                  -6.147
REMARK INTRA:                   0.000
REMARK UNBOUND:                 0.000
REMARK SMILES Cc1cc(O)c2c(c1)C(=O)c1cc(O)cc(O)c1C2=O
REMARK SMILES IDX 1 1 2 2 8 3 7 4 6 5 4 6 3 7 19 8 20 9 18 10 11 11 9 12 10 13
REMARK SMILES IDX 12 14 13 15 15 16 16 17 5 18 17 20 14 22
REMARK H PARENT 5 19 17 21 14 23
REMARK Flexibility Score: inf
ROOT
ATOM      1  C   UNL     1      31.844   6.007 108.139  1.00  0.00     0.044 C 
ATOM      2  C   UNL     1      32.235   7.245 107.386  1.00  0.00    -0.047 A 
ATOM      3  C   UNL     1      33.431   7.905 107.688  1.00  0.00     0.016 A 
ATOM      4  C   UNL     1      33.785   9.089 107.018  1.00  0.00     0.038 A 
ATOM      5  C   UNL     1      32.914   9.637 106.049  1.00  0.00     0.076 A 
ATOM      6  C   UNL     1      31.724   8.938 105.715  1.00  0.00     0.127 A 
ATOM      7  C   UNL     1      31.384   7.772 106.409  1.00  0.00     0.050 A 
ATOM      8  C   UNL     1      33.252  10.963 105.472  1.00  0.00     0.201 C 
ATOM      9  O   UNL     1      32.331  11.735 105.093  1.00  0.00    -0.288 OA
ATOM     10  C   UNL     1      34.654  11.452 105.517  1.00  0.00     0.076 A 
ATOM     11  C   UNL     1      35.522  10.902 106.488  1.00  0.00     0.041 A 
ATOM     12  C   UNL     1      35.068   9.764 107.322  1.00  0.00     0.194 C 
ATOM     13  O   UNL     1      35.788   9.353 108.275  1.00  0.00    -0.289 OA
ATOM     14  C   UNL     1      36.811  11.434 106.654  1.00  0.00     0.059 A 
ATOM     15  C   UNL     1      37.250  12.494 105.857  1.00  0.00     0.120 A 
ATOM     16  C   UNL     1      36.412  13.012 104.871  1.00  0.00     0.093 A 
ATOM     17  C   UNL     1      35.130  12.487 104.671  1.00  0.00     0.131 A 
ENDROOT
BRANCH   6  18
ATOM     18  O   UNL     1      30.874   9.346 104.684  1.00  0.00    -0.507 OA
ATOM     19  H   UNL     1      30.019   8.866 104.443  1.00  0.00     0.293 HD
ENDBRANCH   6  18
BRANCH  17  20
ATOM     20  O   UNL     1      34.384  12.996 103.606  1.00  0.00    -0.507 OA
ATOM     21  H   UNL     1      33.973  12.419 102.885  1.00  0.00     0.293 HD
ENDBRANCH  17  20
BRANCH  15  22
ATOM     22  O   UNL     1      38.524  13.032 106.028  1.00  0.00    -0.508 OA
ATOM     23  H   UNL     1      38.731  13.993 105.781  1.00  0.00     0.293 HD
ENDBRANCH  15  22
TORSDOF 3
ENDMDL
MODEL 4
REMARK VINA RESULT:    -5.099      2.027      6.717
REMARK INTER + INTRA:          -5.546
REMARK INTER:                  -5.546
REMARK INTRA:                   0.000
REMARK UNBOUND:                 0.000
REMARK SMILES Cc1cc(O)c2c(c1)C(=O)c1cc(O)cc(O)c1C2=O
REMARK SMILES IDX 1 1 2 2 8 3 7 4 6 5 4 6 3 7 19 8 20 9 18 10 11 11 9 12 10 13
REMARK SMILES IDX 12 14 13 15 15 16 16 17 5 18 17 20 14 22
REMARK H PARENT 5 19 17 21 14 23
REMARK Flexibility Score: inf
ROOT
ATOM      1  C   UNL     1      41.935  14.026 103.098  1.00  0.00     0.044 C 
ATOM      2  C   UNL     1      40.897  13.305 103.908  1.00  0.00    -0.047 A 
ATOM      3  C   UNL     1      39.537  13.514 103.658  1.00  0.00     0.016 A 
ATOM      4  C   UNL     1      38.558  12.878 104.439  1.00  0.00     0.038 A 
ATOM      5  C   UNL     1      38.946  12.037 105.506  1.00  0.00     0.076 A 
ATOM      6  C   UNL     1      40.327  11.792 105.726  1.00  0.00     0.127 A 
ATOM      7  C   UNL     1      41.283  12.453 104.948  1.00  0.00     0.050 A 
ATOM      8  C   UNL     1      37.887  11.501 106.399  1.00  0.00     0.201 C 
ATOM      9  O   UNL     1      38.147  11.264 107.609  1.00  0.00    -0.288 OA
ATOM     10  C   UNL     1      36.484  11.425 105.917  1.00  0.00     0.076 A 
ATOM     11  C   UNL     1      36.099  12.268 104.849  1.00  0.00     0.041 A 
ATOM     12  C   UNL     1      37.119  13.081 104.146  1.00  0.00     0.194 C 
ATOM     13  O   UNL     1      36.765  13.929 103.280  1.00  0.00    -0.289 OA
ATOM     14  C   UNL     1      34.752  12.326 104.455  1.00  0.00     0.059 A 
ATOM     15  C   UNL     1      33.789  11.546 105.101  1.00  0.00     0.120 A 
ATOM     16  C   UNL     1      34.171  10.684 106.128  1.00  0.00     0.093 A 
ATOM     17  C   UNL     1      35.510  10.591 106.526  1.00  0.00     0.131 A 
ENDROOT
BRANCH   6  18
ATOM     18  O   UNL     1      40.790  10.880 106.679  1.00  0.00    -0.507 OA
ATOM     19  H   UNL     1      40.193  10.221 107.157  1.00  0.00     0.293 HD
ENDBRANCH   6  18
BRANCH  17  20
ATOM     20  O   UNL     1      35.829   9.641 107.497  1.00  0.00    -0.507 OA
ATOM     21  H   UNL     1      36.699   9.124 107.508  1.00  0.00     0.293 HD
ENDBRANCH  17  20
BRANCH  15  22
ATOM     22  O   UNL     1      32.450  11.611 104.722  1.00  0.00    -0.508 OA
ATOM     23  H   UNL     1      32.026  12.480 104.417  1.00  0.00     0.293 HD
ENDBRANCH  15  22
TORSDOF 3
ENDMDL
MODEL 5
REMARK VINA RESULT:    -4.970      1.328      6.318
REMARK INTER + INTRA:          -5.406
REMARK INTER:                  -5.406
REMARK INTRA:                   0.000
REMARK UNBOUND:                 0.000
REMARK SMILES Cc1cc(O)c2c(c1)C(=O)c1cc(O)cc(O)c1C2=O
REMARK SMILES IDX 1 1 2 2 8 3 7 4 6 5 4 6 3 7 19 8 20 9 18 10 11 11 9 12 10 13
REMARK SMILES IDX 12 14 13 15 15 16 16 17 5 18 17 20 14 22
REMARK H PARENT 5 19 17 21 14 23
REMARK Flexibility Score: inf
ROOT
ATOM      1  C   UNL     1      39.560  14.125 103.272  1.00  0.00     0.044 C 
ATOM      2  C   UNL     1      38.777  13.245 104.204  1.00  0.00    -0.047 A 
ATOM      3  C   UNL     1      37.428  12.975 103.951  1.00  0.00     0.016 A 
ATOM      4  C   UNL     1      36.676  12.188 104.840  1.00  0.00     0.038 A 
ATOM      5  C   UNL     1      37.278  11.685 106.016  1.00  0.00     0.076 A 
ATOM      6  C   UNL     1      38.659  11.924 106.243  1.00  0.00     0.127 A 
ATOM      7  C   UNL     1      39.381  12.726 105.354  1.00  0.00     0.050 A 
ATOM      8  C   UNL     1      36.415  10.984 107.001  1.00  0.00     0.201 C 
ATOM      9  O   UNL     1      36.700  11.028 108.228  1.00  0.00    -0.288 OA
ATOM     10  C   UNL     1      35.122  10.398 106.564  1.00  0.00     0.076 A 
ATOM     11  C   UNL     1      34.523  10.904 105.388  1.00  0.00     0.041 A 
ATOM     12  C   UNL     1      35.256  11.882 104.549  1.00  0.00     0.194 C 
ATOM     13  O   UNL     1      34.679  12.433 103.570  1.00  0.00    -0.289 OA
ATOM     14  C   UNL     1      33.238  10.475 105.017  1.00  0.00     0.059 A 
ATOM     15  C   UNL     1      32.551   9.539 105.794  1.00  0.00     0.120 A 
ATOM     16  C   UNL     1      33.154   9.007 106.933  1.00  0.00     0.093 A 
ATOM     17  C   UNL     1      34.441   9.403 107.313  1.00  0.00     0.131 A 
ENDROOT
BRANCH   6  18
ATOM     18  O   UNL     1      39.356  11.360 107.315  1.00  0.00    -0.507 OA
ATOM     19  H   UNL     1      39.189  10.426 107.660  1.00  0.00     0.293 HD
ENDBRANCH   6  18
BRANCH  17  20
ATOM     20  O   UNL     1      35.015   8.760 108.412  1.00  0.00    -0.507 OA
ATOM     21  H   UNL     1      35.858   9.081 108.869  1.00  0.00     0.293 HD
ENDBRANCH  17  20
BRANCH  15  22
ATOM     22  O   UNL     1      31.270   9.121 105.436  1.00  0.00    -0.508 OA
ATOM     23  H   UNL     1      31.074   8.737 104.519  1.00  0.00     0.293 HD
ENDBRANCH  15  22
TORSDOF 3
ENDMDL
MODEL 6
REMARK VINA RESULT:    -4.883      1.922      5.871
REMARK INTER + INTRA:          -5.311
REMARK INTER:                  -5.311
REMARK INTRA:                   0.000
REMARK UNBOUND:                 0.000
REMARK SMILES Cc1cc(O)c2c(c1)C(=O)c1cc(O)cc(O)c1C2=O
REMARK SMILES IDX 1 1 2 2 8 3 7 4 6 5 4 6 3 7 19 8 20 9 18 10 11 11 9 12 10 13
REMARK SMILES IDX 12 14 13 15 15 16 16 17 5 18 17 20 14 22
REMARK H PARENT 5 19 17 21 14 23
REMARK Flexibility Score: inf
ROOT
ATOM      1  C   UNL     1      37.139  13.255 106.979  1.00  0.00     0.044 C 
ATOM      2  C   UNL     1      35.982  12.355 106.655  1.00  0.00    -0.047 A 
ATOM      3  C   UNL     1      35.834  11.131 107.315  1.00  0.00     0.016 A 
ATOM      4  C   UNL     1      34.779  10.263 106.989  1.00  0.00     0.038 A 
ATOM      5  C   UNL     1      33.870  10.614 105.965  1.00  0.00     0.076 A 
ATOM      6  C   UNL     1      33.998  11.877 105.331  1.00  0.00     0.127 A 
ATOM      7  C   UNL     1      35.068  12.715 105.659  1.00  0.00     0.050 A 
ATOM      8  C   UNL     1      32.860   9.608 105.548  1.00  0.00     0.201 C 
ATOM      9  O   UNL     1      32.442   9.594 104.359  1.00  0.00    -0.288 OA
ATOM     10  C   UNL     1      32.487   8.508 106.474  1.00  0.00     0.076 A 
ATOM     11  C   UNL     1      33.399   8.160 107.497  1.00  0.00     0.041 A 
ATOM     12  C   UNL     1      34.612   8.982 107.715  1.00  0.00     0.194 C 
ATOM     13  O   UNL     1      35.492   8.604 108.538  1.00  0.00    -0.289 OA
ATOM     14  C   UNL     1      33.147   7.039 108.306  1.00  0.00     0.059 A 
ATOM     15  C   UNL     1      31.994   6.273 108.117  1.00  0.00     0.120 A 
ATOM     16  C   UNL     1      31.073   6.636 107.136  1.00  0.00     0.093 A 
ATOM     17  C   UNL     1      31.290   7.760 106.331  1.00  0.00     0.131 A 
ENDROOT
BRANCH   6  18
ATOM     18  O   UNL     1      33.071  12.351 104.398  1.00  0.00    -0.507 OA
ATOM     19  H   UNL     1      32.926  11.931 103.492  1.00  0.00     0.293 HD
ENDBRANCH   6  18
BRANCH  17  20
ATOM     20  O   UNL     1      30.280   8.114 105.434  1.00  0.00    -0.507 OA
ATOM     21  H   UNL     1      30.369   8.864 104.760  1.00  0.00     0.293 HD
ENDBRANCH  17  20
BRANCH  15  22
ATOM     22  O   UNL     1      31.748   5.152 108.908  1.00  0.00    -0.508 OA
ATOM     23  H   UNL     1      30.947   4.553 108.746  1.00  0.00     0.293 HD
ENDBRANCH  15  22
TORSDOF 3
ENDMDL
MODEL 7
REMARK VINA RESULT:    -4.196      1.763      3.842
REMARK INTER + INTRA:          -4.564
REMARK INTER:                  -4.564
REMARK INTRA:                   0.000
REMARK UNBOUND:                 0.000
REMARK SMILES Cc1cc(O)c2c(c1)C(=O)c1cc(O)cc(O)c1C2=O
REMARK SMILES IDX 1 1 2 2 8 3 7 4 6 5 4 6 3 7 19 8 20 9 18 10 11 11 9 12 10 13
REMARK SMILES IDX 12 14 13 15 15 16 16 17 5 18 17 20 14 22
REMARK H PARENT 5 19 17 21 14 23
REMARK Flexibility Score: inf
ROOT
ATOM      1  C   UNL     1      30.249   5.599 107.123  1.00  0.00     0.044 C 
ATOM      2  C   UNL     1      31.363   6.597 107.243  1.00  0.00    -0.047 A 
ATOM      3  C   UNL     1      31.455   7.663 106.342  1.00  0.00     0.016 A 
ATOM      4  C   UNL     1      32.518   8.578 106.420  1.00  0.00     0.038 A 
ATOM      5  C   UNL     1      33.522   8.408 107.400  1.00  0.00     0.076 A 
ATOM      6  C   UNL     1      33.399   7.352 108.340  1.00  0.00     0.127 A 
ATOM      7  C   UNL     1      32.343   6.443 108.230  1.00  0.00     0.050 A 
ATOM      8  C   UNL     1      34.704   9.307 107.357  1.00  0.00     0.201 C 
ATOM      9  O   UNL     1      35.823   8.892 107.763  1.00  0.00    -0.288 OA
ATOM     10  C   UNL     1      34.611  10.617 106.663  1.00  0.00     0.076 A 
ATOM     11  C   UNL     1      33.605  10.783 105.684  1.00  0.00     0.041 A 
ATOM     12  C   UNL     1      32.590   9.723 105.481  1.00  0.00     0.194 C 
ATOM     13  O   UNL     1      31.770   9.807 104.525  1.00  0.00    -0.289 OA
ATOM     14  C   UNL     1      33.570  11.955 104.910  1.00  0.00     0.059 A 
ATOM     15  C   UNL     1      34.513  12.967 105.111  1.00  0.00     0.120 A 
ATOM     16  C   UNL     1      35.481  12.824 106.104  1.00  0.00     0.093 A 
ATOM     17  C   UNL     1      35.526  11.676 106.902  1.00  0.00     0.131 A 
ENDROOT
BRANCH   6  18
ATOM     18  O   UNL     1      34.280   7.189 109.413  1.00  0.00    -0.507 OA
ATOM     19  H   UNL     1      35.161   6.701 109.342  1.00  0.00     0.293 HD
ENDBRANCH   6  18
BRANCH  17  20
ATOM     20  O   UNL     1      36.465  11.644 107.934  1.00  0.00    -0.507 OA
ATOM     21  H   UNL     1      36.852  10.790 108.311  1.00  0.00     0.293 HD
ENDBRANCH  17  20
BRANCH  15  22
ATOM     22  O   UNL     1      34.489  14.125 104.336  1.00  0.00    -0.508 OA
ATOM     23  H   UNL     1      33.805  14.257 103.600  1.00  0.00     0.293 HD
ENDBRANCH  15  22
TORSDOF 3
ENDMDL
MODEL 8
REMARK VINA RESULT:    -4.144      1.721      5.496
REMARK INTER + INTRA:          -4.507
REMARK INTER:                  -4.507
REMARK INTRA:                   0.000
REMARK UNBOUND:                 0.000
REMARK SMILES Cc1cc(O)c2c(c1)C(=O)c1cc(O)cc(O)c1C2=O
REMARK SMILES IDX 1 1 2 2 8 3 7 4 6 5 4 6 3 7 19 8 20 9 18 10 11 11 9 12 10 13
REMARK SMILES IDX 12 14 13 15 15 16 16 17 5 18 17 20 14 22
REMARK H PARENT 5 19 17 21 14 23
REMARK Flexibility Score: inf
ROOT
ATOM      1  C   UNL     1      38.233  14.090 107.323  1.00  0.00     0.044 C 
ATOM      2  C   UNL     1      36.995  13.363 106.883  1.00  0.00    -0.047 A 
ATOM      3  C   UNL     1      36.752  12.057 107.321  1.00  0.00     0.016 A 
ATOM      4  C   UNL     1      35.619  11.353 106.880  1.00  0.00     0.038 A 
ATOM      5  C   UNL     1      34.727  11.956 105.964  1.00  0.00     0.076 A 
ATOM      6  C   UNL     1      34.955  13.297 105.559  1.00  0.00     0.127 A 
ATOM      7  C   UNL     1      36.101  13.970 105.996  1.00  0.00     0.050 A 
ATOM      8  C   UNL     1      33.625  11.129 105.409  1.00  0.00     0.201 C 
ATOM      9  O   UNL     1      33.188  11.362 104.250  1.00  0.00    -0.288 OA
ATOM     10  C   UNL     1      33.173   9.917 106.139  1.00  0.00     0.076 A 
ATOM     11  C   UNL     1      34.067   9.316 107.054  1.00  0.00     0.041 A 
ATOM     12  C   UNL     1      35.352   9.981 107.374  1.00  0.00     0.194 C 
ATOM     13  O   UNL     1      36.208   9.390 108.090  1.00  0.00    -0.289 OA
ATOM     14  C   UNL     1      33.731   8.094 107.660  1.00  0.00     0.059 A 
ATOM     15  C   UNL     1      32.512   7.473 107.376  1.00  0.00     0.120 A 
ATOM     16  C   UNL     1      31.610   8.082 106.505  1.00  0.00     0.093 A 
ATOM     17  C   UNL     1      31.911   9.310 105.904  1.00  0.00     0.131 A 
ENDROOT
BRANCH   6  18
ATOM     18  O   UNL     1      34.058  14.006 104.755  1.00  0.00    -0.507 OA
ATOM     19  H   UNL     1      33.431  14.713 105.108  1.00  0.00     0.293 HD
ENDBRANCH   6  18
BRANCH  17  20
ATOM     20  O   UNL     1      30.923   9.901 105.116  1.00  0.00    -0.507 OA
ATOM     21  H   UNL     1      30.796  10.902 105.036  1.00  0.00     0.293 HD
ENDBRANCH  17  20
BRANCH  15  22
ATOM     22  O   UNL     1      32.181   6.254 107.965  1.00  0.00    -0.508 OA
ATOM     23  H   UNL     1      32.727   5.418 107.796  1.00  0.00     0.293 HD
ENDBRANCH  15  22
TORSDOF 3
ENDMDL
MODEL 9
REMARK VINA RESULT:    -3.334      2.510      5.883
REMARK INTER + INTRA:          -3.626
REMARK INTER:                  -3.626
REMARK INTRA:                   0.000
REMARK UNBOUND:                 0.000
REMARK SMILES Cc1cc(O)c2c(c1)C(=O)c1cc(O)cc(O)c1C2=O
REMARK SMILES IDX 1 1 2 2 8 3 7 4 6 5 4 6 3 7 19 8 20 9 18 10 11 11 9 12 10 13
REMARK SMILES IDX 12 14 13 15 15 16 16 17 5 18 17 20 14 22
REMARK H PARENT 5 19 17 21 14 23
REMARK Flexibility Score: inf
ROOT
ATOM      1  C   UNL     1      42.252  11.220 107.979  1.00  0.00     0.044 C 
ATOM      2  C   UNL     1      41.163  11.681 107.054  1.00  0.00    -0.047 A 
ATOM      3  C   UNL     1      39.830  11.342 107.310  1.00  0.00     0.016 A 
ATOM      4  C   UNL     1      38.809  11.732 106.427  1.00  0.00     0.038 A 
ATOM      5  C   UNL     1      39.130  12.450 105.253  1.00  0.00     0.076 A 
ATOM      6  C   UNL     1      40.478  12.831 105.022  1.00  0.00     0.127 A 
ATOM      7  C   UNL     1      41.479  12.414 105.905  1.00  0.00     0.050 A 
ATOM      8  C   UNL     1      38.046  12.715 104.273  1.00  0.00     0.201 C 
ATOM      9  O   UNL     1      38.317  12.804 103.046  1.00  0.00    -0.288 OA
ATOM     10  C   UNL     1      36.628  12.685 104.716  1.00  0.00     0.076 A 
ATOM     11  C   UNL     1      36.310  11.965 105.890  1.00  0.00     0.041 A 
ATOM     12  C   UNL     1      37.396  11.395 106.722  1.00  0.00     0.194 C 
ATOM     13  O   UNL     1      37.117  10.645 107.699  1.00  0.00    -0.289 OA
ATOM     14  C   UNL     1      34.967  11.797 106.266  1.00  0.00     0.059 A 
ATOM     15  C   UNL     1      33.941  12.349 105.495  1.00  0.00     0.120 A 
ATOM     16  C   UNL     1      34.251  13.093 104.358  1.00  0.00     0.093 A 
ATOM     17  C   UNL     1      35.582  13.293 103.974  1.00  0.00     0.131 A 
ENDROOT
BRANCH   6  18
ATOM     18  O   UNL     1      40.860  13.645 103.953  1.00  0.00    -0.507 OA
ATOM     19  H   UNL     1      40.662  14.634 103.905  1.00  0.00     0.293 HD
ENDBRANCH   6  18
BRANCH  17  20
ATOM     20  O   UNL     1      35.818  14.125 102.878  1.00  0.00    -0.507 OA
ATOM     21  H   UNL     1      35.425  15.052 102.785  1.00  0.00     0.293 HD
ENDBRANCH  17  20
BRANCH  15  22
ATOM     22  O   UNL     1      32.607  12.173 105.857  1.00  0.00    -0.508 OA
ATOM     23  H   UNL     1      32.343  11.598 106.649  1.00  0.00     0.293 HD
ENDBRANCH  15  22
TORSDOF 3
ENDMDL
