MODEL 1
REMARK VINA RESULT:    -3.734      0.000      0.000
REMARK INTER + INTRA:          -6.380
REMARK INTER:                  -5.699
REMARK INTRA:                  -0.681
REMARK UNBOUND:                -0.681
REMARK SMILES CCCCCCCCCCC(=O)[O-]
REMARK SMILES IDX 7 1 8 2 9 3 10 4 11 5 12 6 13 7 6 8 5 9 4 10 3 11 2 12 1 13
REMARK H PARENT
REMARK Flexibility Score: inf
ROOT
ATOM      1  C   UNL     1     -17.476 -16.932  -2.969  1.00  0.00     0.000 C 
ENDROOT
BRANCH   1   2
ATOM      2  C   UNL     1     -15.967 -17.013  -3.252  1.00  0.00     0.000 C 
BRANCH   2   3
ATOM      3  C   UNL     1     -15.344 -15.636  -3.538  1.00  0.00     0.006 C 
BRANCH   3   4
ATOM      4  C   UNL     1     -16.406 -14.572  -3.849  1.00  0.00     0.053 C 
BRANCH   4   5
ATOM      5  C   UNL     1     -16.058 -13.778  -5.072  1.00  0.00     0.041 C 
ATOM      6  O   UNL     1     -16.028 -14.335  -6.200  1.00  0.00    -0.550 OA
ATOM      7  O   UNL     1     -15.740 -12.431  -4.960  1.00  0.00    -0.550 OA
ENDBRANCH   4   5
ENDBRANCH   3   4
ENDBRANCH   2   3
ENDBRANCH   1   2
BRANCH   1   8
ATOM      8  C   UNL     1     -18.258 -18.103  -3.583  1.00  0.00     0.000 C 
BRANCH   8   9
ATOM      9  C   UNL     1     -17.550 -18.639  -4.834  1.00  0.00    -0.000 C 
BRANCH   9  10
ATOM     10  C   UNL     1     -18.032 -20.058  -5.174  1.00  0.00    -0.000 C 
BRANCH  10  11
ATOM     11  C   UNL     1     -19.208 -20.510  -4.296  1.00  0.00    -0.000 C 
BRANCH  11  12
ATOM     12  C   UNL     1     -20.452 -20.878  -5.118  1.00  0.00    -0.003 C 
ATOM     13  C   UNL     1     -21.418 -19.700  -5.211  1.00  0.00     0.004 C 
ENDBRANCH  11  12
ENDBRANCH  10  11
ENDBRANCH   9  10
ENDBRANCH   8   9
ENDBRANCH   1   8
TORSDOF 9
ENDMDL
MODEL 2
REMARK VINA RESULT:    -3.660      3.628      6.775
REMARK INTER + INTRA:          -6.267
REMARK INTER:                  -5.960
REMARK INTRA:                  -0.307
REMARK UNBOUND:                -0.681
REMARK SMILES CCCCCCCCCCC(=O)[O-]
REMARK SMILES IDX 7 1 8 2 9 3 10 4 11 5 12 6 13 7 6 8 5 9 4 10 3 11 2 12 1 13
REMARK H PARENT
REMARK Flexibility Score: inf
ROOT
ATOM      1  C   UNL     1     -18.627 -18.778  -3.463  1.00  0.00     0.000 C 
ENDROOT
BRANCH   1   2
ATOM      2  C   UNL     1     -19.396 -19.465  -4.603  1.00  0.00     0.000 C 
BRANCH   2   3
ATOM      3  C   UNL     1     -20.903 -19.160  -4.569  1.00  0.00     0.006 C 
BRANCH   3   4
ATOM      4  C   UNL     1     -21.695 -20.043  -5.544  1.00  0.00     0.053 C 
BRANCH   4   5
ATOM      5  C   UNL     1     -22.930 -19.354  -6.042  1.00  0.00     0.041 C 
ATOM      6  O   UNL     1     -22.854 -18.202  -6.542  1.00  0.00    -0.550 OA
ATOM      7  O   UNL     1     -24.167 -19.975  -5.928  1.00  0.00    -0.550 OA
ENDBRANCH   4   5
ENDBRANCH   3   4
ENDBRANCH   2   3
ENDBRANCH   1   2
BRANCH   1   8
ATOM      8  C   UNL     1     -17.585 -17.771  -3.972  1.00  0.00     0.000 C 
BRANCH   8   9
ATOM      9  C   UNL     1     -17.304 -16.692  -2.918  1.00  0.00    -0.000 C 
BRANCH   9  10
ATOM     10  C   UNL     1     -16.019 -15.919  -3.251  1.00  0.00    -0.000 C 
BRANCH  10  11
ATOM     11  C   UNL     1     -15.970 -15.454  -4.714  1.00  0.00    -0.000 C 
BRANCH  11  12
ATOM     12  C   UNL     1     -16.284 -13.959  -4.872  1.00  0.00    -0.003 C 
ATOM     13  C   UNL     1     -16.513 -13.597  -6.337  1.00  0.00     0.004 C 
ENDBRANCH  11  12
ENDBRANCH  10  11
ENDBRANCH   9  10
ENDBRANCH   8   9
ENDBRANCH   1   8
TORSDOF 9
ENDMDL
MODEL 3
REMARK VINA RESULT:    -3.647     11.099     12.956
REMARK INTER + INTRA:          -6.247
REMARK INTER:                  -5.757
REMARK INTRA:                  -0.489
REMARK UNBOUND:                -0.681
REMARK SMILES CCCCCCCCCCC(=O)[O-]
REMARK SMILES IDX 7 1 8 2 9 3 10 4 11 5 12 6 13 7 6 8 5 9 4 10 3 11 2 12 1 13
REMARK H PARENT
REMARK Flexibility Score: inf
ROOT
ATOM      1  C   UNL     1     -23.130 -14.013   3.387  1.00  0.00     0.000 C 
ENDROOT
BRANCH   1   2
ATOM      2  C   UNL     1     -23.960 -15.256   3.027  1.00  0.00     0.000 C 
BRANCH   2   3
ATOM      3  C   UNL     1     -25.414 -15.160   3.519  1.00  0.00     0.006 C 
BRANCH   3   4
ATOM      4  C   UNL     1     -26.188 -16.468   3.298  1.00  0.00     0.053 C 
BRANCH   4   5
ATOM      5  C   UNL     1     -27.670 -16.257   3.368  1.00  0.00     0.041 C 
ATOM      6  O   UNL     1     -28.455 -17.230   3.226  1.00  0.00    -0.550 OA
ATOM      7  O   UNL     1     -28.184 -14.981   3.561  1.00  0.00    -0.550 OA
ENDBRANCH   4   5
ENDBRANCH   3   4
ENDBRANCH   2   3
ENDBRANCH   1   2
BRANCH   1   8
ATOM      8  C   UNL     1     -23.913 -13.006   4.244  1.00  0.00     0.000 C 
BRANCH   8   9
ATOM      9  C   UNL     1     -22.965 -12.193   5.136  1.00  0.00    -0.000 C 
BRANCH   9  10
ATOM     10  C   UNL     1     -22.741 -10.786   4.561  1.00  0.00    -0.000 C 
BRANCH  10  11
ATOM     11  C   UNL     1     -21.253 -10.441   4.403  1.00  0.00    -0.000 C 
BRANCH  11  12
ATOM     12  C   UNL     1     -20.380 -11.681   4.163  1.00  0.00    -0.003 C 
ATOM     13  C   UNL     1     -19.085 -11.311   3.445  1.00  0.00     0.004 C 
ENDBRANCH  11  12
ENDBRANCH  10  11
ENDBRANCH   9  10
ENDBRANCH   8   9
ENDBRANCH   1   8
TORSDOF 9
ENDMDL
MODEL 4
REMARK VINA RESULT:    -3.624     10.889     12.677
REMARK INTER + INTRA:          -6.212
REMARK INTER:                  -5.493
REMARK INTRA:                  -0.719
REMARK UNBOUND:                -0.681
REMARK SMILES CCCCCCCCCCC(=O)[O-]
REMARK SMILES IDX 7 1 8 2 9 3 10 4 11 5 12 6 13 7 6 8 5 9 4 10 3 11 2 12 1 13
REMARK H PARENT
REMARK Flexibility Score: inf
ROOT
ATOM      1  C   UNL     1     -23.886 -12.762   6.762  1.00  0.00     0.000 C 
ENDROOT
BRANCH   1   2
ATOM      2  C   UNL     1     -24.472 -13.013   5.363  1.00  0.00     0.000 C 
BRANCH   2   3
ATOM      3  C   UNL     1     -24.541 -14.509   5.009  1.00  0.00     0.006 C 
BRANCH   3   4
ATOM      4  C   UNL     1     -24.891 -14.739   3.532  1.00  0.00     0.053 C 
BRANCH   4   5
ATOM      5  C   UNL     1     -23.709 -15.220   2.747  1.00  0.00     0.041 C 
ATOM      6  O   UNL     1     -22.632 -14.568   2.761  1.00  0.00    -0.550 OA
ATOM      7  O   UNL     1     -23.806 -16.373   1.979  1.00  0.00    -0.550 OA
ENDBRANCH   4   5
ENDBRANCH   3   4
ENDBRANCH   2   3
ENDBRANCH   1   2
BRANCH   1   8
ATOM      8  C   UNL     1     -23.467 -11.300   6.975  1.00  0.00     0.000 C 
BRANCH   8   9
ATOM      9  C   UNL     1     -21.957 -11.127   6.764  1.00  0.00    -0.000 C 
BRANCH   9  10
ATOM     10  C   UNL     1     -21.670 -10.156   5.609  1.00  0.00    -0.000 C 
BRANCH  10  11
ATOM     11  C   UNL     1     -21.670 -10.850   4.239  1.00  0.00    -0.000 C 
BRANCH  11  12
ATOM     12  C   UNL     1     -20.598 -11.944   4.130  1.00  0.00    -0.003 C 
ATOM     13  C   UNL     1     -19.261 -11.362   3.679  1.00  0.00     0.004 C 
ENDBRANCH  11  12
ENDBRANCH  10  11
ENDBRANCH   9  10
ENDBRANCH   8   9
ENDBRANCH   1   8
TORSDOF 9
ENDMDL
MODEL 5
REMARK VINA RESULT:    -3.481     10.502     11.383
REMARK INTER + INTRA:          -5.994
REMARK INTER:                  -5.135
REMARK INTRA:                  -0.858
REMARK UNBOUND:                -0.681
REMARK SMILES CCCCCCCCCCC(=O)[O-]
REMARK SMILES IDX 7 1 8 2 9 3 10 4 11 5 12 6 13 7 6 8 5 9 4 10 3 11 2 12 1 13
REMARK H PARENT
REMARK Flexibility Score: inf
ROOT
ATOM      1  C   UNL     1     -23.131 -14.256   3.038  1.00  0.00     0.000 C 
ENDROOT
BRANCH   1   2
ATOM      2  C   UNL     1     -23.467 -13.582   4.379  1.00  0.00     0.000 C 
BRANCH   2   3
ATOM      3  C   UNL     1     -23.131 -12.081   4.388  1.00  0.00     0.006 C 
BRANCH   3   4
ATOM      4  C   UNL     1     -21.832 -11.782   5.149  1.00  0.00     0.053 C 
BRANCH   4   5
ATOM      5  C   UNL     1     -20.820 -11.101   4.279  1.00  0.00     0.041 C 
ATOM      6  O   UNL     1     -20.965  -9.890   3.969  1.00  0.00    -0.550 OA
ATOM      7  O   UNL     1     -19.733 -11.812   3.788  1.00  0.00    -0.550 OA
ENDBRANCH   4   5
ENDBRANCH   3   4
ENDBRANCH   2   3
ENDBRANCH   1   2
BRANCH   1   8
ATOM      8  C   UNL     1     -24.030 -15.466   2.741  1.00  0.00     0.000 C 
BRANCH   8   9
ATOM      9  C   UNL     1     -25.007 -15.719   3.897  1.00  0.00    -0.000 C 
BRANCH   9  10
ATOM     10  C   UNL     1     -26.340 -16.281   3.378  1.00  0.00    -0.000 C 
BRANCH  10  11
ATOM     11  C   UNL     1     -27.494 -15.275   3.501  1.00  0.00    -0.000 C 
BRANCH  11  12
ATOM     12  C   UNL     1     -27.115 -14.036   4.325  1.00  0.00    -0.003 C 
ATOM     13  C   UNL     1     -27.181 -12.770   3.476  1.00  0.00     0.004 C 
ENDBRANCH  11  12
ENDBRANCH  10  11
ENDBRANCH   9  10
ENDBRANCH   8   9
ENDBRANCH   1   8
TORSDOF 9
ENDMDL
MODEL 6
REMARK VINA RESULT:    -3.464     11.005     12.022
REMARK INTER + INTRA:          -5.967
REMARK INTER:                  -5.262
REMARK INTRA:                  -0.706
REMARK UNBOUND:                -0.681
REMARK SMILES CCCCCCCCCCC(=O)[O-]
REMARK SMILES IDX 7 1 8 2 9 3 10 4 11 5 12 6 13 7 6 8 5 9 4 10 3 11 2 12 1 13
REMARK H PARENT
REMARK Flexibility Score: inf
ROOT
ATOM      1  C   UNL     1     -24.359 -10.988   5.603  1.00  0.00     0.000 C 
ENDROOT
BRANCH   1   2
ATOM      2  C   UNL     1     -23.097 -10.110   5.627  1.00  0.00     0.000 C 
BRANCH   2   3
ATOM      3  C   UNL     1     -22.381 -10.065   4.267  1.00  0.00     0.006 C 
BRANCH   3   4
ATOM      4  C   UNL     1     -20.854 -10.118   4.414  1.00  0.00     0.053 C 
BRANCH   4   5
ATOM      5  C   UNL     1     -20.288 -11.404   3.893  1.00  0.00     0.041 C 
ATOM      6  O   UNL     1     -20.973 -12.458   3.931  1.00  0.00    -0.550 OA
ATOM      7  O   UNL     1     -18.993 -11.442   3.393  1.00  0.00    -0.550 OA
ENDBRANCH   4   5
ENDBRANCH   3   4
ENDBRANCH   2   3
ENDBRANCH   1   2
BRANCH   1   8
ATOM      8  C   UNL     1     -25.397 -10.505   4.579  1.00  0.00     0.000 C 
BRANCH   8   9
ATOM      9  C   UNL     1     -26.447 -11.590   4.309  1.00  0.00    -0.000 C 
BRANCH   9  10
ATOM     10  C   UNL     1     -25.999 -12.944   4.881  1.00  0.00    -0.000 C 
BRANCH  10  11
ATOM     11  C   UNL     1     -25.552 -13.929   3.791  1.00  0.00    -0.000 C 
BRANCH  11  12
ATOM     12  C   UNL     1     -24.104 -14.404   3.979  1.00  0.00    -0.003 C 
ATOM     13  C   UNL     1     -23.460 -14.751   2.639  1.00  0.00     0.004 C 
ENDBRANCH  11  12
ENDBRANCH  10  11
ENDBRANCH   9  10
ENDBRANCH   8   9
ENDBRANCH   1   8
TORSDOF 9
ENDMDL
MODEL 7
REMARK VINA RESULT:    -3.462     10.700     11.475
REMARK INTER + INTRA:          -5.964
REMARK INTER:                  -5.150
REMARK INTRA:                  -0.814
REMARK UNBOUND:                -0.681
REMARK SMILES CCCCCCCCCCC(=O)[O-]
REMARK SMILES IDX 7 1 8 2 9 3 10 4 11 5 12 6 13 7 6 8 5 9 4 10 3 11 2 12 1 13
REMARK H PARENT
REMARK Flexibility Score: inf
ROOT
ATOM      1  C   UNL     1     -24.902 -12.070   4.689  1.00  0.00     0.000 C 
ENDROOT
BRANCH   1   2
ATOM      2  C   UNL     1     -23.970 -10.861   4.870  1.00  0.00     0.000 C 
BRANCH   2   3
ATOM      3  C   UNL     1     -22.564 -11.263   5.346  1.00  0.00     0.006 C 
BRANCH   3   4
ATOM      4  C   UNL     1     -21.458 -10.540   4.565  1.00  0.00     0.053 C 
BRANCH   4   5
ATOM      5  C   UNL     1     -20.478 -11.503   3.966  1.00  0.00     0.041 C 
ATOM      6  O   UNL     1     -20.821 -12.690   3.729  1.00  0.00    -0.550 OA
ATOM      7  O   UNL     1     -19.177 -11.096   3.698  1.00  0.00    -0.550 OA
ENDBRANCH   4   5
ENDBRANCH   3   4
ENDBRANCH   2   3
ENDBRANCH   1   2
BRANCH   1   8
ATOM      8  C   UNL     1     -24.153 -13.410   4.753  1.00  0.00     0.000 C 
BRANCH   8   9
ATOM      9  C   UNL     1     -24.029 -14.035   3.357  1.00  0.00    -0.000 C 
BRANCH   9  10
ATOM     10  C   UNL     1     -24.524 -15.490   3.360  1.00  0.00    -0.000 C 
BRANCH  10  11
ATOM     11  C   UNL     1     -25.640 -15.734   4.387  1.00  0.00    -0.000 C 
BRANCH  11  12
ATOM     12  C   UNL     1     -27.023 -15.879   3.736  1.00  0.00    -0.003 C 
ATOM     13  C   UNL     1     -27.757 -14.542   3.699  1.00  0.00     0.004 C 
ENDBRANCH  11  12
ENDBRANCH  10  11
ENDBRANCH   9  10
ENDBRANCH   8   9
ENDBRANCH   1   8
TORSDOF 9
ENDMDL
MODEL 8
REMARK VINA RESULT:    -3.419     11.294     13.099
REMARK INTER + INTRA:          -5.899
REMARK INTER:                  -5.320
REMARK INTRA:                  -0.579
REMARK UNBOUND:                -0.681
REMARK SMILES CCCCCCCCCCC(=O)[O-]
REMARK SMILES IDX 7 1 8 2 9 3 10 4 11 5 12 6 13 7 6 8 5 9 4 10 3 11 2 12 1 13
REMARK H PARENT
REMARK Flexibility Score: inf
ROOT
ATOM      1  C   UNL     1     -24.677 -12.564   5.719  1.00  0.00     0.000 C 
ENDROOT
BRANCH   1   2
ATOM      2  C   UNL     1     -25.623 -12.247   4.549  1.00  0.00     0.000 C 
BRANCH   2   3
ATOM      3  C   UNL     1     -25.913 -13.476   3.672  1.00  0.00     0.006 C 
BRANCH   3   4
ATOM      4  C   UNL     1     -25.254 -14.749   4.221  1.00  0.00     0.053 C 
BRANCH   4   5
ATOM      5  C   UNL     1     -25.095 -15.797   3.161  1.00  0.00     0.041 C 
ATOM      6  O   UNL     1     -24.026 -15.874   2.503  1.00  0.00    -0.550 OA
ATOM      7  O   UNL     1     -26.140 -16.668   2.882  1.00  0.00    -0.550 OA
ENDBRANCH   4   5
ENDBRANCH   3   4
ENDBRANCH   2   3
ENDBRANCH   1   2
BRANCH   1   8
ATOM      8  C   UNL     1     -23.635 -11.461   5.955  1.00  0.00     0.000 C 
BRANCH   8   9
ATOM      9  C   UNL     1     -23.895 -10.257   5.041  1.00  0.00    -0.000 C 
BRANCH   9  10
ATOM     10  C   UNL     1     -22.645  -9.911   4.217  1.00  0.00    -0.000 C 
BRANCH  10  11
ATOM     11  C   UNL     1     -21.438 -10.791   4.574  1.00  0.00    -0.000 C 
BRANCH  11  12
ATOM     12  C   UNL     1     -20.118 -10.240   4.017  1.00  0.00    -0.003 C 
ATOM     13  C   UNL     1     -19.159 -11.371   3.654  1.00  0.00     0.004 C 
ENDBRANCH  11  12
ENDBRANCH  10  11
ENDBRANCH   9  10
ENDBRANCH   8   9
ENDBRANCH   1   8
TORSDOF 9
ENDMDL
MODEL 9
REMARK VINA RESULT:    -3.321      1.564      2.933
REMARK INTER + INTRA:          -5.749
REMARK INTER:                  -5.240
REMARK INTRA:                  -0.509
REMARK UNBOUND:                -0.681
REMARK SMILES CCCCCCCCCCC(=O)[O-]
REMARK SMILES IDX 7 1 8 2 9 3 10 4 11 5 12 6 13 7 6 8 5 9 4 10 3 11 2 12 1 13
REMARK H PARENT
REMARK Flexibility Score: inf
ROOT
ATOM      1  C   UNL     1     -18.233 -19.607  -4.859  1.00  0.00     0.000 C 
ENDROOT
BRANCH   1   2
ATOM      2  C   UNL     1     -18.676 -18.575  -3.809  1.00  0.00     0.000 C 
BRANCH   2   3
ATOM      3  C   UNL     1     -17.508 -17.717  -3.292  1.00  0.00     0.006 C 
BRANCH   3   4
ATOM      4  C   UNL     1     -16.661 -17.142  -4.436  1.00  0.00     0.053 C 
BRANCH   4   5
ATOM      5  C   UNL     1     -16.079 -15.808  -4.081  1.00  0.00     0.041 C 
ATOM      6  O   UNL     1     -16.353 -14.793  -4.773  1.00  0.00    -0.550 OA
ATOM      7  O   UNL     1     -15.210 -15.691  -3.004  1.00  0.00    -0.550 OA
ENDBRANCH   4   5
ENDBRANCH   3   4
ENDBRANCH   2   3
ENDBRANCH   1   2
BRANCH   1   8
ATOM      8  C   UNL     1     -19.007 -20.930  -4.753  1.00  0.00     0.000 C 
BRANCH   8   9
ATOM      9  C   UNL     1     -19.365 -21.469  -6.144  1.00  0.00    -0.000 C 
BRANCH   9  10
ATOM     10  C   UNL     1     -20.874 -21.351  -6.408  1.00  0.00    -0.000 C 
BRANCH  10  11
ATOM     11  C   UNL     1     -21.625 -20.666  -5.257  1.00  0.00    -0.000 C 
BRANCH  11  12
ATOM     12  C   UNL     1     -22.118 -19.259  -5.626  1.00  0.00    -0.003 C 
ATOM     13  C   UNL     1     -23.604 -19.270  -5.971  1.00  0.00     0.004 C 
ENDBRANCH  11  12
ENDBRANCH  10  11
ENDBRANCH   9  10
ENDBRANCH   8   9
ENDBRANCH   1   8
TORSDOF 9
ENDMDL
