MODEL 1
REMARK VINA RESULT:    -3.850      0.000      0.000
REMARK INTER + INTRA:         -11.977
REMARK INTER:                  -8.350
REMARK INTRA:                  -3.627
REMARK UNBOUND:                -3.627
REMARK SMILES CCCCCCCCCCCCCCCCCCCCCC(=O)[O-]
REMARK SMILES IDX 12 1 11 2 10 3 9 4 8 5 7 6 6 7 5 8 4 9 3 10 2 11 1 12 13 13
REMARK SMILES IDX 14 14 15 15 16 16 17 17 18 18 19 19 20 20 21 21 22 22 23 23
REMARK SMILES IDX 24 24
REMARK H PARENT
REMARK Flexibility Score: inf
ROOT
ATOM      1  C   UNL     1      11.554 -29.048  41.879  1.00  0.00     0.000 C 
ENDROOT
BRANCH   1   2
ATOM      2  C   UNL     1      13.070 -28.789  41.875  1.00  0.00     0.000 C 
BRANCH   2   3
ATOM      3  C   UNL     1      13.849 -29.801  41.014  1.00  0.00     0.000 C 
BRANCH   3   4
ATOM      4  C   UNL     1      13.153 -30.222  39.707  1.00  0.00    -0.000 C 
BRANCH   4   5
ATOM      5  C   UNL     1      13.673 -29.456  38.478  1.00  0.00    -0.000 C 
BRANCH   5   6
ATOM      6  C   UNL     1      12.555 -29.111  37.480  1.00  0.00    -0.000 C 
BRANCH   6   7
ATOM      7  C   UNL     1      12.438 -27.596  37.234  1.00  0.00    -0.000 C 
BRANCH   7   8
ATOM      8  C   UNL     1      11.935 -26.830  38.469  1.00  0.00    -0.000 C 
BRANCH   8   9
ATOM      9  C   UNL     1      12.835 -25.635  38.831  1.00  0.00    -0.000 C 
BRANCH   9  10
ATOM     10  C   UNL     1      13.161 -25.565  40.335  1.00  0.00    -0.000 C 
BRANCH  10  11
ATOM     11  C   UNL     1      14.662 -25.522  40.675  1.00  0.00    -0.003 C 
ATOM     12  C   UNL     1      15.470 -26.605  39.962  1.00  0.00     0.004 C 
ENDBRANCH  10  11
ENDBRANCH   9  10
ENDBRANCH   8   9
ENDBRANCH   7   8
ENDBRANCH   6   7
ENDBRANCH   5   6
ENDBRANCH   4   5
ENDBRANCH   3   4
ENDBRANCH   2   3
ENDBRANCH   1   2
BRANCH   1  13
ATOM     13  C   UNL     1      10.735 -27.757  41.711  1.00  0.00     0.000 C 
BRANCH  13  14
ATOM     14  C   UNL     1       9.310 -28.019  41.199  1.00  0.00     0.000 C 
BRANCH  14  15
ATOM     15  C   UNL     1       8.635 -26.709  40.764  1.00  0.00     0.000 C 
BRANCH  15  16
ATOM     16  C   UNL     1       9.448 -25.462  41.145  1.00  0.00     0.000 C 
BRANCH  16  17
ATOM     17  C   UNL     1       9.488 -24.412  40.021  1.00  0.00     0.000 C 
BRANCH  17  18
ATOM     18  C   UNL     1       9.680 -22.978  40.546  1.00  0.00     0.000 C 
BRANCH  18  19
ATOM     19  C   UNL     1      11.145 -22.537  40.727  1.00  0.00     0.000 C 
BRANCH  19  20
ATOM     20  C   UNL     1      11.545 -22.371  42.203  1.00  0.00     0.006 C 
BRANCH  20  21
ATOM     21  C   UNL     1      13.050 -22.134  42.373  1.00  0.00     0.053 C 
BRANCH  21  22
ATOM     22  C   UNL     1      13.387 -21.650  43.751  1.00  0.00     0.041 C 
ATOM     23  O   UNL     1      13.159 -22.378  44.752  1.00  0.00    -0.550 OA
ATOM     24  O   UNL     1      13.984 -20.408  43.924  1.00  0.00    -0.550 OA
ENDBRANCH  21  22
ENDBRANCH  20  21
ENDBRANCH  19  20
ENDBRANCH  18  19
ENDBRANCH  17  18
ENDBRANCH  16  17
ENDBRANCH  15  16
ENDBRANCH  14  15
ENDBRANCH  13  14
ENDBRANCH   1  13
TORSDOF 20
ENDMDL
MODEL 2
REMARK VINA RESULT:    -3.839      2.967      6.536
REMARK INTER + INTRA:         -11.954
REMARK INTER:                  -9.085
REMARK INTRA:                  -2.870
REMARK UNBOUND:                -3.627
REMARK SMILES CCCCCCCCCCCCCCCCCCCCCC(=O)[O-]
REMARK SMILES IDX 12 1 11 2 10 3 9 4 8 5 7 6 6 7 5 8 4 9 3 10 2 11 1 12 13 13
REMARK SMILES IDX 14 14 15 15 16 16 17 17 18 18 19 19 20 20 21 21 22 22 23 23
REMARK SMILES IDX 24 24
REMARK H PARENT
REMARK Flexibility Score: inf
ROOT
ATOM      1  C   UNL     1      11.953 -30.144  43.238  1.00  0.00     0.000 C 
ENDROOT
BRANCH   1   2
ATOM      2  C   UNL     1      11.164 -29.308  42.215  1.00  0.00     0.000 C 
BRANCH   2   3
ATOM      3  C   UNL     1       9.687 -29.728  42.109  1.00  0.00     0.000 C 
BRANCH   3   4
ATOM      4  C   UNL     1       8.667 -28.618  42.423  1.00  0.00    -0.000 C 
BRANCH   4   5
ATOM      5  C   UNL     1       8.078 -27.969  41.157  1.00  0.00    -0.000 C 
BRANCH   5   6
ATOM      6  C   UNL     1       8.243 -26.440  41.147  1.00  0.00    -0.000 C 
BRANCH   6   7
ATOM      7  C   UNL     1       9.688 -26.006  41.447  1.00  0.00    -0.000 C 
BRANCH   7   8
ATOM      8  C   UNL     1      10.391 -25.389  40.226  1.00  0.00    -0.000 C 
BRANCH   8   9
ATOM      9  C   UNL     1       9.661 -24.145  39.688  1.00  0.00    -0.000 C 
BRANCH   9  10
ATOM     10  C   UNL     1       9.690 -22.962  40.674  1.00  0.00    -0.000 C 
BRANCH  10  11
ATOM     11  C   UNL     1      11.082 -22.356  40.924  1.00  0.00    -0.003 C 
ATOM     12  C   UNL     1      11.554 -22.514  42.370  1.00  0.00     0.004 C 
ENDBRANCH  10  11
ENDBRANCH   9  10
ENDBRANCH   8   9
ENDBRANCH   7   8
ENDBRANCH   6   7
ENDBRANCH   5   6
ENDBRANCH   4   5
ENDBRANCH   3   4
ENDBRANCH   2   3
ENDBRANCH   1   2
BRANCH   1  13
ATOM     13  C   UNL     1      12.658 -31.350  42.595  1.00  0.00     0.000 C 
BRANCH  13  14
ATOM     14  C   UNL     1      13.844 -30.941  41.708  1.00  0.00     0.000 C 
BRANCH  14  15
ATOM     15  C   UNL     1      13.915 -31.820  40.449  1.00  0.00     0.000 C 
BRANCH  15  16
ATOM     16  C   UNL     1      12.787 -32.862  40.383  1.00  0.00     0.000 C 
BRANCH  16  17
ATOM     17  C   UNL     1      11.901 -32.700  39.135  1.00  0.00     0.000 C 
BRANCH  17  18
ATOM     18  C   UNL     1      11.054 -31.414  39.164  1.00  0.00     0.000 C 
BRANCH  18  19
ATOM     19  C   UNL     1      11.315 -30.431  38.008  1.00  0.00     0.000 C 
BRANCH  19  20
ATOM     20  C   UNL     1      11.833 -29.063  38.488  1.00  0.00     0.006 C 
BRANCH  20  21
ATOM     21  C   UNL     1      13.080 -28.613  37.718  1.00  0.00     0.053 C 
BRANCH  21  22
ATOM     22  C   UNL     1      14.310 -28.657  38.574  1.00  0.00     0.041 C 
ATOM     23  O   UNL     1      14.329 -28.066  39.686  1.00  0.00    -0.550 OA
ATOM     24  O   UNL     1      15.421 -29.378  38.159  1.00  0.00    -0.550 OA
ENDBRANCH  21  22
ENDBRANCH  20  21
ENDBRANCH  19  20
ENDBRANCH  18  19
ENDBRANCH  17  18
ENDBRANCH  16  17
ENDBRANCH  15  16
ENDBRANCH  14  15
ENDBRANCH  13  14
ENDBRANCH   1  13
TORSDOF 20
ENDMDL
MODEL 3
REMARK VINA RESULT:    -3.809      2.880      5.770
REMARK INTER + INTRA:         -11.890
REMARK INTER:                  -8.583
REMARK INTRA:                  -3.307
REMARK UNBOUND:                -3.627
REMARK SMILES CCCCCCCCCCCCCCCCCCCCCC(=O)[O-]
REMARK SMILES IDX 12 1 11 2 10 3 9 4 8 5 7 6 6 7 5 8 4 9 3 10 2 11 1 12 13 13
REMARK SMILES IDX 14 14 15 15 16 16 17 17 18 18 19 19 20 20 21 21 22 22 23 23
REMARK SMILES IDX 24 24
REMARK H PARENT
REMARK Flexibility Score: inf
ROOT
ATOM      1  C   UNL     1      10.952 -28.975  42.128  1.00  0.00     0.000 C 
ENDROOT
BRANCH   1   2
ATOM      2  C   UNL     1       9.446 -29.248  41.973  1.00  0.00     0.000 C 
BRANCH   2   3
ATOM      3  C   UNL     1       8.633 -27.975  41.671  1.00  0.00     0.000 C 
BRANCH   3   4
ATOM      4  C   UNL     1       9.432 -26.660  41.725  1.00  0.00    -0.000 C 
BRANCH   4   5
ATOM      5  C   UNL     1       8.732 -25.502  40.990  1.00  0.00    -0.000 C 
BRANCH   5   6
ATOM      6  C   UNL     1       9.727 -24.557  40.296  1.00  0.00    -0.000 C 
BRANCH   6   7
ATOM      7  C   UNL     1       9.443 -23.077  40.610  1.00  0.00    -0.000 C 
BRANCH   7   8
ATOM      8  C   UNL     1      10.699 -22.312  41.059  1.00  0.00    -0.000 C 
BRANCH   8   9
ATOM      9  C   UNL     1      11.512 -23.077  42.118  1.00  0.00    -0.000 C 
BRANCH   9  10
ATOM     10  C   UNL     1      12.515 -22.180  42.867  1.00  0.00    -0.000 C 
BRANCH  10  11
ATOM     11  C   UNL     1      13.998 -22.516  42.624  1.00  0.00    -0.003 C 
ATOM     12  C   UNL     1      14.213 -23.459  41.440  1.00  0.00     0.004 C 
ENDBRANCH  10  11
ENDBRANCH   9  10
ENDBRANCH   8   9
ENDBRANCH   7   8
ENDBRANCH   6   7
ENDBRANCH   5   6
ENDBRANCH   4   5
ENDBRANCH   3   4
ENDBRANCH   2   3
ENDBRANCH   1   2
BRANCH   1  13
ATOM     13  C   UNL     1      11.813 -30.189  41.747  1.00  0.00     0.000 C 
BRANCH  13  14
ATOM     14  C   UNL     1      13.239 -29.799  41.329  1.00  0.00     0.000 C 
BRANCH  14  15
ATOM     15  C   UNL     1      13.604 -30.427  39.975  1.00  0.00     0.000 C 
BRANCH  15  16
ATOM     16  C   UNL     1      12.372 -30.833  39.151  1.00  0.00     0.000 C 
BRANCH  16  17
ATOM     17  C   UNL     1      12.041 -29.823  38.039  1.00  0.00     0.000 C 
BRANCH  17  18
ATOM     18  C   UNL     1      10.868 -28.894  38.401  1.00  0.00     0.000 C 
BRANCH  18  19
ATOM     19  C   UNL     1      11.163 -27.388  38.283  1.00  0.00     0.000 C 
BRANCH  19  20
ATOM     20  C   UNL     1      12.176 -26.890  39.329  1.00  0.00     0.006 C 
BRANCH  20  21
ATOM     21  C   UNL     1      13.162 -25.873  38.743  1.00  0.00     0.053 C 
BRANCH  21  22
ATOM     22  C   UNL     1      13.841 -26.399  37.514  1.00  0.00     0.041 C 
ATOM     23  O   UNL     1      13.661 -25.838  36.401  1.00  0.00    -0.550 OA
ATOM     24  O   UNL     1      14.699 -27.487  37.606  1.00  0.00    -0.550 OA
ENDBRANCH  21  22
ENDBRANCH  20  21
ENDBRANCH  19  20
ENDBRANCH  18  19
ENDBRANCH  17  18
ENDBRANCH  16  17
ENDBRANCH  15  16
ENDBRANCH  14  15
ENDBRANCH  13  14
ENDBRANCH   1  13
TORSDOF 20
ENDMDL
MODEL 4
REMARK VINA RESULT:    -3.802      2.932      5.652
REMARK INTER + INTRA:         -11.875
REMARK INTER:                  -7.858
REMARK INTRA:                  -4.017
REMARK UNBOUND:                -3.627
REMARK SMILES CCCCCCCCCCCCCCCCCCCCCC(=O)[O-]
REMARK SMILES IDX 12 1 11 2 10 3 9 4 8 5 7 6 6 7 5 8 4 9 3 10 2 11 1 12 13 13
REMARK SMILES IDX 14 14 15 15 16 16 17 17 18 18 19 19 20 20 21 21 22 22 23 23
REMARK SMILES IDX 24 24
REMARK H PARENT
REMARK Flexibility Score: inf
ROOT
ATOM      1  C   UNL     1      10.254 -29.939  39.638  1.00  0.00     0.000 C 
ENDROOT
BRANCH   1   2
ATOM      2  C   UNL     1      10.000 -30.501  41.048  1.00  0.00     0.000 C 
BRANCH   2   3
ATOM      3  C   UNL     1      10.009 -29.413  42.138  1.00  0.00     0.000 C 
BRANCH   3   4
ATOM      4  C   UNL     1       8.921 -28.334  41.995  1.00  0.00    -0.000 C 
BRANCH   4   5
ATOM      5  C   UNL     1       9.499 -26.925  41.771  1.00  0.00    -0.000 C 
BRANCH   5   6
ATOM      6  C   UNL     1       8.545 -26.014  40.980  1.00  0.00    -0.000 C 
BRANCH   6   7
ATOM      7  C   UNL     1       9.163 -24.637  40.683  1.00  0.00    -0.000 C 
BRANCH   7   8
ATOM      8  C   UNL     1      10.519 -24.430  41.380  1.00  0.00    -0.000 C 
BRANCH   8   9
ATOM      9  C   UNL     1      11.291 -23.219  40.827  1.00  0.00    -0.000 C 
BRANCH   9  10
ATOM     10  C   UNL     1      11.985 -23.515  39.484  1.00  0.00    -0.000 C 
BRANCH  10  11
ATOM     11  C   UNL     1      13.524 -23.487  39.526  1.00  0.00    -0.003 C 
ATOM     12  C   UNL     1      14.089 -23.688  40.932  1.00  0.00     0.004 C 
ENDBRANCH  10  11
ENDBRANCH   9  10
ENDBRANCH   8   9
ENDBRANCH   7   8
ENDBRANCH   6   7
ENDBRANCH   5   6
ENDBRANCH   4   5
ENDBRANCH   3   4
ENDBRANCH   2   3
ENDBRANCH   1   2
BRANCH   1  13
ATOM     13  C   UNL     1      11.290 -30.760  38.854  1.00  0.00     0.000 C 
BRANCH  13  14
ATOM     14  C   UNL     1      12.165 -31.637  39.763  1.00  0.00     0.000 C 
BRANCH  14  15
ATOM     15  C   UNL     1      13.560 -31.020  39.942  1.00  0.00     0.000 C 
BRANCH  15  16
ATOM     16  C   UNL     1      13.881 -30.679  41.407  1.00  0.00     0.000 C 
BRANCH  16  17
ATOM     17  C   UNL     1      13.525 -29.227  41.771  1.00  0.00     0.000 C 
BRANCH  17  18
ATOM     18  C   UNL     1      13.876 -28.226  40.655  1.00  0.00     0.000 C 
BRANCH  18  19
ATOM     19  C   UNL     1      12.814 -27.142  40.389  1.00  0.00     0.000 C 
BRANCH  19  20
ATOM     20  C   UNL     1      12.380 -27.075  38.915  1.00  0.00     0.006 C 
BRANCH  20  21
ATOM     21  C   UNL     1      13.493 -27.528  37.962  1.00  0.00     0.053 C 
BRANCH  21  22
ATOM     22  C   UNL     1      14.098 -26.374  37.223  1.00  0.00     0.041 C 
ATOM     23  O   UNL     1      13.477 -25.835  36.269  1.00  0.00    -0.550 OA
ATOM     24  O   UNL     1      15.334 -25.872  37.610  1.00  0.00    -0.550 OA
ENDBRANCH  21  22
ENDBRANCH  20  21
ENDBRANCH  19  20
ENDBRANCH  18  19
ENDBRANCH  17  18
ENDBRANCH  16  17
ENDBRANCH  15  16
ENDBRANCH  14  15
ENDBRANCH  13  14
ENDBRANCH   1  13
TORSDOF 20
ENDMDL
MODEL 5
REMARK VINA RESULT:    -3.784      2.845      5.759
REMARK INTER + INTRA:         -11.836
REMARK INTER:                  -8.773
REMARK INTRA:                  -3.063
REMARK UNBOUND:                -3.627
REMARK SMILES CCCCCCCCCCCCCCCCCCCCCC(=O)[O-]
REMARK SMILES IDX 12 1 11 2 10 3 9 4 8 5 7 6 6 7 5 8 4 9 3 10 2 11 1 12 13 13
REMARK SMILES IDX 14 14 15 15 16 16 17 17 18 18 19 19 20 20 21 21 22 22 23 23
REMARK SMILES IDX 24 24
REMARK H PARENT
REMARK Flexibility Score: inf
ROOT
ATOM      1  C   UNL     1       9.061 -25.217  39.685  1.00  0.00     0.000 C 
ENDROOT
BRANCH   1   2
ATOM      2  C   UNL     1       8.841 -25.546  41.171  1.00  0.00     0.000 C 
BRANCH   2   3
ATOM      3  C   UNL     1       7.707 -26.563  41.399  1.00  0.00     0.000 C 
BRANCH   3   4
ATOM      4  C   UNL     1       8.047 -28.018  41.028  1.00  0.00    -0.000 C 
BRANCH   4   5
ATOM      5  C   UNL     1       8.732 -28.784  42.174  1.00  0.00    -0.000 C 
BRANCH   5   6
ATOM      6  C   UNL     1      10.055 -29.437  41.739  1.00  0.00    -0.000 C 
BRANCH   6   7
ATOM      7  C   UNL     1      11.230 -28.444  41.754  1.00  0.00    -0.000 C 
BRANCH   7   8
ATOM      8  C   UNL     1      12.429 -28.927  40.920  1.00  0.00    -0.000 C 
BRANCH   8   9
ATOM      9  C   UNL     1      13.462 -29.698  41.760  1.00  0.00    -0.000 C 
BRANCH   9  10
ATOM     10  C   UNL     1      13.956 -28.900  42.982  1.00  0.00    -0.000 C 
BRANCH  10  11
ATOM     11  C   UNL     1      13.865 -29.644  44.326  1.00  0.00    -0.003 C 
ATOM     12  C   UNL     1      12.574 -30.448  44.481  1.00  0.00     0.004 C 
ENDBRANCH  10  11
ENDBRANCH   9  10
ENDBRANCH   8   9
ENDBRANCH   7   8
ENDBRANCH   6   7
ENDBRANCH   5   6
ENDBRANCH   4   5
ENDBRANCH   3   4
ENDBRANCH   2   3
ENDBRANCH   1   2
BRANCH   1  13
ATOM     13  C   UNL     1       9.640 -23.809  39.473  1.00  0.00     0.000 C 
BRANCH  13  14
ATOM     14  C   UNL     1       9.666 -22.975  40.763  1.00  0.00     0.000 C 
BRANCH  14  15
ATOM     15  C   UNL     1      11.038 -22.313  40.961  1.00  0.00     0.000 C 
BRANCH  15  16
ATOM     16  C   UNL     1      12.139 -22.946  40.094  1.00  0.00     0.000 C 
BRANCH  16  17
ATOM     17  C   UNL     1      13.023 -23.929  40.881  1.00  0.00     0.000 C 
BRANCH  17  18
ATOM     18  C   UNL     1      13.096 -25.322  40.231  1.00  0.00     0.000 C 
BRANCH  18  19
ATOM     19  C   UNL     1      12.734 -25.369  38.735  1.00  0.00     0.000 C 
BRANCH  19  20
ATOM     20  C   UNL     1      13.221 -26.651  38.038  1.00  0.00     0.006 C 
BRANCH  20  21
ATOM     21  C   UNL     1      14.751 -26.730  37.973  1.00  0.00     0.053 C 
BRANCH  21  22
ATOM     22  C   UNL     1      15.283 -27.895  38.750  1.00  0.00     0.041 C 
ATOM     23  O   UNL     1      15.324 -29.040  38.228  1.00  0.00    -0.550 OA
ATOM     24  O   UNL     1      15.766 -27.709  40.039  1.00  0.00    -0.550 OA
ENDBRANCH  21  22
ENDBRANCH  20  21
ENDBRANCH  19  20
ENDBRANCH  18  19
ENDBRANCH  17  18
ENDBRANCH  16  17
ENDBRANCH  15  16
ENDBRANCH  14  15
ENDBRANCH  13  14
ENDBRANCH   1  13
TORSDOF 20
ENDMDL
MODEL 6
REMARK VINA RESULT:    -3.732      3.108      6.326
REMARK INTER + INTRA:         -11.723
REMARK INTER:                  -7.863
REMARK INTRA:                  -3.861
REMARK UNBOUND:                -3.627
REMARK SMILES CCCCCCCCCCCCCCCCCCCCCC(=O)[O-]
REMARK SMILES IDX 12 1 11 2 10 3 9 4 8 5 7 6 6 7 5 8 4 9 3 10 2 11 1 12 13 13
REMARK SMILES IDX 14 14 15 15 16 16 17 17 18 18 19 19 20 20 21 21 22 22 23 23
REMARK SMILES IDX 24 24
REMARK H PARENT
REMARK Flexibility Score: inf
ROOT
ATOM      1  C   UNL     1       9.309 -28.180  42.027  1.00  0.00     0.000 C 
ENDROOT
BRANCH   1   2
ATOM      2  C   UNL     1       8.119 -27.543  41.289  1.00  0.00     0.000 C 
BRANCH   2   3
ATOM      3  C   UNL     1       8.195 -26.005  41.244  1.00  0.00     0.000 C 
BRANCH   3   4
ATOM      4  C   UNL     1       9.582 -25.427  40.910  1.00  0.00    -0.000 C 
BRANCH   4   5
ATOM      5  C   UNL     1       9.527 -24.309  39.854  1.00  0.00    -0.000 C 
BRANCH   5   6
ATOM      6  C   UNL     1       9.606 -22.905  40.476  1.00  0.00    -0.000 C 
BRANCH   6   7
ATOM      7  C   UNL     1      10.659 -22.819  41.595  1.00  0.00    -0.000 C 
BRANCH   7   8
ATOM      8  C   UNL     1      11.862 -21.940  41.214  1.00  0.00    -0.000 C 
BRANCH   8   9
ATOM      9  C   UNL     1      13.126 -22.764  40.910  1.00  0.00    -0.000 C 
BRANCH   9  10
ATOM     10  C   UNL     1      13.219 -23.194  39.435  1.00  0.00    -0.000 C 
BRANCH  10  11
ATOM     11  C   UNL     1      13.100 -24.709  39.188  1.00  0.00    -0.003 C 
ATOM     12  C   UNL     1      13.424 -25.545  40.426  1.00  0.00     0.004 C 
ENDBRANCH  10  11
ENDBRANCH   9  10
ENDBRANCH   8   9
ENDBRANCH   7   8
ENDBRANCH   6   7
ENDBRANCH   5   6
ENDBRANCH   4   5
ENDBRANCH   3   4
ENDBRANCH   2   3
ENDBRANCH   1   2
BRANCH   1  13
ATOM     13  C   UNL     1       9.504 -29.661  41.664  1.00  0.00     0.000 C 
BRANCH  13  14
ATOM     14  C   UNL     1      10.980 -30.087  41.676  1.00  0.00     0.000 C 
BRANCH  14  15
ATOM     15  C   UNL     1      11.897 -28.880  41.927  1.00  0.00     0.000 C 
BRANCH  15  16
ATOM     16  C   UNL     1      13.375 -29.179  41.631  1.00  0.00     0.000 C 
BRANCH  16  17
ATOM     17  C   UNL     1      13.573 -29.951  40.315  1.00  0.00     0.000 C 
BRANCH  17  18
ATOM     18  C   UNL     1      14.269 -29.114  39.227  1.00  0.00     0.000 C 
BRANCH  18  19
ATOM     19  C   UNL     1      13.418 -28.829  37.975  1.00  0.00     0.000 C 
BRANCH  19  20
ATOM     20  C   UNL     1      11.914 -29.054  38.206  1.00  0.00     0.006 C 
BRANCH  20  21
ATOM     21  C   UNL     1      11.163 -27.741  38.458  1.00  0.00     0.053 C 
BRANCH  21  22
ATOM     22  C   UNL     1       9.764 -27.786  37.924  1.00  0.00     0.041 C 
ATOM     23  O   UNL     1       9.306 -26.817  37.263  1.00  0.00    -0.550 OA
ATOM     24  O   UNL     1       8.979 -28.914  38.126  1.00  0.00    -0.550 OA
ENDBRANCH  21  22
ENDBRANCH  20  21
ENDBRANCH  19  20
ENDBRANCH  18  19
ENDBRANCH  17  18
ENDBRANCH  16  17
ENDBRANCH  15  16
ENDBRANCH  14  15
ENDBRANCH  13  14
ENDBRANCH   1  13
TORSDOF 20
ENDMDL
MODEL 7
REMARK VINA RESULT:    -3.728      2.779      5.694
REMARK INTER + INTRA:         -11.713
REMARK INTER:                  -8.126
REMARK INTRA:                  -3.587
REMARK UNBOUND:                -3.627
REMARK SMILES CCCCCCCCCCCCCCCCCCCCCC(=O)[O-]
REMARK SMILES IDX 12 1 11 2 10 3 9 4 8 5 7 6 6 7 5 8 4 9 3 10 2 11 1 12 13 13
REMARK SMILES IDX 14 14 15 15 16 16 17 17 18 18 19 19 20 20 21 21 22 22 23 23
REMARK SMILES IDX 24 24
REMARK H PARENT
REMARK Flexibility Score: inf
ROOT
ATOM      1  C   UNL     1      13.992 -30.367  42.997  1.00  0.00     0.000 C 
ENDROOT
BRANCH   1   2
ATOM      2  C   UNL     1      14.055 -28.994  42.304  1.00  0.00     0.000 C 
BRANCH   2   3
ATOM      3  C   UNL     1      12.681 -28.511  41.805  1.00  0.00     0.000 C 
BRANCH   3   4
ATOM      4  C   UNL     1      11.468 -29.159  42.496  1.00  0.00    -0.000 C 
BRANCH   4   5
ATOM      5  C   UNL     1      10.248 -29.290  41.566  1.00  0.00    -0.000 C 
BRANCH   5   6
ATOM      6  C   UNL     1      10.071 -28.068  40.649  1.00  0.00    -0.000 C 
BRANCH   6   7
ATOM      7  C   UNL     1       9.062 -27.053  41.216  1.00  0.00    -0.000 C 
BRANCH   7   8
ATOM      8  C   UNL     1       9.506 -25.594  41.010  1.00  0.00    -0.000 C 
BRANCH   8   9
ATOM      9  C   UNL     1      10.872 -25.484  40.310  1.00  0.00    -0.000 C 
BRANCH   9  10
ATOM     10  C   UNL     1      11.641 -24.206  40.694  1.00  0.00    -0.000 C 
BRANCH  10  11
ATOM     11  C   UNL     1      10.758 -22.998  41.056  1.00  0.00    -0.003 C 
ATOM     12  C   UNL     1      11.537 -21.862  41.718  1.00  0.00     0.004 C 
ENDBRANCH  10  11
ENDBRANCH   9  10
ENDBRANCH   8   9
ENDBRANCH   7   8
ENDBRANCH   6   7
ENDBRANCH   5   6
ENDBRANCH   4   5
ENDBRANCH   3   4
ENDBRANCH   2   3
ENDBRANCH   1   2
BRANCH   1  13
ATOM     13  C   UNL     1      14.219 -31.531  42.020  1.00  0.00     0.000 C 
BRANCH  13  14
ATOM     14  C   UNL     1      12.952 -32.369  41.787  1.00  0.00     0.000 C 
BRANCH  14  15
ATOM     15  C   UNL     1      12.540 -32.339  40.307  1.00  0.00     0.000 C 
BRANCH  15  16
ATOM     16  C   UNL     1      13.300 -31.277  39.496  1.00  0.00     0.000 C 
BRANCH  16  17
ATOM     17  C   UNL     1      12.367 -30.408  38.634  1.00  0.00     0.000 C 
BRANCH  17  18
ATOM     18  C   UNL     1      13.076 -29.181  38.033  1.00  0.00     0.000 C 
BRANCH  18  19
ATOM     19  C   UNL     1      14.467 -28.875  38.618  1.00  0.00     0.000 C 
BRANCH  19  20
ATOM     20  C   UNL     1      14.999 -27.489  38.213  1.00  0.00     0.006 C 
BRANCH  20  21
ATOM     21  C   UNL     1      14.071 -26.357  38.670  1.00  0.00     0.053 C 
BRANCH  21  22
ATOM     22  C   UNL     1      13.655 -25.481  37.527  1.00  0.00     0.041 C 
ATOM     23  O   UNL     1      13.429 -24.257  37.716  1.00  0.00    -0.550 OA
ATOM     24  O   UNL     1      13.550 -26.011  36.248  1.00  0.00    -0.550 OA
ENDBRANCH  21  22
ENDBRANCH  20  21
ENDBRANCH  19  20
ENDBRANCH  18  19
ENDBRANCH  17  18
ENDBRANCH  16  17
ENDBRANCH  15  16
ENDBRANCH  14  15
ENDBRANCH  13  14
ENDBRANCH   1  13
TORSDOF 20
ENDMDL
MODEL 8
REMARK VINA RESULT:    -3.702      3.245      7.078
REMARK INTER + INTRA:         -11.657
REMARK INTER:                  -7.780
REMARK INTRA:                  -3.877
REMARK UNBOUND:                -3.627
REMARK SMILES CCCCCCCCCCCCCCCCCCCCCC(=O)[O-]
REMARK SMILES IDX 12 1 11 2 10 3 9 4 8 5 7 6 6 7 5 8 4 9 3 10 2 11 1 12 13 13
REMARK SMILES IDX 14 14 15 15 16 16 17 17 18 18 19 19 20 20 21 21 22 22 23 23
REMARK SMILES IDX 24 24
REMARK H PARENT
REMARK Flexibility Score: inf
ROOT
ATOM      1  C   UNL     1      13.057 -24.395  38.951  1.00  0.00     0.000 C 
ENDROOT
BRANCH   1   2
ATOM      2  C   UNL     1      13.002 -23.070  39.729  1.00  0.00     0.000 C 
BRANCH   2   3
ATOM      3  C   UNL     1      12.571 -23.253  41.196  1.00  0.00     0.000 C 
BRANCH   3   4
ATOM      4  C   UNL     1      11.325 -22.452  41.617  1.00  0.00    -0.000 C 
BRANCH   4   5
ATOM      5  C   UNL     1      10.135 -22.648  40.662  1.00  0.00    -0.000 C 
BRANCH   5   6
ATOM      6  C   UNL     1       9.368 -23.954  40.933  1.00  0.00    -0.000 C 
BRANCH   6   7
ATOM      7  C   UNL     1       9.380 -24.901  39.721  1.00  0.00    -0.000 C 
BRANCH   7   8
ATOM      8  C   UNL     1      10.082 -26.238  40.016  1.00  0.00    -0.000 C 
BRANCH   8   9
ATOM      9  C   UNL     1      10.087 -26.585  41.515  1.00  0.00    -0.000 C 
BRANCH   9  10
ATOM     10  C   UNL     1       8.840 -27.378  41.950  1.00  0.00    -0.000 C 
BRANCH  10  11
ATOM     11  C   UNL     1       9.085 -28.868  42.245  1.00  0.00    -0.003 C 
ATOM     12  C   UNL     1       9.079 -29.737  40.987  1.00  0.00     0.004 C 
ENDBRANCH  10  11
ENDBRANCH   9  10
ENDBRANCH   8   9
ENDBRANCH   7   8
ENDBRANCH   6   7
ENDBRANCH   5   6
ENDBRANCH   4   5
ENDBRANCH   3   4
ENDBRANCH   2   3
ENDBRANCH   1   2
BRANCH   1  13
ATOM     13  C   UNL     1      13.653 -25.543  39.783  1.00  0.00     0.000 C 
BRANCH  13  14
ATOM     14  C   UNL     1      14.857 -26.210  39.100  1.00  0.00     0.000 C 
BRANCH  14  15
ATOM     15  C   UNL     1      15.515 -27.238  40.034  1.00  0.00     0.000 C 
BRANCH  15  16
ATOM     16  C   UNL     1      14.913 -27.234  41.448  1.00  0.00     0.000 C 
BRANCH  16  17
ATOM     17  C   UNL     1      14.348 -28.605  41.857  1.00  0.00     0.000 C 
BRANCH  17  18
ATOM     18  C   UNL     1      12.918 -28.844  41.339  1.00  0.00     0.000 C 
BRANCH  18  19
ATOM     19  C   UNL     1      12.812 -29.760  40.106  1.00  0.00     0.000 C 
BRANCH  19  20
ATOM     20  C   UNL     1      12.087 -29.094  38.923  1.00  0.00     0.006 C 
BRANCH  20  21
ATOM     21  C   UNL     1      12.981 -28.988  37.681  1.00  0.00     0.053 C 
BRANCH  21  22
ATOM     22  C   UNL     1      12.298 -28.260  36.563  1.00  0.00     0.041 C 
ATOM     23  O   UNL     1      12.266 -27.001  36.552  1.00  0.00    -0.550 OA
ATOM     24  O   UNL     1      11.728 -28.972  35.516  1.00  0.00    -0.550 OA
ENDBRANCH  21  22
ENDBRANCH  20  21
ENDBRANCH  19  20
ENDBRANCH  18  19
ENDBRANCH  17  18
ENDBRANCH  16  17
ENDBRANCH  15  16
ENDBRANCH  14  15
ENDBRANCH  13  14
ENDBRANCH   1  13
TORSDOF 20
ENDMDL
MODEL 9
REMARK VINA RESULT:    -3.668      3.013      6.101
REMARK INTER + INTRA:         -11.583
REMARK INTER:                  -7.837
REMARK INTRA:                  -3.746
REMARK UNBOUND:                -3.627
REMARK SMILES CCCCCCCCCCCCCCCCCCCCCC(=O)[O-]
REMARK SMILES IDX 12 1 11 2 10 3 9 4 8 5 7 6 6 7 5 8 4 9 3 10 2 11 1 12 13 13
REMARK SMILES IDX 14 14 15 15 16 16 17 17 18 18 19 19 20 20 21 21 22 22 23 23
REMARK SMILES IDX 24 24
REMARK H PARENT
REMARK Flexibility Score: inf
ROOT
ATOM      1  C   UNL     1      10.550 -22.246  41.294  1.00  0.00     0.000 C 
ENDROOT
BRANCH   1   2
ATOM      2  C   UNL     1      11.602 -22.994  42.130  1.00  0.00     0.000 C 
BRANCH   2   3
ATOM      3  C   UNL     1      12.728 -22.074  42.639  1.00  0.00     0.000 C 
BRANCH   3   4
ATOM      4  C   UNL     1      14.088 -22.257  41.942  1.00  0.00    -0.000 C 
BRANCH   4   5
ATOM      5  C   UNL     1      14.478 -21.055  41.064  1.00  0.00    -0.000 C 
BRANCH   5   6
ATOM      6  C   UNL     1      14.731 -21.451  39.599  1.00  0.00    -0.000 C 
BRANCH   6   7
ATOM      7  C   UNL     1      13.423 -21.703  38.828  1.00  0.00    -0.000 C 
BRANCH   7   8
ATOM      8  C   UNL     1      13.433 -23.034  38.057  1.00  0.00    -0.000 C 
BRANCH   8   9
ATOM      9  C   UNL     1      12.977 -24.222  38.921  1.00  0.00    -0.000 C 
BRANCH   9  10
ATOM     10  C   UNL     1      14.150 -25.099  39.401  1.00  0.00    -0.000 C 
BRANCH  10  11
ATOM     11  C   UNL     1      15.296 -25.266  38.387  1.00  0.00    -0.003 C 
ATOM     12  C   UNL     1      15.712 -26.723  38.187  1.00  0.00     0.004 C 
ENDBRANCH  10  11
ENDBRANCH   9  10
ENDBRANCH   8   9
ENDBRANCH   7   8
ENDBRANCH   6   7
ENDBRANCH   5   6
ENDBRANCH   4   5
ENDBRANCH   3   4
ENDBRANCH   2   3
ENDBRANCH   1   2
BRANCH   1  13
ATOM     13  C   UNL     1       9.723 -23.190  40.405  1.00  0.00     0.000 C 
BRANCH  13  14
ATOM     14  C   UNL     1       9.926 -24.671  40.761  1.00  0.00     0.000 C 
BRANCH  14  15
ATOM     15  C   UNL     1       8.595 -25.436  40.700  1.00  0.00     0.000 C 
BRANCH  15  16
ATOM     16  C   UNL     1       8.704 -26.869  41.246  1.00  0.00     0.000 C 
BRANCH  16  17
ATOM     17  C   UNL     1      10.034 -27.129  41.974  1.00  0.00     0.000 C 
BRANCH  17  18
ATOM     18  C   UNL     1      10.883 -28.221  41.300  1.00  0.00     0.000 C 
BRANCH  18  19
ATOM     19  C   UNL     1      12.225 -27.741  40.717  1.00  0.00     0.000 C 
BRANCH  19  20
ATOM     20  C   UNL     1      12.691 -28.577  39.512  1.00  0.00     0.006 C 
BRANCH  20  21
ATOM     21  C   UNL     1      11.615 -28.672  38.422  1.00  0.00     0.053 C 
BRANCH  21  22
ATOM     22  C   UNL     1      11.468 -27.383  37.671  1.00  0.00     0.041 C 
ATOM     23  O   UNL     1      12.362 -27.014  36.865  1.00  0.00    -0.550 OA
ATOM     24  O   UNL     1      10.326 -26.610  37.836  1.00  0.00    -0.550 OA
ENDBRANCH  21  22
ENDBRANCH  20  21
ENDBRANCH  19  20
ENDBRANCH  18  19
ENDBRANCH  17  18
ENDBRANCH  16  17
ENDBRANCH  15  16
ENDBRANCH  14  15
ENDBRANCH  13  14
ENDBRANCH   1  13
TORSDOF 20
ENDMDL
