MODEL 1
REMARK VINA RESULT:    -2.942      0.000      0.000
REMARK INTER + INTRA:          -3.308
REMARK INTER:                  -3.286
REMARK INTRA:                  -0.022
REMARK UNBOUND:                -0.022
REMARK SMILES CCCC(=O)[O-]
REMARK SMILES IDX 3 1 4 2 5 3 6 4 2 5 1 6
REMARK H PARENT
REMARK Flexibility Score: inf
ROOT
ATOM      1  C   UNL     1      48.620  59.380  20.817  1.00  0.00     0.052 C 
ENDROOT
BRANCH   1   2
ATOM      2  C   UNL     1      49.645  59.887  19.850  1.00  0.00     0.041 C 
ATOM      3  O   UNL     1      49.332  60.094  18.647  1.00  0.00    -0.550 OA
ATOM      4  O   UNL     1      50.935  60.165  20.283  1.00  0.00    -0.550 OA
ENDBRANCH   1   2
BRANCH   1   5
ATOM      5  C   UNL     1      47.218  59.349  20.197  1.00  0.00     0.003 C 
ATOM      6  C   UNL     1      46.168  59.999  21.098  1.00  0.00     0.004 C 
ENDBRANCH   1   5
TORSDOF 2
ENDMDL
MODEL 2
REMARK VINA RESULT:    -2.927      9.424     10.197
REMARK INTER + INTRA:          -3.291
REMARK INTER:                  -3.253
REMARK INTRA:                  -0.038
REMARK UNBOUND:                -0.022
REMARK SMILES CCCC(=O)[O-]
REMARK SMILES IDX 3 1 4 2 5 3 6 4 2 5 1 6
REMARK H PARENT
REMARK Flexibility Score: inf
ROOT
ATOM      1  C   UNL     1      44.556  63.351  12.589  1.00  0.00     0.052 C 
ENDROOT
BRANCH   1   2
ATOM      2  C   UNL     1      43.227  63.827  12.090  1.00  0.00     0.041 C 
ATOM      3  O   UNL     1      42.179  63.575  12.741  1.00  0.00    -0.550 OA
ATOM      4  O   UNL     1      43.150  64.580  10.925  1.00  0.00    -0.550 OA
ENDBRANCH   1   2
BRANCH   1   5
ATOM      5  C   UNL     1      44.832  61.899  12.176  1.00  0.00     0.003 C 
ATOM      6  C   UNL     1      44.503  60.904  13.289  1.00  0.00     0.004 C 
ENDBRANCH   1   5
TORSDOF 2
ENDMDL
MODEL 3
REMARK VINA RESULT:    -2.914      2.849      3.801
REMARK INTER + INTRA:          -3.277
REMARK INTER:                  -3.245
REMARK INTRA:                  -0.031
REMARK UNBOUND:                -0.022
REMARK SMILES CCCC(=O)[O-]
REMARK SMILES IDX 3 1 4 2 5 3 6 4 2 5 1 6
REMARK H PARENT
REMARK Flexibility Score: inf
ROOT
ATOM      1  C   UNL     1      46.751  60.463  22.576  1.00  0.00     0.052 C 
ENDROOT
BRANCH   1   2
ATOM      2  C   UNL     1      46.133  59.900  21.333  1.00  0.00     0.041 C 
ATOM      3  O   UNL     1      44.883  59.772  21.249  1.00  0.00    -0.550 OA
ATOM      4  O   UNL     1      46.935  59.549  20.254  1.00  0.00    -0.550 OA
ENDBRANCH   1   2
BRANCH   1   5
ATOM      5  C   UNL     1      47.931  59.610  23.061  1.00  0.00     0.003 C 
ATOM      6  C   UNL     1      49.281  60.267  22.773  1.00  0.00     0.004 C 
ENDBRANCH   1   5
TORSDOF 2
ENDMDL
MODEL 4
REMARK VINA RESULT:    -2.913      8.885      9.648
REMARK INTER + INTRA:          -3.275
REMARK INTER:                  -3.235
REMARK INTRA:                  -0.041
REMARK UNBOUND:                -0.022
REMARK SMILES CCCC(=O)[O-]
REMARK SMILES IDX 3 1 4 2 5 3 6 4 2 5 1 6
REMARK H PARENT
REMARK Flexibility Score: inf
ROOT
ATOM      1  C   UNL     1      44.989  61.815  11.871  1.00  0.00     0.052 C 
ENDROOT
BRANCH   1   2
ATOM      2  C   UNL     1      44.206  60.632  12.351  1.00  0.00     0.041 C 
ATOM      3  O   UNL     1      44.565  60.012  13.387  1.00  0.00    -0.550 OA
ATOM      4  O   UNL     1      43.060  60.234  11.674  1.00  0.00    -0.550 OA
ENDBRANCH   1   2
BRANCH   1   5
ATOM      5  C   UNL     1      44.589  63.099  12.609  1.00  0.00     0.003 C 
ATOM      6  C   UNL     1      43.544  63.910  11.842  1.00  0.00     0.004 C 
ENDBRANCH   1   5
TORSDOF 2
ENDMDL
MODEL 5
REMARK VINA RESULT:    -2.910      9.389     10.141
REMARK INTER + INTRA:          -3.272
REMARK INTER:                  -3.232
REMARK INTRA:                  -0.040
REMARK UNBOUND:                -0.022
REMARK SMILES CCCC(=O)[O-]
REMARK SMILES IDX 3 1 4 2 5 3 6 4 2 5 1 6
REMARK H PARENT
REMARK Flexibility Score: inf
ROOT
ATOM      1  C   UNL     1      44.564  63.331  12.601  1.00  0.00     0.052 C 
ENDROOT
BRANCH   1   2
ATOM      2  C   UNL     1      43.240  63.814  12.093  1.00  0.00     0.041 C 
ATOM      3  O   UNL     1      43.172  64.449  11.007  1.00  0.00    -0.550 OA
ATOM      4  O   UNL     1      42.078  63.533  12.800  1.00  0.00    -0.550 OA
ENDBRANCH   1   2
BRANCH   1   5
ATOM      5  C   UNL     1      44.825  61.871  12.210  1.00  0.00     0.003 C 
ATOM      6  C   UNL     1      44.473  60.895  13.333  1.00  0.00     0.004 C 
ENDBRANCH   1   5
TORSDOF 2
ENDMDL
MODEL 6
REMARK VINA RESULT:    -2.897      9.064      9.639
REMARK INTER + INTRA:          -3.258
REMARK INTER:                  -3.195
REMARK INTRA:                  -0.063
REMARK UNBOUND:                -0.022
REMARK SMILES CCCC(=O)[O-]
REMARK SMILES IDX 3 1 4 2 5 3 6 4 2 5 1 6
REMARK H PARENT
REMARK Flexibility Score: inf
ROOT
ATOM      1  C   UNL     1      44.278  63.746  12.274  1.00  0.00     0.052 C 
ENDROOT
BRANCH   1   2
ATOM      2  C   UNL     1      44.776  62.348  12.466  1.00  0.00     0.041 C 
ATOM      3  O   UNL     1      44.987  61.608  11.469  1.00  0.00    -0.550 OA
ATOM      4  O   UNL     1      45.042  61.872  13.744  1.00  0.00    -0.550 OA
ENDBRANCH   1   2
BRANCH   1   5
ATOM      5  C   UNL     1      42.838  63.770  11.744  1.00  0.00     0.003 C 
ATOM      6  C   UNL     1      41.818  63.380  12.813  1.00  0.00     0.004 C 
ENDBRANCH   1   5
TORSDOF 2
ENDMDL
MODEL 7
REMARK VINA RESULT:    -2.862      8.218      8.924
REMARK INTER + INTRA:          -3.218
REMARK INTER:                  -3.206
REMARK INTRA:                  -0.012
REMARK UNBOUND:                -0.022
REMARK SMILES CCCC(=O)[O-]
REMARK SMILES IDX 3 1 4 2 5 3 6 4 2 5 1 6
REMARK H PARENT
REMARK Flexibility Score: inf
ROOT
ATOM      1  C   UNL     1      42.754  61.291  13.529  1.00  0.00     0.052 C 
ENDROOT
BRANCH   1   2
ATOM      2  C   UNL     1      44.244  61.167  13.442  1.00  0.00     0.041 C 
ATOM      3  O   UNL     1      44.777  60.037  13.282  1.00  0.00    -0.550 OA
ATOM      4  O   UNL     1      45.043  62.302  13.502  1.00  0.00    -0.550 OA
ENDBRANCH   1   2
BRANCH   1   5
ATOM      5  C   UNL     1      42.265  62.649  13.009  1.00  0.00     0.003 C 
ATOM      6  C   UNL     1      40.919  63.052  13.611  1.00  0.00     0.004 C 
ENDBRANCH   1   5
TORSDOF 2
ENDMDL
MODEL 8
REMARK VINA RESULT:    -2.855      9.249      9.960
REMARK INTER + INTRA:          -3.211
REMARK INTER:                  -3.205
REMARK INTRA:                  -0.006
REMARK UNBOUND:                -0.022
REMARK SMILES CCCC(=O)[O-]
REMARK SMILES IDX 3 1 4 2 5 3 6 4 2 5 1 6
REMARK H PARENT
REMARK Flexibility Score: inf
ROOT
ATOM      1  C   UNL     1      44.162  61.926  11.291  1.00  0.00     0.052 C 
ENDROOT
BRANCH   1   2
ATOM      2  C   UNL     1      44.672  62.683  12.478  1.00  0.00     0.041 C 
ATOM      3  O   UNL     1      44.585  63.939  12.513  1.00  0.00    -0.550 OA
ATOM      4  O   UNL     1      45.211  62.001  13.561  1.00  0.00    -0.550 OA
ENDBRANCH   1   2
BRANCH   1   5
ATOM      5  C   UNL     1      45.180  60.888  10.799  1.00  0.00     0.003 C 
ATOM      6  C   UNL     1      44.968  60.517   9.331  1.00  0.00     0.004 C 
ENDBRANCH   1   5
TORSDOF 2
ENDMDL
MODEL 9
REMARK VINA RESULT:    -2.798      2.098      2.669
REMARK INTER + INTRA:          -3.147
REMARK INTER:                  -3.122
REMARK INTRA:                  -0.025
REMARK UNBOUND:                -0.022
REMARK SMILES CCCC(=O)[O-]
REMARK SMILES IDX 3 1 4 2 5 3 6 4 2 5 1 6
REMARK H PARENT
REMARK Flexibility Score: inf
ROOT
ATOM      1  C   UNL     1      49.940  60.441  22.805  1.00  0.00     0.052 C 
ENDROOT
BRANCH   1   2
ATOM      2  C   UNL     1      50.786  59.999  21.651  1.00  0.00     0.041 C 
ATOM      3  O   UNL     1      51.716  59.168  21.829  1.00  0.00    -0.550 OA
ATOM      4  O   UNL     1      50.526  60.477  20.373  1.00  0.00    -0.550 OA
ENDBRANCH   1   2
BRANCH   1   5
ATOM      5  C   UNL     1      48.695  59.560  22.968  1.00  0.00     0.003 C 
ATOM      6  C   UNL     1      47.397  60.351  22.803  1.00  0.00     0.004 C 
ENDBRANCH   1   5
TORSDOF 2
ENDMDL
