MODEL 1
REMARK VINA RESULT:    -3.128      0.000      0.000
REMARK INTER + INTRA:          -3.991
REMARK INTER:                  -3.768
REMARK INTRA:                  -0.223
REMARK UNBOUND:                -0.223
REMARK SMILES OCC(O)CO
REMARK SMILES IDX 3 1 5 2 6 3 2 5 1 6 4 8
REMARK H PARENT 6 4 1 7 4 9
REMARK Flexibility Score: inf
ROOT
ATOM      1  C   UNL     1      23.910  -0.651  16.696  1.00  0.00     0.165 C 
ENDROOT
BRANCH   1   2
ATOM      2  C   UNL     1      24.543  -1.461  17.838  1.00  0.00     0.190 C 
BRANCH   2   3
ATOM      3  O   UNL     1      24.445  -2.839  17.599  1.00  0.00    -0.394 OA
ATOM      4  H   UNL     1      25.267  -3.106  17.111  1.00  0.00     0.210 HD
ENDBRANCH   2   3
ENDBRANCH   1   2
BRANCH   1   5
ATOM      5  C   UNL     1      23.711  -1.502  15.429  1.00  0.00     0.190 C 
BRANCH   5   6
ATOM      6  O   UNL     1      24.945  -1.844  14.855  1.00  0.00    -0.394 OA
ATOM      7  H   UNL     1      25.564  -1.091  15.042  1.00  0.00     0.210 HD
ENDBRANCH   5   6
ENDBRANCH   1   5
BRANCH   1   8
ATOM      8  O   UNL     1      24.727   0.454  16.403  1.00  0.00    -0.388 OA
ATOM      9  H   UNL     1      25.239   0.224  15.584  1.00  0.00     0.211 HD
ENDBRANCH   1   8
TORSDOF 5
ENDMDL
MODEL 2
REMARK VINA RESULT:    -3.078      8.620      9.437
REMARK INTER + INTRA:          -3.932
REMARK INTER:                  -3.718
REMARK INTRA:                  -0.214
REMARK UNBOUND:                -0.223
REMARK SMILES OCC(O)CO
REMARK SMILES IDX 3 1 5 2 6 3 2 5 1 6 4 8
REMARK H PARENT 6 4 1 7 4 9
REMARK Flexibility Score: inf
ROOT
ATOM      1  C   UNL     1      28.988   5.025  11.372  1.00  0.00     0.165 C 
ENDROOT
BRANCH   1   2
ATOM      2  C   UNL     1      27.820   5.688  10.625  1.00  0.00     0.190 C 
BRANCH   2   3
ATOM      3  O   UNL     1      28.074   5.764   9.248  1.00  0.00    -0.394 OA
ATOM      4  H   UNL     1      28.993   5.416   9.107  1.00  0.00     0.210 HD
ENDBRANCH   2   3
ENDBRANCH   1   2
BRANCH   1   5
ATOM      5  C   UNL     1      28.784   3.507  11.528  1.00  0.00     0.190 C 
BRANCH   5   6
ATOM      6  O   UNL     1      27.912   3.015  10.545  1.00  0.00    -0.394 OA
ATOM      7  H   UNL     1      28.085   3.542   9.722  1.00  0.00     0.210 HD
ENDBRANCH   5   6
ENDBRANCH   1   5
BRANCH   1   8
ATOM      8  O   UNL     1      29.125   5.619  12.637  1.00  0.00    -0.388 OA
ATOM      9  H   UNL     1      28.985   6.594  12.514  1.00  0.00     0.211 HD
ENDBRANCH   1   8
TORSDOF 5
ENDMDL
MODEL 3
REMARK VINA RESULT:    -3.057      0.622      2.664
REMARK INTER + INTRA:          -3.905
REMARK INTER:                  -3.682
REMARK INTRA:                  -0.223
REMARK UNBOUND:                -0.223
REMARK SMILES OCC(O)CO
REMARK SMILES IDX 3 1 5 2 6 3 2 5 1 6 4 8
REMARK H PARENT 6 4 1 7 4 9
REMARK Flexibility Score: inf
ROOT
ATOM      1  C   UNL     1      23.843  -1.598  17.016  1.00  0.00     0.165 C 
ENDROOT
BRANCH   1   2
ATOM      2  C   UNL     1      23.717  -1.610  15.484  1.00  0.00     0.190 C 
BRANCH   2   3
ATOM      3  O   UNL     1      24.963  -1.811  14.873  1.00  0.00    -0.394 OA
ATOM      4  H   UNL     1      25.203  -0.960  14.422  1.00  0.00     0.210 HD
ENDBRANCH   2   3
ENDBRANCH   1   2
BRANCH   1   5
ATOM      5  C   UNL     1      24.593  -0.351  17.521  1.00  0.00     0.190 C 
BRANCH   5   6
ATOM      6  O   UNL     1      24.747   0.592  16.494  1.00  0.00    -0.394 OA
ATOM      7  H   UNL     1      24.040   1.276  16.627  1.00  0.00     0.210 HD
ENDBRANCH   5   6
ENDBRANCH   1   5
BRANCH   1   8
ATOM      8  O   UNL     1      24.514  -2.758  17.435  1.00  0.00    -0.388 OA
ATOM      9  H   UNL     1      24.273  -3.477  16.794  1.00  0.00     0.211 HD
ENDBRANCH   1   8
TORSDOF 5
ENDMDL
MODEL 4
REMARK VINA RESULT:    -3.050      0.948      2.128
REMARK INTER + INTRA:          -3.897
REMARK INTER:                  -3.674
REMARK INTRA:                  -0.223
REMARK UNBOUND:                -0.223
REMARK SMILES OCC(O)CO
REMARK SMILES IDX 3 1 5 2 6 3 2 5 1 6 4 8
REMARK H PARENT 6 4 1 7 4 9
REMARK Flexibility Score: inf
ROOT
ATOM      1  C   UNL     1      24.061  -1.640  17.102  1.00  0.00     0.165 C 
ENDROOT
BRANCH   1   2
ATOM      2  C   UNL     1      24.534  -0.268  17.609  1.00  0.00     0.190 C 
BRANCH   2   3
ATOM      3  O   UNL     1      24.786   0.609  16.543  1.00  0.00    -0.394 OA
ATOM      4  H   UNL     1      24.561   0.119  15.710  1.00  0.00     0.210 HD
ENDBRANCH   2   3
ENDBRANCH   1   2
BRANCH   1   5
ATOM      5  C   UNL     1      23.792  -1.631  15.586  1.00  0.00     0.190 C 
BRANCH   5   6
ATOM      6  O   UNL     1      24.980  -1.815  14.864  1.00  0.00    -0.394 OA
ATOM      7  H   UNL     1      25.083  -2.793  14.731  1.00  0.00     0.210 HD
ENDBRANCH   5   6
ENDBRANCH   1   5
BRANCH   1   8
ATOM      8  O   UNL     1      22.895  -2.012  17.790  1.00  0.00    -0.388 OA
ATOM      9  H   UNL     1      23.124  -2.026  18.756  1.00  0.00     0.211 HD
ENDBRANCH   1   8
TORSDOF 5
ENDMDL
MODEL 5
REMARK VINA RESULT:    -2.937      6.152      7.231
REMARK INTER + INTRA:          -3.762
REMARK INTER:                  -3.546
REMARK INTRA:                  -0.216
REMARK UNBOUND:                -0.223
REMARK SMILES OCC(O)CO
REMARK SMILES IDX 3 1 5 2 6 3 2 5 1 6 4 8
REMARK H PARENT 6 4 1 7 4 9
REMARK Flexibility Score: inf
ROOT
ATOM      1  C   UNL     1      24.994  -7.988  15.463  1.00  0.00     0.165 C 
ENDROOT
BRANCH   1   2
ATOM      2  C   UNL     1      24.966  -8.121  13.932  1.00  0.00     0.190 C 
BRANCH   2   3
ATOM      3  O   UNL     1      25.861  -7.226  13.327  1.00  0.00    -0.394 OA
ATOM      4  H   UNL     1      26.412  -7.756  12.694  1.00  0.00     0.210 HD
ENDBRANCH   2   3
ENDBRANCH   1   2
BRANCH   1   5
ATOM      5  C   UNL     1      25.769  -6.738  15.917  1.00  0.00     0.190 C 
BRANCH   5   6
ATOM      6  O   UNL     1      27.133  -7.024  16.076  1.00  0.00    -0.394 OA
ATOM      7  H   UNL     1      27.503  -7.160  15.166  1.00  0.00     0.210 HD
ENDBRANCH   5   6
ENDBRANCH   1   5
BRANCH   1   8
ATOM      8  O   UNL     1      25.579  -9.138  16.017  1.00  0.00    -0.388 OA
ATOM      9  H   UNL     1      26.563  -9.003  15.988  1.00  0.00     0.211 HD
ENDBRANCH   1   8
TORSDOF 5
ENDMDL
MODEL 6
REMARK VINA RESULT:    -2.926      1.409      2.494
REMARK INTER + INTRA:          -3.747
REMARK INTER:                  -3.744
REMARK INTRA:                  -0.003
REMARK UNBOUND:                -0.223
REMARK SMILES OCC(O)CO
REMARK SMILES IDX 3 1 5 2 6 3 2 5 1 6 4 8
REMARK H PARENT 6 4 1 7 4 9
REMARK Flexibility Score: inf
ROOT
ATOM      1  C   UNL     1      24.202  -0.248  17.425  1.00  0.00     0.165 C 
ENDROOT
BRANCH   1   2
ATOM      2  C   UNL     1      24.978   0.746  18.304  1.00  0.00     0.190 C 
BRANCH   2   3
ATOM      3  O   UNL     1      25.929   1.454  17.553  1.00  0.00    -0.394 OA
ATOM      4  H   UNL     1      25.535   1.598  16.654  1.00  0.00     0.210 HD
ENDBRANCH   2   3
ENDBRANCH   1   2
BRANCH   1   5
ATOM      5  C   UNL     1      24.500  -1.709  17.810  1.00  0.00     0.190 C 
BRANCH   5   6
ATOM      6  O   UNL     1      24.547  -2.527  16.672  1.00  0.00    -0.394 OA
ATOM      7  H   UNL     1      23.736  -3.097  16.697  1.00  0.00     0.210 HD
ENDBRANCH   5   6
ENDBRANCH   1   5
BRANCH   1   8
ATOM      8  O   UNL     1      24.535  -0.033  16.078  1.00  0.00    -0.388 OA
ATOM      9  H   UNL     1      23.717  -0.219  15.546  1.00  0.00     0.211 HD
ENDBRANCH   1   8
TORSDOF 5
ENDMDL
MODEL 7
REMARK VINA RESULT:    -2.892      8.583      9.660
REMARK INTER + INTRA:          -3.707
REMARK INTER:                  -3.487
REMARK INTRA:                  -0.220
REMARK UNBOUND:                -0.223
REMARK SMILES OCC(O)CO
REMARK SMILES IDX 3 1 5 2 6 3 2 5 1 6 4 8
REMARK H PARENT 6 4 1 7 4 9
REMARK Flexibility Score: inf
ROOT
ATOM      1  C   UNL     1      27.862   3.996  10.761  1.00  0.00     0.165 C 
ENDROOT
BRANCH   1   2
ATOM      2  C   UNL     1      27.584   4.818   9.493  1.00  0.00     0.190 C 
BRANCH   2   3
ATOM      3  O   UNL     1      28.355   5.990   9.466  1.00  0.00    -0.394 OA
ATOM      4  H   UNL     1      28.401   6.324  10.400  1.00  0.00     0.210 HD
ENDBRANCH   2   3
ENDBRANCH   1   2
BRANCH   1   5
ATOM      5  C   UNL     1      29.125   4.483  11.495  1.00  0.00     0.190 C 
BRANCH   5   6
ATOM      6  O   UNL     1      28.850   5.624  12.263  1.00  0.00    -0.394 OA
ATOM      7  H   UNL     1      27.878   5.605  12.464  1.00  0.00     0.210 HD
ENDBRANCH   5   6
ENDBRANCH   1   5
BRANCH   1   8
ATOM      8  O   UNL     1      28.006   2.643  10.414  1.00  0.00    -0.388 OA
ATOM      9  H   UNL     1      28.918   2.369  10.696  1.00  0.00     0.211 HD
ENDBRANCH   1   8
TORSDOF 5
ENDMDL
MODEL 8
REMARK VINA RESULT:    -2.884      1.176      2.491
REMARK INTER + INTRA:          -3.697
REMARK INTER:                  -3.688
REMARK INTRA:                  -0.008
REMARK UNBOUND:                -0.223
REMARK SMILES OCC(O)CO
REMARK SMILES IDX 3 1 5 2 6 3 2 5 1 6 4 8
REMARK H PARENT 6 4 1 7 4 9
REMARK Flexibility Score: inf
ROOT
ATOM      1  C   UNL     1      24.299  -0.791  16.854  1.00  0.00     0.165 C 
ENDROOT
BRANCH   1   2
ATOM      2  C   UNL     1      23.898  -1.616  15.621  1.00  0.00     0.190 C 
BRANCH   2   3
ATOM      3  O   UNL     1      25.003  -1.865  14.794  1.00  0.00    -0.394 OA
ATOM      4  H   UNL     1      24.913  -2.798  14.468  1.00  0.00     0.210 HD
ENDBRANCH   2   3
ENDBRANCH   1   2
BRANCH   1   5
ATOM      5  C   UNL     1      23.143  -0.667  17.864  1.00  0.00     0.190 C 
BRANCH   5   6
ATOM      6  O   UNL     1      22.248  -1.740  17.735  1.00  0.00    -0.394 OA
ATOM      7  H   UNL     1      21.337  -1.364  17.848  1.00  0.00     0.210 HD
ENDBRANCH   5   6
ENDBRANCH   1   5
BRANCH   1   8
ATOM      8  O   UNL     1      24.709   0.487  16.442  1.00  0.00    -0.388 OA
ATOM      9  H   UNL     1      24.528   0.547  15.467  1.00  0.00     0.211 HD
ENDBRANCH   1   8
TORSDOF 5
ENDMDL
MODEL 9
REMARK VINA RESULT:    -2.849      0.893      2.410
REMARK INTER + INTRA:          -3.655
REMARK INTER:                  -3.652
REMARK INTRA:                  -0.003
REMARK UNBOUND:                -0.223
REMARK SMILES OCC(O)CO
REMARK SMILES IDX 3 1 5 2 6 3 2 5 1 6 4 8
REMARK H PARENT 6 4 1 7 4 9
REMARK Flexibility Score: inf
ROOT
ATOM      1  C   UNL     1      23.898  -1.685  15.654  1.00  0.00     0.165 C 
ENDROOT
BRANCH   1   2
ATOM      2  C   UNL     1      24.289  -0.791  16.841  1.00  0.00     0.190 C 
BRANCH   2   3
ATOM      3  O   UNL     1      24.712   0.474  16.407  1.00  0.00    -0.394 OA
ATOM      4  H   UNL     1      25.490   0.726  16.971  1.00  0.00     0.210 HD
ENDBRANCH   2   3
ENDBRANCH   1   2
BRANCH   1   5
ATOM      5  C   UNL     1      23.392  -3.064  16.115  1.00  0.00     0.190 C 
BRANCH   5   6
ATOM      6  O   UNL     1      24.393  -3.758  16.811  1.00  0.00    -0.394 OA
ATOM      7  H   UNL     1      24.687  -3.166  17.551  1.00  0.00     0.210 HD
ENDBRANCH   5   6
ENDBRANCH   1   5
BRANCH   1   8
ATOM      8  O   UNL     1      25.007  -1.844  14.808  1.00  0.00    -0.388 OA
ATOM      9  H   UNL     1      25.765  -2.135  15.379  1.00  0.00     0.211 HD
ENDBRANCH   1   8
TORSDOF 5
ENDMDL
