MODEL 1
REMARK VINA RESULT:    -4.020      0.000      0.000
REMARK INTER + INTRA:          -5.981
REMARK INTER:                  -5.666
REMARK INTRA:                  -0.315
REMARK UNBOUND:                -0.315
REMARK SMILES C=CCCCCCCC(=O)[O-]
REMARK SMILES IDX 6 1 7 2 8 3 9 4 10 5 11 6 5 7 4 8 3 9 2 10 1 11
REMARK H PARENT
REMARK Flexibility Score: inf
ROOT
ATOM      1  C   UNL     1      10.447   8.730  -2.419  1.00  0.00     0.000 C 
ENDROOT
BRANCH   1   2
ATOM      2  C   UNL     1      11.423   9.687  -3.128  1.00  0.00     0.006 C 
BRANCH   2   3
ATOM      3  C   UNL     1      11.031  11.171  -3.042  1.00  0.00     0.053 C 
BRANCH   3   4
ATOM      4  C   UNL     1       9.599  11.398  -3.417  1.00  0.00     0.041 C 
ATOM      5  O   UNL     1       8.819  11.978  -2.617  1.00  0.00    -0.550 OA
ATOM      6  O   UNL     1       9.134  11.000  -4.664  1.00  0.00    -0.550 OA
ENDBRANCH   3   4
ENDBRANCH   2   3
ENDBRANCH   1   2
BRANCH   1   7
ATOM      7  C   UNL     1       9.834   7.693  -3.371  1.00  0.00     0.000 C 
BRANCH   7   8
ATOM      8  C   UNL     1       9.075   6.613  -2.591  1.00  0.00     0.004 C 
BRANCH   8   9
ATOM      9  C   UNL     1       8.390   5.625  -3.543  1.00  0.00     0.027 C 
BRANCH   9  10
ATOM     10  C   UNL     1       8.912   4.228  -3.347  1.00  0.00    -0.035 C 
ATOM     11  C   UNL     1      10.201   3.989  -3.089  1.00  0.00     0.004 C 
ENDBRANCH   9  10
ENDBRANCH   8   9
ENDBRANCH   7   8
ENDBRANCH   1   7
TORSDOF 7
ENDMDL
MODEL 2
REMARK VINA RESULT:    -3.963      1.697      2.064
REMARK INTER + INTRA:          -5.900
REMARK INTER:                  -5.631
REMARK INTRA:                  -0.269
REMARK UNBOUND:                -0.315
REMARK SMILES C=CCCCCCCC(=O)[O-]
REMARK SMILES IDX 6 1 7 2 8 3 9 4 10 5 11 6 5 7 4 8 3 9 2 10 1 11
REMARK H PARENT
REMARK Flexibility Score: inf
ROOT
ATOM      1  C   UNL     1      10.504   8.633  -2.795  1.00  0.00     0.000 C 
ENDROOT
BRANCH   1   2
ATOM      2  C   UNL     1      10.119  10.054  -3.243  1.00  0.00     0.006 C 
BRANCH   2   3
ATOM      3  C   UNL     1      11.307  11.017  -3.390  1.00  0.00     0.053 C 
BRANCH   3   4
ATOM      4  C   UNL     1      11.876  11.416  -2.065  1.00  0.00     0.041 C 
ATOM      5  O   UNL     1      13.121  11.532  -1.919  1.00  0.00    -0.550 OA
ATOM      6  O   UNL     1      11.030  11.694  -0.998  1.00  0.00    -0.550 OA
ENDBRANCH   3   4
ENDBRANCH   2   3
ENDBRANCH   1   2
BRANCH   1   7
ATOM      7  C   UNL     1       9.732   7.540  -3.549  1.00  0.00     0.000 C 
BRANCH   7   8
ATOM      8  C   UNL     1       8.985   6.623  -2.574  1.00  0.00     0.004 C 
BRANCH   8   9
ATOM      9  C   UNL     1       8.520   5.339  -3.272  1.00  0.00     0.027 C 
BRANCH   9  10
ATOM     10  C   UNL     1       9.359   4.160  -2.862  1.00  0.00    -0.035 C 
ATOM     11  C   UNL     1      10.517   3.878  -3.466  1.00  0.00     0.004 C 
ENDBRANCH   9  10
ENDBRANCH   8   9
ENDBRANCH   7   8
ENDBRANCH   1   7
TORSDOF 7
ENDMDL
MODEL 3
REMARK VINA RESULT:    -3.858      1.879      2.239
REMARK INTER + INTRA:          -5.752
REMARK INTER:                  -5.620
REMARK INTRA:                  -0.133
REMARK UNBOUND:                -0.315
REMARK SMILES C=CCCCCCCC(=O)[O-]
REMARK SMILES IDX 6 1 7 2 8 3 9 4 10 5 11 6 5 7 4 8 3 9 2 10 1 11
REMARK H PARENT
REMARK Flexibility Score: inf
ROOT
ATOM      1  C   UNL     1       9.954   9.979  -3.572  1.00  0.00     0.000 C 
ENDROOT
BRANCH   1   2
ATOM      2  C   UNL     1      10.820  11.215  -3.268  1.00  0.00     0.006 C 
BRANCH   2   3
ATOM      3  C   UNL     1      10.046  12.543  -3.254  1.00  0.00     0.053 C 
BRANCH   3   4
ATOM      4  C   UNL     1      10.792  13.636  -3.953  1.00  0.00     0.041 C 
ATOM      5  O   UNL     1      10.221  14.326  -4.838  1.00  0.00    -0.550 OA
ATOM      6  O   UNL     1      12.107  13.918  -3.604  1.00  0.00    -0.550 OA
ENDBRANCH   3   4
ENDBRANCH   2   3
ENDBRANCH   1   2
BRANCH   1   7
ATOM      7  C   UNL     1      10.388   8.738  -2.778  1.00  0.00     0.000 C 
BRANCH   7   8
ATOM      8  C   UNL     1       9.961   7.451  -3.493  1.00  0.00     0.004 C 
BRANCH   8   9
ATOM      9  C   UNL     1       8.941   6.668  -2.656  1.00  0.00     0.027 C 
BRANCH   9  10
ATOM     10  C   UNL     1       8.542   5.389  -3.340  1.00  0.00    -0.035 C 
ATOM     11  C   UNL     1       9.204   4.247  -3.136  1.00  0.00     0.004 C 
ENDBRANCH   9  10
ENDBRANCH   8   9
ENDBRANCH   7   8
ENDBRANCH   1   7
TORSDOF 7
ENDMDL
MODEL 4
REMARK VINA RESULT:    -3.810      2.562      2.965
REMARK INTER + INTRA:          -5.684
REMARK INTER:                  -5.469
REMARK INTRA:                  -0.215
REMARK UNBOUND:                -0.315
REMARK SMILES C=CCCCCCCC(=O)[O-]
REMARK SMILES IDX 6 1 7 2 8 3 9 4 10 5 11 6 5 7 4 8 3 9 2 10 1 11
REMARK H PARENT
REMARK Flexibility Score: inf
ROOT
ATOM      1  C   UNL     1      11.609   9.468  -3.091  1.00  0.00     0.000 C 
ENDROOT
BRANCH   1   2
ATOM      2  C   UNL     1      11.871  10.900  -2.589  1.00  0.00     0.006 C 
BRANCH   2   3
ATOM      3  C   UNL     1      11.253  11.213  -1.217  1.00  0.00     0.053 C 
BRANCH   3   4
ATOM      4  C   UNL     1      12.295  11.514  -0.185  1.00  0.00     0.041 C 
ATOM      5  O   UNL     1      11.977  11.601   1.030  1.00  0.00    -0.550 OA
ATOM      6  O   UNL     1      13.624  11.665  -0.560  1.00  0.00    -0.550 OA
ENDBRANCH   3   4
ENDBRANCH   2   3
ENDBRANCH   1   2
BRANCH   1   7
ATOM      7  C   UNL     1      10.113   9.129  -3.169  1.00  0.00     0.000 C 
BRANCH   7   8
ATOM      8  C   UNL     1       9.856   7.679  -2.742  1.00  0.00     0.004 C 
BRANCH   8   9
ATOM      9  C   UNL     1       9.384   6.831  -3.931  1.00  0.00     0.027 C 
BRANCH   9  10
ATOM     10  C   UNL     1       8.527   5.683  -3.475  1.00  0.00    -0.035 C 
ATOM     11  C   UNL     1       9.058   4.528  -3.064  1.00  0.00     0.004 C 
ENDBRANCH   9  10
ENDBRANCH   8   9
ENDBRANCH   7   8
ENDBRANCH   1   7
TORSDOF 7
ENDMDL
MODEL 5
REMARK VINA RESULT:    -3.784      3.367      6.192
REMARK INTER + INTRA:          -5.648
REMARK INTER:                  -5.420
REMARK INTRA:                  -0.229
REMARK UNBOUND:                -0.315
REMARK SMILES C=CCCCCCCC(=O)[O-]
REMARK SMILES IDX 6 1 7 2 8 3 9 4 10 5 11 6 5 7 4 8 3 9 2 10 1 11
REMARK H PARENT
REMARK Flexibility Score: inf
ROOT
ATOM      1  C   UNL     1       9.720   8.028  -2.719  1.00  0.00     0.000 C 
ENDROOT
BRANCH   1   2
ATOM      2  C   UNL     1       9.641   6.925  -3.791  1.00  0.00     0.006 C 
BRANCH   2   3
ATOM      3  C   UNL     1       8.709   5.758  -3.432  1.00  0.00     0.053 C 
BRANCH   3   4
ATOM      4  C   UNL     1       9.470   4.521  -3.067  1.00  0.00     0.041 C 
ATOM      5  O   UNL     1       9.266   3.956  -1.960  1.00  0.00    -0.550 OA
ATOM      6  O   UNL     1      10.378   3.972  -3.962  1.00  0.00    -0.550 OA
ENDBRANCH   3   4
ENDBRANCH   2   3
ENDBRANCH   1   2
BRANCH   1   7
ATOM      7  C   UNL     1      10.559   9.234  -3.167  1.00  0.00     0.000 C 
BRANCH   7   8
ATOM      8  C   UNL     1       9.717  10.211  -3.995  1.00  0.00     0.004 C 
BRANCH   8   9
ATOM      9  C   UNL     1       9.382  11.472  -3.187  1.00  0.00     0.027 C 
BRANCH   9  10
ATOM     10  C   UNL     1      10.254  12.627  -3.594  1.00  0.00    -0.035 C 
ATOM     11  C   UNL     1      11.179  13.134  -2.773  1.00  0.00     0.004 C 
ENDBRANCH   9  10
ENDBRANCH   8   9
ENDBRANCH   7   8
ENDBRANCH   1   7
TORSDOF 7
ENDMDL
MODEL 6
REMARK VINA RESULT:    -3.778      2.713      5.733
REMARK INTER + INTRA:          -5.639
REMARK INTER:                  -5.184
REMARK INTRA:                  -0.455
REMARK UNBOUND:                -0.315
REMARK SMILES C=CCCCCCCC(=O)[O-]
REMARK SMILES IDX 6 1 7 2 8 3 9 4 10 5 11 6 5 7 4 8 3 9 2 10 1 11
REMARK H PARENT
REMARK Flexibility Score: inf
ROOT
ATOM      1  C   UNL     1      10.822   9.810  -3.149  1.00  0.00     0.000 C 
ENDROOT
BRANCH   1   2
ATOM      2  C   UNL     1      10.417   8.464  -2.520  1.00  0.00     0.006 C 
BRANCH   2   3
ATOM      3  C   UNL     1       9.719   7.497  -3.489  1.00  0.00     0.053 C 
BRANCH   3   4
ATOM      4  C   UNL     1       8.884   6.484  -2.769  1.00  0.00     0.041 C 
ATOM      5  O   UNL     1       8.669   6.604  -1.534  1.00  0.00    -0.550 OA
ATOM      6  O   UNL     1       8.314   5.427  -3.467  1.00  0.00    -0.550 OA
ENDBRANCH   3   4
ENDBRANCH   2   3
ENDBRANCH   1   2
BRANCH   1   7
ATOM      7  C   UNL     1       9.728  10.398  -4.052  1.00  0.00     0.000 C 
BRANCH   7   8
ATOM      8  C   UNL     1       9.474  11.873  -3.716  1.00  0.00     0.004 C 
BRANCH   8   9
ATOM      9  C   UNL     1       9.239  12.063  -2.212  1.00  0.00     0.027 C 
BRANCH   9  10
ATOM     10  C   UNL     1      10.033  13.224  -1.679  1.00  0.00    -0.035 C 
ATOM     11  C   UNL     1      11.195  13.048  -1.043  1.00  0.00     0.004 C 
ENDBRANCH   9  10
ENDBRANCH   8   9
ENDBRANCH   7   8
ENDBRANCH   1   7
TORSDOF 7
ENDMDL
MODEL 7
REMARK VINA RESULT:    -3.701      9.827     11.347
REMARK INTER + INTRA:          -5.531
REMARK INTER:                  -4.896
REMARK INTRA:                  -0.635
REMARK UNBOUND:                -0.315
REMARK SMILES C=CCCCCCCC(=O)[O-]
REMARK SMILES IDX 6 1 7 2 8 3 9 4 10 5 11 6 5 7 4 8 3 9 2 10 1 11
REMARK H PARENT
REMARK Flexibility Score: inf
ROOT
ATOM      1  C   UNL     1       5.065  14.511   2.792  1.00  0.00     0.000 C 
ENDROOT
BRANCH   1   2
ATOM      2  C   UNL     1       6.024  15.208   1.809  1.00  0.00     0.006 C 
BRANCH   2   3
ATOM      3  C   UNL     1       5.405  15.529   0.440  1.00  0.00     0.053 C 
BRANCH   3   4
ATOM      4  C   UNL     1       4.192  16.396   0.560  1.00  0.00     0.041 C 
ATOM      5  O   UNL     1       4.311  17.614   0.857  1.00  0.00    -0.550 OA
ATOM      6  O   UNL     1       2.931  15.870   0.309  1.00  0.00    -0.550 OA
ENDBRANCH   3   4
ENDBRANCH   2   3
ENDBRANCH   1   2
BRANCH   1   7
ATOM      7  C   UNL     1       4.862  15.306   4.090  1.00  0.00     0.000 C 
BRANCH   7   8
ATOM      8  C   UNL     1       5.588  16.655   4.026  1.00  0.00     0.004 C 
BRANCH   8   9
ATOM      9  C   UNL     1       6.162  17.036   5.397  1.00  0.00     0.027 C 
BRANCH   9  10
ATOM     10  C   UNL     1       7.138  16.002   5.886  1.00  0.00    -0.035 C 
ATOM     11  C   UNL     1       8.419  16.009   5.505  1.00  0.00     0.004 C 
ENDBRANCH   9  10
ENDBRANCH   8   9
ENDBRANCH   7   8
ENDBRANCH   1   7
TORSDOF 7
ENDMDL
MODEL 8
REMARK VINA RESULT:    -3.694     10.419     11.597
REMARK INTER + INTRA:          -5.520
REMARK INTER:                  -4.783
REMARK INTRA:                  -0.737
REMARK UNBOUND:                -0.315
REMARK SMILES C=CCCCCCCC(=O)[O-]
REMARK SMILES IDX 6 1 7 2 8 3 9 4 10 5 11 6 5 7 4 8 3 9 2 10 1 11
REMARK H PARENT
REMARK Flexibility Score: inf
ROOT
ATOM      1  C   UNL     1       2.758  15.501   1.884  1.00  0.00     0.000 C 
ENDROOT
BRANCH   1   2
ATOM      2  C   UNL     1       2.911  16.561   0.778  1.00  0.00     0.006 C 
BRANCH   2   3
ATOM      3  C   UNL     1       4.152  17.455   0.924  1.00  0.00     0.053 C 
BRANCH   3   4
ATOM      4  C   UNL     1       3.819  18.786   1.523  1.00  0.00     0.041 C 
ATOM      5  O   UNL     1       4.577  19.299   2.387  1.00  0.00    -0.550 OA
ATOM      6  O   UNL     1       2.691  19.478   1.101  1.00  0.00    -0.550 OA
ENDBRANCH   3   4
ENDBRANCH   2   3
ENDBRANCH   1   2
BRANCH   1   7
ATOM      7  C   UNL     1       3.644  14.267   1.652  1.00  0.00     0.000 C 
BRANCH   7   8
ATOM      8  C   UNL     1       4.518  13.981   2.879  1.00  0.00     0.004 C 
BRANCH   8   9
ATOM      9  C   UNL     1       5.882  14.672   2.756  1.00  0.00     0.027 C 
BRANCH   9  10
ATOM     10  C   UNL     1       6.186  15.500   3.974  1.00  0.00    -0.035 C 
ATOM     11  C   UNL     1       5.366  16.471   4.387  1.00  0.00     0.004 C 
ENDBRANCH   9  10
ENDBRANCH   8   9
ENDBRANCH   7   8
ENDBRANCH   1   7
TORSDOF 7
ENDMDL
MODEL 9
REMARK VINA RESULT:    -3.621      3.485      4.905
REMARK INTER + INTRA:          -5.418
REMARK INTER:                  -4.549
REMARK INTRA:                  -0.869
REMARK UNBOUND:                -0.315
REMARK SMILES C=CCCCCCCC(=O)[O-]
REMARK SMILES IDX 6 1 7 2 8 3 9 4 10 5 11 6 5 7 4 8 3 9 2 10 1 11
REMARK H PARENT
REMARK Flexibility Score: inf
ROOT
ATOM      1  C   UNL     1      11.486  13.999  -4.274  1.00  0.00     0.000 C 
ENDROOT
BRANCH   1   2
ATOM      2  C   UNL     1      12.516  13.162  -3.493  1.00  0.00     0.006 C 
BRANCH   2   3
ATOM      3  C   UNL     1      12.705  13.595  -2.030  1.00  0.00     0.053 C 
BRANCH   3   4
ATOM      4  C   UNL     1      11.798  12.851  -1.101  1.00  0.00     0.041 C 
ATOM      5  O   UNL     1      12.215  11.831  -0.491  1.00  0.00    -0.550 OA
ATOM      6  O   UNL     1      10.503  13.302  -0.880  1.00  0.00    -0.550 OA
ENDBRANCH   3   4
ENDBRANCH   2   3
ENDBRANCH   1   2
BRANCH   1   7
ATOM      7  C   UNL     1      10.150  13.267  -4.469  1.00  0.00     0.000 C 
BRANCH   7   8
ATOM      8  C   UNL     1      10.361  11.750  -4.547  1.00  0.00     0.004 C 
BRANCH   8   9
ATOM      9  C   UNL     1       9.525  11.023  -3.486  1.00  0.00     0.027 C 
BRANCH   9  10
ATOM     10  C   UNL     1      10.168   9.726  -3.080  1.00  0.00    -0.035 C 
ATOM     11  C   UNL     1      11.495   9.566  -3.086  1.00  0.00     0.004 C 
ENDBRANCH   9  10
ENDBRANCH   8   9
ENDBRANCH   7   8
ENDBRANCH   1   7
TORSDOF 7
ENDMDL
