MODEL 1
REMARK VINA RESULT:    -4.796      0.000      0.000
REMARK INTER + INTRA:          -8.295
REMARK INTER:                  -6.758
REMARK INTRA:                  -1.537
REMARK UNBOUND:                -1.537
REMARK SMILES OC[C@@H]1O[C@@H](O[C@@H]2OC=C[C@@H]3[C@H](O)[C@@H]4O[C@]4(CO)[C@@H]23)[C@H](O)[C@H](O)[C@H]1O
REMARK SMILES IDX 6 1 7 2 10 3 9 4 11 5 8 6 19 7 12 8 16 9 14 10 15 11 13 12
REMARK SMILES IDX 17 14 18 15 5 17 20 18 4 19 22 20 3 21 24 22 21 23 23 25
REMARK SMILES IDX 2 27 1 28 25 30
REMARK H PARENT 13 13 18 16 21 24 23 26 1 29 25 31
REMARK Flexibility Score: inf
ROOT
ATOM      1  O   UNL     1      11.972  16.982  71.096  1.00  0.00    -0.310 OA
ENDROOT
BRANCH   1   2
ATOM      2  C   UNL     1      11.997  16.777  69.698  1.00  0.00     0.315 C 
ATOM      3  C   UNL     1      10.252  16.112  67.457  1.00  0.00     0.018 C 
ATOM      4  C   UNL     1      10.195  17.333  68.015  1.00  0.00     0.186 C 
ATOM      5  C   UNL     1      11.365  15.213  67.892  1.00  0.00     0.059 C 
ATOM      6  O   UNL     1      11.068  17.694  69.073  1.00  0.00    -0.472 OA
ATOM      7  C   UNL     1      11.552  15.340  69.395  1.00  0.00     0.105 C 
ATOM      8  C   UNL     1      11.261  13.704  67.630  1.00  0.00     0.154 C 
ATOM      9  C   UNL     1      12.447  14.145  69.715  1.00  0.00     0.130 C 
ATOM     10  C   UNL     1      12.229  13.100  68.670  1.00  0.00     0.183 C 
ATOM     11  O   UNL     1      11.711  12.968  69.984  1.00  0.00    -0.360 OA
BRANCH   8  12
ATOM     12  O   UNL     1       9.944  13.206  67.772  1.00  0.00    -0.390 OA
ATOM     13  H   UNL     1       9.308  13.967  67.815  1.00  0.00     0.211 HD
ENDBRANCH   8  12
BRANCH   9  14
ATOM     14  C   UNL     1      13.805  14.208  70.432  1.00  0.00     0.195 C 
BRANCH  14  15
ATOM     15  O   UNL     1      13.648  14.530  71.789  1.00  0.00    -0.393 OA
ATOM     16  H   UNL     1      14.400  15.127  72.043  1.00  0.00     0.210 HD
ENDBRANCH  14  15
ENDBRANCH   9  14
ENDBRANCH   1   2
BRANCH   1  17
ATOM     17  C   UNL     1      10.685  16.708  71.633  1.00  0.00     0.286 C 
ATOM     18  C   UNL     1      10.866  15.774  72.860  1.00  0.00     0.202 C 
ATOM     19  O   UNL     1      10.095  17.948  72.008  1.00  0.00    -0.341 OA
ATOM     20  C   UNL     1       9.888  16.148  73.998  1.00  0.00     0.179 C 
ATOM     21  C   UNL     1       8.748  17.811  72.465  1.00  0.00     0.178 C 
ATOM     22  C   UNL     1       8.538  16.586  73.414  1.00  0.00     0.177 C 
BRANCH  18  23
ATOM     23  O   UNL     1      10.646  14.456  72.454  1.00  0.00    -0.385 OA
ATOM     24  H   UNL     1       9.746  14.418  72.037  1.00  0.00     0.211 HD
ENDBRANCH  18  23
BRANCH  20  25
ATOM     25  O   UNL     1       9.706  15.066  74.878  1.00  0.00    -0.387 OA
ATOM     26  H   UNL     1      10.072  15.351  75.758  1.00  0.00     0.211 HD
ENDBRANCH  20  25
BRANCH  21  27
ATOM     27  C   UNL     1       7.746  17.814  71.296  1.00  0.00     0.191 C 
BRANCH  27  28
ATOM     28  O   UNL     1       6.496  17.355  71.731  1.00  0.00    -0.394 OA
ATOM     29  H   UNL     1       6.547  16.360  71.721  1.00  0.00     0.210 HD
ENDBRANCH  27  28
ENDBRANCH  21  27
BRANCH  22  30
ATOM     30  O   UNL     1       7.687  16.928  74.478  1.00  0.00    -0.387 OA
ATOM     31  H   UNL     1       7.773  16.206  75.162  1.00  0.00     0.211 HD
ENDBRANCH  22  30
ENDBRANCH   1  17
TORSDOF 10
ENDMDL
MODEL 2
REMARK VINA RESULT:    -4.395      1.669      2.219
REMARK INTER + INTRA:          -7.731
REMARK INTER:                  -6.134
REMARK INTRA:                  -1.597
REMARK UNBOUND:                -1.537
REMARK SMILES OC[C@@H]1O[C@@H](O[C@@H]2OC=C[C@@H]3[C@H](O)[C@@H]4O[C@]4(CO)[C@@H]23)[C@H](O)[C@H](O)[C@H]1O
REMARK SMILES IDX 6 1 7 2 10 3 9 4 11 5 8 6 19 7 12 8 16 9 14 10 15 11 13 12
REMARK SMILES IDX 17 14 18 15 5 17 20 18 4 19 22 20 3 21 24 22 21 23 23 25
REMARK SMILES IDX 2 27 1 28 25 30
REMARK H PARENT 13 13 18 16 21 24 23 26 1 29 25 31
REMARK Flexibility Score: inf
ROOT
ATOM      1  O   UNL     1       9.865  17.688  71.553  1.00  0.00    -0.310 OA
ENDROOT
BRANCH   1   2
ATOM      2  C   UNL     1      10.228  17.068  70.335  1.00  0.00     0.315 C 
ATOM      3  C   UNL     1       9.370  14.968  68.500  1.00  0.00     0.018 C 
ATOM      4  C   UNL     1       8.696  16.130  68.556  1.00  0.00     0.186 C 
ATOM      5  C   UNL     1      10.663  14.892  69.249  1.00  0.00     0.059 C 
ATOM      6  O   UNL     1       9.124  17.182  69.405  1.00  0.00    -0.472 OA
ATOM      7  C   UNL     1      10.503  15.581  70.594  1.00  0.00     0.105 C 
ATOM      8  C   UNL     1      11.264  13.517  69.574  1.00  0.00     0.154 C 
ATOM      9  C   UNL     1      11.751  15.121  71.346  1.00  0.00     0.130 C 
ATOM     10  C   UNL     1      12.193  13.816  70.771  1.00  0.00     0.183 C 
ATOM     11  O   UNL     1      11.555  13.902  72.035  1.00  0.00    -0.360 OA
BRANCH   8  12
ATOM     12  O   UNL     1      10.286  12.544  69.886  1.00  0.00    -0.390 OA
ATOM     13  H   UNL     1      10.698  11.641  69.851  1.00  0.00     0.211 HD
ENDBRANCH   8  12
BRANCH   9  14
ATOM     14  C   UNL     1      12.797  16.042  71.994  1.00  0.00     0.195 C 
BRANCH  14  15
ATOM     15  O   UNL     1      12.368  16.493  73.252  1.00  0.00    -0.393 OA
ATOM     16  H   UNL     1      11.582  17.082  73.106  1.00  0.00     0.210 HD
ENDBRANCH  14  15
ENDBRANCH   9  14
ENDBRANCH   1   2
BRANCH   1  17
ATOM     17  C   UNL     1       8.751  17.039  72.149  1.00  0.00     0.286 C 
ATOM     18  C   UNL     1       9.035  16.899  73.670  1.00  0.00     0.202 C 
ATOM     19  O   UNL     1       7.599  17.839  71.909  1.00  0.00    -0.341 OA
ATOM     20  C   UNL     1       7.756  17.139  74.503  1.00  0.00     0.179 C 
ATOM     21  C   UNL     1       6.390  17.233  72.372  1.00  0.00     0.178 C 
ATOM     22  C   UNL     1       6.533  16.562  73.778  1.00  0.00     0.177 C 
BRANCH  18  23
ATOM     23  O   UNL     1       9.531  15.616  73.914  1.00  0.00    -0.385 OA
ATOM     24  H   UNL     1       9.129  15.296  74.764  1.00  0.00     0.211 HD
ENDBRANCH  18  23
BRANCH  20  25
ATOM     25  O   UNL     1       7.875  16.564  75.782  1.00  0.00    -0.387 OA
ATOM     26  H   UNL     1       8.440  15.754  75.677  1.00  0.00     0.211 HD
ENDBRANCH  20  25
BRANCH  21  27
ATOM     27  C   UNL     1       5.801  16.267  71.328  1.00  0.00     0.191 C 
BRANCH  27  28
ATOM     28  O   UNL     1       4.875  15.409  71.934  1.00  0.00    -0.394 OA
ATOM     29  H   UNL     1       5.359  14.553  72.101  1.00  0.00     0.210 HD
ENDBRANCH  27  28
ENDBRANCH  21  27
BRANCH  22  30
ATOM     30  O   UNL     1       5.394  16.813  74.561  1.00  0.00    -0.387 OA
ATOM     31  H   UNL     1       4.948  15.934  74.713  1.00  0.00     0.211 HD
ENDBRANCH  22  30
ENDBRANCH   1  17
TORSDOF 10
ENDMDL
MODEL 3
REMARK VINA RESULT:    -3.841      1.893      3.230
REMARK INTER + INTRA:          -6.949
REMARK INTER:                  -5.706
REMARK INTRA:                  -1.244
REMARK UNBOUND:                -1.537
REMARK SMILES OC[C@@H]1O[C@@H](O[C@@H]2OC=C[C@@H]3[C@H](O)[C@@H]4O[C@]4(CO)[C@@H]23)[C@H](O)[C@H](O)[C@H]1O
REMARK SMILES IDX 6 1 7 2 10 3 9 4 11 5 8 6 19 7 12 8 16 9 14 10 15 11 13 12
REMARK SMILES IDX 17 14 18 15 5 17 20 18 4 19 22 20 3 21 24 22 21 23 23 25
REMARK SMILES IDX 2 27 1 28 25 30
REMARK H PARENT 13 13 18 16 21 24 23 26 1 29 25 31
REMARK Flexibility Score: inf
ROOT
ATOM      1  O   UNL     1       9.834  17.204  71.126  1.00  0.00    -0.310 OA
ENDROOT
BRANCH   1   2
ATOM      2  C   UNL     1      10.763  16.139  71.154  1.00  0.00     0.315 C 
ATOM      3  C   UNL     1      13.574  15.550  70.643  1.00  0.00     0.018 C 
ATOM      4  C   UNL     1      13.220  16.239  71.741  1.00  0.00     0.186 C 
ATOM      5  C   UNL     1      12.473  14.941  69.834  1.00  0.00     0.059 C 
ATOM      6  O   UNL     1      11.856  16.494  72.034  1.00  0.00    -0.472 OA
ATOM      7  C   UNL     1      11.319  15.924  69.740  1.00  0.00     0.105 C 
ATOM      8  C   UNL     1      12.751  14.513  68.386  1.00  0.00     0.154 C 
ATOM      9  C   UNL     1      10.461  15.315  68.632  1.00  0.00     0.130 C 
ATOM     10  C   UNL     1      11.344  14.494  67.750  1.00  0.00     0.183 C 
ATOM     11  O   UNL     1      10.840  15.757  67.343  1.00  0.00    -0.360 OA
BRANCH   8  12
ATOM     12  O   UNL     1      13.634  15.387  67.709  1.00  0.00    -0.390 OA
ATOM     13  H   UNL     1      13.197  16.271  67.595  1.00  0.00     0.211 HD
ENDBRANCH   8  12
BRANCH   9  14
ATOM     14  C   UNL     1       8.975  14.943  68.751  1.00  0.00     0.195 C 
BRANCH  14  15
ATOM     15  O   UNL     1       8.165  16.088  68.779  1.00  0.00    -0.393 OA
ATOM     16  H   UNL     1       7.875  16.272  67.848  1.00  0.00     0.210 HD
ENDBRANCH  14  15
ENDBRANCH   9  14
ENDBRANCH   1   2
BRANCH   1  17
ATOM     17  C   UNL     1       8.683  16.903  71.902  1.00  0.00     0.286 C 
ATOM     18  C   UNL     1       8.981  17.297  73.374  1.00  0.00     0.202 C 
ATOM     19  O   UNL     1       7.592  17.652  71.376  1.00  0.00    -0.341 OA
ATOM     20  C   UNL     1       7.738  17.921  74.050  1.00  0.00     0.179 C 
ATOM     21  C   UNL     1       6.348  17.350  72.011  1.00  0.00     0.178 C 
ATOM     22  C   UNL     1       6.462  17.220  73.566  1.00  0.00     0.177 C 
BRANCH  18  23
ATOM     23  O   UNL     1       9.379  16.153  74.070  1.00  0.00    -0.385 OA
ATOM     24  H   UNL     1      10.188  15.795  73.621  1.00  0.00     0.211 HD
ENDBRANCH  18  23
BRANCH  20  25
ATOM     25  O   UNL     1       7.834  17.837  75.452  1.00  0.00    -0.387 OA
ATOM     26  H   UNL     1       8.774  18.057  75.685  1.00  0.00     0.211 HD
ENDBRANCH  20  25
BRANCH  21  27
ATOM     27  C   UNL     1       5.668  16.123  71.377  1.00  0.00     0.191 C 
BRANCH  27  28
ATOM     28  O   UNL     1       4.875  15.467  72.328  1.00  0.00    -0.394 OA
ATOM     29  H   UNL     1       5.462  14.780  72.751  1.00  0.00     0.210 HD
ENDBRANCH  27  28
ENDBRANCH  21  27
BRANCH  22  30
ATOM     30  O   UNL     1       5.360  17.825  74.192  1.00  0.00    -0.387 OA
ATOM     31  H   UNL     1       4.723  17.094  74.426  1.00  0.00     0.211 HD
ENDBRANCH  22  30
ENDBRANCH   1  17
TORSDOF 10
ENDMDL
MODEL 4
REMARK VINA RESULT:    -3.560      1.820      6.698
REMARK INTER + INTRA:          -6.554
REMARK INTER:                  -6.624
REMARK INTRA:                   0.071
REMARK UNBOUND:                -1.537
REMARK SMILES OC[C@@H]1O[C@@H](O[C@@H]2OC=C[C@@H]3[C@H](O)[C@@H]4O[C@]4(CO)[C@@H]23)[C@H](O)[C@H](O)[C@H]1O
REMARK SMILES IDX 6 1 7 2 10 3 9 4 11 5 8 6 19 7 12 8 16 9 14 10 15 11 13 12
REMARK SMILES IDX 17 14 18 15 5 17 20 18 4 19 22 20 3 21 24 22 21 23 23 25
REMARK SMILES IDX 2 27 1 28 25 30
REMARK H PARENT 13 13 18 16 21 24 23 26 1 29 25 31
REMARK Flexibility Score: inf
ROOT
ATOM      1  O   UNL     1       8.925  17.350  70.663  1.00  0.00    -0.310 OA
ENDROOT
BRANCH   1   2
ATOM      2  C   UNL     1       9.305  17.404  72.024  1.00  0.00     0.315 C 
ATOM      3  C   UNL     1       9.714  15.691  74.349  1.00  0.00     0.018 C 
ATOM      4  C   UNL     1      10.604  15.682  73.342  1.00  0.00     0.186 C 
ATOM      5  C   UNL     1       8.651  16.742  74.312  1.00  0.00     0.059 C 
ATOM      6  O   UNL     1      10.451  16.543  72.225  1.00  0.00    -0.472 OA
ATOM      7  C   UNL     1       8.145  16.892  72.887  1.00  0.00     0.105 C 
ATOM      8  C   UNL     1       7.388  16.566  75.167  1.00  0.00     0.154 C 
ATOM      9  C   UNL     1       6.872  17.714  73.078  1.00  0.00     0.130 C 
ATOM     10  C   UNL     1       6.357  17.471  74.459  1.00  0.00     0.183 C 
ATOM     11  O   UNL     1       5.733  16.910  73.315  1.00  0.00    -0.360 OA
BRANCH   8  12
ATOM     12  O   UNL     1       6.955  15.221  75.246  1.00  0.00    -0.390 OA
ATOM     13  H   UNL     1       7.288  14.819  76.091  1.00  0.00     0.211 HD
ENDBRANCH   8  12
BRANCH   9  14
ATOM     14  C   UNL     1       6.557  19.052  72.391  1.00  0.00     0.195 C 
BRANCH  14  15
ATOM     15  O   UNL     1       5.208  19.125  72.012  1.00  0.00    -0.393 OA
ATOM     16  H   UNL     1       4.693  19.442  72.800  1.00  0.00     0.210 HD
ENDBRANCH  14  15
ENDBRANCH   9  14
ENDBRANCH   1   2
BRANCH   1  17
ATOM     17  C   UNL     1       9.879  16.634  69.891  1.00  0.00     0.286 C 
ATOM     18  C   UNL     1       9.349  16.549  68.433  1.00  0.00     0.202 C 
ATOM     19  O   UNL     1      11.112  17.342  69.953  1.00  0.00    -0.341 OA
ATOM     20  C   UNL     1      10.496  16.713  67.410  1.00  0.00     0.179 C 
ATOM     21  C   UNL     1      12.183  16.660  69.298  1.00  0.00     0.178 C 
ATOM     22  C   UNL     1      11.770  16.032  67.926  1.00  0.00     0.177 C 
BRANCH  18  23
ATOM     23  O   UNL     1       8.725  15.312  68.257  1.00  0.00    -0.385 OA
ATOM     24  H   UNL     1       9.436  14.637  68.105  1.00  0.00     0.211 HD
ENDBRANCH  18  23
BRANCH  20  25
ATOM     25  O   UNL     1      10.134  16.178  66.160  1.00  0.00    -0.387 OA
ATOM     26  H   UNL     1      10.237  15.192  66.233  1.00  0.00     0.211 HD
ENDBRANCH  20  25
BRANCH  21  27
ATOM     27  C   UNL     1      12.854  15.630  70.225  1.00  0.00     0.191 C 
BRANCH  27  28
ATOM     28  O   UNL     1      13.530  16.285  71.263  1.00  0.00    -0.394 OA
ATOM     29  H   UNL     1      14.385  16.616  70.872  1.00  0.00     0.210 HD
ENDBRANCH  27  28
ENDBRANCH  21  27
BRANCH  22  30
ATOM     30  O   UNL     1      12.787  16.216  66.974  1.00  0.00    -0.387 OA
ATOM     31  H   UNL     1      13.646  15.968  67.417  1.00  0.00     0.211 HD
ENDBRANCH  22  30
ENDBRANCH   1  17
TORSDOF 10
ENDMDL
MODEL 5
REMARK VINA RESULT:    -3.362      1.735      6.088
REMARK INTER + INTRA:          -6.275
REMARK INTER:                  -5.199
REMARK INTRA:                  -1.075
REMARK UNBOUND:                -1.537
REMARK SMILES OC[C@@H]1O[C@@H](O[C@@H]2OC=C[C@@H]3[C@H](O)[C@@H]4O[C@]4(CO)[C@@H]23)[C@H](O)[C@H](O)[C@H]1O
REMARK SMILES IDX 6 1 7 2 10 3 9 4 11 5 8 6 19 7 12 8 16 9 14 10 15 11 13 12
REMARK SMILES IDX 17 14 18 15 5 17 20 18 4 19 22 20 3 21 24 22 21 23 23 25
REMARK SMILES IDX 2 27 1 28 25 30
REMARK H PARENT 13 13 18 16 21 24 23 26 1 29 25 31
REMARK Flexibility Score: inf
ROOT
ATOM      1  O   UNL     1      11.341  17.237  70.774  1.00  0.00    -0.310 OA
ENDROOT
BRANCH   1   2
ATOM      2  C   UNL     1       9.945  17.186  70.991  1.00  0.00     0.315 C 
ATOM      3  C   UNL     1       7.786  18.640  72.307  1.00  0.00     0.018 C 
ATOM      4  C   UNL     1       8.332  19.124  71.178  1.00  0.00     0.186 C 
ATOM      5  C   UNL     1       8.185  17.260  72.723  1.00  0.00     0.059 C 
ATOM      6  O   UNL     1       9.349  18.408  70.495  1.00  0.00    -0.472 OA
ATOM      7  C   UNL     1       9.677  17.082  72.498  1.00  0.00     0.105 C 
ATOM      8  C   UNL     1       7.944  16.811  74.171  1.00  0.00     0.154 C 
ATOM      9  C   UNL     1       9.972  15.799  73.272  1.00  0.00     0.130 C 
ATOM     10  C   UNL     1       8.949  15.653  74.350  1.00  0.00     0.183 C 
ATOM     11  O   UNL     1      10.285  16.041  74.630  1.00  0.00    -0.360 OA
BRANCH   8  12
ATOM     12  O   UNL     1       8.145  17.847  75.114  1.00  0.00    -0.390 OA
ATOM     13  H   UNL     1       8.292  17.449  76.011  1.00  0.00     0.211 HD
ENDBRANCH   8  12
BRANCH   9  14
ATOM     14  C   UNL     1      10.632  14.536  72.696  1.00  0.00     0.195 C 
BRANCH  14  15
ATOM     15  O   UNL     1      11.997  14.745  72.444  1.00  0.00    -0.393 OA
ATOM     16  H   UNL     1      12.068  15.285  71.614  1.00  0.00     0.210 HD
ENDBRANCH  14  15
ENDBRANCH   9  14
ENDBRANCH   1   2
BRANCH   1  17
ATOM     17  C   UNL     1      11.729  16.372  69.716  1.00  0.00     0.286 C 
ATOM     18  C   UNL     1      11.403  17.082  68.373  1.00  0.00     0.202 C 
ATOM     19  O   UNL     1      13.125  16.123  69.844  1.00  0.00    -0.341 OA
ATOM     20  C   UNL     1      12.505  16.822  67.320  1.00  0.00     0.179 C 
ATOM     21  C   UNL     1      13.614  15.175  68.893  1.00  0.00     0.178 C 
ATOM     22  C   UNL     1      13.039  15.390  67.453  1.00  0.00     0.177 C 
BRANCH  18  23
ATOM     23  O   UNL     1      10.175  16.610  67.906  1.00  0.00    -0.385 OA
ATOM     24  H   UNL     1       9.470  16.958  68.511  1.00  0.00     0.211 HD
ENDBRANCH  18  23
BRANCH  20  25
ATOM     25  O   UNL     1      12.015  17.036  66.018  1.00  0.00    -0.387 OA
ATOM     26  H   UNL     1      12.805  17.036  65.415  1.00  0.00     0.211 HD
ENDBRANCH  20  25
BRANCH  21  27
ATOM     27  C   UNL     1      13.422  13.728  69.380  1.00  0.00     0.191 C 
BRANCH  27  28
ATOM     28  O   UNL     1      14.091  13.536  70.596  1.00  0.00    -0.394 OA
ATOM     29  H   UNL     1      14.083  12.553  70.764  1.00  0.00     0.210 HD
ENDBRANCH  27  28
ENDBRANCH  21  27
BRANCH  22  30
ATOM     30  O   UNL     1      14.044  15.201  66.490  1.00  0.00    -0.387 OA
ATOM     31  H   UNL     1      14.302  16.107  66.159  1.00  0.00     0.211 HD
ENDBRANCH  22  30
ENDBRANCH   1  17
TORSDOF 10
ENDMDL
MODEL 6
REMARK VINA RESULT:    -3.203      1.546      2.677
REMARK INTER + INTRA:          -6.051
REMARK INTER:                  -5.922
REMARK INTRA:                  -0.129
REMARK UNBOUND:                -1.537
REMARK SMILES OC[C@@H]1O[C@@H](O[C@@H]2OC=C[C@@H]3[C@H](O)[C@@H]4O[C@]4(CO)[C@@H]23)[C@H](O)[C@H](O)[C@H]1O
REMARK SMILES IDX 6 1 7 2 10 3 9 4 11 5 8 6 19 7 12 8 16 9 14 10 15 11 13 12
REMARK SMILES IDX 17 14 18 15 5 17 20 18 4 19 22 20 3 21 24 22 21 23 23 25
REMARK SMILES IDX 2 27 1 28 25 30
REMARK H PARENT 13 13 18 16 21 24 23 26 1 29 25 31
REMARK Flexibility Score: inf
ROOT
ATOM      1  O   UNL     1      12.226  15.501  72.394  1.00  0.00    -0.310 OA
ENDROOT
BRANCH   1   2
ATOM      2  C   UNL     1      12.935  14.931  71.311  1.00  0.00     0.315 C 
ATOM      3  C   UNL     1      13.367  15.256  68.444  1.00  0.00     0.018 C 
ATOM      4  C   UNL     1      13.927  16.118  69.311  1.00  0.00     0.186 C 
ATOM      5  C   UNL     1      12.707  14.043  69.017  1.00  0.00     0.059 C 
ATOM      6  O   UNL     1      13.771  15.949  70.711  1.00  0.00    -0.472 OA
ATOM      7  C   UNL     1      11.931  14.436  70.262  1.00  0.00     0.105 C 
ATOM      8  C   UNL     1      11.710  13.252  68.158  1.00  0.00     0.154 C 
ATOM      9  C   UNL     1      11.064  13.202  70.509  1.00  0.00     0.130 C 
ATOM     10  C   UNL     1      10.865  12.498  69.208  1.00  0.00     0.183 C 
ATOM     11  O   UNL     1       9.831  13.254  69.819  1.00  0.00    -0.360 OA
BRANCH   8  12
ATOM     12  O   UNL     1      10.918  14.078  67.326  1.00  0.00    -0.390 OA
ATOM     13  H   UNL     1      11.105  15.031  67.535  1.00  0.00     0.211 HD
ENDBRANCH   8  12
BRANCH   9  14
ATOM     14  C   UNL     1      11.015  12.388  71.812  1.00  0.00     0.195 C 
BRANCH  14  15
ATOM     15  O   UNL     1      10.706  13.205  72.911  1.00  0.00    -0.393 OA
ATOM     16  H   UNL     1       9.757  13.036  73.150  1.00  0.00     0.210 HD
ENDBRANCH  14  15
ENDBRANCH   9  14
ENDBRANCH   1   2
BRANCH   1  17
ATOM     17  C   UNL     1      10.956  15.984  71.980  1.00  0.00     0.286 C 
ATOM     18  C   UNL     1      10.185  16.448  73.246  1.00  0.00     0.202 C 
ATOM     19  O   UNL     1      11.171  17.065  71.079  1.00  0.00    -0.341 OA
ATOM     20  C   UNL     1       9.374  17.734  72.967  1.00  0.00     0.179 C 
ATOM     21  C   UNL     1       9.961  17.567  70.509  1.00  0.00     0.178 C 
ATOM     22  C   UNL     1       8.797  17.701  71.546  1.00  0.00     0.177 C 
BRANCH  18  23
ATOM     23  O   UNL     1       9.328  15.421  73.648  1.00  0.00    -0.385 OA
ATOM     24  H   UNL     1       9.112  15.568  74.606  1.00  0.00     0.211 HD
ENDBRANCH  18  23
BRANCH  20  25
ATOM     25  O   UNL     1       8.337  17.887  73.906  1.00  0.00    -0.387 OA
ATOM     26  H   UNL     1       8.753  18.254  74.731  1.00  0.00     0.211 HD
ENDBRANCH  20  25
BRANCH  21  27
ATOM     27  C   UNL     1       9.538  16.761  69.268  1.00  0.00     0.191 C 
BRANCH  27  28
ATOM     28  O   UNL     1      10.432  16.993  68.215  1.00  0.00    -0.394 OA
ATOM     29  H   UNL     1      11.203  17.486  68.609  1.00  0.00     0.210 HD
ENDBRANCH  27  28
ENDBRANCH  21  27
BRANCH  22  30
ATOM     30  O   UNL     1       8.081  18.890  71.331  1.00  0.00    -0.387 OA
ATOM     31  H   UNL     1       8.692  19.512  70.845  1.00  0.00     0.211 HD
ENDBRANCH  22  30
ENDBRANCH   1  17
TORSDOF 10
ENDMDL
MODEL 7
REMARK VINA RESULT:    -3.190      1.747      6.581
REMARK INTER + INTRA:          -6.033
REMARK INTER:                  -5.378
REMARK INTRA:                  -0.654
REMARK UNBOUND:                -1.537
REMARK SMILES OC[C@@H]1O[C@@H](O[C@@H]2OC=C[C@@H]3[C@H](O)[C@@H]4O[C@]4(CO)[C@@H]23)[C@H](O)[C@H](O)[C@H]1O
REMARK SMILES IDX 6 1 7 2 10 3 9 4 11 5 8 6 19 7 12 8 16 9 14 10 15 11 13 12
REMARK SMILES IDX 17 14 18 15 5 17 20 18 4 19 22 20 3 21 24 22 21 23 23 25
REMARK SMILES IDX 2 27 1 28 25 30
REMARK H PARENT 13 13 18 16 21 24 23 26 1 29 25 31
REMARK Flexibility Score: inf
ROOT
ATOM      1  O   UNL     1      10.494  15.916  70.395  1.00  0.00    -0.310 OA
ENDROOT
BRANCH   1   2
ATOM      2  C   UNL     1      10.574  16.321  71.747  1.00  0.00     0.315 C 
ATOM      3  C   UNL     1       9.409  15.776  74.365  1.00  0.00     0.018 C 
ATOM      4  C   UNL     1      10.265  14.899  73.813  1.00  0.00     0.186 C 
ATOM      5  C   UNL     1       9.254  17.099  73.684  1.00  0.00     0.059 C 
ATOM      6  O   UNL     1      10.881  15.167  72.564  1.00  0.00    -0.472 OA
ATOM      7  C   UNL     1       9.216  16.886  72.180  1.00  0.00     0.105 C 
ATOM      8  C   UNL     1       8.026  17.966  73.996  1.00  0.00     0.154 C 
ATOM      9  C   UNL     1       8.716  18.238  71.673  1.00  0.00     0.130 C 
ATOM     10  C   UNL     1       7.925  18.887  72.760  1.00  0.00     0.183 C 
ATOM     11  O   UNL     1       7.305  18.314  71.619  1.00  0.00    -0.360 OA
BRANCH   8  12
ATOM     12  O   UNL     1       6.848  17.208  74.197  1.00  0.00    -0.390 OA
ATOM     13  H   UNL     1       6.783  16.951  75.153  1.00  0.00     0.211 HD
ENDBRANCH   8  12
BRANCH   9  14
ATOM     14  C   UNL     1       9.428  19.125  70.639  1.00  0.00     0.195 C 
BRANCH  14  15
ATOM     15  O   UNL     1       9.825  18.380  69.518  1.00  0.00    -0.393 OA
ATOM     16  H   UNL     1      10.808  18.252  69.578  1.00  0.00     0.210 HD
ENDBRANCH  14  15
ENDBRANCH   9  14
ENDBRANCH   1   2
BRANCH   1  17
ATOM     17  C   UNL     1      11.698  15.290  69.973  1.00  0.00     0.286 C 
ATOM     18  C   UNL     1      11.773  15.391  68.425  1.00  0.00     0.202 C 
ATOM     19  O   UNL     1      12.785  15.972  70.590  1.00  0.00    -0.341 OA
ATOM     20  C   UNL     1      13.218  15.667  67.951  1.00  0.00     0.179 C 
ATOM     21  C   UNL     1      14.050  15.363  70.324  1.00  0.00     0.178 C 
ATOM     22  C   UNL     1      14.220  14.913  68.835  1.00  0.00     0.177 C 
BRANCH  18  23
ATOM     23  O   UNL     1      11.312  14.192  67.877  1.00  0.00    -0.385 OA
ATOM     24  H   UNL     1      11.712  14.102  66.973  1.00  0.00     0.211 HD
ENDBRANCH  18  23
BRANCH  20  25
ATOM     25  O   UNL     1      13.385  15.293  66.604  1.00  0.00    -0.387 OA
ATOM     26  H   UNL     1      12.475  15.120  66.243  1.00  0.00     0.211 HD
ENDBRANCH  20  25
BRANCH  21  27
ATOM     27  C   UNL     1      14.350  14.220  71.310  1.00  0.00     0.191 C 
BRANCH  27  28
ATOM     28  O   UNL     1      15.724  13.948  71.328  1.00  0.00    -0.394 OA
ATOM     29  H   UNL     1      16.067  14.310  72.192  1.00  0.00     0.210 HD
ENDBRANCH  27  28
ENDBRANCH  21  27
BRANCH  22  30
ATOM     30  O   UNL     1      15.517  15.202  68.380  1.00  0.00    -0.387 OA
ATOM     31  H   UNL     1      16.100  15.265  69.187  1.00  0.00     0.211 HD
ENDBRANCH  22  30
ENDBRANCH   1  17
TORSDOF 10
ENDMDL
MODEL 8
REMARK VINA RESULT:    -3.151      1.556      5.445
REMARK INTER + INTRA:          -5.977
REMARK INTER:                  -5.943
REMARK INTRA:                  -0.035
REMARK UNBOUND:                -1.537
REMARK SMILES OC[C@@H]1O[C@@H](O[C@@H]2OC=C[C@@H]3[C@H](O)[C@@H]4O[C@]4(CO)[C@@H]23)[C@H](O)[C@H](O)[C@H]1O
REMARK SMILES IDX 6 1 7 2 10 3 9 4 11 5 8 6 19 7 12 8 16 9 14 10 15 11 13 12
REMARK SMILES IDX 17 14 18 15 5 17 20 18 4 19 22 20 3 21 24 22 21 23 23 25
REMARK SMILES IDX 2 27 1 28 25 30
REMARK H PARENT 13 13 18 16 21 24 23 26 1 29 25 31
REMARK Flexibility Score: inf
ROOT
ATOM      1  O   UNL     1      11.688  17.221  70.874  1.00  0.00    -0.310 OA
ENDROOT
BRANCH   1   2
ATOM      2  C   UNL     1      10.280  17.177  71.004  1.00  0.00     0.315 C 
ATOM      3  C   UNL     1       8.053  18.626  72.208  1.00  0.00     0.018 C 
ATOM      4  C   UNL     1       8.671  19.123  71.122  1.00  0.00     0.186 C 
ATOM      5  C   UNL     1       8.417  17.237  72.626  1.00  0.00     0.059 C 
ATOM      6  O   UNL     1       9.723  18.411  70.492  1.00  0.00    -0.472 OA
ATOM      7  C   UNL     1       9.920  17.052  72.490  1.00  0.00     0.105 C 
ATOM      8  C   UNL     1       8.085  16.768  74.049  1.00  0.00     0.154 C 
ATOM      9  C   UNL     1      10.158  15.755  73.261  1.00  0.00     0.130 C 
ATOM     10  C   UNL     1       9.070  15.600  74.271  1.00  0.00     0.183 C 
ATOM     11  O   UNL     1      10.389  15.973  74.639  1.00  0.00    -0.360 OA
BRANCH   8  12
ATOM     12  O   UNL     1       8.235  17.787  75.018  1.00  0.00    -0.390 OA
ATOM     13  H   UNL     1       7.663  18.561  74.772  1.00  0.00     0.211 HD
ENDBRANCH   8  12
BRANCH   9  14
ATOM     14  C   UNL     1      10.844  14.496  72.706  1.00  0.00     0.195 C 
BRANCH  14  15
ATOM     15  O   UNL     1      10.551  13.370  73.490  1.00  0.00    -0.393 OA
ATOM     16  H   UNL     1      11.415  12.967  73.770  1.00  0.00     0.210 HD
ENDBRANCH  14  15
ENDBRANCH   9  14
ENDBRANCH   1   2
BRANCH   1  17
ATOM     17  C   UNL     1      12.143  16.295  69.898  1.00  0.00     0.286 C 
ATOM     18  C   UNL     1      13.288  15.457  70.530  1.00  0.00     0.202 C 
ATOM     19  O   UNL     1      11.042  15.472  69.527  1.00  0.00    -0.341 OA
ATOM     20  C   UNL     1      13.210  13.978  70.086  1.00  0.00     0.179 C 
ATOM     21  C   UNL     1      11.353  14.566  68.467  1.00  0.00     0.178 C 
ATOM     22  C   UNL     1      12.753  13.886  68.625  1.00  0.00     0.177 C 
BRANCH  18  23
ATOM     23  O   UNL     1      14.511  16.008  70.142  1.00  0.00    -0.385 OA
ATOM     24  H   UNL     1      14.796  16.638  70.854  1.00  0.00     0.211 HD
ENDBRANCH  18  23
BRANCH  20  25
ATOM     25  O   UNL     1      14.455  13.341  70.245  1.00  0.00    -0.387 OA
ATOM     26  H   UNL     1      14.367  12.740  71.033  1.00  0.00     0.211 HD
ENDBRANCH  20  25
BRANCH  21  27
ATOM     27  C   UNL     1      11.183  15.225  67.086  1.00  0.00     0.191 C 
BRANCH  27  28
ATOM     28  O   UNL     1      10.203  16.223  67.146  1.00  0.00    -0.394 OA
ATOM     29  H   UNL     1       9.934  16.404  66.203  1.00  0.00     0.210 HD
ENDBRANCH  27  28
ENDBRANCH  21  27
BRANCH  22  30
ATOM     30  O   UNL     1      12.683  12.529  68.268  1.00  0.00    -0.387 OA
ATOM     31  H   UNL     1      11.845  12.167  68.669  1.00  0.00     0.211 HD
ENDBRANCH  22  30
ENDBRANCH   1  17
TORSDOF 10
ENDMDL
MODEL 9
REMARK VINA RESULT:    -2.786      1.949      2.994
REMARK INTER + INTRA:          -5.463
REMARK INTER:                  -4.955
REMARK INTRA:                  -0.509
REMARK UNBOUND:                -1.537
REMARK SMILES OC[C@@H]1O[C@@H](O[C@@H]2OC=C[C@@H]3[C@H](O)[C@@H]4O[C@]4(CO)[C@@H]23)[C@H](O)[C@H](O)[C@H]1O
REMARK SMILES IDX 6 1 7 2 10 3 9 4 11 5 8 6 19 7 12 8 16 9 14 10 15 11 13 12
REMARK SMILES IDX 17 14 18 15 5 17 20 18 4 19 22 20 3 21 24 22 21 23 23 25
REMARK SMILES IDX 2 27 1 28 25 30
REMARK H PARENT 13 13 18 16 21 24 23 26 1 29 25 31
REMARK Flexibility Score: inf
ROOT
ATOM      1  O   UNL     1       8.806  16.444  70.712  1.00  0.00    -0.310 OA
ENDROOT
BRANCH   1   2
ATOM      2  C   UNL     1      10.079  17.029  70.906  1.00  0.00     0.315 C 
ATOM      3  C   UNL     1      12.342  18.112  69.418  1.00  0.00     0.018 C 
ATOM      4  C   UNL     1      11.196  18.810  69.503  1.00  0.00     0.186 C 
ATOM      5  C   UNL     1      12.462  16.890  70.272  1.00  0.00     0.059 C 
ATOM      6  O   UNL     1      10.101  18.325  70.262  1.00  0.00    -0.472 OA
ATOM      7  C   UNL     1      11.143  16.137  70.255  1.00  0.00     0.105 C 
ATOM      8  C   UNL     1      13.527  15.838  69.933  1.00  0.00     0.154 C 
ATOM      9  C   UNL     1      11.530  14.788  70.860  1.00  0.00     0.130 C 
ATOM     10  C   UNL     1      12.985  14.561  70.611  1.00  0.00     0.183 C 
ATOM     11  O   UNL     1      11.981  13.864  69.890  1.00  0.00    -0.360 OA
BRANCH   8  12
ATOM     12  O   UNL     1      13.715  15.666  68.541  1.00  0.00    -0.390 OA
ATOM     13  H   UNL     1      12.867  15.351  68.132  1.00  0.00     0.211 HD
ENDBRANCH   8  12
BRANCH   9  14
ATOM     14  C   UNL     1      10.873  14.134  72.086  1.00  0.00     0.195 C 
BRANCH  14  15
ATOM     15  O   UNL     1      11.064  14.910  73.240  1.00  0.00    -0.393 OA
ATOM     16  H   UNL     1      11.455  14.320  73.935  1.00  0.00     0.210 HD
ENDBRANCH  14  15
ENDBRANCH   9  14
ENDBRANCH   1   2
BRANCH   1  17
ATOM     17  C   UNL     1       7.946  16.708  71.812  1.00  0.00     0.286 C 
ATOM     18  C   UNL     1       8.724  17.589  72.828  1.00  0.00     0.202 C 
ATOM     19  O   UNL     1       6.795  17.383  71.316  1.00  0.00    -0.341 OA
ATOM     20  C   UNL     1       7.805  18.659  73.459  1.00  0.00     0.179 C 
ATOM     21  C   UNL     1       5.803  17.608  72.319  1.00  0.00     0.178 C 
ATOM     22  C   UNL     1       6.399  18.087  73.684  1.00  0.00     0.177 C 
BRANCH  18  23
ATOM     23  O   UNL     1       9.249  16.763  73.824  1.00  0.00    -0.385 OA
ATOM     24  H   UNL     1       9.664  15.980  73.377  1.00  0.00     0.211 HD
ENDBRANCH  18  23
BRANCH  20  25
ATOM     25  O   UNL     1       8.338  19.123  74.676  1.00  0.00    -0.387 OA
ATOM     26  H   UNL     1       8.300  18.360  75.312  1.00  0.00     0.211 HD
ENDBRANCH  20  25
BRANCH  21  27
ATOM     27  C   UNL     1       4.878  16.389  72.490  1.00  0.00     0.191 C 
BRANCH  27  28
ATOM     28  O   UNL     1       4.940  15.918  73.808  1.00  0.00    -0.394 OA
ATOM     29  H   UNL     1       5.259  16.683  74.361  1.00  0.00     0.210 HD
ENDBRANCH  27  28
ENDBRANCH  21  27
BRANCH  22  30
ATOM     30  O   UNL     1       5.596  19.094  74.245  1.00  0.00    -0.387 OA
ATOM     31  H   UNL     1       5.253  19.646  73.488  1.00  0.00     0.211 HD
ENDBRANCH  22  30
ENDBRANCH   1  17
TORSDOF 10
ENDMDL
