MODEL 1
REMARK VINA RESULT:    -5.494      0.000      0.000
REMARK INTER + INTRA:          -7.479
REMARK INTER:                  -6.939
REMARK INTRA:                  -0.540
REMARK UNBOUND:                -0.540
REMARK SMILES Oc1cc(O)cc(CCc2ccccc2O)c1
REMARK SMILES IDX 9 1 10 2 12 3 13 4 11 5 14 6 15 7 16 8 8 10 7 11 6 12 17 13
REMARK SMILES IDX 4 14 2 15 3 16 5 17 1 19
REMARK H PARENT 16 9 5 18 1 20
REMARK Flexibility Score: inf
ROOT
ATOM      1  C   UNL     1    -109.379 -15.823  52.876  1.00  0.00     0.044 C 
ENDROOT
BRANCH   1   2
ATOM      2  C   UNL     1    -108.308 -14.775  53.047  1.00  0.00    -0.006 A 
ATOM      3  C   UNL     1    -106.386 -13.583  52.153  1.00  0.00     0.001 A 
ATOM      4  C   UNL     1    -106.255 -12.883  53.353  1.00  0.00     0.004 A 
ATOM      5  C   UNL     1    -107.403 -14.529  52.000  1.00  0.00     0.007 A 
ATOM      6  C   UNL     1    -107.139 -13.130  54.406  1.00  0.00     0.046 A 
ATOM      7  C   UNL     1    -108.164 -14.078  54.264  1.00  0.00     0.118 A 
BRANCH   7   8
ATOM      8  O   UNL     1    -109.034 -14.329  55.324  1.00  0.00    -0.508 OA
ATOM      9  H   UNL     1    -108.824 -14.022  56.267  1.00  0.00     0.293 HD
ENDBRANCH   7   8
ENDBRANCH   1   2
BRANCH   1  10
ATOM     10  C   UNL     1    -109.350 -16.395  51.455  1.00  0.00     0.040 C 
BRANCH  10  11
ATOM     11  C   UNL     1    -108.687 -17.747  51.444  1.00  0.00    -0.040 A 
ATOM     12  C   UNL     1    -109.210 -18.799  52.213  1.00  0.00     0.050 A 
ATOM     13  C   UNL     1    -107.508 -17.950  50.709  1.00  0.00     0.050 A 
ATOM     14  C   UNL     1    -108.578 -20.046  52.230  1.00  0.00     0.119 A 
ATOM     15  C   UNL     1    -106.871 -19.199  50.725  1.00  0.00     0.119 A 
ATOM     16  C   UNL     1    -107.409 -20.244  51.482  1.00  0.00     0.092 A 
BRANCH  14  17
ATOM     17  O   UNL     1    -109.115 -21.079  52.993  1.00  0.00    -0.508 OA
ATOM     18  H   UNL     1    -109.907 -21.621  52.668  1.00  0.00     0.293 HD
ENDBRANCH  14  17
BRANCH  15  19
ATOM     19  O   UNL     1    -105.704 -19.409  49.993  1.00  0.00    -0.508 OA
ATOM     20  H   UNL     1    -105.609 -20.196  49.362  1.00  0.00     0.293 HD
ENDBRANCH  15  19
ENDBRANCH  10  11
ENDBRANCH   1  10
TORSDOF 6
ENDMDL
MODEL 2
REMARK VINA RESULT:    -5.487      0.110      2.037
REMARK INTER + INTRA:          -7.471
REMARK INTER:                  -6.949
REMARK INTRA:                  -0.521
REMARK UNBOUND:                -0.540
REMARK SMILES Oc1cc(O)cc(CCc2ccccc2O)c1
REMARK SMILES IDX 9 1 10 2 12 3 13 4 11 5 14 6 15 7 16 8 8 10 7 11 6 12 17 13
REMARK SMILES IDX 4 14 2 15 3 16 5 17 1 19
REMARK H PARENT 16 9 5 18 1 20
REMARK Flexibility Score: inf
ROOT
ATOM      1  C   UNL     1    -109.355 -15.828  52.880  1.00  0.00     0.044 C 
ENDROOT
BRANCH   1   2
ATOM      2  C   UNL     1    -108.294 -14.772  53.059  1.00  0.00    -0.006 A 
ATOM      3  C   UNL     1    -106.380 -13.557  52.175  1.00  0.00     0.001 A 
ATOM      4  C   UNL     1    -106.260 -12.861  53.379  1.00  0.00     0.004 A 
ATOM      5  C   UNL     1    -107.388 -14.513  52.015  1.00  0.00     0.007 A 
ATOM      6  C   UNL     1    -107.145 -13.121  54.428  1.00  0.00     0.046 A 
ATOM      7  C   UNL     1    -108.160 -14.078  54.279  1.00  0.00     0.118 A 
BRANCH   7   8
ATOM      8  O   UNL     1    -109.031 -14.342  55.335  1.00  0.00    -0.508 OA
ATOM      9  H   UNL     1    -110.037 -14.331  55.210  1.00  0.00     0.293 HD
ENDBRANCH   7   8
ENDBRANCH   1   2
BRANCH   1  10
ATOM     10  C   UNL     1    -109.299 -16.413  51.465  1.00  0.00     0.040 C 
BRANCH  10  11
ATOM     11  C   UNL     1    -108.574 -17.733  51.466  1.00  0.00    -0.040 A 
ATOM     12  C   UNL     1    -107.428 -17.912  50.676  1.00  0.00     0.050 A 
ATOM     13  C   UNL     1    -109.073 -18.812  52.213  1.00  0.00     0.050 A 
ATOM     14  C   UNL     1    -106.772 -19.146  50.649  1.00  0.00     0.119 A 
ATOM     15  C   UNL     1    -108.417 -20.051  52.188  1.00  0.00     0.119 A 
ATOM     16  C   UNL     1    -107.267 -20.214  51.410  1.00  0.00     0.092 A 
BRANCH  14  17
ATOM     17  O   UNL     1    -105.632 -19.302  49.865  1.00  0.00    -0.508 OA
ATOM     18  H   UNL     1    -105.095 -20.162  49.875  1.00  0.00     0.293 HD
ENDBRANCH  14  17
BRANCH  15  19
ATOM     19  O   UNL     1    -108.902 -21.125  52.932  1.00  0.00    -0.508 OA
ATOM     20  H   UNL     1    -108.311 -21.630  53.581  1.00  0.00     0.293 HD
ENDBRANCH  15  19
ENDBRANCH  10  11
ENDBRANCH   1  10
TORSDOF 6
ENDMDL
MODEL 3
REMARK VINA RESULT:    -5.436      1.780      6.199
REMARK INTER + INTRA:          -7.406
REMARK INTER:                  -6.897
REMARK INTRA:                  -0.509
REMARK UNBOUND:                -0.540
REMARK SMILES Oc1cc(O)cc(CCc2ccccc2O)c1
REMARK SMILES IDX 9 1 10 2 12 3 13 4 11 5 14 6 15 7 16 8 8 10 7 11 6 12 17 13
REMARK SMILES IDX 4 14 2 15 3 16 5 17 1 19
REMARK H PARENT 16 9 5 18 1 20
REMARK Flexibility Score: inf
ROOT
ATOM      1  C   UNL     1    -107.698 -16.745  50.767  1.00  0.00     0.044 C 
ENDROOT
BRANCH   1   2
ATOM      2  C   UNL     1    -107.324 -18.205  50.832  1.00  0.00    -0.006 A 
ATOM      3  C   UNL     1    -107.359 -20.322  52.029  1.00  0.00     0.001 A 
ATOM      4  C   UNL     1    -106.588 -20.909  51.023  1.00  0.00     0.004 A 
ATOM      5  C   UNL     1    -107.722 -18.975  51.939  1.00  0.00     0.007 A 
ATOM      6  C   UNL     1    -106.175 -20.149  49.926  1.00  0.00     0.046 A 
ATOM      7  C   UNL     1    -106.533 -18.796  49.826  1.00  0.00     0.118 A 
BRANCH   7   8
ATOM      8  O   UNL     1    -106.105 -18.041  48.735  1.00  0.00    -0.508 OA
ATOM      9  H   UNL     1    -106.486 -18.184  47.807  1.00  0.00     0.293 HD
ENDBRANCH   7   8
ENDBRANCH   1   2
BRANCH   1  10
ATOM     10  C   UNL     1    -108.738 -16.408  51.840  1.00  0.00     0.040 C 
BRANCH  10  11
ATOM     11  C   UNL     1    -108.319 -15.189  52.617  1.00  0.00    -0.040 A 
ATOM     12  C   UNL     1    -109.052 -14.781  53.743  1.00  0.00     0.050 A 
ATOM     13  C   UNL     1    -107.227 -14.418  52.189  1.00  0.00     0.050 A 
ATOM     14  C   UNL     1    -108.685 -13.630  54.448  1.00  0.00     0.119 A 
ATOM     15  C   UNL     1    -106.857 -13.264  52.893  1.00  0.00     0.119 A 
ATOM     16  C   UNL     1    -107.583 -12.875  54.023  1.00  0.00     0.092 A 
BRANCH  14  17
ATOM     17  O   UNL     1    -109.419 -13.246  55.567  1.00  0.00    -0.508 OA
ATOM     18  H   UNL     1    -110.171 -13.819  55.930  1.00  0.00     0.293 HD
ENDBRANCH  14  17
BRANCH  15  19
ATOM     19  O   UNL     1    -105.769 -12.497  52.478  1.00  0.00    -0.508 OA
ATOM     20  H   UNL     1    -105.854 -11.501  52.316  1.00  0.00     0.293 HD
ENDBRANCH  15  19
ENDBRANCH  10  11
ENDBRANCH   1  10
TORSDOF 6
ENDMDL
MODEL 4
REMARK VINA RESULT:    -5.403      1.771      6.511
REMARK INTER + INTRA:          -7.365
REMARK INTER:                  -6.857
REMARK INTRA:                  -0.508
REMARK UNBOUND:                -0.540
REMARK SMILES Oc1cc(O)cc(CCc2ccccc2O)c1
REMARK SMILES IDX 9 1 10 2 12 3 13 4 11 5 14 6 15 7 16 8 8 10 7 11 6 12 17 13
REMARK SMILES IDX 4 14 2 15 3 16 5 17 1 19
REMARK H PARENT 16 9 5 18 1 20
REMARK Flexibility Score: inf
ROOT
ATOM      1  C   UNL     1    -107.658 -16.791  50.783  1.00  0.00     0.044 C 
ENDROOT
BRANCH   1   2
ATOM      2  C   UNL     1    -107.313 -18.258  50.838  1.00  0.00    -0.006 A 
ATOM      3  C   UNL     1    -107.385 -20.381  52.023  1.00  0.00     0.001 A 
ATOM      4  C   UNL     1    -106.629 -20.977  51.012  1.00  0.00     0.004 A 
ATOM      5  C   UNL     1    -107.723 -19.027  51.942  1.00  0.00     0.007 A 
ATOM      6  C   UNL     1    -106.203 -20.218  49.919  1.00  0.00     0.046 A 
ATOM      7  C   UNL     1    -106.535 -18.858  49.827  1.00  0.00     0.118 A 
BRANCH   7   8
ATOM      8  O   UNL     1    -106.095 -18.104  48.740  1.00  0.00    -0.508 OA
ATOM      9  H   UNL     1    -106.357 -17.132  48.626  1.00  0.00     0.293 HD
ENDBRANCH   7   8
ENDBRANCH   1   2
BRANCH   1  10
ATOM     10  C   UNL     1    -108.768 -16.460  51.786  1.00  0.00     0.040 C 
BRANCH  10  11
ATOM     11  C   UNL     1    -108.416 -15.228  52.577  1.00  0.00    -0.040 A 
ATOM     12  C   UNL     1    -107.277 -14.476  52.247  1.00  0.00     0.050 A 
ATOM     13  C   UNL     1    -109.191 -14.855  53.686  1.00  0.00     0.050 A 
ATOM     14  C   UNL     1    -106.929 -13.351  53.000  1.00  0.00     0.119 A 
ATOM     15  C   UNL     1    -108.845 -13.726  54.443  1.00  0.00     0.119 A 
ATOM     16  C   UNL     1    -107.718 -12.975  54.096  1.00  0.00     0.092 A 
BRANCH  14  17
ATOM     17  O   UNL     1    -105.800 -12.613  52.652  1.00  0.00    -0.508 OA
ATOM     18  H   UNL     1    -105.180 -12.230  53.356  1.00  0.00     0.293 HD
ENDBRANCH  14  17
BRANCH  15  19
ATOM     19  O   UNL     1    -109.614 -13.345  55.541  1.00  0.00    -0.508 OA
ATOM     20  H   UNL     1    -110.215 -14.005  56.021  1.00  0.00     0.293 HD
ENDBRANCH  15  19
ENDBRANCH  10  11
ENDBRANCH   1  10
TORSDOF 6
ENDMDL
MODEL 5
REMARK VINA RESULT:    -5.371      2.114      6.623
REMARK INTER + INTRA:          -7.323
REMARK INTER:                  -6.882
REMARK INTRA:                  -0.442
REMARK UNBOUND:                -0.540
REMARK SMILES Oc1cc(O)cc(CCc2ccccc2O)c1
REMARK SMILES IDX 9 1 10 2 12 3 13 4 11 5 14 6 15 7 16 8 8 10 7 11 6 12 17 13
REMARK SMILES IDX 4 14 2 15 3 16 5 17 1 19
REMARK H PARENT 16 9 5 18 1 20
REMARK Flexibility Score: inf
ROOT
ATOM      1  C   UNL     1    -106.736 -16.962  50.527  1.00  0.00     0.044 C 
ENDROOT
BRANCH   1   2
ATOM      2  C   UNL     1    -106.954 -17.787  49.283  1.00  0.00    -0.006 A 
ATOM      3  C   UNL     1    -108.226 -18.220  47.256  1.00  0.00     0.001 A 
ATOM      4  C   UNL     1    -107.436 -19.340  46.993  1.00  0.00     0.004 A 
ATOM      5  C   UNL     1    -107.992 -17.448  48.398  1.00  0.00     0.007 A 
ATOM      6  C   UNL     1    -106.411 -19.695  47.873  1.00  0.00     0.046 A 
ATOM      7  C   UNL     1    -106.168 -18.928  49.023  1.00  0.00     0.118 A 
BRANCH   7   8
ATOM      8  O   UNL     1    -105.152 -19.297  49.905  1.00  0.00    -0.508 OA
ATOM      9  H   UNL     1    -104.182 -19.067  49.723  1.00  0.00     0.293 HD
ENDBRANCH   7   8
ENDBRANCH   1   2
BRANCH   1  10
ATOM     10  C   UNL     1    -108.076 -16.607  51.179  1.00  0.00     0.040 C 
BRANCH  10  11
ATOM     11  C   UNL     1    -107.914 -15.442  52.118  1.00  0.00    -0.040 A 
ATOM     12  C   UNL     1    -106.942 -14.460  51.868  1.00  0.00     0.050 A 
ATOM     13  C   UNL     1    -108.695 -15.358  53.282  1.00  0.00     0.050 A 
ATOM     14  C   UNL     1    -106.767 -13.395  52.757  1.00  0.00     0.119 A 
ATOM     15  C   UNL     1    -108.521 -14.291  54.175  1.00  0.00     0.119 A 
ATOM     16  C   UNL     1    -107.561 -13.310  53.908  1.00  0.00     0.092 A 
BRANCH  14  17
ATOM     17  O   UNL     1    -105.802 -12.427  52.488  1.00  0.00    -0.508 OA
ATOM     18  H   UNL     1    -104.931 -12.661  52.026  1.00  0.00     0.293 HD
ENDBRANCH  14  17
BRANCH  15  19
ATOM     19  O   UNL     1    -109.298 -14.198  55.328  1.00  0.00    -0.508 OA
ATOM     20  H   UNL     1    -109.908 -13.407  55.494  1.00  0.00     0.293 HD
ENDBRANCH  15  19
ENDBRANCH  10  11
ENDBRANCH   1  10
TORSDOF 6
ENDMDL
MODEL 6
REMARK VINA RESULT:    -5.308      1.484      6.115
REMARK INTER + INTRA:          -7.244
REMARK INTER:                  -6.685
REMARK INTRA:                  -0.559
REMARK UNBOUND:                -0.540
REMARK SMILES Oc1cc(O)cc(CCc2ccccc2O)c1
REMARK SMILES IDX 9 1 10 2 12 3 13 4 11 5 14 6 15 7 16 8 8 10 7 11 6 12 17 13
REMARK SMILES IDX 4 14 2 15 3 16 5 17 1 19
REMARK H PARENT 16 9 5 18 1 20
REMARK Flexibility Score: inf
ROOT
ATOM      1  C   UNL     1    -108.877 -17.403  52.234  1.00  0.00     0.044 C 
ENDROOT
BRANCH   1   2
ATOM      2  C   UNL     1    -107.923 -18.065  51.272  1.00  0.00    -0.006 A 
ATOM      3  C   UNL     1    -106.645 -17.983  49.204  1.00  0.00     0.001 A 
ATOM      4  C   UNL     1    -106.203 -19.289  49.419  1.00  0.00     0.004 A 
ATOM      5  C   UNL     1    -107.505 -17.373  50.122  1.00  0.00     0.007 A 
ATOM      6  C   UNL     1    -106.625 -19.992  50.550  1.00  0.00     0.046 A 
ATOM      7  C   UNL     1    -107.489 -19.390  51.477  1.00  0.00     0.118 A 
BRANCH   7   8
ATOM      8  O   UNL     1    -107.916 -20.103  52.597  1.00  0.00    -0.508 OA
ATOM      9  H   UNL     1    -108.362 -19.642  53.382  1.00  0.00     0.293 HD
ENDBRANCH   7   8
ENDBRANCH   1   2
BRANCH   1  10
ATOM     10  C   UNL     1    -109.289 -16.021  51.719  1.00  0.00     0.040 C 
BRANCH  10  11
ATOM     11  C   UNL     1    -108.700 -14.937  52.583  1.00  0.00    -0.040 A 
ATOM     12  C   UNL     1    -107.426 -14.420  52.300  1.00  0.00     0.050 A 
ATOM     13  C   UNL     1    -109.396 -14.478  53.712  1.00  0.00     0.050 A 
ATOM     14  C   UNL     1    -106.862 -13.438  53.120  1.00  0.00     0.119 A 
ATOM     15  C   UNL     1    -108.833 -13.493  54.536  1.00  0.00     0.119 A 
ATOM     16  C   UNL     1    -107.571 -12.973  54.237  1.00  0.00     0.092 A 
BRANCH  14  17
ATOM     17  O   UNL     1    -105.601 -12.932  52.819  1.00  0.00    -0.508 OA
ATOM     18  H   UNL     1    -105.313 -12.760  51.863  1.00  0.00     0.293 HD
ENDBRANCH  14  17
BRANCH  15  19
ATOM     19  O   UNL     1    -109.522 -13.026  55.655  1.00  0.00    -0.508 OA
ATOM     20  H   UNL     1    -109.714 -12.040  55.786  1.00  0.00     0.293 HD
ENDBRANCH  15  19
ENDBRANCH  10  11
ENDBRANCH   1  10
TORSDOF 6
ENDMDL
MODEL 7
REMARK VINA RESULT:    -5.272      1.373      1.863
REMARK INTER + INTRA:          -7.199
REMARK INTER:                  -6.605
REMARK INTRA:                  -0.594
REMARK UNBOUND:                -0.540
REMARK SMILES Oc1cc(O)cc(CCc2ccccc2O)c1
REMARK SMILES IDX 9 1 10 2 12 3 13 4 11 5 14 6 15 7 16 8 8 10 7 11 6 12 17 13
REMARK SMILES IDX 4 14 2 15 3 16 5 17 1 19
REMARK H PARENT 16 9 5 18 1 20
REMARK Flexibility Score: inf
ROOT
ATOM      1  C   UNL     1    -109.237 -15.813  51.868  1.00  0.00     0.044 C 
ENDROOT
BRANCH   1   2
ATOM      2  C   UNL     1    -108.363 -14.833  52.610  1.00  0.00    -0.006 A 
ATOM      3  C   UNL     1    -106.331 -13.499  52.707  1.00  0.00     0.001 A 
ATOM      4  C   UNL     1    -106.672 -13.064  53.988  1.00  0.00     0.004 A 
ATOM      5  C   UNL     1    -107.167 -14.384  52.020  1.00  0.00     0.007 A 
ATOM      6  C   UNL     1    -107.849 -13.515  54.590  1.00  0.00     0.046 A 
ATOM      7  C   UNL     1    -108.696 -14.404  53.910  1.00  0.00     0.118 A 
BRANCH   7   8
ATOM      8  O   UNL     1    -109.862 -14.862  54.523  1.00  0.00    -0.508 OA
ATOM      9  H   UNL     1    -110.086 -15.849  54.569  1.00  0.00     0.293 HD
ENDBRANCH   7   8
ENDBRANCH   1   2
BRANCH   1  10
ATOM     10  C   UNL     1    -108.896 -17.251  52.271  1.00  0.00     0.040 C 
BRANCH  10  11
ATOM     11  C   UNL     1    -108.071 -17.918  51.202  1.00  0.00    -0.040 A 
ATOM     12  C   UNL     1    -107.323 -19.069  51.500  1.00  0.00     0.050 A 
ATOM     13  C   UNL     1    -107.996 -17.360  49.916  1.00  0.00     0.050 A 
ATOM     14  C   UNL     1    -106.530 -19.671  50.519  1.00  0.00     0.119 A 
ATOM     15  C   UNL     1    -107.201 -17.962  48.930  1.00  0.00     0.119 A 
ATOM     16  C   UNL     1    -106.473 -19.117  49.233  1.00  0.00     0.092 A 
BRANCH  14  17
ATOM     17  O   UNL     1    -105.802 -20.816  50.831  1.00  0.00    -0.508 OA
ATOM     18  H   UNL     1    -105.142 -20.832  51.600  1.00  0.00     0.293 HD
ENDBRANCH  14  17
BRANCH  15  19
ATOM     19  O   UNL     1    -107.127 -17.418  47.649  1.00  0.00    -0.508 OA
ATOM     20  H   UNL     1    -106.586 -16.583  47.458  1.00  0.00     0.293 HD
ENDBRANCH  15  19
ENDBRANCH  10  11
ENDBRANCH   1  10
TORSDOF 6
ENDMDL
