MODEL 1
REMARK VINA RESULT:    -3.528      0.000      0.000
REMARK INTER + INTRA:          -5.077
REMARK INTER:                  -4.765
REMARK INTRA:                  -0.312
REMARK UNBOUND:                -0.312
REMARK SMILES CCCCCCCC(=O)[O-]
REMARK SMILES IDX 5 1 6 2 7 3 8 4 9 5 10 6 4 7 3 8 2 9 1 10
REMARK H PARENT
REMARK Flexibility Score: inf
ROOT
ATOM      1  C   UNL     1      -8.416  -3.788  -4.422  1.00  0.00     0.000 C 
ENDROOT
BRANCH   1   2
ATOM      2  C   UNL     1      -9.893  -4.163  -4.637  1.00  0.00     0.006 C 
BRANCH   2   3
ATOM      3  C   UNL     1     -10.125  -4.849  -5.990  1.00  0.00     0.053 C 
BRANCH   3   4
ATOM      4  C   UNL     1      -9.495  -6.207  -6.040  1.00  0.00     0.041 C 
ATOM      5  O   UNL     1      -9.548  -6.967  -5.037  1.00  0.00    -0.550 OA
ATOM      6  O   UNL     1      -8.883  -6.649  -7.206  1.00  0.00    -0.550 OA
ENDBRANCH   3   4
ENDBRANCH   2   3
ENDBRANCH   1   2
BRANCH   1   7
ATOM      7  C   UNL     1      -7.897  -4.192  -3.034  1.00  0.00     0.000 C 
BRANCH   7   8
ATOM      8  C   UNL     1      -7.797  -2.996  -2.070  1.00  0.00    -0.000 C 
BRANCH   8   9
ATOM      9  C   UNL     1      -9.150  -2.634  -1.439  1.00  0.00    -0.003 C 
ATOM     10  C   UNL     1      -9.785  -1.393  -2.067  1.00  0.00     0.004 C 
ENDBRANCH   8   9
ENDBRANCH   7   8
ENDBRANCH   1   7
TORSDOF 6
ENDMDL
MODEL 2
REMARK VINA RESULT:    -3.512      1.461      2.375
REMARK INTER + INTRA:          -5.056
REMARK INTER:                  -4.777
REMARK INTRA:                  -0.279
REMARK UNBOUND:                -0.312
REMARK SMILES CCCCCCCC(=O)[O-]
REMARK SMILES IDX 5 1 6 2 7 3 8 4 9 5 10 6 4 7 3 8 2 9 1 10
REMARK H PARENT
REMARK Flexibility Score: inf
ROOT
ATOM      1  C   UNL     1      -7.866  -3.212  -2.213  1.00  0.00     0.000 C 
ENDROOT
BRANCH   1   2
ATOM      2  C   UNL     1      -7.437  -4.482  -2.968  1.00  0.00     0.006 C 
BRANCH   2   3
ATOM      3  C   UNL     1      -8.582  -5.497  -3.089  1.00  0.00     0.053 C 
BRANCH   3   4
ATOM      4  C   UNL     1      -8.987  -5.712  -4.515  1.00  0.00     0.041 C 
ATOM      5  O   UNL     1      -9.440  -6.828  -4.883  1.00  0.00    -0.550 OA
ATOM      6  O   UNL     1      -8.897  -4.670  -5.430  1.00  0.00    -0.550 OA
ENDBRANCH   3   4
ENDBRANCH   2   3
ENDBRANCH   1   2
BRANCH   1   7
ATOM      7  C   UNL     1      -9.391  -3.092  -2.070  1.00  0.00     0.000 C 
BRANCH   7   8
ATOM      8  C   UNL     1      -9.963  -1.884  -2.833  1.00  0.00    -0.000 C 
BRANCH   8   9
ATOM      9  C   UNL     1     -10.096  -0.637  -1.944  1.00  0.00    -0.003 C 
ATOM     10  C   UNL     1     -10.125   0.663  -2.747  1.00  0.00     0.004 C 
ENDBRANCH   8   9
ENDBRANCH   7   8
ENDBRANCH   1   7
TORSDOF 6
ENDMDL
MODEL 3
REMARK VINA RESULT:    -3.406      3.144      5.041
REMARK INTER + INTRA:          -4.913
REMARK INTER:                  -4.808
REMARK INTRA:                  -0.105
REMARK UNBOUND:                -0.312
REMARK SMILES CCCCCCCC(=O)[O-]
REMARK SMILES IDX 5 1 6 2 7 3 8 4 9 5 10 6 4 7 3 8 2 9 1 10
REMARK H PARENT
REMARK Flexibility Score: inf
ROOT
ATOM      1  C   UNL     1      -7.940  -5.161  -3.029  1.00  0.00     0.000 C 
ENDROOT
BRANCH   1   2
ATOM      2  C   UNL     1      -8.387  -3.917  -3.817  1.00  0.00     0.006 C 
BRANCH   2   3
ATOM      3  C   UNL     1      -8.915  -2.808  -2.897  1.00  0.00     0.053 C 
BRANCH   3   4
ATOM      4  C   UNL     1      -8.115  -2.704  -1.635  1.00  0.00     0.041 C 
ATOM      5  O   UNL     1      -6.859  -2.631  -1.687  1.00  0.00    -0.550 OA
ATOM      6  O   UNL     1      -8.758  -2.648  -0.405  1.00  0.00    -0.550 OA
ENDBRANCH   3   4
ENDBRANCH   2   3
ENDBRANCH   1   2
BRANCH   1   7
ATOM      7  C   UNL     1      -8.854  -6.373  -3.266  1.00  0.00     0.000 C 
BRANCH   7   8
ATOM      8  C   UNL     1     -10.017  -6.058  -4.224  1.00  0.00    -0.000 C 
BRANCH   8   9
ATOM      9  C   UNL     1      -9.804  -6.655  -5.624  1.00  0.00    -0.003 C 
ATOM     10  C   UNL     1     -10.056  -5.646  -6.744  1.00  0.00     0.004 C 
ENDBRANCH   8   9
ENDBRANCH   7   8
ENDBRANCH   1   7
TORSDOF 6
ENDMDL
MODEL 4
REMARK VINA RESULT:    -3.403      3.147      4.717
REMARK INTER + INTRA:          -4.909
REMARK INTER:                  -4.626
REMARK INTRA:                  -0.283
REMARK UNBOUND:                -0.312
REMARK SMILES CCCCCCCC(=O)[O-]
REMARK SMILES IDX 5 1 6 2 7 3 8 4 9 5 10 6 4 7 3 8 2 9 1 10
REMARK H PARENT
REMARK Flexibility Score: inf
ROOT
ATOM      1  C   UNL     1      -8.836  -3.950  -4.750  1.00  0.00     0.000 C 
ENDROOT
BRANCH   1   2
ATOM      2  C   UNL     1      -9.506  -2.927  -3.814  1.00  0.00     0.006 C 
BRANCH   2   3
ATOM      3  C   UNL     1      -9.571  -3.425  -2.364  1.00  0.00     0.053 C 
BRANCH   3   4
ATOM      4  C   UNL     1      -8.460  -2.860  -1.532  1.00  0.00     0.041 C 
ATOM      5  O   UNL     1      -8.675  -2.517  -0.340  1.00  0.00    -0.550 OA
ATOM      6  O   UNL     1      -7.181  -2.748  -2.061  1.00  0.00    -0.550 OA
ENDBRANCH   3   4
ENDBRANCH   2   3
ENDBRANCH   1   2
BRANCH   1   7
ATOM      7  C   UNL     1      -9.836  -4.951  -5.347  1.00  0.00     0.000 C 
BRANCH   7   8
ATOM      8  C   UNL     1      -9.447  -6.414  -5.066  1.00  0.00    -0.000 C 
BRANCH   8   9
ATOM      9  C   UNL     1      -8.852  -6.604  -3.662  1.00  0.00    -0.003 C 
ATOM     10  C   UNL     1      -9.912  -6.907  -2.603  1.00  0.00     0.004 C 
ENDBRANCH   8   9
ENDBRANCH   7   8
ENDBRANCH   1   7
TORSDOF 6
ENDMDL
MODEL 5
REMARK VINA RESULT:    -3.354     17.312     19.016
REMARK INTER + INTRA:          -4.843
REMARK INTER:                  -4.655
REMARK INTRA:                  -0.188
REMARK UNBOUND:                -0.312
REMARK SMILES CCCCCCCC(=O)[O-]
REMARK SMILES IDX 5 1 6 2 7 3 8 4 9 5 10 6 4 7 3 8 2 9 1 10
REMARK H PARENT
REMARK Flexibility Score: inf
ROOT
ATOM      1  C   UNL     1      -0.777   6.468   8.724  1.00  0.00     0.000 C 
ENDROOT
BRANCH   1   2
ATOM      2  C   UNL     1      -1.415   5.588   9.813  1.00  0.00     0.006 C 
BRANCH   2   3
ATOM      3  C   UNL     1      -2.147   4.376   9.223  1.00  0.00     0.053 C 
BRANCH   3   4
ATOM      4  C   UNL     1      -1.381   3.106   9.436  1.00  0.00     0.041 C 
ATOM      5  O   UNL     1      -0.238   3.137   9.962  1.00  0.00    -0.550 OA
ATOM      6  O   UNL     1      -1.946   1.885   9.089  1.00  0.00    -0.550 OA
ENDBRANCH   3   4
ENDBRANCH   2   3
ENDBRANCH   1   2
BRANCH   1   7
ATOM      7  C   UNL     1       0.646   6.921   9.085  1.00  0.00     0.000 C 
BRANCH   7   8
ATOM      8  C   UNL     1       0.973   8.325   8.545  1.00  0.00    -0.000 C 
BRANCH   8   9
ATOM      9  C   UNL     1       1.909   8.284   7.327  1.00  0.00    -0.003 C 
ATOM     10  C   UNL     1       3.326   7.836   7.683  1.00  0.00     0.004 C 
ENDBRANCH   8   9
ENDBRANCH   7   8
ENDBRANCH   1   7
TORSDOF 6
ENDMDL
MODEL 6
REMARK VINA RESULT:    -3.320     17.914     19.804
REMARK INTER + INTRA:          -4.796
REMARK INTER:                  -4.510
REMARK INTRA:                  -0.287
REMARK UNBOUND:                -0.312
REMARK SMILES CCCCCCCC(=O)[O-]
REMARK SMILES IDX 5 1 6 2 7 3 8 4 9 5 10 6 4 7 3 8 2 9 1 10
REMARK H PARENT
REMARK Flexibility Score: inf
ROOT
ATOM      1  C   UNL     1       0.605   6.243   9.613  1.00  0.00     0.000 C 
ENDROOT
BRANCH   1   2
ATOM      2  C   UNL     1       1.646   7.362   9.429  1.00  0.00     0.006 C 
BRANCH   2   3
ATOM      3  C   UNL     1       1.283   8.304   8.273  1.00  0.00     0.053 C 
BRANCH   3   4
ATOM      4  C   UNL     1       2.274   8.219   7.153  1.00  0.00     0.041 C 
ATOM      5  O   UNL     1       1.919   8.473   5.973  1.00  0.00    -0.550 OA
ATOM      6  O   UNL     1       3.599   7.895   7.419  1.00  0.00    -0.550 OA
ENDBRANCH   3   4
ENDBRANCH   2   3
ENDBRANCH   1   2
BRANCH   1   7
ATOM      7  C   UNL     1      -0.695   6.509   8.839  1.00  0.00     0.000 C 
BRANCH   7   8
ATOM      8  C   UNL     1      -1.626   5.284   8.811  1.00  0.00    -0.000 C 
BRANCH   8   9
ATOM      9  C   UNL     1      -1.132   4.148   9.721  1.00  0.00    -0.003 C 
ATOM     10  C   UNL     1      -1.588   2.768   9.249  1.00  0.00     0.004 C 
ENDBRANCH   8   9
ENDBRANCH   7   8
ENDBRANCH   1   7
TORSDOF 6
ENDMDL
MODEL 7
REMARK VINA RESULT:    -3.292     16.790     18.655
REMARK INTER + INTRA:          -4.760
REMARK INTER:                  -4.624
REMARK INTRA:                  -0.136
REMARK UNBOUND:                -0.312
REMARK SMILES CCCCCCCC(=O)[O-]
REMARK SMILES IDX 5 1 6 2 7 3 8 4 9 5 10 6 4 7 3 8 2 9 1 10
REMARK H PARENT
REMARK Flexibility Score: inf
ROOT
ATOM      1  C   UNL     1      -0.356   6.022   9.474  1.00  0.00     0.000 C 
ENDROOT
BRANCH   1   2
ATOM      2  C   UNL     1      -1.483   4.993   9.283  1.00  0.00     0.006 C 
BRANCH   2   3
ATOM      3  C   UNL     1      -1.060   3.583   9.718  1.00  0.00     0.053 C 
BRANCH   3   4
ATOM      4  C   UNL     1      -2.125   2.569   9.431  1.00  0.00     0.041 C 
ATOM      5  O   UNL     1      -1.920   1.659   8.585  1.00  0.00    -0.550 OA
ATOM      6  O   UNL     1      -3.327   2.607  10.125  1.00  0.00    -0.550 OA
ENDBRANCH   3   4
ENDBRANCH   2   3
ENDBRANCH   1   2
BRANCH   1   7
ATOM      7  C   UNL     1      -0.755   7.433   9.014  1.00  0.00     0.000 C 
BRANCH   7   8
ATOM      8  C   UNL     1       0.037   7.898   7.780  1.00  0.00    -0.000 C 
BRANCH   8   9
ATOM      9  C   UNL     1       1.266   8.742   8.153  1.00  0.00    -0.003 C 
ATOM     10  C   UNL     1       2.401   8.621   7.137  1.00  0.00     0.004 C 
ENDBRANCH   8   9
ENDBRANCH   7   8
ENDBRANCH   1   7
TORSDOF 6
ENDMDL
MODEL 8
REMARK VINA RESULT:    -3.178     20.472     21.744
REMARK INTER + INTRA:          -4.605
REMARK INTER:                  -4.142
REMARK INTRA:                  -0.463
REMARK UNBOUND:                -0.312
REMARK SMILES CCCCCCCC(=O)[O-]
REMARK SMILES IDX 5 1 6 2 7 3 8 4 9 5 10 6 4 7 3 8 2 9 1 10
REMARK H PARENT
REMARK Flexibility Score: inf
ROOT
ATOM      1  C   UNL     1       2.205   8.818   7.116  1.00  0.00     0.000 C 
ENDROOT
BRANCH   1   2
ATOM      2  C   UNL     1       3.310   7.858   7.591  1.00  0.00     0.006 C 
BRANCH   2   3
ATOM      3  C   UNL     1       3.877   8.260   8.959  1.00  0.00     0.053 C 
BRANCH   3   4
ATOM      4  C   UNL     1       5.297   8.725   8.858  1.00  0.00     0.041 C 
ATOM      5  O   UNL     1       6.187   8.202   9.579  1.00  0.00    -0.550 OA
ATOM      6  O   UNL     1       5.645   9.708   7.940  1.00  0.00    -0.550 OA
ENDBRANCH   3   4
ENDBRANCH   2   3
ENDBRANCH   1   2
BRANCH   1   7
ATOM      7  C   UNL     1       0.833   8.135   7.004  1.00  0.00     0.000 C 
BRANCH   7   8
ATOM      8  C   UNL     1       0.024   8.218   8.310  1.00  0.00    -0.000 C 
BRANCH   8   9
ATOM      9  C   UNL     1      -0.395   6.835   8.832  1.00  0.00    -0.003 C 
ATOM     10  C   UNL     1       0.685   6.172   9.687  1.00  0.00     0.004 C 
ENDBRANCH   8   9
ENDBRANCH   7   8
ENDBRANCH   1   7
TORSDOF 6
ENDMDL
MODEL 9
REMARK VINA RESULT:    -3.114      1.563      2.218
REMARK INTER + INTRA:          -4.518
REMARK INTER:                  -4.423
REMARK INTRA:                  -0.095
REMARK UNBOUND:                -0.312
REMARK SMILES CCCCCCCC(=O)[O-]
REMARK SMILES IDX 5 1 6 2 7 3 8 4 9 5 10 6 4 7 3 8 2 9 1 10
REMARK H PARENT
REMARK Flexibility Score: inf
ROOT
ATOM      1  C   UNL     1      -9.943  -5.216  -2.521  1.00  0.00     0.000 C 
ENDROOT
BRANCH   1   2
ATOM      2  C   UNL     1      -9.172  -6.253  -3.357  1.00  0.00     0.006 C 
BRANCH   2   3
ATOM      3  C   UNL     1      -9.944  -6.670  -4.615  1.00  0.00     0.053 C 
BRANCH   3   4
ATOM      4  C   UNL     1      -9.386  -6.031  -5.850  1.00  0.00     0.041 C 
ATOM      5  O   UNL     1      -9.238  -4.782  -5.903  1.00  0.00    -0.550 OA
ATOM      6  O   UNL     1      -8.994  -6.817  -6.925  1.00  0.00    -0.550 OA
ENDBRANCH   3   4
ENDBRANCH   2   3
ENDBRANCH   1   2
BRANCH   1   7
ATOM      7  C   UNL     1      -9.509  -3.773  -2.817  1.00  0.00     0.000 C 
BRANCH   7   8
ATOM      8  C   UNL     1      -8.856  -3.091  -1.601  1.00  0.00    -0.000 C 
BRANCH   8   9
ATOM      9  C   UNL     1      -7.347  -2.867  -1.792  1.00  0.00    -0.003 C 
ATOM     10  C   UNL     1      -6.717  -3.866  -2.761  1.00  0.00     0.004 C 
ENDBRANCH   8   9
ENDBRANCH   7   8
ENDBRANCH   1   7
TORSDOF 6
ENDMDL
