MODEL 1
REMARK VINA RESULT:    -4.271      0.000      0.000
REMARK INTER + INTRA:          -4.986
REMARK INTER:                  -4.895
REMARK INTRA:                  -0.092
REMARK UNBOUND:                -0.092
REMARK SMILES C=Cc1ccc(O)c(OC)c1
REMARK SMILES IDX 8 1 6 2 5 3 4 4 3 5 11 6 9 7 10 8 7 9 2 11 1 12
REMARK H PARENT 7 10
REMARK Flexibility Score: inf
ROOT
ATOM      1  C   UNL     1       8.543 -29.535  17.183  1.00  0.00     0.161 A 
ATOM      2  C   UNL     1       7.606 -30.250  17.938  1.00  0.00     0.157 A 
ATOM      3  C   UNL     1       6.554 -30.920  17.301  1.00  0.00     0.051 A 
ATOM      4  C   UNL     1       6.429 -30.878  15.912  1.00  0.00     0.012 A 
ATOM      5  C   UNL     1       7.354 -30.154  15.134  1.00  0.00    -0.022 A 
ATOM      6  C   UNL     1       8.414 -29.495  15.780  1.00  0.00     0.058 A 
ENDROOT
BRANCH   1   7
ATOM      7  O   UNL     1       9.586 -28.879  17.857  1.00  0.00    -0.493 OA
ATOM      8  C   UNL     1      10.464 -27.932  17.259  1.00  0.00     0.278 C 
ENDBRANCH   1   7
BRANCH   2   9
ATOM      9  O   UNL     1       7.727 -30.293  19.327  1.00  0.00    -0.504 OA
ATOM     10  H   UNL     1       7.617 -29.463  19.895  1.00  0.00     0.293 HD
ENDBRANCH   2   9
BRANCH   5  11
ATOM     11  C   UNL     1       7.271 -30.084  13.654  1.00  0.00     0.000 C 
ATOM     12  C   UNL     1       6.206 -30.454  12.943  1.00  0.00     0.009 C 
ENDBRANCH   5  11
TORSDOF 3
ENDMDL
MODEL 2
REMARK VINA RESULT:    -4.249      1.819      3.331
REMARK INTER + INTRA:          -4.961
REMARK INTER:                  -4.864
REMARK INTRA:                  -0.098
REMARK UNBOUND:                -0.092
REMARK SMILES C=Cc1ccc(O)c(OC)c1
REMARK SMILES IDX 8 1 6 2 5 3 4 4 3 5 11 6 9 7 10 8 7 9 2 11 1 12
REMARK H PARENT 7 10
REMARK Flexibility Score: inf
ROOT
ATOM      1  C   UNL     1       7.800 -30.837  17.079  1.00  0.00     0.161 A 
ATOM      2  C   UNL     1       8.254 -30.018  18.120  1.00  0.00     0.157 A 
ATOM      3  C   UNL     1       9.182 -29.003  17.861  1.00  0.00     0.051 A 
ATOM      4  C   UNL     1       9.666 -28.802  16.567  1.00  0.00     0.012 A 
ATOM      5  C   UNL     1       9.231 -29.623  15.508  1.00  0.00    -0.022 A 
ATOM      6  C   UNL     1       8.289 -30.632  15.774  1.00  0.00     0.058 A 
ENDROOT
BRANCH   1   7
ATOM      7  O   UNL     1       6.865 -31.842  17.379  1.00  0.00    -0.493 OA
ATOM      8  C   UNL     1       7.001 -33.208  17.002  1.00  0.00     0.278 C 
ENDBRANCH   1   7
BRANCH   2   9
ATOM      9  O   UNL     1       7.774 -30.217  19.414  1.00  0.00    -0.504 OA
ATOM     10  H   UNL     1       8.132 -30.957  20.005  1.00  0.00     0.293 HD
ENDBRANCH   2   9
BRANCH   5  11
ATOM     11  C   UNL     1       9.707 -29.446  14.114  1.00  0.00     0.000 C 
ATOM     12  C   UNL     1      10.961 -29.138  13.781  1.00  0.00     0.009 C 
ENDBRANCH   5  11
TORSDOF 3
ENDMDL
MODEL 3
REMARK VINA RESULT:    -4.223      2.411      4.195
REMARK INTER + INTRA:          -4.931
REMARK INTER:                  -4.848
REMARK INTRA:                  -0.084
REMARK UNBOUND:                -0.092
REMARK SMILES C=Cc1ccc(O)c(OC)c1
REMARK SMILES IDX 8 1 6 2 5 3 4 4 3 5 11 6 9 7 10 8 7 9 2 11 1 12
REMARK H PARENT 7 10
REMARK Flexibility Score: inf
ROOT
ATOM      1  C   UNL     1       9.484 -29.351  15.289  1.00  0.00     0.161 A 
ATOM      2  C   UNL     1      10.469 -28.560  15.893  1.00  0.00     0.157 A 
ATOM      3  C   UNL     1      10.351 -28.197  17.240  1.00  0.00     0.051 A 
ATOM      4  C   UNL     1       9.251 -28.617  17.990  1.00  0.00     0.012 A 
ATOM      5  C   UNL     1       8.243 -29.403  17.398  1.00  0.00    -0.022 A 
ATOM      6  C   UNL     1       8.375 -29.773  16.049  1.00  0.00     0.058 A 
ENDROOT
BRANCH   1   7
ATOM      7  O   UNL     1       9.640 -29.696  13.936  1.00  0.00    -0.493 OA
ATOM      8  C   UNL     1       8.615 -29.595  12.955  1.00  0.00     0.278 C 
ENDBRANCH   1   7
BRANCH   2   9
ATOM      9  O   UNL     1      11.569 -28.137  15.147  1.00  0.00    -0.504 OA
ATOM     10  H   UNL     1      11.731 -27.157  14.949  1.00  0.00     0.293 HD
ENDBRANCH   2   9
BRANCH   5  11
ATOM     11  C   UNL     1       7.058 -29.883  18.152  1.00  0.00     0.000 C 
ATOM     12  C   UNL     1       5.918 -29.202  18.273  1.00  0.00     0.009 C 
ENDBRANCH   5  11
TORSDOF 3
ENDMDL
MODEL 4
REMARK VINA RESULT:    -4.191      1.939      2.772
REMARK INTER + INTRA:          -4.895
REMARK INTER:                  -4.823
REMARK INTRA:                  -0.072
REMARK UNBOUND:                -0.092
REMARK SMILES C=Cc1ccc(O)c(OC)c1
REMARK SMILES IDX 8 1 6 2 5 3 4 4 3 5 11 6 9 7 10 8 7 9 2 11 1 12
REMARK H PARENT 7 10
REMARK Flexibility Score: inf
ROOT
ATOM      1  C   UNL     1       8.181 -29.633  16.643  1.00  0.00     0.161 A 
ATOM      2  C   UNL     1       6.990 -30.080  16.057  1.00  0.00     0.157 A 
ATOM      3  C   UNL     1       6.908 -30.242  14.669  1.00  0.00     0.051 A 
ATOM      4  C   UNL     1       8.009 -29.956  13.859  1.00  0.00     0.012 A 
ATOM      5  C   UNL     1       9.212 -29.494  14.428  1.00  0.00    -0.022 A 
ATOM      6  C   UNL     1       9.290 -29.346  15.823  1.00  0.00     0.058 A 
ENDROOT
BRANCH   1   7
ATOM      7  O   UNL     1       8.225 -29.487  18.040  1.00  0.00    -0.493 OA
ATOM      8  C   UNL     1       9.287 -28.863  18.752  1.00  0.00     0.278 C 
ENDBRANCH   1   7
BRANCH   2   9
ATOM      9  O   UNL     1       5.888 -30.365  16.863  1.00  0.00    -0.504 OA
ATOM     10  H   UNL     1       5.010 -30.681  16.470  1.00  0.00     0.293 HD
ENDBRANCH   2   9
BRANCH   5  11
ATOM     11  C   UNL     1      10.413 -29.184  13.613  1.00  0.00     0.000 C 
ATOM     12  C   UNL     1      11.557 -28.714  14.110  1.00  0.00     0.009 C 
ENDBRANCH   5  11
TORSDOF 3
ENDMDL
MODEL 5
REMARK VINA RESULT:    -4.038      2.567      4.042
REMARK INTER + INTRA:          -4.720
REMARK INTER:                  -4.648
REMARK INTRA:                  -0.072
REMARK UNBOUND:                -0.092
REMARK SMILES C=Cc1ccc(O)c(OC)c1
REMARK SMILES IDX 8 1 6 2 5 3 4 4 3 5 11 6 9 7 10 8 7 9 2 11 1 12
REMARK H PARENT 7 10
REMARK Flexibility Score: inf
ROOT
ATOM      1  C   UNL     1       9.206 -29.487  14.502  1.00  0.00     0.161 A 
ATOM      2  C   UNL     1       8.023 -29.914  13.886  1.00  0.00     0.157 A 
ATOM      3  C   UNL     1       6.897 -30.217  14.661  1.00  0.00     0.051 A 
ATOM      4  C   UNL     1       6.945 -30.101  16.051  1.00  0.00     0.012 A 
ATOM      5  C   UNL     1       8.129 -29.686  16.691  1.00  0.00    -0.022 A 
ATOM      6  C   UNL     1       9.251 -29.371  15.905  1.00  0.00     0.058 A 
ENDROOT
BRANCH   1   7
ATOM      7  O   UNL     1      10.312 -29.188  13.690  1.00  0.00    -0.493 OA
ATOM      8  C   UNL     1      11.548 -28.671  14.170  1.00  0.00     0.278 C 
ENDBRANCH   1   7
BRANCH   2   9
ATOM      9  O   UNL     1       7.971 -30.032  12.497  1.00  0.00    -0.504 OA
ATOM     10  H   UNL     1       8.481 -30.758  12.007  1.00  0.00     0.293 HD
ENDBRANCH   2   9
BRANCH   5  11
ATOM     11  C   UNL     1       8.231 -29.538  18.164  1.00  0.00     0.000 C 
ATOM     12  C   UNL     1       9.082 -28.717  18.780  1.00  0.00     0.009 C 
ENDBRANCH   5  11
TORSDOF 3
ENDMDL
MODEL 6
REMARK VINA RESULT:    -4.036      1.787      3.176
REMARK INTER + INTRA:          -4.718
REMARK INTER:                  -4.625
REMARK INTRA:                  -0.092
REMARK UNBOUND:                -0.092
REMARK SMILES C=Cc1ccc(O)c(OC)c1
REMARK SMILES IDX 8 1 6 2 5 3 4 4 3 5 11 6 9 7 10 8 7 9 2 11 1 12
REMARK H PARENT 7 10
REMARK Flexibility Score: inf
ROOT
ATOM      1  C   UNL     1       9.390 -29.132  15.796  1.00  0.00     0.161 A 
ATOM      2  C   UNL     1      10.360 -28.921  14.809  1.00  0.00     0.157 A 
ATOM      3  C   UNL     1      10.097 -29.271  13.479  1.00  0.00     0.051 A 
ATOM      4  C   UNL     1       8.869 -29.834  13.127  1.00  0.00     0.012 A 
ATOM      5  C   UNL     1       7.884 -30.066  14.108  1.00  0.00    -0.022 A 
ATOM      6  C   UNL     1       8.151 -29.701  15.438  1.00  0.00     0.058 A 
ENDROOT
BRANCH   1   7
ATOM      7  O   UNL     1       9.691 -28.765  17.119  1.00  0.00    -0.493 OA
ATOM      8  C   UNL     1       8.954 -29.189  18.260  1.00  0.00     0.278 C 
ENDBRANCH   1   7
BRANCH   2   9
ATOM      9  O   UNL     1      11.588 -28.360  15.157  1.00  0.00    -0.504 OA
ATOM     10  H   UNL     1      12.464 -28.775  14.863  1.00  0.00     0.293 HD
ENDBRANCH   2   9
BRANCH   5  11
ATOM     11  C   UNL     1       6.560 -30.654  13.786  1.00  0.00     0.000 C 
ATOM     12  C   UNL     1       6.165 -30.989  12.557  1.00  0.00     0.009 C 
ENDBRANCH   5  11
TORSDOF 3
ENDMDL
MODEL 7
REMARK VINA RESULT:    -4.012      2.004      3.280
REMARK INTER + INTRA:          -4.690
REMARK INTER:                  -4.591
REMARK INTRA:                  -0.100
REMARK UNBOUND:                -0.092
REMARK SMILES C=Cc1ccc(O)c(OC)c1
REMARK SMILES IDX 8 1 6 2 5 3 4 4 3 5 11 6 9 7 10 8 7 9 2 11 1 12
REMARK H PARENT 7 10
REMARK Flexibility Score: inf
ROOT
ATOM      1  C   UNL     1       8.959 -29.675  15.489  1.00  0.00     0.161 A 
ATOM      2  C   UNL     1       9.235 -29.004  16.687  1.00  0.00     0.157 A 
ATOM      3  C   UNL     1       8.661 -29.441  17.886  1.00  0.00     0.051 A 
ATOM      4  C   UNL     1       7.807 -30.546  17.899  1.00  0.00     0.012 A 
ATOM      5  C   UNL     1       7.507 -31.228  16.703  1.00  0.00    -0.022 A 
ATOM      6  C   UNL     1       8.097 -30.790  15.505  1.00  0.00     0.058 A 
ENDROOT
BRANCH   1   7
ATOM      7  O   UNL     1       9.557 -29.208  14.307  1.00  0.00    -0.493 OA
ATOM      8  C   UNL     1      10.623 -29.865  13.629  1.00  0.00     0.278 C 
ENDBRANCH   1   7
BRANCH   2   9
ATOM      9  O   UNL     1      10.086 -27.899  16.678  1.00  0.00    -0.504 OA
ATOM     10  H   UNL     1       9.973 -27.147  16.010  1.00  0.00     0.293 HD
ENDBRANCH   2   9
BRANCH   5  11
ATOM     11  C   UNL     1       6.613 -32.412  16.662  1.00  0.00     0.000 C 
ATOM     12  C   UNL     1       6.931 -33.610  17.154  1.00  0.00     0.009 C 
ENDBRANCH   5  11
TORSDOF 3
ENDMDL
MODEL 8
REMARK VINA RESULT:    -3.881      1.841      3.036
REMARK INTER + INTRA:          -4.540
REMARK INTER:                  -4.459
REMARK INTRA:                  -0.082
REMARK UNBOUND:                -0.092
REMARK SMILES C=Cc1ccc(O)c(OC)c1
REMARK SMILES IDX 8 1 6 2 5 3 4 4 3 5 11 6 9 7 10 8 7 9 2 11 1 12
REMARK H PARENT 7 10
REMARK Flexibility Score: inf
ROOT
ATOM      1  C   UNL     1       8.228 -29.863  17.379  1.00  0.00     0.161 A 
ATOM      2  C   UNL     1       8.837 -29.630  16.140  1.00  0.00     0.157 A 
ATOM      3  C   UNL     1       8.778 -30.602  15.134  1.00  0.00     0.051 A 
ATOM      4  C   UNL     1       8.116 -31.811  15.358  1.00  0.00     0.012 A 
ATOM      5  C   UNL     1       7.508 -32.070  16.602  1.00  0.00    -0.022 A 
ATOM      6  C   UNL     1       7.560 -31.084  17.602  1.00  0.00     0.058 A 
ENDROOT
BRANCH   1   7
ATOM      7  O   UNL     1       8.305 -28.862  18.361  1.00  0.00    -0.493 OA
ATOM      8  C   UNL     1       9.348 -28.756  19.324  1.00  0.00     0.278 C 
ENDBRANCH   1   7
BRANCH   2   9
ATOM      9  O   UNL     1       9.500 -28.425  15.913  1.00  0.00    -0.504 OA
ATOM     10  H   UNL     1       9.994 -28.245  15.047  1.00  0.00     0.293 HD
ENDBRANCH   2   9
BRANCH   5  11
ATOM     11  C   UNL     1       6.785 -33.334  16.889  1.00  0.00     0.000 C 
ATOM     12  C   UNL     1       6.156 -34.066  15.968  1.00  0.00     0.009 C 
ENDBRANCH   5  11
TORSDOF 3
ENDMDL
MODEL 9
REMARK VINA RESULT:    -3.792      2.523      3.926
REMARK INTER + INTRA:          -4.438
REMARK INTER:                  -4.355
REMARK INTRA:                  -0.083
REMARK UNBOUND:                -0.092
REMARK SMILES C=Cc1ccc(O)c(OC)c1
REMARK SMILES IDX 8 1 6 2 5 3 4 4 3 5 11 6 9 7 10 8 7 9 2 11 1 12
REMARK H PARENT 7 10
REMARK Flexibility Score: inf
ROOT
ATOM      1  C   UNL     1       9.022 -29.513  15.592  1.00  0.00     0.161 A 
ATOM      2  C   UNL     1      10.019 -28.658  16.077  1.00  0.00     0.157 A 
ATOM      3  C   UNL     1      11.139 -28.368  15.289  1.00  0.00     0.051 A 
ATOM      4  C   UNL     1      11.273 -28.929  14.018  1.00  0.00     0.012 A 
ATOM      5  C   UNL     1      10.287 -29.801  13.517  1.00  0.00    -0.022 A 
ATOM      6  C   UNL     1       9.160 -30.078  14.309  1.00  0.00     0.058 A 
ENDROOT
BRANCH   1   7
ATOM      7  O   UNL     1       7.911 -29.777  16.411  1.00  0.00    -0.493 OA
ATOM      8  C   UNL     1       6.570 -29.874  15.944  1.00  0.00     0.278 C 
ENDBRANCH   1   7
BRANCH   2   9
ATOM      9  O   UNL     1       9.890 -28.097  17.347  1.00  0.00    -0.504 OA
ATOM     10  H   UNL     1       9.251 -27.332  17.526  1.00  0.00     0.293 HD
ENDBRANCH   2   9
BRANCH   5  11
ATOM     11  C   UNL     1      10.377 -30.418  12.170  1.00  0.00     0.000 C 
ATOM     12  C   UNL     1      11.120 -31.487  11.881  1.00  0.00     0.009 C 
ENDBRANCH   5  11
TORSDOF 3
ENDMDL
