MODEL 1
REMARK VINA RESULT:    -6.029      0.000      0.000
REMARK INTER + INTRA:          -8.148
REMARK INTER:                  -7.615
REMARK INTRA:                  -0.532
REMARK UNBOUND:                -0.532
REMARK SMILES Oc1ccc(CCc2cc(O)cc(O)c2)cc1
REMARK SMILES IDX 6 1 5 2 4 3 3 4 2 5 16 6 17 7 1 8 7 10 8 11 15 12 9 13 13 14
REMARK SMILES IDX 10 15 12 16 14 17 11 19
REMARK H PARENT 1 9 14 18 11 20
REMARK Flexibility Score: inf
ROOT
ATOM      1  C   UNL     1      19.509  27.398  32.119  1.00  0.00     0.040 C 
ENDROOT
BRANCH   1   2
ATOM      2  C   UNL     1      18.727  28.401  32.923  1.00  0.00    -0.047 A 
ATOM      3  C   UNL     1      18.705  28.323  34.325  1.00  0.00     0.007 A 
ATOM      4  C   UNL     1      17.952  29.235  35.070  1.00  0.00     0.046 A 
ATOM      5  C   UNL     1      17.205  30.228  34.421  1.00  0.00     0.115 A 
ATOM      6  C   UNL     1      17.966  29.389  32.277  1.00  0.00     0.007 A 
ATOM      7  C   UNL     1      17.214  30.300  33.024  1.00  0.00     0.046 A 
BRANCH   5   8
ATOM      8  O   UNL     1      16.451  31.142  35.153  1.00  0.00    -0.508 OA
ATOM      9  H   UNL     1      16.623  31.301  36.139  1.00  0.00     0.293 HD
ENDBRANCH   5   8
ENDBRANCH   1   2
BRANCH   1  10
ATOM     10  C   UNL     1      19.960  28.007  30.789  1.00  0.00     0.040 C 
BRANCH  10  11
ATOM     11  C   UNL     1      19.384  27.236  29.632  1.00  0.00    -0.040 A 
ATOM     12  C   UNL     1      18.327  27.773  28.879  1.00  0.00     0.050 A 
ATOM     13  C   UNL     1      19.935  25.998  29.261  1.00  0.00     0.050 A 
ATOM     14  C   UNL     1      17.811  27.073  27.783  1.00  0.00     0.119 A 
ATOM     15  C   UNL     1      19.421  25.295  28.163  1.00  0.00     0.119 A 
ATOM     16  C   UNL     1      18.358  25.831  27.429  1.00  0.00     0.092 A 
BRANCH  14  17
ATOM     17  O   UNL     1      16.758  27.618  27.052  1.00  0.00    -0.508 OA
ATOM     18  H   UNL     1      16.542  27.298  26.116  1.00  0.00     0.293 HD
ENDBRANCH  14  17
BRANCH  15  19
ATOM     19  O   UNL     1      19.958  24.064  27.794  1.00  0.00    -0.508 OA
ATOM     20  H   UNL     1      20.500  23.956  26.945  1.00  0.00     0.293 HD
ENDBRANCH  15  19
ENDBRANCH  10  11
ENDBRANCH   1  10
TORSDOF 6
ENDMDL
MODEL 2
REMARK VINA RESULT:    -6.018      0.046      2.035
REMARK INTER + INTRA:          -8.133
REMARK INTER:                  -7.595
REMARK INTRA:                  -0.538
REMARK UNBOUND:                -0.532
REMARK SMILES Oc1ccc(CCc2cc(O)cc(O)c2)cc1
REMARK SMILES IDX 6 1 5 2 4 3 3 4 2 5 16 6 17 7 1 8 7 10 8 11 15 12 9 13 13 14
REMARK SMILES IDX 10 15 12 16 14 17 11 19
REMARK H PARENT 1 9 14 18 11 20
REMARK Flexibility Score: inf
ROOT
ATOM      1  C   UNL     1      19.498  27.381  32.084  1.00  0.00     0.040 C 
ENDROOT
BRANCH   1   2
ATOM      2  C   UNL     1      18.735  28.381  32.910  1.00  0.00    -0.047 A 
ATOM      3  C   UNL     1      18.728  28.283  34.311  1.00  0.00     0.007 A 
ATOM      4  C   UNL     1      17.992  29.191  35.078  1.00  0.00     0.046 A 
ATOM      5  C   UNL     1      17.247  30.199  34.451  1.00  0.00     0.115 A 
ATOM      6  C   UNL     1      17.976  29.384  32.287  1.00  0.00     0.007 A 
ATOM      7  C   UNL     1      17.241  30.291  33.056  1.00  0.00     0.046 A 
BRANCH   5   8
ATOM      8  O   UNL     1      16.509  31.110  35.204  1.00  0.00    -0.508 OA
ATOM      9  H   UNL     1      16.826  31.423  36.114  1.00  0.00     0.293 HD
ENDBRANCH   5   8
ENDBRANCH   1   2
BRANCH   1  10
ATOM     10  C   UNL     1      19.980  28.019  30.778  1.00  0.00     0.040 C 
BRANCH  10  11
ATOM     11  C   UNL     1      19.429  27.274  29.591  1.00  0.00    -0.040 A 
ATOM     12  C   UNL     1      19.965  26.029  29.225  1.00  0.00     0.050 A 
ATOM     13  C   UNL     1      18.336  27.792  28.876  1.00  0.00     0.050 A 
ATOM     14  C   UNL     1      19.433  25.321  28.142  1.00  0.00     0.119 A 
ATOM     15  C   UNL     1      17.801  27.084  27.792  1.00  0.00     0.119 A 
ATOM     16  C   UNL     1      18.353  25.852  27.425  1.00  0.00     0.092 A 
BRANCH  14  17
ATOM     17  O   UNL     1      19.983  24.090  27.789  1.00  0.00    -0.508 OA
ATOM     18  H   UNL     1      20.903  24.022  27.371  1.00  0.00     0.293 HD
ENDBRANCH  14  17
BRANCH  15  19
ATOM     19  O   UNL     1      16.722  27.594  27.073  1.00  0.00    -0.508 OA
ATOM     20  H   UNL     1      16.800  27.817  26.088  1.00  0.00     0.293 HD
ENDBRANCH  15  19
ENDBRANCH  10  11
ENDBRANCH   1  10
TORSDOF 6
ENDMDL
MODEL 3
REMARK VINA RESULT:    -5.755      1.991      6.674
REMARK INTER + INTRA:          -7.801
REMARK INTER:                  -7.292
REMARK INTRA:                  -0.509
REMARK UNBOUND:                -0.532
REMARK SMILES Oc1ccc(CCc2cc(O)cc(O)c2)cc1
REMARK SMILES IDX 6 1 5 2 4 3 3 4 2 5 16 6 17 7 1 8 7 10 8 11 15 12 9 13 13 14
REMARK SMILES IDX 10 15 12 16 14 17 11 19
REMARK H PARENT 1 9 14 18 11 20
REMARK Flexibility Score: inf
ROOT
ATOM      1  C   UNL     1      18.517  29.991  30.940  1.00  0.00     0.040 C 
ENDROOT
BRANCH   1   2
ATOM      2  C   UNL     1      18.341  29.099  29.741  1.00  0.00    -0.047 A 
ATOM      3  C   UNL     1      18.333  29.645  28.447  1.00  0.00     0.007 A 
ATOM      4  C   UNL     1      18.136  28.821  27.335  1.00  0.00     0.046 A 
ATOM      5  C   UNL     1      17.933  27.445  27.506  1.00  0.00     0.115 A 
ATOM      6  C   UNL     1      18.123  27.722  29.907  1.00  0.00     0.007 A 
ATOM      7  C   UNL     1      17.926  26.900  28.795  1.00  0.00     0.046 A 
BRANCH   5   8
ATOM      8  O   UNL     1      17.735  26.613  26.407  1.00  0.00    -0.508 OA
ATOM      9  H   UNL     1      17.746  25.604  26.498  1.00  0.00     0.293 HD
ENDBRANCH   5   8
ENDBRANCH   1   2
BRANCH   1  10
ATOM     10  C   UNL     1      17.504  29.635  32.031  1.00  0.00     0.040 C 
BRANCH  10  11
ATOM     11  C   UNL     1      18.209  29.304  33.319  1.00  0.00    -0.040 A 
ATOM     12  C   UNL     1      18.136  30.183  34.412  1.00  0.00     0.050 A 
ATOM     13  C   UNL     1      18.898  28.088  33.457  1.00  0.00     0.050 A 
ATOM     14  C   UNL     1      18.763  29.862  35.621  1.00  0.00     0.119 A 
ATOM     15  C   UNL     1      19.527  27.764  34.667  1.00  0.00     0.119 A 
ATOM     16  C   UNL     1      19.462  28.653  35.745  1.00  0.00     0.092 A 
BRANCH  14  17
ATOM     17  O   UNL     1      18.685  30.749  36.692  1.00  0.00    -0.508 OA
ATOM     18  H   UNL     1      18.416  31.716  36.560  1.00  0.00     0.293 HD
ENDBRANCH  14  17
BRANCH  15  19
ATOM     19  O   UNL     1      20.219  26.563  34.808  1.00  0.00    -0.508 OA
ATOM     20  H   UNL     1      20.919  26.273  34.136  1.00  0.00     0.293 HD
ENDBRANCH  15  19
ENDBRANCH  10  11
ENDBRANCH   1  10
TORSDOF 6
ENDMDL
MODEL 4
REMARK VINA RESULT:    -5.737      2.097      6.784
REMARK INTER + INTRA:          -7.779
REMARK INTER:                  -7.316
REMARK INTRA:                  -0.463
REMARK UNBOUND:                -0.532
REMARK SMILES Oc1ccc(CCc2cc(O)cc(O)c2)cc1
REMARK SMILES IDX 6 1 5 2 4 3 3 4 2 5 16 6 17 7 1 8 7 10 8 11 15 12 9 13 13 14
REMARK SMILES IDX 10 15 12 16 14 17 11 19
REMARK H PARENT 1 9 14 18 11 20
REMARK Flexibility Score: inf
ROOT
ATOM      1  C   UNL     1      18.588  29.898  30.899  1.00  0.00     0.040 C 
ENDROOT
BRANCH   1   2
ATOM      2  C   UNL     1      18.379  29.031  29.686  1.00  0.00    -0.047 A 
ATOM      3  C   UNL     1      18.386  29.597  28.401  1.00  0.00     0.007 A 
ATOM      4  C   UNL     1      18.159  28.797  27.277  1.00  0.00     0.046 A 
ATOM      5  C   UNL     1      17.913  27.426  27.428  1.00  0.00     0.115 A 
ATOM      6  C   UNL     1      18.118  27.659  29.832  1.00  0.00     0.007 A 
ATOM      7  C   UNL     1      17.891  26.861  28.707  1.00  0.00     0.046 A 
BRANCH   5   8
ATOM      8  O   UNL     1      17.685  26.618  26.316  1.00  0.00    -0.508 OA
ATOM      9  H   UNL     1      18.049  26.861  25.402  1.00  0.00     0.293 HD
ENDBRANCH   5   8
ENDBRANCH   1   2
BRANCH   1  10
ATOM     10  C   UNL     1      17.589  29.534  32.000  1.00  0.00     0.040 C 
BRANCH  10  11
ATOM     11  C   UNL     1      18.311  29.064  33.234  1.00  0.00    -0.040 A 
ATOM     12  C   UNL     1      19.035  27.861  33.216  1.00  0.00     0.050 A 
ATOM     13  C   UNL     1      18.313  29.853  34.397  1.00  0.00     0.050 A 
ATOM     14  C   UNL     1      19.733  27.439  34.352  1.00  0.00     0.119 A 
ATOM     15  C   UNL     1      19.012  29.432  35.536  1.00  0.00     0.119 A 
ATOM     16  C   UNL     1      19.717  28.225  35.513  1.00  0.00     0.092 A 
BRANCH  14  17
ATOM     17  O   UNL     1      20.441  26.239  34.318  1.00  0.00    -0.508 OA
ATOM     18  H   UNL     1      21.398  26.198  33.991  1.00  0.00     0.293 HD
ENDBRANCH  14  17
BRANCH  15  19
ATOM     19  O   UNL     1      19.012  30.205  36.695  1.00  0.00    -0.508 OA
ATOM     20  H   UNL     1      18.800  31.195  36.671  1.00  0.00     0.293 HD
ENDBRANCH  15  19
ENDBRANCH  10  11
ENDBRANCH   1  10
TORSDOF 6
ENDMDL
MODEL 5
REMARK VINA RESULT:    -5.737      1.999      6.800
REMARK INTER + INTRA:          -7.778
REMARK INTER:                  -7.361
REMARK INTRA:                  -0.417
REMARK UNBOUND:                -0.532
REMARK SMILES Oc1ccc(CCc2cc(O)cc(O)c2)cc1
REMARK SMILES IDX 6 1 5 2 4 3 3 4 2 5 16 6 17 7 1 8 7 10 8 11 15 12 9 13 13 14
REMARK SMILES IDX 10 15 12 16 14 17 11 19
REMARK H PARENT 1 9 14 18 11 20
REMARK Flexibility Score: inf
ROOT
ATOM      1  C   UNL     1      17.986  28.107  30.131  1.00  0.00     0.040 C 
ENDROOT
BRANCH   1   2
ATOM      2  C   UNL     1      18.481  28.203  28.713  1.00  0.00    -0.047 A 
ATOM      3  C   UNL     1      18.152  27.206  27.780  1.00  0.00     0.007 A 
ATOM      4  C   UNL     1      18.640  27.278  26.471  1.00  0.00     0.046 A 
ATOM      5  C   UNL     1      19.469  28.340  26.087  1.00  0.00     0.115 A 
ATOM      6  C   UNL     1      19.324  29.257  28.326  1.00  0.00     0.007 A 
ATOM      7  C   UNL     1      19.810  29.326  27.018  1.00  0.00     0.046 A 
BRANCH   5   8
ATOM      8  O   UNL     1      19.962  28.422  24.786  1.00  0.00    -0.508 OA
ATOM      9  H   UNL     1      19.937  29.291  24.265  1.00  0.00     0.293 HD
ENDBRANCH   5   8
ENDBRANCH   1   2
BRANCH   1  10
ATOM     10  C   UNL     1      17.991  29.485  30.798  1.00  0.00     0.040 C 
BRANCH  10  11
ATOM     11  C   UNL     1      18.046  29.348  32.296  1.00  0.00    -0.040 A 
ATOM     12  C   UNL     1      17.273  30.189  33.113  1.00  0.00     0.050 A 
ATOM     13  C   UNL     1      18.826  28.340  32.886  1.00  0.00     0.050 A 
ATOM     14  C   UNL     1      17.297  30.042  34.503  1.00  0.00     0.119 A 
ATOM     15  C   UNL     1      18.852  28.191  34.280  1.00  0.00     0.119 A 
ATOM     16  C   UNL     1      18.091  29.043  35.085  1.00  0.00     0.092 A 
BRANCH  14  17
ATOM     17  O   UNL     1      16.528  30.890  35.298  1.00  0.00    -0.508 OA
ATOM     18  H   UNL     1      16.177  31.771  34.946  1.00  0.00     0.293 HD
ENDBRANCH  14  17
BRANCH  15  19
ATOM     19  O   UNL     1      19.630  27.199  34.873  1.00  0.00    -0.508 OA
ATOM     20  H   UNL     1      20.641  27.253  34.881  1.00  0.00     0.293 HD
ENDBRANCH  15  19
ENDBRANCH  10  11
ENDBRANCH   1  10
TORSDOF 6
ENDMDL
MODEL 6
REMARK VINA RESULT:    -5.709      2.002      7.113
REMARK INTER + INTRA:          -7.743
REMARK INTER:                  -7.336
REMARK INTRA:                  -0.407
REMARK UNBOUND:                -0.532
REMARK SMILES Oc1ccc(CCc2cc(O)cc(O)c2)cc1
REMARK SMILES IDX 6 1 5 2 4 3 3 4 2 5 16 6 17 7 1 8 7 10 8 11 15 12 9 13 13 14
REMARK SMILES IDX 10 15 12 16 14 17 11 19
REMARK H PARENT 1 9 14 18 11 20
REMARK Flexibility Score: inf
ROOT
ATOM      1  C   UNL     1      17.974  28.159  30.155  1.00  0.00     0.040 C 
ENDROOT
BRANCH   1   2
ATOM      2  C   UNL     1      18.464  28.258  28.736  1.00  0.00    -0.047 A 
ATOM      3  C   UNL     1      18.228  27.210  27.831  1.00  0.00     0.007 A 
ATOM      4  C   UNL     1      18.712  27.287  26.521  1.00  0.00     0.046 A 
ATOM      5  C   UNL     1      19.446  28.407  26.107  1.00  0.00     0.115 A 
ATOM      6  C   UNL     1      19.211  29.371  28.320  1.00  0.00     0.007 A 
ATOM      7  C   UNL     1      19.695  29.446  27.010  1.00  0.00     0.046 A 
BRANCH   5   8
ATOM      8  O   UNL     1      19.934  28.496  24.806  1.00  0.00    -0.508 OA
ATOM      9  H   UNL     1      19.398  28.940  24.069  1.00  0.00     0.293 HD
ENDBRANCH   5   8
ENDBRANCH   1   2
BRANCH   1  10
ATOM     10  C   UNL     1      17.976  29.537  30.823  1.00  0.00     0.040 C 
BRANCH  10  11
ATOM     11  C   UNL     1      17.941  29.398  32.322  1.00  0.00    -0.040 A 
ATOM     12  C   UNL     1      18.722  28.422  32.961  1.00  0.00     0.050 A 
ATOM     13  C   UNL     1      17.170  30.280  33.097  1.00  0.00     0.050 A 
ATOM     14  C   UNL     1      18.716  28.312  34.355  1.00  0.00     0.119 A 
ATOM     15  C   UNL     1      17.161  30.172  34.494  1.00  0.00     0.119 A 
ATOM     16  C   UNL     1      17.931  29.186  35.120  1.00  0.00     0.092 A 
BRANCH  14  17
ATOM     17  O   UNL     1      19.493  27.333  34.972  1.00  0.00    -0.508 OA
ATOM     18  H   UNL     1      19.891  26.565  34.446  1.00  0.00     0.293 HD
ENDBRANCH  14  17
BRANCH  15  19
ATOM     19  O   UNL     1      16.394  31.038  35.268  1.00  0.00    -0.508 OA
ATOM     20  H   UNL     1      15.678  30.693  35.897  1.00  0.00     0.293 HD
ENDBRANCH  15  19
ENDBRANCH  10  11
ENDBRANCH   1  10
TORSDOF 6
ENDMDL
MODEL 7
REMARK VINA RESULT:    -5.660      2.962      4.898
REMARK INTER + INTRA:          -7.682
REMARK INTER:                  -7.170
REMARK INTRA:                  -0.512
REMARK UNBOUND:                -0.532
REMARK SMILES Oc1ccc(CCc2cc(O)cc(O)c2)cc1
REMARK SMILES IDX 6 1 5 2 4 3 3 4 2 5 16 6 17 7 1 8 7 10 8 11 15 12 9 13 13 14
REMARK SMILES IDX 10 15 12 16 14 17 11 19
REMARK H PARENT 1 9 14 18 11 20
REMARK Flexibility Score: inf
ROOT
ATOM      1  C   UNL     1      16.701  29.666  34.794  1.00  0.00     0.040 C 
ENDROOT
BRANCH   1   2
ATOM      2  C   UNL     1      16.483  31.155  34.847  1.00  0.00    -0.047 A 
ATOM      3  C   UNL     1      16.241  31.792  36.074  1.00  0.00     0.007 A 
ATOM      4  C   UNL     1      16.007  33.170  36.119  1.00  0.00     0.046 A 
ATOM      5  C   UNL     1      16.000  33.921  34.936  1.00  0.00     0.115 A 
ATOM      6  C   UNL     1      16.462  31.910  33.663  1.00  0.00     0.007 A 
ATOM      7  C   UNL     1      16.226  33.287  33.710  1.00  0.00     0.046 A 
BRANCH   5   8
ATOM      8  O   UNL     1      15.766  35.294  34.967  1.00  0.00    -0.508 OA
ATOM      9  H   UNL     1      14.873  35.672  35.261  1.00  0.00     0.293 HD
ENDBRANCH   5   8
ENDBRANCH   1   2
BRANCH   1  10
ATOM     10  C   UNL     1      18.145  29.319  35.167  1.00  0.00     0.040 C 
BRANCH  10  11
ATOM     11  C   UNL     1      18.782  28.482  34.091  1.00  0.00    -0.040 A 
ATOM     12  C   UNL     1      19.578  27.377  34.432  1.00  0.00     0.050 A 
ATOM     13  C   UNL     1      18.539  28.766  32.737  1.00  0.00     0.050 A 
ATOM     14  C   UNL     1      20.145  26.578  33.433  1.00  0.00     0.119 A 
ATOM     15  C   UNL     1      19.106  27.967  31.734  1.00  0.00     0.119 A 
ATOM     16  C   UNL     1      19.910  26.878  32.084  1.00  0.00     0.092 A 
BRANCH  14  17
ATOM     17  O   UNL     1      20.937  25.489  33.790  1.00  0.00    -0.508 OA
ATOM     18  H   UNL     1      20.864  24.601  33.310  1.00  0.00     0.293 HD
ENDBRANCH  14  17
BRANCH  15  19
ATOM     19  O   UNL     1      18.877  28.247  30.389  1.00  0.00    -0.508 OA
ATOM     20  H   UNL     1      19.542  28.775  29.837  1.00  0.00     0.293 HD
ENDBRANCH  15  19
ENDBRANCH  10  11
ENDBRANCH   1  10
TORSDOF 6
ENDMDL
MODEL 8
REMARK VINA RESULT:    -5.650      2.500      8.041
REMARK INTER + INTRA:          -7.669
REMARK INTER:                  -7.266
REMARK INTRA:                  -0.403
REMARK UNBOUND:                -0.532
REMARK SMILES Oc1ccc(CCc2cc(O)cc(O)c2)cc1
REMARK SMILES IDX 6 1 5 2 4 3 3 4 2 5 16 6 17 7 1 8 7 10 8 11 15 12 9 13 13 14
REMARK SMILES IDX 10 15 12 16 14 17 11 19
REMARK H PARENT 1 9 14 18 11 20
REMARK Flexibility Score: inf
ROOT
ATOM      1  C   UNL     1      18.209  30.951  32.347  1.00  0.00     0.040 C 
ENDROOT
BRANCH   1   2
ATOM      2  C   UNL     1      18.218  30.254  31.013  1.00  0.00    -0.047 A 
ATOM      3  C   UNL     1      18.058  28.860  30.942  1.00  0.00     0.007 A 
ATOM      4  C   UNL     1      18.100  28.208  29.706  1.00  0.00     0.046 A 
ATOM      5  C   UNL     1      18.314  28.941  28.531  1.00  0.00     0.115 A 
ATOM      6  C   UNL     1      18.446  30.981  29.834  1.00  0.00     0.007 A 
ATOM      7  C   UNL     1      18.488  30.327  28.600  1.00  0.00     0.046 A 
BRANCH   5   8
ATOM      8  O   UNL     1      18.358  28.303  27.293  1.00  0.00    -0.508 OA
ATOM      9  H   UNL     1      18.177  27.310  27.203  1.00  0.00     0.293 HD
ENDBRANCH   5   8
ENDBRANCH   1   2
BRANCH   1  10
ATOM     10  C   UNL     1      17.018  30.486  33.190  1.00  0.00     0.040 C 
BRANCH  10  11
ATOM     11  C   UNL     1      16.584  31.573  34.136  1.00  0.00    -0.040 A 
ATOM     12  C   UNL     1      16.595  31.351  35.522  1.00  0.00     0.050 A 
ATOM     13  C   UNL     1      16.219  32.837  33.643  1.00  0.00     0.050 A 
ATOM     14  C   UNL     1      16.223  32.370  36.405  1.00  0.00     0.119 A 
ATOM     15  C   UNL     1      15.845  33.860  34.525  1.00  0.00     0.119 A 
ATOM     16  C   UNL     1      15.844  33.624  35.904  1.00  0.00     0.092 A 
BRANCH  14  17
ATOM     17  O   UNL     1      16.233  32.129  37.778  1.00  0.00    -0.508 OA
ATOM     18  H   UNL     1      16.457  31.216  38.153  1.00  0.00     0.293 HD
ENDBRANCH  14  17
BRANCH  15  19
ATOM     19  O   UNL     1      15.474  35.113  34.043  1.00  0.00    -0.508 OA
ATOM     20  H   UNL     1      15.637  35.956  34.580  1.00  0.00     0.293 HD
ENDBRANCH  15  19
ENDBRANCH  10  11
ENDBRANCH   1  10
TORSDOF 6
ENDMDL
MODEL 9
REMARK VINA RESULT:    -5.639      2.527      7.961
REMARK INTER + INTRA:          -7.655
REMARK INTER:                  -7.268
REMARK INTRA:                  -0.388
REMARK UNBOUND:                -0.532
REMARK SMILES Oc1ccc(CCc2cc(O)cc(O)c2)cc1
REMARK SMILES IDX 6 1 5 2 4 3 3 4 2 5 16 6 17 7 1 8 7 10 8 11 15 12 9 13 13 14
REMARK SMILES IDX 10 15 12 16 14 17 11 19
REMARK H PARENT 1 9 14 18 11 20
REMARK Flexibility Score: inf
ROOT
ATOM      1  C   UNL     1      18.187  31.067  32.297  1.00  0.00     0.040 C 
ENDROOT
BRANCH   1   2
ATOM      2  C   UNL     1      18.255  30.287  31.012  1.00  0.00    -0.047 A 
ATOM      3  C   UNL     1      18.451  30.951  29.790  1.00  0.00     0.007 A 
ATOM      4  C   UNL     1      18.481  30.230  28.593  1.00  0.00     0.046 A 
ATOM      5  C   UNL     1      18.305  28.840  28.604  1.00  0.00     0.115 A 
ATOM      6  C   UNL     1      18.065  28.896  31.016  1.00  0.00     0.007 A 
ATOM      7  C   UNL     1      18.095  28.177  29.818  1.00  0.00     0.046 A 
BRANCH   5   8
ATOM      8  O   UNL     1      18.332  28.110  27.418  1.00  0.00    -0.508 OA
ATOM      9  H   UNL     1      17.606  28.210  26.718  1.00  0.00     0.293 HD
ENDBRANCH   5   8
ENDBRANCH   1   2
BRANCH   1  10
ATOM     10  C   UNL     1      16.994  30.611  33.142  1.00  0.00     0.040 C 
BRANCH  10  11
ATOM     11  C   UNL     1      16.604  31.681  34.127  1.00  0.00    -0.040 A 
ATOM     12  C   UNL     1      16.191  32.944  33.673  1.00  0.00     0.050 A 
ATOM     13  C   UNL     1      16.595  31.406  35.504  1.00  0.00     0.050 A 
ATOM     14  C   UNL     1      15.797  33.929  34.585  1.00  0.00     0.119 A 
ATOM     15  C   UNL     1      16.201  32.391  36.420  1.00  0.00     0.119 A 
ATOM     16  C   UNL     1      15.806  33.651  35.959  1.00  0.00     0.092 A 
BRANCH  14  17
ATOM     17  O   UNL     1      15.396  35.179  34.117  1.00  0.00    -0.508 OA
ATOM     18  H   UNL     1      16.071  35.889  33.860  1.00  0.00     0.293 HD
ENDBRANCH  14  17
BRANCH  15  19
ATOM     19  O   UNL     1      16.197  32.128  37.787  1.00  0.00    -0.508 OA
ATOM     20  H   UNL     1      15.385  31.737  38.249  1.00  0.00     0.293 HD
ENDBRANCH  15  19
ENDBRANCH  10  11
ENDBRANCH   1  10
TORSDOF 6
ENDMDL
