MODEL 1
REMARK VINA RESULT:    -5.139      0.000      0.000
REMARK INTER + INTRA:          -7.037
REMARK INTER:                  -6.641
REMARK INTRA:                  -0.396
REMARK UNBOUND:                -0.396
REMARK SMILES CO[C@@]1(CO)O[C@@H](CO)[C@H](O)[C@@H]1O
REMARK SMILES IDX 3 1 12 2 10 3 7 4 6 5 2 6 1 7 4 8 5 9 13 11 11 13 8 15 9 16
REMARK H PARENT 5 10 13 12 11 14 9 17
REMARK Flexibility Score: inf
ROOT
ATOM      1  C   UNL     1      33.520 -39.352  -4.563  1.00  0.00     0.221 C 
ATOM      2  C   UNL     1      34.607 -39.666  -3.507  1.00  0.00     0.207 C 
ATOM      3  C   UNL     1      35.718 -40.341  -4.291  1.00  0.00     0.180 C 
ATOM      4  C   UNL     1      35.328 -40.116  -5.758  1.00  0.00     0.179 C 
ATOM      5  O   UNL     1      34.172 -39.308  -5.816  1.00  0.00    -0.337 OA
ENDROOT
BRANCH   1   6
ATOM      6  O   UNL     1      32.967 -38.053  -4.351  1.00  0.00    -0.349 OA
ATOM      7  C   UNL     1      33.797 -37.197  -3.587  1.00  0.00     0.198 C 
ENDBRANCH   1   6
BRANCH   1   8
ATOM      8  C   UNL     1      32.418 -40.445  -4.661  1.00  0.00     0.224 C 
BRANCH   8   9
ATOM      9  O   UNL     1      31.503 -40.292  -3.611  1.00  0.00    -0.391 OA
ATOM     10  H   UNL     1      31.796 -39.491  -3.103  1.00  0.00     0.210 HD
ENDBRANCH   8   9
ENDBRANCH   1   8
BRANCH   2  11
ATOM     11  O   UNL     1      34.125 -40.471  -2.458  1.00  0.00    -0.385 OA
ATOM     12  H   UNL     1      33.250 -40.090  -2.188  1.00  0.00     0.211 HD
ENDBRANCH   2  11
BRANCH   3  13
ATOM     13  O   UNL     1      35.850 -41.712  -3.992  1.00  0.00    -0.387 OA
ATOM     14  H   UNL     1      35.044 -42.184  -4.327  1.00  0.00     0.211 HD
ENDBRANCH   3  13
BRANCH   4  15
ATOM     15  C   UNL     1      36.456 -39.460  -6.569  1.00  0.00     0.191 C 
BRANCH  15  16
ATOM     16  O   UNL     1      36.747 -40.203  -7.724  1.00  0.00    -0.394 OA
ATOM     17  H   UNL     1      36.801 -41.154  -7.446  1.00  0.00     0.210 HD
ENDBRANCH  15  16
ENDBRANCH   4  15
TORSDOF 7
ENDMDL
MODEL 2
REMARK VINA RESULT:    -4.929      9.033     10.431
REMARK INTER + INTRA:          -6.766
REMARK INTER:                  -6.567
REMARK INTRA:                  -0.199
REMARK UNBOUND:                -0.396
REMARK SMILES CO[C@@]1(CO)O[C@@H](CO)[C@H](O)[C@@H]1O
REMARK SMILES IDX 3 1 12 2 10 3 7 4 6 5 2 6 1 7 4 8 5 9 13 11 11 13 8 15 9 16
REMARK H PARENT 5 10 13 12 11 14 9 17
REMARK Flexibility Score: inf
ROOT
ATOM      1  C   UNL     1      31.406 -37.495 -13.063  1.00  0.00     0.221 C 
ATOM      2  C   UNL     1      30.314 -37.611 -11.973  1.00  0.00     0.207 C 
ATOM      3  C   UNL     1      29.022 -37.259 -12.686  1.00  0.00     0.180 C 
ATOM      4  C   UNL     1      29.409 -37.244 -14.171  1.00  0.00     0.179 C 
ATOM      5  O   UNL     1      30.755 -37.646 -14.307  1.00  0.00    -0.337 OA
ENDROOT
BRANCH   1   6
ATOM      6  O   UNL     1      32.340 -38.570 -12.964  1.00  0.00    -0.349 OA
ATOM      7  C   UNL     1      31.805 -39.737 -12.368  1.00  0.00     0.198 C 
ENDBRANCH   1   6
BRANCH   1   8
ATOM      8  C   UNL     1      32.113 -36.110 -13.085  1.00  0.00     0.224 C 
BRANCH   8   9
ATOM      9  O   UNL     1      33.447 -36.264 -13.486  1.00  0.00    -0.391 OA
ATOM     10  H   UNL     1      33.970 -35.601 -12.966  1.00  0.00     0.210 HD
ENDBRANCH   8   9
ENDBRANCH   1   8
BRANCH   2  11
ATOM     11  O   UNL     1      30.562 -36.777 -10.868  1.00  0.00    -0.385 OA
ATOM     12  H   UNL     1      31.497 -36.457 -10.958  1.00  0.00     0.211 HD
ENDBRANCH   2  11
BRANCH   3  13
ATOM     13  O   UNL     1      28.484 -36.023 -12.276  1.00  0.00    -0.387 OA
ATOM     14  H   UNL     1      27.504 -36.132 -12.157  1.00  0.00     0.211 HD
ENDBRANCH   3  13
BRANCH   4  15
ATOM     15  C   UNL     1      28.510 -38.156 -15.019  1.00  0.00     0.191 C 
BRANCH  15  16
ATOM     16  O   UNL     1      27.696 -37.405 -15.881  1.00  0.00    -0.394 OA
ATOM     17  H   UNL     1      26.866 -37.931 -16.022  1.00  0.00     0.210 HD
ENDBRANCH  15  16
ENDBRANCH   4  15
TORSDOF 7
ENDMDL
MODEL 3
REMARK VINA RESULT:    -4.691      9.555     10.810
REMARK INTER + INTRA:          -6.458
REMARK INTER:                  -6.258
REMARK INTRA:                  -0.200
REMARK UNBOUND:                -0.396
REMARK SMILES CO[C@@]1(CO)O[C@@H](CO)[C@H](O)[C@@H]1O
REMARK SMILES IDX 3 1 12 2 10 3 7 4 6 5 2 6 1 7 4 8 5 9 13 11 11 13 8 15 9 16
REMARK H PARENT 5 10 13 12 11 14 9 17
REMARK Flexibility Score: inf
ROOT
ATOM      1  C   UNL     1      30.767 -37.498 -13.289  1.00  0.00     0.221 C 
ATOM      2  C   UNL     1      29.227 -37.640 -13.331  1.00  0.00     0.207 C 
ATOM      3  C   UNL     1      28.918 -38.041 -14.763  1.00  0.00     0.180 C 
ATOM      4  C   UNL     1      30.292 -38.375 -15.359  1.00  0.00     0.179 C 
ATOM      5  O   UNL     1      31.276 -38.277 -14.352  1.00  0.00    -0.337 OA
ENDROOT
BRANCH   1   6
ATOM      6  O   UNL     1      31.296 -38.058 -12.088  1.00  0.00    -0.349 OA
ATOM      7  C   UNL     1      31.768 -39.385 -12.238  1.00  0.00     0.198 C 
ENDBRANCH   1   6
BRANCH   1   8
ATOM      8  C   UNL     1      31.260 -36.041 -13.518  1.00  0.00     0.224 C 
BRANCH   8   9
ATOM      9  O   UNL     1      32.341 -35.767 -12.668  1.00  0.00    -0.391 OA
ATOM     10  H   UNL     1      33.157 -35.841 -13.227  1.00  0.00     0.210 HD
ENDBRANCH   8   9
ENDBRANCH   1   8
BRANCH   2  11
ATOM     11  O   UNL     1      28.563 -36.459 -12.951  1.00  0.00    -0.385 OA
ATOM     12  H   UNL     1      29.155 -35.999 -12.300  1.00  0.00     0.211 HD
ENDBRANCH   2  11
BRANCH   3  13
ATOM     13  O   UNL     1      28.266 -37.027 -15.492  1.00  0.00    -0.387 OA
ATOM     14  H   UNL     1      28.244 -36.206 -14.934  1.00  0.00     0.211 HD
ENDBRANCH   3  13
BRANCH   4  15
ATOM     15  C   UNL     1      30.333 -39.777 -15.985  1.00  0.00     0.191 C 
BRANCH  15  16
ATOM     16  O   UNL     1      31.641 -40.286 -16.001  1.00  0.00    -0.394 OA
ATOM     17  H   UNL     1      31.757 -40.750 -16.871  1.00  0.00     0.210 HD
ENDBRANCH  15  16
ENDBRANCH   4  15
TORSDOF 7
ENDMDL
MODEL 4
REMARK VINA RESULT:    -4.679      9.563     10.623
REMARK INTER + INTRA:          -6.444
REMARK INTER:                  -6.002
REMARK INTRA:                  -0.442
REMARK UNBOUND:                -0.396
REMARK SMILES CO[C@@]1(CO)O[C@@H](CO)[C@H](O)[C@@H]1O
REMARK SMILES IDX 3 1 12 2 10 3 7 4 6 5 2 6 1 7 4 8 5 9 13 11 11 13 8 15 9 16
REMARK H PARENT 5 10 13 12 11 14 9 17
REMARK Flexibility Score: inf
ROOT
ATOM      1  C   UNL     1      30.583 -36.914 -14.412  1.00  0.00     0.221 C 
ATOM      2  C   UNL     1      31.716 -37.087 -13.374  1.00  0.00     0.207 C 
ATOM      3  C   UNL     1      31.648 -38.550 -12.973  1.00  0.00     0.180 C 
ATOM      4  C   UNL     1      30.688 -39.171 -13.996  1.00  0.00     0.179 C 
ATOM      5  O   UNL     1      30.323 -38.195 -14.948  1.00  0.00    -0.337 OA
ENDROOT
BRANCH   1   6
ATOM      6  O   UNL     1      31.012 -36.101 -15.503  1.00  0.00    -0.349 OA
ATOM      7  C   UNL     1      30.476 -36.493 -16.753  1.00  0.00     0.198 C 
ENDBRANCH   1   6
BRANCH   1   8
ATOM      8  C   UNL     1      29.251 -36.402 -13.794  1.00  0.00     0.224 C 
BRANCH   8   9
ATOM      9  O   UNL     1      29.294 -35.007 -13.661  1.00  0.00    -0.391 OA
ATOM     10  H   UNL     1      29.605 -34.827 -12.736  1.00  0.00     0.210 HD
ENDBRANCH   8   9
ENDBRANCH   1   8
BRANCH   2  11
ATOM     11  O   UNL     1      31.579 -36.223 -12.273  1.00  0.00    -0.385 OA
ATOM     12  H   UNL     1      32.375 -36.370 -11.697  1.00  0.00     0.211 HD
ENDBRANCH   2  11
BRANCH   3  13
ATOM     13  O   UNL     1      31.195 -38.740 -11.652  1.00  0.00    -0.387 OA
ATOM     14  H   UNL     1      30.953 -39.696 -11.539  1.00  0.00     0.211 HD
ENDBRANCH   3  13
BRANCH   4  15
ATOM     15  C   UNL     1      31.300 -40.385 -14.711  1.00  0.00     0.191 C 
BRANCH  15  16
ATOM     16  O   UNL     1      31.723 -40.049 -16.007  1.00  0.00    -0.394 OA
ATOM     17  H   UNL     1      32.570 -39.541 -15.909  1.00  0.00     0.210 HD
ENDBRANCH  15  16
ENDBRANCH   4  15
TORSDOF 7
ENDMDL
MODEL 5
REMARK VINA RESULT:    -4.677     11.562     12.664
REMARK INTER + INTRA:          -6.441
REMARK INTER:                  -6.054
REMARK INTRA:                  -0.386
REMARK UNBOUND:                -0.396
REMARK SMILES CO[C@@]1(CO)O[C@@H](CO)[C@H](O)[C@@H]1O
REMARK SMILES IDX 3 1 12 2 10 3 7 4 6 5 2 6 1 7 4 8 5 9 13 11 11 13 8 15 9 16
REMARK H PARENT 5 10 13 12 11 14 9 17
REMARK Flexibility Score: inf
ROOT
ATOM      1  C   UNL     1      29.226 -37.008 -15.577  1.00  0.00     0.221 C 
ATOM      2  C   UNL     1      28.001 -37.951 -15.628  1.00  0.00     0.207 C 
ATOM      3  C   UNL     1      28.559 -39.278 -16.111  1.00  0.00     0.180 C 
ATOM      4  C   UNL     1      30.080 -39.092 -16.033  1.00  0.00     0.179 C 
ATOM      5  O   UNL     1      30.369 -37.831 -15.467  1.00  0.00    -0.337 OA
ENDROOT
BRANCH   1   6
ATOM      6  O   UNL     1      29.197 -36.200 -14.401  1.00  0.00    -0.349 OA
ATOM      7  C   UNL     1      29.156 -36.945 -13.198  1.00  0.00     0.198 C 
ENDBRANCH   1   6
BRANCH   1   8
ATOM      8  C   UNL     1      29.404 -36.155 -16.865  1.00  0.00     0.224 C 
BRANCH   8   9
ATOM      9  O   UNL     1      28.535 -35.055 -16.830  1.00  0.00    -0.391 OA
ATOM     10  H   UNL     1      29.082 -34.263 -17.069  1.00  0.00     0.210 HD
ENDBRANCH   8   9
ENDBRANCH   1   8
BRANCH   2  11
ATOM     11  O   UNL     1      26.977 -37.465 -16.461  1.00  0.00    -0.385 OA
ATOM     12  H   UNL     1      26.827 -38.156 -17.157  1.00  0.00     0.211 HD
ENDBRANCH   2  11
BRANCH   3  13
ATOM     13  O   UNL     1      28.142 -39.610 -17.415  1.00  0.00    -0.387 OA
ATOM     14  H   UNL     1      28.430 -38.885 -18.030  1.00  0.00     0.211 HD
ENDBRANCH   3  13
BRANCH   4  15
ATOM     15  C   UNL     1      30.763 -40.195 -15.210  1.00  0.00     0.191 C 
BRANCH  15  16
ATOM     16  O   UNL     1      32.127 -40.293 -15.529  1.00  0.00    -0.394 OA
ATOM     17  H   UNL     1      32.260 -41.187 -15.938  1.00  0.00     0.210 HD
ENDBRANCH  15  16
ENDBRANCH   4  15
TORSDOF 7
ENDMDL
MODEL 6
REMARK VINA RESULT:    -4.618      8.711      9.971
REMARK INTER + INTRA:          -6.364
REMARK INTER:                  -6.295
REMARK INTRA:                  -0.069
REMARK UNBOUND:                -0.396
REMARK SMILES CO[C@@]1(CO)O[C@@H](CO)[C@H](O)[C@@H]1O
REMARK SMILES IDX 3 1 12 2 10 3 7 4 6 5 2 6 1 7 4 8 5 9 13 11 11 13 8 15 9 16
REMARK H PARENT 5 10 13 12 11 14 9 17
REMARK Flexibility Score: inf
ROOT
ATOM      1  C   UNL     1      30.782 -37.773 -12.520  1.00  0.00     0.221 C 
ATOM      2  C   UNL     1      30.097 -37.400 -13.856  1.00  0.00     0.207 C 
ATOM      3  C   UNL     1      30.596 -36.000 -14.165  1.00  0.00     0.180 C 
ATOM      4  C   UNL     1      31.731 -35.779 -13.157  1.00  0.00     0.179 C 
ATOM      5  O   UNL     1      31.935 -36.963 -12.415  1.00  0.00    -0.337 OA
ENDROOT
BRANCH   1   6
ATOM      6  O   UNL     1      31.240 -39.124 -12.543  1.00  0.00    -0.349 OA
ATOM      7  C   UNL     1      31.437 -39.638 -13.848  1.00  0.00     0.198 C 
ENDBRANCH   1   6
BRANCH   1   8
ATOM      8  C   UNL     1      29.904 -37.477 -11.271  1.00  0.00     0.224 C 
BRANCH   8   9
ATOM      9  O   UNL     1      30.670 -36.823 -10.297  1.00  0.00    -0.391 OA
ATOM     10  H   UNL     1      30.459 -35.857 -10.381  1.00  0.00     0.210 HD
ENDBRANCH   8   9
ENDBRANCH   1   8
BRANCH   2  11
ATOM     11  O   UNL     1      28.693 -37.465 -13.781  1.00  0.00    -0.385 OA
ATOM     12  H   UNL     1      28.416 -38.237 -14.340  1.00  0.00     0.211 HD
ENDBRANCH   2  11
BRANCH   3  13
ATOM     13  O   UNL     1      29.593 -35.018 -14.044  1.00  0.00    -0.387 OA
ATOM     14  H   UNL     1      29.992 -34.135 -14.264  1.00  0.00     0.211 HD
ENDBRANCH   3  13
BRANCH   4  15
ATOM     15  C   UNL     1      33.044 -35.365 -13.836  1.00  0.00     0.191 C 
BRANCH  15  16
ATOM     16  O   UNL     1      33.872 -34.657 -12.950  1.00  0.00    -0.394 OA
ATOM     17  H   UNL     1      34.137 -35.294 -12.237  1.00  0.00     0.210 HD
ENDBRANCH  15  16
ENDBRANCH   4  15
TORSDOF 7
ENDMDL
MODEL 7
REMARK VINA RESULT:    -4.554     10.641     11.935
REMARK INTER + INTRA:          -6.282
REMARK INTER:                  -5.858
REMARK INTRA:                  -0.423
REMARK UNBOUND:                -0.396
REMARK SMILES CO[C@@]1(CO)O[C@@H](CO)[C@H](O)[C@@H]1O
REMARK SMILES IDX 3 1 12 2 10 3 7 4 6 5 2 6 1 7 4 8 5 9 13 11 11 13 8 15 9 16
REMARK H PARENT 5 10 13 12 11 14 9 17
REMARK Flexibility Score: inf
ROOT
ATOM      1  C   UNL     1      29.676 -37.718 -15.437  1.00  0.00     0.221 C 
ATOM      2  C   UNL     1      30.186 -36.264 -15.570  1.00  0.00     0.207 C 
ATOM      3  C   UNL     1      30.267 -35.755 -14.142  1.00  0.00     0.180 C 
ATOM      4  C   UNL     1      30.076 -37.014 -13.287  1.00  0.00     0.179 C 
ATOM      5  O   UNL     1      29.998 -38.144 -14.129  1.00  0.00    -0.337 OA
ENDROOT
BRANCH   1   6
ATOM      6  O   UNL     1      30.376 -38.586 -16.328  1.00  0.00    -0.349 OA
ATOM      7  C   UNL     1      30.731 -39.830 -15.751  1.00  0.00     0.198 C 
ENDBRANCH   1   6
BRANCH   1   8
ATOM      8  C   UNL     1      28.134 -37.849 -15.590  1.00  0.00     0.224 C 
BRANCH   8   9
ATOM      9  O   UNL     1      27.802 -38.000 -16.943  1.00  0.00    -0.391 OA
ATOM     10  H   UNL     1      27.735 -38.977 -17.104  1.00  0.00     0.210 HD
ENDBRANCH   8   9
ENDBRANCH   1   8
BRANCH   2  11
ATOM     11  O   UNL     1      29.352 -35.469 -16.376  1.00  0.00    -0.385 OA
ATOM     12  H   UNL     1      28.555 -35.247 -15.827  1.00  0.00     0.211 HD
ENDBRANCH   2  11
BRANCH   3  13
ATOM     13  O   UNL     1      29.297 -34.775 -13.849  1.00  0.00    -0.387 OA
ATOM     14  H   UNL     1      29.212 -34.175 -14.636  1.00  0.00     0.211 HD
ENDBRANCH   3  13
BRANCH   4  15
ATOM     15  C   UNL     1      31.211 -37.208 -12.269  1.00  0.00     0.191 C 
BRANCH  15  16
ATOM     16  O   UNL     1      32.106 -36.127 -12.297  1.00  0.00    -0.394 OA
ATOM     17  H   UNL     1      31.784 -35.507 -13.002  1.00  0.00     0.210 HD
ENDBRANCH  15  16
ENDBRANCH   4  15
TORSDOF 7
ENDMDL
MODEL 8
REMARK VINA RESULT:    -4.539     11.654     13.003
REMARK INTER + INTRA:          -6.262
REMARK INTER:                  -5.927
REMARK INTRA:                  -0.335
REMARK UNBOUND:                -0.396
REMARK SMILES CO[C@@]1(CO)O[C@@H](CO)[C@H](O)[C@@H]1O
REMARK SMILES IDX 3 1 12 2 10 3 7 4 6 5 2 6 1 7 4 8 5 9 13 11 11 13 8 15 9 16
REMARK H PARENT 5 10 13 12 11 14 9 17
REMARK Flexibility Score: inf
ROOT
ATOM      1  C   UNL     1      28.848 -38.363 -16.301  1.00  0.00     0.221 C 
ATOM      2  C   UNL     1      30.375 -38.149 -16.420  1.00  0.00     0.207 C 
ATOM      3  C   UNL     1      30.663 -36.945 -15.542  1.00  0.00     0.180 C 
ATOM      4  C   UNL     1      29.355 -36.728 -14.769  1.00  0.00     0.179 C 
ATOM      5  O   UNL     1      28.446 -37.759 -15.089  1.00  0.00    -0.337 OA
ENDROOT
BRANCH   1   6
ATOM      6  O   UNL     1      28.536 -39.750 -16.182  1.00  0.00    -0.349 OA
ATOM      7  C   UNL     1      29.656 -40.563 -15.880  1.00  0.00     0.198 C 
ENDBRANCH   1   6
BRANCH   1   8
ATOM      8  C   UNL     1      28.037 -37.680 -17.439  1.00  0.00     0.224 C 
BRANCH   8   9
ATOM      9  O   UNL     1      27.790 -38.602 -18.465  1.00  0.00    -0.391 OA
ATOM     10  H   UNL     1      26.965 -38.293 -18.922  1.00  0.00     0.210 HD
ENDBRANCH   8   9
ENDBRANCH   1   8
BRANCH   2  11
ATOM     11  O   UNL     1      30.793 -37.956 -17.750  1.00  0.00    -0.385 OA
ATOM     12  H   UNL     1      30.027 -37.546 -18.230  1.00  0.00     0.211 HD
ENDBRANCH   2  11
BRANCH   3  13
ATOM     13  O   UNL     1      31.029 -35.800 -16.278  1.00  0.00    -0.387 OA
ATOM     14  H   UNL     1      31.286 -35.086 -15.637  1.00  0.00     0.211 HD
ENDBRANCH   3  13
BRANCH   4  15
ATOM     15  C   UNL     1      29.575 -36.688 -13.249  1.00  0.00     0.191 C 
BRANCH  15  16
ATOM     16  O   UNL     1      28.375 -36.422 -12.571  1.00  0.00    -0.394 OA
ATOM     17  H   UNL     1      27.690 -37.031 -12.952  1.00  0.00     0.210 HD
ENDBRANCH  15  16
ENDBRANCH   4  15
TORSDOF 7
ENDMDL
MODEL 9
REMARK VINA RESULT:    -4.524      1.721      1.953
REMARK INTER + INTRA:          -6.243
REMARK INTER:                  -5.796
REMARK INTRA:                  -0.447
REMARK UNBOUND:                -0.396
REMARK SMILES CO[C@@]1(CO)O[C@@H](CO)[C@H](O)[C@@H]1O
REMARK SMILES IDX 3 1 12 2 10 3 7 4 6 5 2 6 1 7 4 8 5 9 13 11 11 13 8 15 9 16
REMARK H PARENT 5 10 13 12 11 14 9 17
REMARK Flexibility Score: inf
ROOT
ATOM      1  C   UNL     1      34.512 -39.161  -3.346  1.00  0.00     0.221 C 
ATOM      2  C   UNL     1      35.309 -39.846  -2.211  1.00  0.00     0.207 C 
ATOM      3  C   UNL     1      36.413 -40.607  -2.923  1.00  0.00     0.180 C 
ATOM      4  C   UNL     1      36.351 -40.088  -4.365  1.00  0.00     0.179 C 
ATOM      5  O   UNL     1      35.385 -39.063  -4.453  1.00  0.00    -0.337 OA
ENDROOT
BRANCH   1   6
ATOM      6  O   UNL     1      34.163 -37.825  -2.988  1.00  0.00    -0.349 OA
ATOM      7  C   UNL     1      35.281 -36.986  -2.758  1.00  0.00     0.198 C 
ENDBRANCH   1   6
BRANCH   1   8
ATOM      8  C   UNL     1      33.275 -39.980  -3.814  1.00  0.00     0.224 C 
BRANCH   8   9
ATOM      9  O   UNL     1      32.229 -39.826  -2.894  1.00  0.00    -0.391 OA
ATOM     10  H   UNL     1      31.594 -40.568  -3.071  1.00  0.00     0.210 HD
ENDBRANCH   8   9
ENDBRANCH   1   8
BRANCH   2  11
ATOM     11  O   UNL     1      34.507 -40.685  -1.415  1.00  0.00    -0.385 OA
ATOM     12  H   UNL     1      35.121 -41.326  -0.971  1.00  0.00     0.211 HD
ENDBRANCH   2  11
BRANCH   3  13
ATOM     13  O   UNL     1      36.246 -42.005  -2.864  1.00  0.00    -0.387 OA
ATOM     14  H   UNL     1      35.278 -42.208  -2.943  1.00  0.00     0.211 HD
ENDBRANCH   3  13
BRANCH   4  15
ATOM     15  C   UNL     1      37.707 -39.561  -4.857  1.00  0.00     0.191 C 
BRANCH  15  16
ATOM     16  O   UNL     1      38.599 -39.384  -3.787  1.00  0.00    -0.394 OA
ATOM     17  H   UNL     1      38.069 -39.023  -3.030  1.00  0.00     0.210 HD
ENDBRANCH  15  16
ENDBRANCH   4  15
TORSDOF 7
ENDMDL
