MODEL 1
REMARK VINA RESULT:    -4.932      0.000      0.000
REMARK INTER + INTRA:         -17.735
REMARK INTER:                 -12.428
REMARK INTRA:                  -5.307
REMARK UNBOUND:                -5.307
REMARK SMILES CCCCCCCCCCCCCCCCCCCCCCCCCCCC(=O)[O-]
REMARK SMILES IDX 15 1 16 2 17 3 18 4 19 5 20 6 21 7 22 8 23 9 24 10 25 11
REMARK SMILES IDX 26 12 27 13 28 14 29 15 30 16 14 17 13 18 12 19 11 20 10 21
REMARK SMILES IDX 9 22 8 23 7 24 6 25 5 26 4 27 3 28 2 29 1 30
REMARK H PARENT
REMARK Flexibility Score: inf
ROOT
ATOM      1  C   UNL     1      58.310  10.110  90.147  1.00  0.00     0.000 C 
ENDROOT
BRANCH   1   2
ATOM      2  C   UNL     1      59.632  10.894  90.221  1.00  0.00     0.000 C 
BRANCH   2   3
ATOM      3  C   UNL     1      60.099  11.259  91.643  1.00  0.00     0.000 C 
BRANCH   3   4
ATOM      4  C   UNL     1      59.648  12.659  92.113  1.00  0.00     0.000 C 
BRANCH   4   5
ATOM      5  C   UNL     1      58.298  12.620  92.852  1.00  0.00     0.000 C 
BRANCH   5   6
ATOM      6  C   UNL     1      58.191  13.700  93.939  1.00  0.00     0.000 C 
BRANCH   6   7
ATOM      7  C   UNL     1      57.188  14.807  93.566  1.00  0.00     0.000 C 
BRANCH   7   8
ATOM      8  C   UNL     1      55.857  14.671  94.322  1.00  0.00     0.000 C 
BRANCH   8   9
ATOM      9  C   UNL     1      54.652  14.567  93.370  1.00  0.00     0.000 C 
BRANCH   9  10
ATOM     10  C   UNL     1      54.584  13.213  92.648  1.00  0.00     0.000 C 
BRANCH  10  11
ATOM     11  C   UNL     1      54.513  12.022  93.616  1.00  0.00     0.000 C 
BRANCH  11  12
ATOM     12  C   UNL     1      55.420  10.876  93.147  1.00  0.00     0.006 C 
BRANCH  12  13
ATOM     13  C   UNL     1      54.623   9.737  92.495  1.00  0.00     0.053 C 
BRANCH  13  14
ATOM     14  C   UNL     1      54.201   8.709  93.499  1.00  0.00     0.041 C 
ATOM     15  O   UNL     1      53.382   7.807  93.177  1.00  0.00    -0.550 OA
ATOM     16  O   UNL     1      54.731   8.729  94.782  1.00  0.00    -0.550 OA
ENDBRANCH  13  14
ENDBRANCH  12  13
ENDBRANCH  11  12
ENDBRANCH  10  11
ENDBRANCH   9  10
ENDBRANCH   8   9
ENDBRANCH   7   8
ENDBRANCH   6   7
ENDBRANCH   5   6
ENDBRANCH   4   5
ENDBRANCH   3   4
ENDBRANCH   2   3
ENDBRANCH   1   2
BRANCH   1  17
ATOM     17  C   UNL     1      57.143  10.855  89.469  1.00  0.00     0.000 C 
BRANCH  17  18
ATOM     18  C   UNL     1      57.439  12.335  89.149  1.00  0.00     0.000 C 
BRANCH  18  19
ATOM     19  C   UNL     1      56.264  13.257  89.508  1.00  0.00     0.000 C 
BRANCH  19  20
ATOM     20  C   UNL     1      56.757  14.629  89.990  1.00  0.00     0.000 C 
BRANCH  20  21
ATOM     21  C   UNL     1      58.156  14.986  89.451  1.00  0.00     0.000 C 
BRANCH  21  22
ATOM     22  C   UNL     1      59.110  15.623  90.482  1.00  0.00    -0.000 C 
BRANCH  22  23
ATOM     23  C   UNL     1      59.035  17.160  90.493  1.00  0.00    -0.000 C 
BRANCH  23  24
ATOM     24  C   UNL     1      59.788  17.784  91.682  1.00  0.00    -0.000 C 
BRANCH  24  25
ATOM     25  C   UNL     1      60.632  16.796  92.511  1.00  0.00    -0.000 C 
BRANCH  25  26
ATOM     26  C   UNL     1      60.253  16.759  94.007  1.00  0.00    -0.000 C 
BRANCH  26  27
ATOM     27  C   UNL     1      61.226  15.902  94.830  1.00  0.00    -0.000 C 
BRANCH  27  28
ATOM     28  C   UNL     1      62.025  14.951  93.927  1.00  0.00    -0.000 C 
BRANCH  28  29
ATOM     29  C   UNL     1      62.204  13.559  94.553  1.00  0.00    -0.003 C 
ATOM     30  C   UNL     1      63.015  12.610  93.669  1.00  0.00     0.004 C 
ENDBRANCH  28  29
ENDBRANCH  27  28
ENDBRANCH  26  27
ENDBRANCH  25  26
ENDBRANCH  24  25
ENDBRANCH  23  24
ENDBRANCH  22  23
ENDBRANCH  21  22
ENDBRANCH  20  21
ENDBRANCH  19  20
ENDBRANCH  18  19
ENDBRANCH  17  18
ENDBRANCH   1  17
TORSDOF 26
ENDMDL
MODEL 2
REMARK VINA RESULT:    -4.913      2.697      7.074
REMARK INTER + INTRA:         -17.687
REMARK INTER:                 -12.873
REMARK INTRA:                  -4.815
REMARK UNBOUND:                -5.307
REMARK SMILES CCCCCCCCCCCCCCCCCCCCCCCCCCCC(=O)[O-]
REMARK SMILES IDX 15 1 16 2 17 3 18 4 19 5 20 6 21 7 22 8 23 9 24 10 25 11
REMARK SMILES IDX 26 12 27 13 28 14 29 15 30 16 14 17 13 18 12 19 11 20 10 21
REMARK SMILES IDX 9 22 8 23 7 24 6 25 5 26 4 27 3 28 2 29 1 30
REMARK H PARENT
REMARK Flexibility Score: inf
ROOT
ATOM      1  C   UNL     1      59.201  11.413  90.848  1.00  0.00     0.000 C 
ENDROOT
BRANCH   1   2
ATOM      2  C   UNL     1      57.753  10.926  90.662  1.00  0.00     0.000 C 
BRANCH   2   3
ATOM      3  C   UNL     1      57.378  10.517  89.225  1.00  0.00     0.000 C 
BRANCH   3   4
ATOM      4  C   UNL     1      56.759  11.658  88.389  1.00  0.00     0.000 C 
BRANCH   4   5
ATOM      5  C   UNL     1      56.035  12.696  89.266  1.00  0.00     0.000 C 
BRANCH   5   6
ATOM      6  C   UNL     1      56.420  14.140  88.908  1.00  0.00     0.000 C 
BRANCH   6   7
ATOM      7  C   UNL     1      56.888  14.942  90.134  1.00  0.00     0.000 C 
BRANCH   7   8
ATOM      8  C   UNL     1      58.231  15.649  89.895  1.00  0.00     0.000 C 
BRANCH   8   9
ATOM      9  C   UNL     1      58.625  16.567  91.066  1.00  0.00     0.000 C 
BRANCH   9  10
ATOM     10  C   UNL     1      59.930  16.128  91.748  1.00  0.00     0.000 C 
BRANCH  10  11
ATOM     11  C   UNL     1      60.417  17.131  92.806  1.00  0.00     0.000 C 
BRANCH  11  12
ATOM     12  C   UNL     1      61.743  16.671  93.430  1.00  0.00     0.006 C 
BRANCH  12  13
ATOM     13  C   UNL     1      61.664  15.234  93.965  1.00  0.00     0.053 C 
BRANCH  13  14
ATOM     14  C   UNL     1      61.798  15.188  95.456  1.00  0.00     0.041 C 
ATOM     15  O   UNL     1      62.499  16.047  96.056  1.00  0.00    -0.550 OA
ATOM     16  O   UNL     1      61.129  14.216  96.187  1.00  0.00    -0.550 OA
ENDBRANCH  13  14
ENDBRANCH  12  13
ENDBRANCH  11  12
ENDBRANCH  10  11
ENDBRANCH   9  10
ENDBRANCH   8   9
ENDBRANCH   7   8
ENDBRANCH   6   7
ENDBRANCH   5   6
ENDBRANCH   4   5
ENDBRANCH   3   4
ENDBRANCH   2   3
ENDBRANCH   1   2
BRANCH   1  17
ATOM     17  C   UNL     1      59.398  12.480  91.943  1.00  0.00     0.000 C 
BRANCH  17  18
ATOM     18  C   UNL     1      58.094  12.916  92.644  1.00  0.00     0.000 C 
BRANCH  18  19
ATOM     19  C   UNL     1      58.341  13.431  94.070  1.00  0.00     0.000 C 
BRANCH  19  20
ATOM     20  C   UNL     1      57.645  14.780  94.304  1.00  0.00     0.000 C 
BRANCH  20  21
ATOM     21  C   UNL     1      56.109  14.667  94.323  1.00  0.00     0.000 C 
BRANCH  21  22
ATOM     22  C   UNL     1      55.551  13.475  95.125  1.00  0.00    -0.000 C 
BRANCH  22  23
ATOM     23  C   UNL     1      54.242  12.921  94.537  1.00  0.00    -0.000 C 
BRANCH  23  24
ATOM     24  C   UNL     1      54.180  13.042  93.004  1.00  0.00    -0.000 C 
BRANCH  24  25
ATOM     25  C   UNL     1      54.552  11.761  92.233  1.00  0.00    -0.000 C 
BRANCH  25  26
ATOM     26  C   UNL     1      55.023  10.604  93.139  1.00  0.00    -0.000 C 
BRANCH  26  27
ATOM     27  C   UNL     1      54.738   9.229  92.517  1.00  0.00    -0.000 C 
BRANCH  27  28
ATOM     28  C   UNL     1      54.151   8.262  93.555  1.00  0.00    -0.000 C 
BRANCH  28  29
ATOM     29  C   UNL     1      54.097   8.875  94.964  1.00  0.00    -0.003 C 
ATOM     30  C   UNL     1      54.948   8.109  95.978  1.00  0.00     0.004 C 
ENDBRANCH  28  29
ENDBRANCH  27  28
ENDBRANCH  26  27
ENDBRANCH  25  26
ENDBRANCH  24  25
ENDBRANCH  23  24
ENDBRANCH  22  23
ENDBRANCH  21  22
ENDBRANCH  20  21
ENDBRANCH  19  20
ENDBRANCH  18  19
ENDBRANCH  17  18
ENDBRANCH   1  17
TORSDOF 26
ENDMDL
MODEL 3
REMARK VINA RESULT:    -4.910      1.718      2.882
REMARK INTER + INTRA:         -17.680
REMARK INTER:                 -13.116
REMARK INTRA:                  -4.564
REMARK UNBOUND:                -5.307
REMARK SMILES CCCCCCCCCCCCCCCCCCCCCCCCCCCC(=O)[O-]
REMARK SMILES IDX 15 1 16 2 17 3 18 4 19 5 20 6 21 7 22 8 23 9 24 10 25 11
REMARK SMILES IDX 26 12 27 13 28 14 29 15 30 16 14 17 13 18 12 19 11 20 10 21
REMARK SMILES IDX 9 22 8 23 7 24 6 25 5 26 4 27 3 28 2 29 1 30
REMARK H PARENT
REMARK Flexibility Score: inf
ROOT
ATOM      1  C   UNL     1      56.904   9.780  90.712  1.00  0.00     0.000 C 
ENDROOT
BRANCH   1   2
ATOM      2  C   UNL     1      56.377  10.636  91.877  1.00  0.00     0.000 C 
BRANCH   2   3
ATOM      3  C   UNL     1      54.923  11.125  91.726  1.00  0.00     0.000 C 
BRANCH   3   4
ATOM      4  C   UNL     1      54.546  12.278  92.680  1.00  0.00     0.000 C 
BRANCH   4   5
ATOM      5  C   UNL     1      54.957  13.653  92.123  1.00  0.00     0.000 C 
BRANCH   5   6
ATOM      6  C   UNL     1      56.250  14.183  92.762  1.00  0.00     0.000 C 
BRANCH   6   7
ATOM      7  C   UNL     1      55.973  15.138  93.936  1.00  0.00     0.000 C 
BRANCH   7   8
ATOM      8  C   UNL     1      56.886  14.866  95.142  1.00  0.00     0.000 C 
BRANCH   8   9
ATOM      9  C   UNL     1      57.255  13.377  95.271  1.00  0.00     0.000 C 
BRANCH   9  10
ATOM     10  C   UNL     1      56.898  12.796  96.646  1.00  0.00     0.000 C 
BRANCH  10  11
ATOM     11  C   UNL     1      56.969  11.261  96.683  1.00  0.00     0.000 C 
BRANCH  11  12
ATOM     12  C   UNL     1      55.936  10.640  95.731  1.00  0.00     0.006 C 
BRANCH  12  13
ATOM     13  C   UNL     1      55.506   9.235  96.180  1.00  0.00     0.053 C 
BRANCH  13  14
ATOM     14  C   UNL     1      54.292   8.764  95.441  1.00  0.00     0.041 C 
ATOM     15  O   UNL     1      54.152   9.028  94.217  1.00  0.00    -0.550 OA
ATOM     16  O   UNL     1      53.326   8.011  96.095  1.00  0.00    -0.550 OA
ENDBRANCH  13  14
ENDBRANCH  12  13
ENDBRANCH  11  12
ENDBRANCH  10  11
ENDBRANCH   9  10
ENDBRANCH   8   9
ENDBRANCH   7   8
ENDBRANCH   6   7
ENDBRANCH   5   6
ENDBRANCH   4   5
ENDBRANCH   3   4
ENDBRANCH   2   3
ENDBRANCH   1   2
BRANCH   1  17
ATOM     17  C   UNL     1      58.345  10.097  90.266  1.00  0.00     0.000 C 
BRANCH  17  18
ATOM     18  C   UNL     1      58.441  11.156  89.147  1.00  0.00     0.000 C 
BRANCH  18  19
ATOM     19  C   UNL     1      57.080  11.445  88.496  1.00  0.00     0.000 C 
BRANCH  19  20
ATOM     20  C   UNL     1      56.595  12.865  88.823  1.00  0.00     0.000 C 
BRANCH  20  21
ATOM     21  C   UNL     1      57.625  13.680  89.629  1.00  0.00     0.000 C 
BRANCH  21  22
ATOM     22  C   UNL     1      57.776  15.152  89.195  1.00  0.00    -0.000 C 
BRANCH  22  23
ATOM     23  C   UNL     1      58.906  15.881  89.943  1.00  0.00    -0.000 C 
BRANCH  23  24
ATOM     24  C   UNL     1      58.392  16.720  91.127  1.00  0.00    -0.000 C 
BRANCH  24  25
ATOM     25  C   UNL     1      59.312  16.738  92.363  1.00  0.00    -0.000 C 
BRANCH  25  26
ATOM     26  C   UNL     1      60.053  15.406  92.605  1.00  0.00    -0.000 C 
BRANCH  26  27
ATOM     27  C   UNL     1      60.322  15.157  94.097  1.00  0.00    -0.000 C 
BRANCH  27  28
ATOM     28  C   UNL     1      60.358  16.476  94.881  1.00  0.00    -0.000 C 
BRANCH  28  29
ATOM     29  C   UNL     1      60.782  16.278  96.345  1.00  0.00    -0.003 C 
ATOM     30  C   UNL     1      60.191  15.012  96.967  1.00  0.00     0.004 C 
ENDBRANCH  28  29
ENDBRANCH  27  28
ENDBRANCH  26  27
ENDBRANCH  25  26
ENDBRANCH  24  25
ENDBRANCH  23  24
ENDBRANCH  22  23
ENDBRANCH  21  22
ENDBRANCH  20  21
ENDBRANCH  19  20
ENDBRANCH  18  19
ENDBRANCH  17  18
ENDBRANCH   1  17
TORSDOF 26
ENDMDL
MODEL 4
REMARK VINA RESULT:    -4.887      1.580      4.438
REMARK INTER + INTRA:         -17.623
REMARK INTER:                 -12.198
REMARK INTRA:                  -5.424
REMARK UNBOUND:                -5.307
REMARK SMILES CCCCCCCCCCCCCCCCCCCCCCCCCCCC(=O)[O-]
REMARK SMILES IDX 15 1 16 2 17 3 18 4 19 5 20 6 21 7 22 8 23 9 24 10 25 11
REMARK SMILES IDX 26 12 27 13 28 14 29 15 30 16 14 17 13 18 12 19 11 20 10 21
REMARK SMILES IDX 9 22 8 23 7 24 6 25 5 26 4 27 3 28 2 29 1 30
REMARK H PARENT
REMARK Flexibility Score: inf
ROOT
ATOM      1  C   UNL     1      58.738  13.217  93.282  1.00  0.00     0.000 C 
ENDROOT
BRANCH   1   2
ATOM      2  C   UNL     1      58.410  12.002  92.396  1.00  0.00     0.000 C 
BRANCH   2   3
ATOM      3  C   UNL     1      59.367  11.779  91.210  1.00  0.00     0.000 C 
BRANCH   3   4
ATOM      4  C   UNL     1      59.111  10.468  90.435  1.00  0.00     0.000 C 
BRANCH   4   5
ATOM      5  C   UNL     1      57.755  10.478  89.707  1.00  0.00     0.000 C 
BRANCH   5   6
ATOM      6  C   UNL     1      57.581  11.708  88.803  1.00  0.00     0.000 C 
BRANCH   6   7
ATOM      7  C   UNL     1      56.150  12.272  88.852  1.00  0.00     0.000 C 
BRANCH   7   8
ATOM      8  C   UNL     1      55.932  13.215  90.045  1.00  0.00     0.000 C 
BRANCH   8   9
ATOM      9  C   UNL     1      55.074  12.572  91.149  1.00  0.00     0.000 C 
BRANCH   9  10
ATOM     10  C   UNL     1      54.686  13.567  92.252  1.00  0.00     0.000 C 
BRANCH  10  11
ATOM     11  C   UNL     1      54.363  12.881  93.589  1.00  0.00     0.000 C 
BRANCH  11  12
ATOM     12  C   UNL     1      54.944  11.460  93.632  1.00  0.00     0.006 C 
BRANCH  12  13
ATOM     13  C   UNL     1      55.812  11.227  94.878  1.00  0.00     0.053 C 
BRANCH  13  14
ATOM     14  C   UNL     1      55.301  10.086  95.704  1.00  0.00     0.041 C 
ATOM     15  O   UNL     1      56.109   9.302  96.269  1.00  0.00    -0.550 OA
ATOM     16  O   UNL     1      53.935   9.905  95.873  1.00  0.00    -0.550 OA
ENDBRANCH  13  14
ENDBRANCH  12  13
ENDBRANCH  11  12
ENDBRANCH  10  11
ENDBRANCH   9  10
ENDBRANCH   8   9
ENDBRANCH   7   8
ENDBRANCH   6   7
ENDBRANCH   5   6
ENDBRANCH   4   5
ENDBRANCH   3   4
ENDBRANCH   2   3
ENDBRANCH   1   2
BRANCH   1  17
ATOM     17  C   UNL     1      57.921  14.488  92.981  1.00  0.00     0.000 C 
BRANCH  17  18
ATOM     18  C   UNL     1      57.560  15.319  94.231  1.00  0.00     0.000 C 
BRANCH  18  19
ATOM     19  C   UNL     1      57.396  14.448  95.485  1.00  0.00     0.000 C 
BRANCH  19  20
ATOM     20  C   UNL     1      58.350  14.893  96.603  1.00  0.00     0.000 C 
BRANCH  20  21
ATOM     21  C   UNL     1      59.687  14.127  96.591  1.00  0.00     0.000 C 
BRANCH  21  22
ATOM     22  C   UNL     1      60.944  15.009  96.452  1.00  0.00    -0.000 C 
BRANCH  22  23
ATOM     23  C   UNL     1      60.615  16.511  96.399  1.00  0.00    -0.000 C 
BRANCH  23  24
ATOM     24  C   UNL     1      60.688  17.087  94.974  1.00  0.00    -0.000 C 
BRANCH  24  25
ATOM     25  C   UNL     1      61.392  16.185  93.941  1.00  0.00    -0.000 C 
BRANCH  25  26
ATOM     26  C   UNL     1      60.878  16.374  92.498  1.00  0.00    -0.000 C 
BRANCH  26  27
ATOM     27  C   UNL     1      59.968  17.604  92.364  1.00  0.00    -0.000 C 
BRANCH  27  28
ATOM     28  C   UNL     1      59.053  17.485  91.138  1.00  0.00    -0.000 C 
BRANCH  28  29
ATOM     29  C   UNL     1      59.675  16.632  90.021  1.00  0.00    -0.003 C 
ATOM     30  C   UNL     1      58.745  15.518  89.537  1.00  0.00     0.004 C 
ENDBRANCH  28  29
ENDBRANCH  27  28
ENDBRANCH  26  27
ENDBRANCH  25  26
ENDBRANCH  24  25
ENDBRANCH  23  24
ENDBRANCH  22  23
ENDBRANCH  21  22
ENDBRANCH  20  21
ENDBRANCH  19  20
ENDBRANCH  18  19
ENDBRANCH  17  18
ENDBRANCH   1  17
TORSDOF 26
ENDMDL
MODEL 5
REMARK VINA RESULT:    -4.875      1.640      5.269
REMARK INTER + INTRA:         -17.592
REMARK INTER:                 -12.845
REMARK INTRA:                  -4.748
REMARK UNBOUND:                -5.307
REMARK SMILES CCCCCCCCCCCCCCCCCCCCCCCCCCCC(=O)[O-]
REMARK SMILES IDX 15 1 16 2 17 3 18 4 19 5 20 6 21 7 22 8 23 9 24 10 25 11
REMARK SMILES IDX 26 12 27 13 28 14 29 15 30 16 14 17 13 18 12 19 11 20 10 21
REMARK SMILES IDX 9 22 8 23 7 24 6 25 5 26 4 27 3 28 2 29 1 30
REMARK H PARENT
REMARK Flexibility Score: inf
ROOT
ATOM      1  C   UNL     1      59.420  17.295  90.234  1.00  0.00     0.000 C 
ENDROOT
BRANCH   1   2
ATOM      2  C   UNL     1      59.187  15.793  89.990  1.00  0.00     0.000 C 
BRANCH   2   3
ATOM      3  C   UNL     1      57.765  15.417  89.533  1.00  0.00     0.000 C 
BRANCH   3   4
ATOM      4  C   UNL     1      57.436  13.915  89.678  1.00  0.00     0.000 C 
BRANCH   4   5
ATOM      5  C   UNL     1      56.231  13.497  88.815  1.00  0.00     0.000 C 
BRANCH   5   6
ATOM      6  C   UNL     1      56.287  12.017  88.404  1.00  0.00     0.000 C 
BRANCH   6   7
ATOM      7  C   UNL     1      57.639  11.367  88.746  1.00  0.00     0.000 C 
BRANCH   7   8
ATOM      8  C   UNL     1      57.489  10.171  89.699  1.00  0.00     0.000 C 
BRANCH   8   9
ATOM      9  C   UNL     1      57.452  10.601  91.176  1.00  0.00     0.000 C 
BRANCH   9  10
ATOM     10  C   UNL     1      56.034  10.577  91.764  1.00  0.00     0.000 C 
BRANCH  10  11
ATOM     11  C   UNL     1      55.529  11.973  92.163  1.00  0.00     0.000 C 
BRANCH  11  12
ATOM     12  C   UNL     1      54.476  11.879  93.278  1.00  0.00     0.006 C 
BRANCH  12  13
ATOM     13  C   UNL     1      55.032  12.324  94.638  1.00  0.00     0.053 C 
BRANCH  13  14
ATOM     14  C   UNL     1      55.721  11.200  95.351  1.00  0.00     0.041 C 
ATOM     15  O   UNL     1      55.315  10.016  95.208  1.00  0.00    -0.550 OA
ATOM     16  O   UNL     1      56.826  11.456  96.151  1.00  0.00    -0.550 OA
ENDBRANCH  13  14
ENDBRANCH  12  13
ENDBRANCH  11  12
ENDBRANCH  10  11
ENDBRANCH   9  10
ENDBRANCH   8   9
ENDBRANCH   7   8
ENDBRANCH   6   7
ENDBRANCH   5   6
ENDBRANCH   4   5
ENDBRANCH   3   4
ENDBRANCH   2   3
ENDBRANCH   1   2
BRANCH   1  17
ATOM     17  C   UNL     1      59.298  17.747  91.701  1.00  0.00     0.000 C 
BRANCH  17  18
ATOM     18  C   UNL     1      60.640  17.791  92.464  1.00  0.00     0.000 C 
BRANCH  18  19
ATOM     19  C   UNL     1      60.640  16.877  93.699  1.00  0.00     0.000 C 
BRANCH  19  20
ATOM     20  C   UNL     1      61.991  16.165  93.866  1.00  0.00     0.000 C 
BRANCH  20  21
ATOM     21  C   UNL     1      62.008  15.182  95.052  1.00  0.00     0.000 C 
BRANCH  21  22
ATOM     22  C   UNL     1      62.367  15.809  96.414  1.00  0.00    -0.000 C 
BRANCH  22  23
ATOM     23  C   UNL     1      61.179  16.538  97.067  1.00  0.00    -0.000 C 
BRANCH  23  24
ATOM     24  C   UNL     1      60.220  15.580  97.796  1.00  0.00    -0.000 C 
BRANCH  24  25
ATOM     25  C   UNL     1      58.770  15.588  97.277  1.00  0.00    -0.000 C 
BRANCH  25  26
ATOM     26  C   UNL     1      58.503  14.557  96.160  1.00  0.00    -0.000 C 
BRANCH  26  27
ATOM     27  C   UNL     1      57.451  15.050  95.156  1.00  0.00    -0.000 C 
BRANCH  27  28
ATOM     28  C   UNL     1      57.860  14.714  93.715  1.00  0.00    -0.000 C 
BRANCH  28  29
ATOM     29  C   UNL     1      58.515  13.328  93.599  1.00  0.00    -0.003 C 
ATOM     30  C   UNL     1      59.738  13.325  92.680  1.00  0.00     0.004 C 
ENDBRANCH  28  29
ENDBRANCH  27  28
ENDBRANCH  26  27
ENDBRANCH  25  26
ENDBRANCH  24  25
ENDBRANCH  23  24
ENDBRANCH  22  23
ENDBRANCH  21  22
ENDBRANCH  20  21
ENDBRANCH  19  20
ENDBRANCH  18  19
ENDBRANCH  17  18
ENDBRANCH   1  17
TORSDOF 26
ENDMDL
MODEL 6
REMARK VINA RESULT:    -4.816      1.465      3.306
REMARK INTER + INTRA:         -17.444
REMARK INTER:                 -12.941
REMARK INTRA:                  -4.502
REMARK UNBOUND:                -5.307
REMARK SMILES CCCCCCCCCCCCCCCCCCCCCCCCCCCC(=O)[O-]
REMARK SMILES IDX 15 1 16 2 17 3 18 4 19 5 20 6 21 7 22 8 23 9 24 10 25 11
REMARK SMILES IDX 26 12 27 13 28 14 29 15 30 16 14 17 13 18 12 19 11 20 10 21
REMARK SMILES IDX 9 22 8 23 7 24 6 25 5 26 4 27 3 28 2 29 1 30
REMARK H PARENT
REMARK Flexibility Score: inf
ROOT
ATOM      1  C   UNL     1      58.444  12.291  92.096  1.00  0.00     0.000 C 
ENDROOT
BRANCH   1   2
ATOM      2  C   UNL     1      59.549  13.096  92.802  1.00  0.00     0.000 C 
BRANCH   2   3
ATOM      3  C   UNL     1      59.050  14.211  93.740  1.00  0.00     0.000 C 
BRANCH   3   4
ATOM      4  C   UNL     1      58.224  13.701  94.940  1.00  0.00     0.000 C 
BRANCH   4   5
ATOM      5  C   UNL     1      57.148  14.711  95.378  1.00  0.00     0.000 C 
BRANCH   5   6
ATOM      6  C   UNL     1      56.012  14.844  94.352  1.00  0.00     0.000 C 
BRANCH   6   7
ATOM      7  C   UNL     1      55.363  13.489  94.021  1.00  0.00     0.000 C 
BRANCH   7   8
ATOM      8  C   UNL     1      54.757  13.458  92.610  1.00  0.00     0.000 C 
BRANCH   8   9
ATOM      9  C   UNL     1      54.401  12.031  92.157  1.00  0.00     0.000 C 
BRANCH   9  10
ATOM     10  C   UNL     1      55.151  10.953  92.953  1.00  0.00     0.000 C 
BRANCH  10  11
ATOM     11  C   UNL     1      54.899   9.534  92.421  1.00  0.00     0.000 C 
BRANCH  11  12
ATOM     12  C   UNL     1      54.458   8.592  93.551  1.00  0.00     0.006 C 
BRANCH  12  13
ATOM     13  C   UNL     1      54.202   9.344  94.865  1.00  0.00     0.053 C 
BRANCH  13  14
ATOM     14  C   UNL     1      53.724   8.425  95.947  1.00  0.00     0.041 C 
ATOM     15  O   UNL     1      53.992   8.672  97.153  1.00  0.00    -0.550 OA
ATOM     16  O   UNL     1      52.961   7.310  95.627  1.00  0.00    -0.550 OA
ENDBRANCH  13  14
ENDBRANCH  12  13
ENDBRANCH  11  12
ENDBRANCH  10  11
ENDBRANCH   9  10
ENDBRANCH   8   9
ENDBRANCH   7   8
ENDBRANCH   6   7
ENDBRANCH   5   6
ENDBRANCH   4   5
ENDBRANCH   3   4
ENDBRANCH   2   3
ENDBRANCH   1   2
BRANCH   1  17
ATOM     17  C   UNL     1      58.937  11.297  91.027  1.00  0.00     0.000 C 
BRANCH  17  18
ATOM     18  C   UNL     1      57.813  10.690  90.161  1.00  0.00     0.000 C 
BRANCH  18  19
ATOM     19  C   UNL     1      57.978  11.023  88.670  1.00  0.00     0.000 C 
BRANCH  19  20
ATOM     20  C   UNL     1      56.684  11.603  88.081  1.00  0.00     0.000 C 
BRANCH  20  21
ATOM     21  C   UNL     1      55.932  12.517  89.067  1.00  0.00     0.000 C 
BRANCH  21  22
ATOM     22  C   UNL     1      56.205  14.025  88.899  1.00  0.00    -0.000 C 
BRANCH  22  23
ATOM     23  C   UNL     1      57.345  14.529  89.801  1.00  0.00    -0.000 C 
BRANCH  23  24
ATOM     24  C   UNL     1      56.888  15.622  90.783  1.00  0.00    -0.000 C 
BRANCH  24  25
ATOM     25  C   UNL     1      57.994  16.592  91.241  1.00  0.00    -0.000 C 
BRANCH  25  26
ATOM     26  C   UNL     1      59.169  16.710  90.247  1.00  0.00    -0.000 C 
BRANCH  26  27
ATOM     27  C   UNL     1      60.028  17.955  90.511  1.00  0.00    -0.000 C 
BRANCH  27  28
ATOM     28  C   UNL     1      60.109  18.264  92.013  1.00  0.00    -0.000 C 
BRANCH  28  29
ATOM     29  C   UNL     1      61.162  17.407  92.733  1.00  0.00    -0.003 C 
ATOM     30  C   UNL     1      60.759  17.051  94.165  1.00  0.00     0.004 C 
ENDBRANCH  28  29
ENDBRANCH  27  28
ENDBRANCH  26  27
ENDBRANCH  25  26
ENDBRANCH  24  25
ENDBRANCH  23  24
ENDBRANCH  22  23
ENDBRANCH  21  22
ENDBRANCH  20  21
ENDBRANCH  19  20
ENDBRANCH  18  19
ENDBRANCH  17  18
ENDBRANCH   1  17
TORSDOF 26
ENDMDL
MODEL 7
REMARK VINA RESULT:    -4.727      1.779      4.139
REMARK INTER + INTRA:         -17.219
REMARK INTER:                 -13.292
REMARK INTRA:                  -3.927
REMARK UNBOUND:                -5.307
REMARK SMILES CCCCCCCCCCCCCCCCCCCCCCCCCCCC(=O)[O-]
REMARK SMILES IDX 15 1 16 2 17 3 18 4 19 5 20 6 21 7 22 8 23 9 24 10 25 11
REMARK SMILES IDX 26 12 27 13 28 14 29 15 30 16 14 17 13 18 12 19 11 20 10 21
REMARK SMILES IDX 9 22 8 23 7 24 6 25 5 26 4 27 3 28 2 29 1 30
REMARK H PARENT
REMARK Flexibility Score: inf
ROOT
ATOM      1  C   UNL     1      57.553  14.958  89.636  1.00  0.00     0.000 C 
ENDROOT
BRANCH   1   2
ATOM      2  C   UNL     1      57.298  15.720  90.948  1.00  0.00     0.000 C 
BRANCH   2   3
ATOM      3  C   UNL     1      55.913  15.490  91.581  1.00  0.00     0.000 C 
BRANCH   3   4
ATOM      4  C   UNL     1      55.962  14.831  92.977  1.00  0.00     0.000 C 
BRANCH   4   5
ATOM      5  C   UNL     1      54.563  14.438  93.486  1.00  0.00     0.000 C 
BRANCH   5   6
ATOM      6  C   UNL     1      54.444  12.934  93.777  1.00  0.00     0.000 C 
BRANCH   6   7
ATOM      7  C   UNL     1      54.520  12.083  92.498  1.00  0.00     0.000 C 
BRANCH   7   8
ATOM      8  C   UNL     1      55.818  11.265  92.415  1.00  0.00     0.000 C 
BRANCH   8   9
ATOM      9  C   UNL     1      55.560   9.796  92.038  1.00  0.00     0.000 C 
BRANCH   9  10
ATOM     10  C   UNL     1      54.147   9.328  92.414  1.00  0.00     0.000 C 
BRANCH  10  11
ATOM     11  C   UNL     1      54.134   8.380  93.625  1.00  0.00     0.000 C 
BRANCH  11  12
ATOM     12  C   UNL     1      54.552   9.118  94.905  1.00  0.00     0.006 C 
BRANCH  12  13
ATOM     13  C   UNL     1      55.027   8.152  96.001  1.00  0.00     0.053 C 
BRANCH  13  14
ATOM     14  C   UNL     1      53.917   7.267  96.480  1.00  0.00     0.041 C 
ATOM     15  O   UNL     1      53.020   7.728  97.236  1.00  0.00    -0.550 OA
ATOM     16  O   UNL     1      53.855   5.942  96.069  1.00  0.00    -0.550 OA
ENDBRANCH  13  14
ENDBRANCH  12  13
ENDBRANCH  11  12
ENDBRANCH  10  11
ENDBRANCH   9  10
ENDBRANCH   8   9
ENDBRANCH   7   8
ENDBRANCH   6   7
ENDBRANCH   5   6
ENDBRANCH   4   5
ENDBRANCH   3   4
ENDBRANCH   2   3
ENDBRANCH   1   2
BRANCH   1  17
ATOM     17  C   UNL     1      56.292  14.414  88.938  1.00  0.00     0.000 C 
BRANCH  17  18
ATOM     18  C   UNL     1      56.014  12.919  89.207  1.00  0.00     0.000 C 
BRANCH  18  19
ATOM     19  C   UNL     1      56.268  12.045  87.969  1.00  0.00     0.000 C 
BRANCH  19  20
ATOM     20  C   UNL     1      57.238  10.898  88.285  1.00  0.00     0.000 C 
BRANCH  20  21
ATOM     21  C   UNL     1      58.485  11.363  89.064  1.00  0.00     0.000 C 
BRANCH  21  22
ATOM     22  C   UNL     1      58.853  10.496  90.284  1.00  0.00    -0.000 C 
BRANCH  22  23
ATOM     23  C   UNL     1      59.724  11.246  91.307  1.00  0.00    -0.000 C 
BRANCH  23  24
ATOM     24  C   UNL     1      59.040  12.510  91.857  1.00  0.00    -0.000 C 
BRANCH  24  25
ATOM     25  C   UNL     1      59.661  13.079  93.148  1.00  0.00    -0.000 C 
BRANCH  25  26
ATOM     26  C   UNL     1      60.075  14.561  93.038  1.00  0.00    -0.000 C 
BRANCH  26  27
ATOM     27  C   UNL     1      59.310  15.451  94.029  1.00  0.00    -0.000 C 
BRANCH  27  28
ATOM     28  C   UNL     1      60.071  15.583  95.356  1.00  0.00    -0.000 C 
BRANCH  28  29
ATOM     29  C   UNL     1      59.191  15.257  96.572  1.00  0.00    -0.003 C 
ATOM     30  C   UNL     1      59.669  15.943  97.852  1.00  0.00     0.004 C 
ENDBRANCH  28  29
ENDBRANCH  27  28
ENDBRANCH  26  27
ENDBRANCH  25  26
ENDBRANCH  24  25
ENDBRANCH  23  24
ENDBRANCH  22  23
ENDBRANCH  21  22
ENDBRANCH  20  21
ENDBRANCH  19  20
ENDBRANCH  18  19
ENDBRANCH  17  18
ENDBRANCH   1  17
TORSDOF 26
ENDMDL
MODEL 8
REMARK VINA RESULT:    -4.711      2.538      5.490
REMARK INTER + INTRA:         -17.177
REMARK INTER:                 -12.479
REMARK INTRA:                  -4.698
REMARK UNBOUND:                -5.307
REMARK SMILES CCCCCCCCCCCCCCCCCCCCCCCCCCCC(=O)[O-]
REMARK SMILES IDX 15 1 16 2 17 3 18 4 19 5 20 6 21 7 22 8 23 9 24 10 25 11
REMARK SMILES IDX 26 12 27 13 28 14 29 15 30 16 14 17 13 18 12 19 11 20 10 21
REMARK SMILES IDX 9 22 8 23 7 24 6 25 5 26 4 27 3 28 2 29 1 30
REMARK H PARENT
REMARK Flexibility Score: inf
ROOT
ATOM      1  C   UNL     1      54.455   8.274  93.720  1.00  0.00     0.000 C 
ENDROOT
BRANCH   1   2
ATOM      2  C   UNL     1      54.202   9.345  92.645  1.00  0.00     0.000 C 
BRANCH   2   3
ATOM      3  C   UNL     1      55.395  10.275  92.352  1.00  0.00     0.000 C 
BRANCH   3   4
ATOM      4  C   UNL     1      54.989  11.713  91.964  1.00  0.00     0.000 C 
BRANCH   4   5
ATOM      5  C   UNL     1      54.806  12.619  93.196  1.00  0.00     0.000 C 
BRANCH   5   6
ATOM      6  C   UNL     1      54.749  14.109  92.827  1.00  0.00     0.000 C 
BRANCH   6   7
ATOM      7  C   UNL     1      55.562  14.983  93.798  1.00  0.00     0.000 C 
BRANCH   7   8
ATOM      8  C   UNL     1      56.936  15.369  93.229  1.00  0.00     0.000 C 
BRANCH   8   9
ATOM      9  C   UNL     1      56.830  16.038  91.847  1.00  0.00     0.000 C 
BRANCH   9  10
ATOM     10  C   UNL     1      57.877  15.514  90.854  1.00  0.00     0.000 C 
BRANCH  10  11
ATOM     11  C   UNL     1      58.609  14.262  91.363  1.00  0.00     0.000 C 
BRANCH  11  12
ATOM     12  C   UNL     1      58.161  13.011  90.593  1.00  0.00     0.006 C 
BRANCH  12  13
ATOM     13  C   UNL     1      59.030  11.787  90.920  1.00  0.00     0.053 C 
BRANCH  13  14
ATOM     14  C   UNL     1      58.917  10.729  89.866  1.00  0.00     0.041 C 
ATOM     15  O   UNL     1      59.385  10.930  88.714  1.00  0.00    -0.550 OA
ATOM     16  O   UNL     1      58.319   9.511  90.163  1.00  0.00    -0.550 OA
ENDBRANCH  13  14
ENDBRANCH  12  13
ENDBRANCH  11  12
ENDBRANCH  10  11
ENDBRANCH   9  10
ENDBRANCH   8   9
ENDBRANCH   7   8
ENDBRANCH   6   7
ENDBRANCH   5   6
ENDBRANCH   4   5
ENDBRANCH   3   4
ENDBRANCH   2   3
ENDBRANCH   1   2
BRANCH   1  17
ATOM     17  C   UNL     1      53.768   8.530  95.075  1.00  0.00     0.000 C 
BRANCH  17  18
ATOM     18  C   UNL     1      54.387   9.686  95.890  1.00  0.00     0.000 C 
BRANCH  18  19
ATOM     19  C   UNL     1      55.866   9.440  96.224  1.00  0.00     0.000 C 
BRANCH  19  20
ATOM     20  C   UNL     1      56.506  10.677  96.870  1.00  0.00     0.000 C 
BRANCH  20  21
ATOM     21  C   UNL     1      56.731  11.828  95.870  1.00  0.00     0.000 C 
BRANCH  21  22
ATOM     22  C   UNL     1      57.150  13.170  96.503  1.00  0.00    -0.000 C 
BRANCH  22  23
ATOM     23  C   UNL     1      58.535  13.644  96.032  1.00  0.00    -0.000 C 
BRANCH  23  24
ATOM     24  C   UNL     1      58.908  15.033  96.582  1.00  0.00    -0.000 C 
BRANCH  24  25
ATOM     25  C   UNL     1      59.809  15.879  95.661  1.00  0.00    -0.000 C 
BRANCH  25  26
ATOM     26  C   UNL     1      60.433  15.080  94.497  1.00  0.00    -0.000 C 
BRANCH  26  27
ATOM     27  C   UNL     1      61.134  15.992  93.480  1.00  0.00    -0.000 C 
BRANCH  27  28
ATOM     28  C   UNL     1      60.298  17.248  93.194  1.00  0.00    -0.000 C 
BRANCH  28  29
ATOM     29  C   UNL     1      60.556  17.817  91.790  1.00  0.00    -0.003 C 
ATOM     30  C   UNL     1      59.475  18.802  91.342  1.00  0.00     0.004 C 
ENDBRANCH  28  29
ENDBRANCH  27  28
ENDBRANCH  26  27
ENDBRANCH  25  26
ENDBRANCH  24  25
ENDBRANCH  23  24
ENDBRANCH  22  23
ENDBRANCH  21  22
ENDBRANCH  20  21
ENDBRANCH  19  20
ENDBRANCH  18  19
ENDBRANCH  17  18
ENDBRANCH   1  17
TORSDOF 26
ENDMDL
MODEL 9
REMARK VINA RESULT:    -4.671      1.525      5.251
REMARK INTER + INTRA:         -17.077
REMARK INTER:                 -12.420
REMARK INTRA:                  -4.657
REMARK UNBOUND:                -5.307
REMARK SMILES CCCCCCCCCCCCCCCCCCCCCCCCCCCC(=O)[O-]
REMARK SMILES IDX 15 1 16 2 17 3 18 4 19 5 20 6 21 7 22 8 23 9 24 10 25 11
REMARK SMILES IDX 26 12 27 13 28 14 29 15 30 16 14 17 13 18 12 19 11 20 10 21
REMARK SMILES IDX 9 22 8 23 7 24 6 25 5 26 4 27 3 28 2 29 1 30
REMARK H PARENT
REMARK Flexibility Score: inf
ROOT
ATOM      1  C   UNL     1      63.073  12.997  94.255  1.00  0.00     0.000 C 
ENDROOT
BRANCH   1   2
ATOM      2  C   UNL     1      63.018  11.782  93.313  1.00  0.00     0.000 C 
BRANCH   2   3
ATOM      3  C   UNL     1      61.706  11.625  92.521  1.00  0.00     0.000 C 
BRANCH   3   4
ATOM      4  C   UNL     1      61.614  10.314  91.711  1.00  0.00     0.000 C 
BRANCH   4   5
ATOM      5  C   UNL     1      60.291  10.203  90.931  1.00  0.00     0.000 C 
BRANCH   5   6
ATOM      6  C   UNL     1      60.360  10.883  89.555  1.00  0.00     0.000 C 
BRANCH   6   7
ATOM      7  C   UNL     1      59.246  11.926  89.362  1.00  0.00     0.000 C 
BRANCH   7   8
ATOM      8  C   UNL     1      57.858  11.376  89.725  1.00  0.00     0.000 C 
BRANCH   8   9
ATOM      9  C   UNL     1      56.731  12.062  88.933  1.00  0.00     0.000 C 
BRANCH   9  10
ATOM     10  C   UNL     1      55.706  12.754  89.843  1.00  0.00     0.000 C 
BRANCH  10  11
ATOM     11  C   UNL     1      55.868  12.374  91.323  1.00  0.00     0.000 C 
BRANCH  11  12
ATOM     12  C   UNL     1      54.515  12.403  92.050  1.00  0.00     0.006 C 
BRANCH  12  13
ATOM     13  C   UNL     1      54.678  12.378  93.577  1.00  0.00     0.053 C 
BRANCH  13  14
ATOM     14  C   UNL     1      55.146  11.041  94.063  1.00  0.00     0.041 C 
ATOM     15  O   UNL     1      54.678   9.984  93.561  1.00  0.00    -0.550 OA
ATOM     16  O   UNL     1      56.118  10.960  95.051  1.00  0.00    -0.550 OA
ENDBRANCH  13  14
ENDBRANCH  12  13
ENDBRANCH  11  12
ENDBRANCH  10  11
ENDBRANCH   9  10
ENDBRANCH   8   9
ENDBRANCH   7   8
ENDBRANCH   6   7
ENDBRANCH   5   6
ENDBRANCH   4   5
ENDBRANCH   3   4
ENDBRANCH   2   3
ENDBRANCH   1   2
BRANCH   1  17
ATOM     17  C   UNL     1      61.780  13.833  94.323  1.00  0.00     0.000 C 
BRANCH  17  18
ATOM     18  C   UNL     1      61.876  15.205  93.621  1.00  0.00     0.000 C 
BRANCH  18  19
ATOM     19  C   UNL     1      61.292  16.341  94.476  1.00  0.00     0.000 C 
BRANCH  19  20
ATOM     20  C   UNL     1      61.692  16.191  95.951  1.00  0.00     0.000 C 
BRANCH  20  21
ATOM     21  C   UNL     1      60.549  16.543  96.922  1.00  0.00     0.000 C 
BRANCH  21  22
ATOM     22  C   UNL     1      59.722  15.341  97.420  1.00  0.00    -0.000 C 
BRANCH  22  23
ATOM     23  C   UNL     1      58.466  15.088  96.568  1.00  0.00    -0.000 C 
BRANCH  23  24
ATOM     24  C   UNL     1      58.495  13.725  95.854  1.00  0.00    -0.000 C 
BRANCH  24  25
ATOM     25  C   UNL     1      58.046  13.752  94.380  1.00  0.00    -0.000 C 
BRANCH  25  26
ATOM     26  C   UNL     1      57.334  15.058  93.969  1.00  0.00    -0.000 C 
BRANCH  26  27
ATOM     27  C   UNL     1      58.114  15.830  92.895  1.00  0.00    -0.000 C 
BRANCH  27  28
ATOM     28  C   UNL     1      58.566  14.897  91.762  1.00  0.00    -0.000 C 
BRANCH  28  29
ATOM     29  C   UNL     1      58.092  15.379  90.381  1.00  0.00    -0.003 C 
ATOM     30  C   UNL     1      59.250  15.719  89.442  1.00  0.00     0.004 C 
ENDBRANCH  28  29
ENDBRANCH  27  28
ENDBRANCH  26  27
ENDBRANCH  25  26
ENDBRANCH  24  25
ENDBRANCH  23  24
ENDBRANCH  22  23
ENDBRANCH  21  22
ENDBRANCH  20  21
ENDBRANCH  19  20
ENDBRANCH  18  19
ENDBRANCH  17  18
ENDBRANCH   1  17
TORSDOF 26
ENDMDL
