MODEL 1
REMARK VINA RESULT:    -5.876      0.000      0.000
REMARK INTER + INTRA:          -9.611
REMARK INTER:                  -7.766
REMARK INTRA:                  -1.845
REMARK UNBOUND:                -1.845
REMARK SMILES CC[C@@H](C=C[C@@H](C)[C@@H]1CC[C@@H]2C3=CC[C@H]4C[C@@H](O)CC[C@@]4(C)[C@H]3CC[C@]21C)C(C)C
REMARK SMILES IDX 6 1 7 2 5 3 4 4 3 5 2 6 1 7 28 8 29 9 30 10 8 11 9 12 26 13
REMARK SMILES IDX 10 14 11 15 25 16 27 17 12 18 24 19 23 20 13 21 21 22 14 23
REMARK SMILES IDX 15 24 20 25 22 26 16 27 19 28 17 29 18 30
REMARK H PARENT 18 31
REMARK Flexibility Score: inf
ROOT
ATOM      1  C   UNL     1     139.428 117.171 138.404  1.00  0.00     0.012 C 
ATOM      2  C   UNL     1     139.497 115.875 139.229  1.00  0.00     0.012 C 
ENDROOT
BRANCH   1   3
ATOM      3  C   UNL     1     140.641 117.221 137.496  1.00  0.00    -0.028 C 
ATOM      4  C   UNL     1     140.629 117.610 136.206  1.00  0.00    -0.027 C 
BRANCH   4   5
ATOM      5  C   UNL     1     139.406 118.120 135.457  1.00  0.00     0.014 C 
BRANCH   5   6
ATOM      6  C   UNL     1     138.770 116.973 134.633  1.00  0.00     0.004 C 
ATOM      7  C   UNL     1     137.696 116.224 135.423  1.00  0.00     0.004 C 
ENDBRANCH   5   6
BRANCH   5   8
ATOM      8  C   UNL     1     139.785 119.361 134.594  1.00  0.00    -0.011 C 
ATOM      9  C   UNL     1     140.799 120.294 135.275  1.00  0.00     0.008 C 
ATOM     10  C   UNL     1     140.278 118.965 133.194  1.00  0.00     0.008 C 
ENDBRANCH   5   8
ENDBRANCH   4   5
ENDBRANCH   1   3
BRANCH   1  11
ATOM     11  C   UNL     1     139.385 118.418 139.345  1.00  0.00     0.002 C 
ATOM     12  C   UNL     1     139.387 118.058 140.858  1.00  0.00     0.005 C 
ATOM     13  C   UNL     1     138.177 119.397 139.216  1.00  0.00    -0.023 C 
ATOM     14  C   UNL     1     138.620 119.183 141.585  1.00  0.00     0.009 C 
ATOM     15  C   UNL     1     138.390 120.215 140.493  1.00  0.00     0.021 C 
ATOM     16  C   UNL     1     138.242 120.393 138.011  1.00  0.00     0.008 C 
ATOM     17  C   UNL     1     136.820 118.603 139.244  1.00  0.00     0.012 C 
ATOM     18  C   UNL     1     137.384 121.337 140.689  1.00  0.00    -0.067 C 
ATOM     19  C   UNL     1     137.475 121.746 138.227  1.00  0.00     0.009 C 
ATOM     20  C   UNL     1     136.546 121.744 139.474  1.00  0.00     0.021 C 
ATOM     21  C   UNL     1     137.680 122.243 141.637  1.00  0.00    -0.027 C 
ATOM     22  C   UNL     1     135.633 123.007 139.762  1.00  0.00    -0.023 C 
ATOM     23  C   UNL     1     137.634 123.709 141.323  1.00  0.00     0.031 C 
ATOM     24  C   UNL     1     136.400 124.164 140.514  1.00  0.00     0.002 C 
ATOM     25  C   UNL     1     134.966 123.544 138.448  1.00  0.00     0.010 C 
ATOM     26  C   UNL     1     134.482 122.523 140.699  1.00  0.00     0.012 C 
ATOM     27  C   UNL     1     136.778 125.324 139.568  1.00  0.00     0.036 C 
ATOM     28  C   UNL     1     134.411 124.966 138.615  1.00  0.00     0.032 C 
ATOM     29  C   UNL     1     135.528 125.984 138.943  1.00  0.00     0.114 C 
BRANCH  29  30
ATOM     30  O   UNL     1     135.896 126.666 137.772  1.00  0.00    -0.393 OA
ATOM     31  H   UNL     1     135.251 126.394 137.068  1.00  0.00     0.210 HD
ENDBRANCH  29  30
ENDBRANCH   1  11
TORSDOF 6
ENDMDL
MODEL 2
REMARK VINA RESULT:    -5.755      4.202      6.785
REMARK INTER + INTRA:          -9.450
REMARK INTER:                  -7.462
REMARK INTRA:                  -1.988
REMARK UNBOUND:                -1.845
REMARK SMILES CC[C@@H](C=C[C@@H](C)[C@@H]1CC[C@@H]2C3=CC[C@H]4C[C@@H](O)CC[C@@]4(C)[C@H]3CC[C@]21C)C(C)C
REMARK SMILES IDX 6 1 7 2 5 3 4 4 3 5 2 6 1 7 28 8 29 9 30 10 8 11 9 12 26 13
REMARK SMILES IDX 10 14 11 15 25 16 27 17 12 18 24 19 23 20 13 21 21 22 14 23
REMARK SMILES IDX 15 24 20 25 22 26 16 27 19 28 17 29 18 30
REMARK H PARENT 18 31
REMARK Flexibility Score: inf
ROOT
ATOM      1  C   UNL     1     137.199 120.461 139.201  1.00  0.00     0.012 C 
ATOM      2  C   UNL     1     136.103 121.244 138.460  1.00  0.00     0.012 C 
ENDROOT
BRANCH   1   3
ATOM      3  C   UNL     1     136.869 118.984 139.118  1.00  0.00    -0.028 C 
ATOM      4  C   UNL     1     137.594 118.063 138.455  1.00  0.00    -0.027 C 
BRANCH   4   5
ATOM      5  C   UNL     1     138.900 118.338 137.724  1.00  0.00     0.014 C 
BRANCH   5   6
ATOM      6  C   UNL     1     138.748 118.007 136.218  1.00  0.00     0.004 C 
ATOM      7  C   UNL     1     138.034 116.673 135.992  1.00  0.00     0.004 C 
ENDBRANCH   5   6
BRANCH   5   8
ATOM      8  C   UNL     1     140.070 117.567 138.408  1.00  0.00    -0.011 C 
ATOM      9  C   UNL     1     141.167 118.488 138.965  1.00  0.00     0.008 C 
ATOM     10  C   UNL     1     139.573 116.606 139.498  1.00  0.00     0.008 C 
ENDBRANCH   5   8
ENDBRANCH   4   5
ENDBRANCH   1   3
BRANCH   1  11
ATOM     11  C   UNL     1     137.295 120.928 140.690  1.00  0.00     0.002 C 
ATOM     12  C   UNL     1     136.891 122.415 140.904  1.00  0.00     0.005 C 
ATOM     13  C   UNL     1     138.677 120.830 141.406  1.00  0.00    -0.023 C 
ATOM     14  C   UNL     1     137.698 122.925 142.117  1.00  0.00     0.009 C 
ATOM     15  C   UNL     1     138.367 121.668 142.649  1.00  0.00     0.021 C 
ATOM     16  C   UNL     1     139.081 119.401 141.899  1.00  0.00     0.008 C 
ATOM     17  C   UNL     1     139.802 121.482 140.522  1.00  0.00     0.012 C 
ATOM     18  C   UNL     1     139.516 121.764 143.639  1.00  0.00    -0.067 C 
ATOM     19  C   UNL     1     140.045 119.375 143.138  1.00  0.00     0.009 C 
ATOM     20  C   UNL     1     140.662 120.762 143.478  1.00  0.00     0.021 C 
ATOM     21  C   UNL     1     139.215 122.253 144.855  1.00  0.00    -0.027 C 
ATOM     22  C   UNL     1     141.731 120.871 144.642  1.00  0.00    -0.023 C 
ATOM     23  C   UNL     1     139.629 121.513 146.091  1.00  0.00     0.031 C 
ATOM     24  C   UNL     1     141.075 120.972 146.074  1.00  0.00     0.002 C 
ATOM     25  C   UNL     1     142.762 119.690 144.585  1.00  0.00     0.010 C 
ATOM     26  C   UNL     1     142.527 122.191 144.397  1.00  0.00     0.012 C 
ATOM     27  C   UNL     1     141.158 119.640 146.850  1.00  0.00     0.036 C 
ATOM     28  C   UNL     1     143.549 119.540 145.895  1.00  0.00     0.032 C 
ATOM     29  C   UNL     1     142.622 119.206 147.087  1.00  0.00     0.114 C 
BRANCH  29  30
ATOM     30  O   UNL     1     142.665 117.824 147.338  1.00  0.00    -0.393 OA
ATOM     31  H   UNL     1     141.838 117.437 146.946  1.00  0.00     0.210 HD
ENDBRANCH  29  30
ENDBRANCH   1  11
TORSDOF 6
ENDMDL
MODEL 3
REMARK VINA RESULT:    -5.536      2.411      7.276
REMARK INTER + INTRA:          -9.161
REMARK INTER:                  -7.041
REMARK INTRA:                  -2.119
REMARK UNBOUND:                -1.845
REMARK SMILES CC[C@@H](C=C[C@@H](C)[C@@H]1CC[C@@H]2C3=CC[C@H]4C[C@@H](O)CC[C@@]4(C)[C@H]3CC[C@]21C)C(C)C
REMARK SMILES IDX 6 1 7 2 5 3 4 4 3 5 2 6 1 7 28 8 29 9 30 10 8 11 9 12 26 13
REMARK SMILES IDX 10 14 11 15 25 16 27 17 12 18 24 19 23 20 13 21 21 22 14 23
REMARK SMILES IDX 15 24 20 25 22 26 16 27 19 28 17 29 18 30
REMARK H PARENT 18 31
REMARK Flexibility Score: inf
ROOT
ATOM      1  C   UNL     1     137.002 123.476 141.781  1.00  0.00     0.012 C 
ATOM      2  C   UNL     1     137.035 124.045 143.208  1.00  0.00     0.012 C 
ENDROOT
BRANCH   1   3
ATOM      3  C   UNL     1     135.567 123.504 141.291  1.00  0.00    -0.028 C 
ATOM      4  C   UNL     1     135.160 124.009 140.110  1.00  0.00    -0.027 C 
BRANCH   4   5
ATOM      5  C   UNL     1     136.077 124.587 139.043  1.00  0.00     0.014 C 
BRANCH   5   6
ATOM      6  C   UNL     1     136.046 126.135 139.094  1.00  0.00     0.004 C 
ATOM      7  C   UNL     1     134.659 126.670 139.454  1.00  0.00     0.004 C 
ENDBRANCH   5   6
BRANCH   5   8
ATOM      8  C   UNL     1     135.702 124.010 137.644  1.00  0.00    -0.011 C 
ATOM      9  C   UNL     1     136.915 123.514 136.841  1.00  0.00     0.008 C 
ATOM     10  C   UNL     1     134.635 122.909 137.737  1.00  0.00     0.008 C 
ENDBRANCH   5   8
ENDBRANCH   4   5
ENDBRANCH   1   3
BRANCH   1  11
ATOM     11  C   UNL     1     137.570 122.020 141.758  1.00  0.00     0.002 C 
ATOM     12  C   UNL     1     138.768 121.804 142.726  1.00  0.00     0.005 C 
ATOM     13  C   UNL     1     138.104 121.459 140.404  1.00  0.00    -0.023 C 
ATOM     14  C   UNL     1     139.651 120.701 142.104  1.00  0.00     0.009 C 
ATOM     15  C   UNL     1     138.825 120.212 140.925  1.00  0.00     0.021 C 
ATOM     16  C   UNL     1     137.010 120.974 139.396  1.00  0.00     0.008 C 
ATOM     17  C   UNL     1     139.099 122.479 139.739  1.00  0.00     0.012 C 
ATOM     18  C   UNL     1     139.458 119.358 139.839  1.00  0.00    -0.067 C 
ATOM     19  C   UNL     1     137.474 119.849 138.404  1.00  0.00     0.009 C 
ATOM     20  C   UNL     1     139.011 119.617 138.398  1.00  0.00     0.021 C 
ATOM     21  C   UNL     1     139.864 118.130 140.207  1.00  0.00    -0.027 C 
ATOM     22  C   UNL     1     139.635 118.582 137.374  1.00  0.00    -0.023 C 
ATOM     23  C   UNL     1     139.450 116.927 139.413  1.00  0.00     0.031 C 
ATOM     24  C   UNL     1     139.557 117.089 137.881  1.00  0.00     0.002 C 
ATOM     25  C   UNL     1     138.987 118.720 135.952  1.00  0.00     0.010 C 
ATOM     26  C   UNL     1     141.146 118.949 137.229  1.00  0.00     0.012 C 
ATOM     27  C   UNL     1     138.438 116.291 137.179  1.00  0.00     0.036 C 
ATOM     28  C   UNL     1     139.269 117.501 135.062  1.00  0.00     0.032 C 
ATOM     29  C   UNL     1     138.667 116.206 135.653  1.00  0.00     0.114 C 
BRANCH  29  30
ATOM     30  O   UNL     1     137.449 115.924 135.014  1.00  0.00    -0.393 OA
ATOM     31  H   UNL     1     137.167 116.757 134.553  1.00  0.00     0.210 HD
ENDBRANCH  29  30
ENDBRANCH   1  11
TORSDOF 6
ENDMDL
MODEL 4
REMARK VINA RESULT:    -5.485      3.439      6.970
REMARK INTER + INTRA:          -9.094
REMARK INTER:                  -7.395
REMARK INTRA:                  -1.698
REMARK UNBOUND:                -1.845
REMARK SMILES CC[C@@H](C=C[C@@H](C)[C@@H]1CC[C@@H]2C3=CC[C@H]4C[C@@H](O)CC[C@@]4(C)[C@H]3CC[C@]21C)C(C)C
REMARK SMILES IDX 6 1 7 2 5 3 4 4 3 5 2 6 1 7 28 8 29 9 30 10 8 11 9 12 26 13
REMARK SMILES IDX 10 14 11 15 25 16 27 17 12 18 24 19 23 20 13 21 21 22 14 23
REMARK SMILES IDX 15 24 20 25 22 26 16 27 19 28 17 29 18 30
REMARK H PARENT 18 31
REMARK Flexibility Score: inf
ROOT
ATOM      1  C   UNL     1     141.993 119.164 144.079  1.00  0.00     0.012 C 
ATOM      2  C   UNL     1     143.069 118.193 143.565  1.00  0.00     0.012 C 
ENDROOT
BRANCH   1   3
ATOM      3  C   UNL     1     141.871 118.987 145.580  1.00  0.00    -0.028 C 
ATOM      4  C   UNL     1     141.308 119.875 146.423  1.00  0.00    -0.027 C 
BRANCH   4   5
ATOM      5  C   UNL     1     140.648 121.180 146.005  1.00  0.00     0.014 C 
BRANCH   5   6
ATOM      6  C   UNL     1     141.642 122.357 146.173  1.00  0.00     0.004 C 
ATOM      7  C   UNL     1     142.245 122.795 144.837  1.00  0.00     0.004 C 
ENDBRANCH   5   6
BRANCH   5   8
ATOM      8  C   UNL     1     139.317 121.384 146.790  1.00  0.00    -0.011 C 
ATOM      9  C   UNL     1     138.783 120.094 147.433  1.00  0.00     0.008 C 
ATOM     10  C   UNL     1     139.427 122.499 147.841  1.00  0.00     0.008 C 
ENDBRANCH   5   8
ENDBRANCH   4   5
ENDBRANCH   1   3
BRANCH   1  11
ATOM     11  C   UNL     1     140.625 118.890 143.373  1.00  0.00     0.002 C 
ATOM     12  C   UNL     1     140.586 117.547 142.591  1.00  0.00     0.005 C 
ATOM     13  C   UNL     1     140.119 119.926 142.323  1.00  0.00    -0.023 C 
ATOM     14  C   UNL     1     139.601 117.742 141.419  1.00  0.00     0.009 C 
ATOM     15  C   UNL     1     138.987 119.104 141.698  1.00  0.00     0.021 C 
ATOM     16  C   UNL     1     139.476 121.225 142.913  1.00  0.00     0.008 C 
ATOM     17  C   UNL     1     141.251 120.255 141.284  1.00  0.00     0.012 C 
ATOM     18  C   UNL     1     138.208 119.837 140.619  1.00  0.00    -0.067 C 
ATOM     19  C   UNL     1     138.407 121.913 141.992  1.00  0.00     0.009 C 
ATOM     20  C   UNL     1     138.382 121.356 140.540  1.00  0.00     0.021 C 
ATOM     21  C   UNL     1     137.051 119.271 140.231  1.00  0.00    -0.027 C 
ATOM     22  C   UNL     1     137.422 122.022 139.470  1.00  0.00    -0.023 C 
ATOM     23  C   UNL     1     135.791 120.083 140.184  1.00  0.00     0.031 C 
ATOM     24  C   UNL     1     135.941 121.483 139.549  1.00  0.00     0.002 C 
ATOM     25  C   UNL     1     137.450 123.587 139.572  1.00  0.00     0.010 C 
ATOM     26  C   UNL     1     137.985 121.641 138.065  1.00  0.00     0.012 C 
ATOM     27  C   UNL     1     134.990 122.486 140.236  1.00  0.00     0.036 C 
ATOM     28  C   UNL     1     136.265 124.240 138.844  1.00  0.00     0.032 C 
ATOM     29  C   UNL     1     134.911 123.821 139.462  1.00  0.00     0.114 C 
BRANCH  29  30
ATOM     30  O   UNL     1     134.459 124.834 140.323  1.00  0.00    -0.393 OA
ATOM     31  H   UNL     1     133.855 125.415 139.790  1.00  0.00     0.210 HD
ENDBRANCH  29  30
ENDBRANCH   1  11
TORSDOF 6
ENDMDL
MODEL 5
REMARK VINA RESULT:    -5.433      2.160      4.833
REMARK INTER + INTRA:          -9.025
REMARK INTER:                  -6.902
REMARK INTRA:                  -2.123
REMARK UNBOUND:                -1.845
REMARK SMILES CC[C@@H](C=C[C@@H](C)[C@@H]1CC[C@@H]2C3=CC[C@H]4C[C@@H](O)CC[C@@]4(C)[C@H]3CC[C@]21C)C(C)C
REMARK SMILES IDX 6 1 7 2 5 3 4 4 3 5 2 6 1 7 28 8 29 9 30 10 8 11 9 12 26 13
REMARK SMILES IDX 10 14 11 15 25 16 27 17 12 18 24 19 23 20 13 21 21 22 14 23
REMARK SMILES IDX 15 24 20 25 22 26 16 27 19 28 17 29 18 30
REMARK H PARENT 18 31
REMARK Flexibility Score: inf
ROOT
ATOM      1  C   UNL     1     140.770 117.861 138.269  1.00  0.00     0.012 C 
ATOM      2  C   UNL     1     141.477 117.278 137.034  1.00  0.00     0.012 C 
ENDROOT
BRANCH   1   3
ATOM      3  C   UNL     1     140.243 116.711 139.103  1.00  0.00    -0.028 C 
ATOM      4  C   UNL     1     140.449 116.553 140.425  1.00  0.00    -0.027 C 
BRANCH   4   5
ATOM      5  C   UNL     1     141.197 117.532 141.317  1.00  0.00     0.014 C 
BRANCH   5   6
ATOM      6  C   UNL     1     142.641 117.030 141.567  1.00  0.00     0.004 C 
ATOM      7  C   UNL     1     142.844 116.558 143.008  1.00  0.00     0.004 C 
ENDBRANCH   5   6
BRANCH   5   8
ATOM      8  C   UNL     1     140.396 117.780 142.631  1.00  0.00    -0.011 C 
ATOM      9  C   UNL     1     140.257 119.267 142.992  1.00  0.00     0.008 C 
ATOM     10  C   UNL     1     139.017 117.103 142.607  1.00  0.00     0.008 C 
ENDBRANCH   5   8
ENDBRANCH   4   5
ENDBRANCH   1   3
BRANCH   1  11
ATOM     11  C   UNL     1     139.608 118.813 137.836  1.00  0.00     0.002 C 
ATOM     12  C   UNL     1     139.906 119.608 136.532  1.00  0.00     0.005 C 
ATOM     13  C   UNL     1     139.156 119.924 138.832  1.00  0.00    -0.023 C 
ATOM     14  C   UNL     1     139.133 120.939 136.636  1.00  0.00     0.009 C 
ATOM     15  C   UNL     1     138.288 120.760 137.886  1.00  0.00     0.021 C 
ATOM     16  C   UNL     1     138.235 119.446 140.004  1.00  0.00     0.008 C 
ATOM     17  C   UNL     1     140.398 120.731 139.358  1.00  0.00     0.012 C 
ATOM     18  C   UNL     1     137.620 121.955 138.546  1.00  0.00    -0.067 C 
ATOM     19  C   UNL     1     137.263 120.540 140.572  1.00  0.00     0.009 C 
ATOM     20  C   UNL     1     137.583 121.978 140.076  1.00  0.00     0.021 C 
ATOM     21  C   UNL     1     136.647 122.558 137.840  1.00  0.00    -0.027 C 
ATOM     22  C   UNL     1     136.747 123.198 140.645  1.00  0.00    -0.023 C 
ATOM     23  C   UNL     1     135.312 122.827 138.469  1.00  0.00     0.031 C 
ATOM     24  C   UNL     1     135.370 123.403 139.901  1.00  0.00     0.002 C 
ATOM     25  C   UNL     1     136.529 123.072 142.193  1.00  0.00     0.010 C 
ATOM     26  C   UNL     1     137.605 124.480 140.403  1.00  0.00     0.012 C 
ATOM     27  C   UNL     1     134.175 122.891 140.732  1.00  0.00     0.036 C 
ATOM     28  C   UNL     1     135.415 123.997 142.702  1.00  0.00     0.032 C 
ATOM     29  C   UNL     1     134.046 123.647 142.074  1.00  0.00     0.114 C 
BRANCH  29  30
ATOM     30  O   UNL     1     133.303 122.871 142.978  1.00  0.00    -0.393 OA
ATOM     31  H   UNL     1     133.139 123.439 143.776  1.00  0.00     0.210 HD
ENDBRANCH  29  30
ENDBRANCH   1  11
TORSDOF 6
ENDMDL
MODEL 6
REMARK VINA RESULT:    -5.428      4.332      9.646
REMARK INTER + INTRA:          -9.017
REMARK INTER:                  -7.891
REMARK INTRA:                  -1.126
REMARK UNBOUND:                -1.845
REMARK SMILES CC[C@@H](C=C[C@@H](C)[C@@H]1CC[C@@H]2C3=CC[C@H]4C[C@@H](O)CC[C@@]4(C)[C@H]3CC[C@]21C)C(C)C
REMARK SMILES IDX 6 1 7 2 5 3 4 4 3 5 2 6 1 7 28 8 29 9 30 10 8 11 9 12 26 13
REMARK SMILES IDX 10 14 11 15 25 16 27 17 12 18 24 19 23 20 13 21 21 22 14 23
REMARK SMILES IDX 15 24 20 25 22 26 16 27 19 28 17 29 18 30
REMARK H PARENT 18 31
REMARK Flexibility Score: inf
ROOT
ATOM      1  C   UNL     1     131.354 125.307 143.302  1.00  0.00     0.012 C 
ATOM      2  C   UNL     1     130.741 125.874 144.593  1.00  0.00     0.012 C 
ENDROOT
BRANCH   1   3
ATOM      3  C   UNL     1     130.508 124.134 142.849  1.00  0.00    -0.028 C 
ATOM      4  C   UNL     1     129.311 124.230 142.240  1.00  0.00    -0.027 C 
BRANCH   4   5
ATOM      5  C   UNL     1     128.629 125.533 141.852  1.00  0.00     0.014 C 
BRANCH   5   6
ATOM      6  C   UNL     1     127.099 125.420 142.070  1.00  0.00     0.004 C 
ATOM      7  C   UNL     1     126.655 123.972 142.287  1.00  0.00     0.004 C 
ENDBRANCH   5   6
BRANCH   5   8
ATOM      8  C   UNL     1     129.014 125.927 140.394  1.00  0.00    -0.011 C 
ATOM      9  C   UNL     1     127.812 126.363 139.540  1.00  0.00     0.008 C 
ATOM     10  C   UNL     1     130.116 126.996 140.353  1.00  0.00     0.008 C 
ENDBRANCH   5   8
ENDBRANCH   4   5
ENDBRANCH   1   3
BRANCH   1  11
ATOM     11  C   UNL     1     132.834 124.866 143.546  1.00  0.00     0.002 C 
ATOM     12  C   UNL     1     133.729 125.990 144.142  1.00  0.00     0.005 C 
ATOM     13  C   UNL     1     133.664 124.363 142.325  1.00  0.00    -0.023 C 
ATOM     14  C   UNL     1     135.166 125.726 143.644  1.00  0.00     0.009 C 
ATOM     15  C   UNL     1     135.058 124.374 142.958  1.00  0.00     0.021 C 
ATOM     16  C   UNL     1     133.373 122.893 141.872  1.00  0.00     0.008 C 
ATOM     17  C   UNL     1     133.551 125.376 141.129  1.00  0.00     0.012 C 
ATOM     18  C   UNL     1     136.164 123.884 142.038  1.00  0.00    -0.067 C 
ATOM     19  C   UNL     1     134.573 122.167 141.167  1.00  0.00     0.009 C 
ATOM     20  C   UNL     1     135.739 123.120 140.781  1.00  0.00     0.021 C 
ATOM     21  C   UNL     1     137.348 123.620 142.618  1.00  0.00    -0.027 C 
ATOM     22  C   UNL     1     136.975 122.545 139.974  1.00  0.00    -0.023 C 
ATOM     23  C   UNL     1     138.035 122.310 142.372  1.00  0.00     0.031 C 
ATOM     24  C   UNL     1     138.045 121.845 140.900  1.00  0.00     0.002 C 
ATOM     25  C   UNL     1     136.513 121.577 138.829  1.00  0.00     0.010 C 
ATOM     26  C   UNL     1     137.672 123.765 139.293  1.00  0.00     0.012 C 
ATOM     27  C   UNL     1     137.964 120.305 140.824  1.00  0.00     0.036 C 
ATOM     28  C   UNL     1     137.663 120.711 138.298  1.00  0.00     0.032 C 
ATOM     29  C   UNL     1     138.241 119.787 139.395  1.00  0.00     0.114 C 
BRANCH  29  30
ATOM     30  O   UNL     1     137.701 118.499 139.252  1.00  0.00    -0.393 OA
ATOM     31  H   UNL     1     138.147 118.086 138.467  1.00  0.00     0.210 HD
ENDBRANCH  29  30
ENDBRANCH   1  11
TORSDOF 6
ENDMDL
MODEL 7
REMARK VINA RESULT:    -5.424      2.913      5.796
REMARK INTER + INTRA:          -9.013
REMARK INTER:                  -7.166
REMARK INTRA:                  -1.846
REMARK UNBOUND:                -1.845
REMARK SMILES CC[C@@H](C=C[C@@H](C)[C@@H]1CC[C@@H]2C3=CC[C@H]4C[C@@H](O)CC[C@@]4(C)[C@H]3CC[C@]21C)C(C)C
REMARK SMILES IDX 6 1 7 2 5 3 4 4 3 5 2 6 1 7 28 8 29 9 30 10 8 11 9 12 26 13
REMARK SMILES IDX 10 14 11 15 25 16 27 17 12 18 24 19 23 20 13 21 21 22 14 23
REMARK SMILES IDX 15 24 20 25 22 26 16 27 19 28 17 29 18 30
REMARK H PARENT 18 31
REMARK Flexibility Score: inf
ROOT
ATOM      1  C   UNL     1     139.726 119.134 140.714  1.00  0.00     0.012 C 
ATOM      2  C   UNL     1     139.926 118.462 139.346  1.00  0.00     0.012 C 
ENDROOT
BRANCH   1   3
ATOM      3  C   UNL     1     140.157 118.158 141.791  1.00  0.00    -0.028 C 
ATOM      4  C   UNL     1     140.571 118.499 143.026  1.00  0.00    -0.027 C 
BRANCH   4   5
ATOM      5  C   UNL     1     140.623 119.918 143.572  1.00  0.00     0.014 C 
BRANCH   5   6
ATOM      6  C   UNL     1     141.998 120.560 143.258  1.00  0.00     0.004 C 
ATOM      7  C   UNL     1     141.872 121.756 142.313  1.00  0.00     0.004 C 
ENDBRANCH   5   6
BRANCH   5   8
ATOM      8  C   UNL     1     140.275 119.922 145.091  1.00  0.00    -0.011 C 
ATOM      9  C   UNL     1     141.481 119.620 145.995  1.00  0.00     0.008 C 
ATOM     10  C   UNL     1     139.593 121.228 145.527  1.00  0.00     0.008 C 
ENDBRANCH   5   8
ENDBRANCH   4   5
ENDBRANCH   1   3
BRANCH   1  11
ATOM     11  C   UNL     1     138.233 119.552 140.906  1.00  0.00     0.002 C 
ATOM     12  C   UNL     1     137.273 118.939 139.847  1.00  0.00     0.005 C 
ATOM     13  C   UNL     1     137.881 121.071 140.865  1.00  0.00    -0.023 C 
ATOM     14  C   UNL     1     136.109 119.937 139.669  1.00  0.00     0.009 C 
ATOM     15  C   UNL     1     136.357 120.965 140.761  1.00  0.00     0.021 C 
ATOM     16  C   UNL     1     138.202 121.873 142.169  1.00  0.00     0.008 C 
ATOM     17  C   UNL     1     138.512 121.747 139.594  1.00  0.00     0.012 C 
ATOM     18  C   UNL     1     135.639 122.304 140.739  1.00  0.00    -0.067 C 
ATOM     19  C   UNL     1     137.297 123.134 142.412  1.00  0.00     0.009 C 
ATOM     20  C   UNL     1     136.439 123.533 141.178  1.00  0.00     0.021 C 
ATOM     21  C   UNL     1     134.307 122.269 140.920  1.00  0.00    -0.027 C 
ATOM     22  C   UNL     1     135.552 124.844 141.243  1.00  0.00    -0.023 C 
ATOM     23  C   UNL     1     133.659 123.153 141.943  1.00  0.00     0.031 C 
ATOM     24  C   UNL     1     134.162 124.614 141.954  1.00  0.00     0.002 C 
ATOM     25  C   UNL     1     136.329 126.030 141.913  1.00  0.00     0.010 C 
ATOM     26  C   UNL     1     135.259 125.260 139.767  1.00  0.00     0.012 C 
ATOM     27  C   UNL     1     134.142 125.175 143.392  1.00  0.00     0.036 C 
ATOM     28  C   UNL     1     135.395 127.169 142.346  1.00  0.00     0.032 C 
ATOM     29  C   UNL     1     134.378 126.702 143.413  1.00  0.00     0.114 C 
BRANCH  29  30
ATOM     30  O   UNL     1     134.828 127.087 144.687  1.00  0.00    -0.393 OA
ATOM     31  H   UNL     1     134.218 127.806 145.001  1.00  0.00     0.210 HD
ENDBRANCH  29  30
ENDBRANCH   1  11
TORSDOF 6
ENDMDL
MODEL 8
REMARK VINA RESULT:    -5.375      4.440      9.912
REMARK INTER + INTRA:          -8.948
REMARK INTER:                  -7.009
REMARK INTRA:                  -1.939
REMARK UNBOUND:                -1.845
REMARK SMILES CC[C@@H](C=C[C@@H](C)[C@@H]1CC[C@@H]2C3=CC[C@H]4C[C@@H](O)CC[C@@]4(C)[C@H]3CC[C@]21C)C(C)C
REMARK SMILES IDX 6 1 7 2 5 3 4 4 3 5 2 6 1 7 28 8 29 9 30 10 8 11 9 12 26 13
REMARK SMILES IDX 10 14 11 15 25 16 27 17 12 18 24 19 23 20 13 21 21 22 14 23
REMARK SMILES IDX 15 24 20 25 22 26 16 27 19 28 17 29 18 30
REMARK H PARENT 18 31
REMARK Flexibility Score: inf
ROOT
ATOM      1  C   UNL     1     132.447 126.862 144.600  1.00  0.00     0.012 C 
ATOM      2  C   UNL     1     132.584 127.970 145.658  1.00  0.00     0.012 C 
ENDROOT
BRANCH   1   3
ATOM      3  C   UNL     1     131.274 125.981 144.984  1.00  0.00    -0.028 C 
ATOM      4  C   UNL     1     130.287 125.598 144.151  1.00  0.00    -0.027 C 
BRANCH   4   5
ATOM      5  C   UNL     1     130.211 125.937 142.670  1.00  0.00     0.014 C 
BRANCH   5   6
ATOM      6  C   UNL     1     129.579 127.338 142.476  1.00  0.00     0.004 C 
ATOM      7  C   UNL     1     130.504 128.285 141.709  1.00  0.00     0.004 C 
ENDBRANCH   5   6
BRANCH   5   8
ATOM      8  C   UNL     1     129.456 124.811 141.900  1.00  0.00    -0.011 C 
ATOM      9  C   UNL     1     129.513 123.446 142.603  1.00  0.00     0.008 C 
ATOM     10  C   UNL     1     128.001 125.194 141.590  1.00  0.00     0.008 C 
ENDBRANCH   5   8
ENDBRANCH   4   5
ENDBRANCH   1   3
BRANCH   1  11
ATOM     11  C   UNL     1     133.765 126.027 144.508  1.00  0.00     0.002 C 
ATOM     12  C   UNL     1     135.039 126.827 144.900  1.00  0.00     0.005 C 
ATOM     13  C   UNL     1     134.148 125.404 143.130  1.00  0.00    -0.023 C 
ATOM     14  C   UNL     1     136.210 126.224 144.095  1.00  0.00     0.009 C 
ATOM     15  C   UNL     1     135.592 125.000 143.439  1.00  0.00     0.021 C 
ATOM     16  C   UNL     1     133.375 124.101 142.741  1.00  0.00     0.008 C 
ATOM     17  C   UNL     1     134.070 126.490 141.996  1.00  0.00     0.012 C 
ATOM     18  C   UNL     1     136.301 124.296 142.294  1.00  0.00    -0.067 C 
ATOM     19  C   UNL     1     134.152 123.130 141.782  1.00  0.00     0.009 C 
ATOM     20  C   UNL     1     135.428 123.761 141.156  1.00  0.00     0.021 C 
ATOM     21  C   UNL     1     137.461 123.687 142.596  1.00  0.00    -0.027 C 
ATOM     22  C   UNL     1     136.260 122.933 140.091  1.00  0.00    -0.023 C 
ATOM     23  C   UNL     1     137.693 122.261 142.195  1.00  0.00     0.031 C 
ATOM     24  C   UNL     1     137.265 121.911 140.752  1.00  0.00     0.002 C 
ATOM     25  C   UNL     1     135.319 122.205 139.070  1.00  0.00     0.010 C 
ATOM     26  C   UNL     1     137.106 123.966 139.283  1.00  0.00     0.012 C 
ATOM     27  C   UNL     1     136.749 120.458 140.685  1.00  0.00     0.036 C 
ATOM     28  C   UNL     1     136.047 121.101 138.290  1.00  0.00     0.032 C 
ATOM     29  C   UNL     1     136.566 119.984 139.225  1.00  0.00     0.114 C 
BRANCH  29  30
ATOM     30  O   UNL     1     135.674 118.899 139.195  1.00  0.00    -0.393 OA
ATOM     31  H   UNL     1     136.157 118.120 139.577  1.00  0.00     0.210 HD
ENDBRANCH  29  30
ENDBRANCH   1  11
TORSDOF 6
ENDMDL
MODEL 9
REMARK VINA RESULT:    -5.333      3.980      7.530
REMARK INTER + INTRA:          -8.892
REMARK INTER:                  -7.802
REMARK INTRA:                  -1.089
REMARK UNBOUND:                -1.845
REMARK SMILES CC[C@@H](C=C[C@@H](C)[C@@H]1CC[C@@H]2C3=CC[C@H]4C[C@@H](O)CC[C@@]4(C)[C@H]3CC[C@]21C)C(C)C
REMARK SMILES IDX 6 1 7 2 5 3 4 4 3 5 2 6 1 7 28 8 29 9 30 10 8 11 9 12 26 13
REMARK SMILES IDX 10 14 11 15 25 16 27 17 12 18 24 19 23 20 13 21 21 22 14 23
REMARK SMILES IDX 15 24 20 25 22 26 16 27 19 28 17 29 18 30
REMARK H PARENT 18 31
REMARK Flexibility Score: inf
ROOT
ATOM      1  C   UNL     1     141.820 120.816 144.450  1.00  0.00     0.012 C 
ATOM      2  C   UNL     1     142.619 119.668 145.089  1.00  0.00     0.012 C 
ENDROOT
BRANCH   1   3
ATOM      3  C   UNL     1     141.508 121.836 145.528  1.00  0.00    -0.028 C 
ATOM      4  C   UNL     1     140.859 121.574 146.679  1.00  0.00    -0.027 C 
BRANCH   4   5
ATOM      5  C   UNL     1     140.378 120.200 147.119  1.00  0.00     0.014 C 
BRANCH   5   6
ATOM      6  C   UNL     1     138.829 120.162 147.152  1.00  0.00     0.004 C 
ATOM      7  C   UNL     1     138.293 119.719 148.514  1.00  0.00     0.004 C 
ENDBRANCH   5   6
BRANCH   5   8
ATOM      8  C   UNL     1     141.030 119.814 148.482  1.00  0.00    -0.011 C 
ATOM      9  C   UNL     1     141.855 118.518 148.420  1.00  0.00     0.008 C 
ATOM     10  C   UNL     1     141.874 120.958 149.066  1.00  0.00     0.008 C 
ENDBRANCH   5   8
ENDBRANCH   4   5
ENDBRANCH   1   3
BRANCH   1  11
ATOM     11  C   UNL     1     140.506 120.274 143.800  1.00  0.00     0.002 C 
ATOM     12  C   UNL     1     140.471 118.725 143.664  1.00  0.00     0.005 C 
ATOM     13  C   UNL     1     140.138 120.763 142.365  1.00  0.00    -0.023 C 
ATOM     14  C   UNL     1     139.599 118.405 142.431  1.00  0.00     0.009 C 
ATOM     15  C   UNL     1     139.027 119.759 142.043  1.00  0.00     0.021 C 
ATOM     16  C   UNL     1     139.508 122.193 142.281  1.00  0.00     0.008 C 
ATOM     17  C   UNL     1     141.369 120.609 141.399  1.00  0.00     0.012 C 
ATOM     18  C   UNL     1     138.377 119.963 140.686  1.00  0.00    -0.067 C 
ATOM     19  C   UNL     1     138.554 122.426 141.056  1.00  0.00     0.009 C 
ATOM     20  C   UNL     1     138.626 121.301 139.985  1.00  0.00     0.021 C 
ATOM     21  C   UNL     1     137.232 119.292 140.467  1.00  0.00    -0.027 C 
ATOM     22  C   UNL     1     137.792 121.450 138.646  1.00  0.00    -0.023 C 
ATOM     23  C   UNL     1     136.019 120.012 139.957  1.00  0.00     0.031 C 
ATOM     24  C   UNL     1     136.286 121.005 138.805  1.00  0.00     0.002 C 
ATOM     25  C   UNL     1     137.883 122.908 138.074  1.00  0.00     0.010 C 
ATOM     26  C   UNL     1     138.454 120.501 137.598  1.00  0.00     0.012 C 
ATOM     27  C   UNL     1     135.328 122.210 138.904  1.00  0.00     0.036 C 
ATOM     28  C   UNL     1     136.796 123.192 137.028  1.00  0.00     0.032 C 
ATOM     29  C   UNL     1     135.376 123.086 137.631  1.00  0.00     0.114 C 
BRANCH  29  30
ATOM     30  O   UNL     1     134.900 124.372 137.931  1.00  0.00    -0.393 OA
ATOM     31  H   UNL     1     135.325 124.643 138.787  1.00  0.00     0.210 HD
ENDBRANCH  29  30
ENDBRANCH   1  11
TORSDOF 6
ENDMDL
