MODEL 1
REMARK VINA RESULT:    -3.285      0.000      0.000
REMARK INTER + INTRA:          -4.573
REMARK INTER:                  -4.342
REMARK INTRA:                  -0.231
REMARK UNBOUND:                -0.231
REMARK SMILES CCCCCCCO
REMARK SMILES IDX 5 1 4 2 3 3 2 4 1 5 6 6 7 7 8 8
REMARK H PARENT 8 9
REMARK Flexibility Score: inf
ROOT
ATOM      1  C   UNL     1     162.434 179.194 168.297  1.00  0.00     0.002 C 
ENDROOT
BRANCH   1   2
ATOM      2  C   UNL     1     163.808 179.126 167.606  1.00  0.00     0.000 C 
BRANCH   2   3
ATOM      3  C   UNL     1     164.746 178.018 168.126  1.00  0.00    -0.000 C 
BRANCH   3   4
ATOM      4  C   UNL     1     165.207 177.004 167.066  1.00  0.00    -0.003 C 
ATOM      5  C   UNL     1     164.279 176.945 165.853  1.00  0.00     0.004 C 
ENDBRANCH   3   4
ENDBRANCH   2   3
ENDBRANCH   1   2
BRANCH   1   6
ATOM      6  C   UNL     1     162.252 178.112 169.373  1.00  0.00     0.028 C 
BRANCH   6   7
ATOM      7  C   UNL     1     160.771 177.842 169.662  1.00  0.00     0.156 C 
BRANCH   7   8
ATOM      8  O   UNL     1     160.376 178.444 170.865  1.00  0.00    -0.396 OA
ATOM      9  H   UNL     1     161.031 179.168 171.049  1.00  0.00     0.210 HD
ENDBRANCH   7   8
ENDBRANCH   6   7
ENDBRANCH   1   6
TORSDOF 6
ENDMDL
MODEL 2
REMARK VINA RESULT:    -3.219      2.290      4.208
REMARK INTER + INTRA:          -4.485
REMARK INTER:                  -4.268
REMARK INTRA:                  -0.217
REMARK UNBOUND:                -0.231
REMARK SMILES CCCCCCCO
REMARK SMILES IDX 5 1 4 2 3 3 2 4 1 5 6 6 7 7 8 8
REMARK H PARENT 8 9
REMARK Flexibility Score: inf
ROOT
ATOM      1  C   UNL     1     165.399 178.264 167.709  1.00  0.00     0.002 C 
ENDROOT
BRANCH   1   2
ATOM      2  C   UNL     1     164.056 178.982 167.935  1.00  0.00     0.000 C 
BRANCH   2   3
ATOM      3  C   UNL     1     163.118 178.306 168.956  1.00  0.00    -0.000 C 
BRANCH   3   4
ATOM      4  C   UNL     1     161.620 178.381 168.613  1.00  0.00    -0.003 C 
ATOM      5  C   UNL     1     160.741 177.636 169.616  1.00  0.00     0.004 C 
ENDBRANCH   3   4
ENDBRANCH   2   3
ENDBRANCH   1   2
BRANCH   1   6
ATOM      6  C   UNL     1     165.232 176.861 167.104  1.00  0.00     0.028 C 
BRANCH   6   7
ATOM      7  C   UNL     1     164.460 176.902 165.781  1.00  0.00     0.156 C 
BRANCH   7   8
ATOM      8  O   UNL     1     163.275 176.158 165.867  1.00  0.00    -0.396 OA
ATOM      9  H   UNL     1     162.727 176.577 166.581  1.00  0.00     0.210 HD
ENDBRANCH   7   8
ENDBRANCH   6   7
ENDBRANCH   1   6
TORSDOF 6
ENDMDL
MODEL 3
REMARK VINA RESULT:    -3.191      2.288      4.120
REMARK INTER + INTRA:          -4.449
REMARK INTER:                  -4.208
REMARK INTRA:                  -0.241
REMARK UNBOUND:                -0.231
REMARK SMILES CCCCCCCO
REMARK SMILES IDX 5 1 4 2 3 3 2 4 1 5 6 6 7 7 8 8
REMARK H PARENT 8 9
REMARK Flexibility Score: inf
ROOT
ATOM      1  C   UNL     1     163.771 178.737 167.210  1.00  0.00     0.002 C 
ENDROOT
BRANCH   1   2
ATOM      2  C   UNL     1     162.705 179.134 168.247  1.00  0.00     0.000 C 
BRANCH   2   3
ATOM      3  C   UNL     1     162.466 178.100 169.367  1.00  0.00    -0.000 C 
BRANCH   3   4
ATOM      4  C   UNL     1     160.988 177.776 169.648  1.00  0.00    -0.003 C 
ATOM      5  C   UNL     1     160.196 177.456 168.382  1.00  0.00     0.004 C 
ENDBRANCH   3   4
ENDBRANCH   2   3
ENDBRANCH   1   2
BRANCH   1   6
ATOM      6  C   UNL     1     164.929 177.933 167.822  1.00  0.00     0.028 C 
BRANCH   6   7
ATOM      7  C   UNL     1     165.165 176.618 167.070  1.00  0.00     0.156 C 
BRANCH   7   8
ATOM      8  O   UNL     1     164.032 176.252 166.330  1.00  0.00    -0.396 OA
ATOM      9  H   UNL     1     163.475 177.069 166.240  1.00  0.00     0.210 HD
ENDBRANCH   7   8
ENDBRANCH   6   7
ENDBRANCH   1   6
TORSDOF 6
ENDMDL
MODEL 4
REMARK VINA RESULT:    -3.144      1.197      1.886
REMARK INTER + INTRA:          -4.385
REMARK INTER:                  -4.138
REMARK INTRA:                  -0.247
REMARK UNBOUND:                -0.231
REMARK SMILES CCCCCCCO
REMARK SMILES IDX 5 1 4 2 3 3 2 4 1 5 6 6 7 7 8 8
REMARK H PARENT 8 9
REMARK Flexibility Score: inf
ROOT
ATOM      1  C   UNL     1     164.204 178.073 168.617  1.00  0.00     0.002 C 
ENDROOT
BRANCH   1   2
ATOM      2  C   UNL     1     165.158 177.947 167.415  1.00  0.00     0.000 C 
BRANCH   2   3
ATOM      3  C   UNL     1     164.973 176.675 166.564  1.00  0.00    -0.000 C 
BRANCH   3   4
ATOM      4  C   UNL     1     164.528 176.923 165.112  1.00  0.00    -0.003 C 
ATOM      5  C   UNL     1     164.452 178.407 164.757  1.00  0.00     0.004 C 
ENDBRANCH   3   4
ENDBRANCH   2   3
ENDBRANCH   1   2
BRANCH   1   6
ATOM      6  C   UNL     1     162.930 178.867 168.287  1.00  0.00     0.028 C 
BRANCH   6   7
ATOM      7  C   UNL     1     161.718 178.343 169.065  1.00  0.00     0.156 C 
BRANCH   7   8
ATOM      8  O   UNL     1     162.091 177.318 169.946  1.00  0.00    -0.396 OA
ATOM      9  H   UNL     1     161.285 177.097 170.482  1.00  0.00     0.210 HD
ENDBRANCH   7   8
ENDBRANCH   6   7
ENDBRANCH   1   6
TORSDOF 6
ENDMDL
MODEL 5
REMARK VINA RESULT:    -3.106      1.586      2.351
REMARK INTER + INTRA:          -4.336
REMARK INTER:                  -4.162
REMARK INTRA:                  -0.174
REMARK UNBOUND:                -0.231
REMARK SMILES CCCCCCCO
REMARK SMILES IDX 5 1 4 2 3 3 2 4 1 5 6 6 7 7 8 8
REMARK H PARENT 8 9
REMARK Flexibility Score: inf
ROOT
ATOM      1  C   UNL     1     163.358 178.500 167.893  1.00  0.00     0.002 C 
ENDROOT
BRANCH   1   2
ATOM      2  C   UNL     1     164.713 177.774 167.811  1.00  0.00     0.000 C 
BRANCH   2   3
ATOM      3  C   UNL     1     165.916 178.674 167.463  1.00  0.00    -0.000 C 
BRANCH   3   4
ATOM      4  C   UNL     1     165.573 180.153 167.216  1.00  0.00    -0.003 C 
ATOM      5  C   UNL     1     166.570 181.113 167.863  1.00  0.00     0.004 C 
ENDBRANCH   3   4
ENDBRANCH   2   3
ENDBRANCH   1   2
BRANCH   1   6
ATOM      6  C   UNL     1     162.753 178.478 169.306  1.00  0.00     0.028 C 
BRANCH   6   7
ATOM      7  C   UNL     1     161.277 178.068 169.284  1.00  0.00     0.156 C 
BRANCH   7   8
ATOM      8  O   UNL     1     160.681 178.268 170.537  1.00  0.00    -0.396 OA
ATOM      9  H   UNL     1     161.018 179.138 170.876  1.00  0.00     0.210 HD
ENDBRANCH   7   8
ENDBRANCH   6   7
ENDBRANCH   1   6
TORSDOF 6
ENDMDL
MODEL 6
REMARK VINA RESULT:    -2.971      2.185      2.772
REMARK INTER + INTRA:          -4.157
REMARK INTER:                  -3.925
REMARK INTRA:                  -0.232
REMARK UNBOUND:                -0.231
REMARK SMILES CCCCCCCO
REMARK SMILES IDX 5 1 4 2 3 3 2 4 1 5 6 6 7 7 8 8
REMARK H PARENT 8 9
REMARK Flexibility Score: inf
ROOT
ATOM      1  C   UNL     1     164.601 178.111 168.185  1.00  0.00     0.002 C 
ENDROOT
BRANCH   1   2
ATOM      2  C   UNL     1     165.855 178.686 167.502  1.00  0.00     0.000 C 
BRANCH   2   3
ATOM      3  C   UNL     1     166.018 180.216 167.617  1.00  0.00    -0.000 C 
BRANCH   3   4
ATOM      4  C   UNL     1     165.969 180.978 166.282  1.00  0.00    -0.003 C 
ATOM      5  C   UNL     1     166.029 180.054 165.066  1.00  0.00     0.004 C 
ENDBRANCH   3   4
ENDBRANCH   2   3
ENDBRANCH   1   2
BRANCH   1   6
ATOM      6  C   UNL     1     163.385 179.045 168.084  1.00  0.00     0.028 C 
BRANCH   6   7
ATOM      7  C   UNL     1     162.249 178.601 169.013  1.00  0.00     0.156 C 
BRANCH   7   8
ATOM      8  O   UNL     1     162.641 177.506 169.796  1.00  0.00    -0.396 OA
ATOM      9  H   UNL     1     163.606 177.629 169.994  1.00  0.00     0.210 HD
ENDBRANCH   7   8
ENDBRANCH   6   7
ENDBRANCH   1   6
TORSDOF 6
ENDMDL
MODEL 7
REMARK VINA RESULT:    -2.957     13.845     14.498
REMARK INTER + INTRA:          -4.138
REMARK INTER:                  -3.989
REMARK INTRA:                  -0.150
REMARK UNBOUND:                -0.231
REMARK SMILES CCCCCCCO
REMARK SMILES IDX 5 1 4 2 3 3 2 4 1 5 6 6 7 7 8 8
REMARK H PARENT 8 9
REMARK Flexibility Score: inf
ROOT
ATOM      1  C   UNL     1     160.381 164.486 167.561  1.00  0.00     0.002 C 
ENDROOT
BRANCH   1   2
ATOM      2  C   UNL     1     161.113 163.671 168.643  1.00  0.00     0.000 C 
BRANCH   2   3
ATOM      3  C   UNL     1     160.947 162.142 168.532  1.00  0.00    -0.000 C 
BRANCH   3   4
ATOM      4  C   UNL     1     161.889 161.456 167.529  1.00  0.00    -0.003 C 
ATOM      5  C   UNL     1     161.185 161.037 166.239  1.00  0.00     0.004 C 
ENDBRANCH   3   4
ENDBRANCH   2   3
ENDBRANCH   1   2
BRANCH   1   6
ATOM      6  C   UNL     1     160.381 165.996 167.849  1.00  0.00     0.028 C 
BRANCH   6   7
ATOM      7  C   UNL     1     159.192 166.406 168.725  1.00  0.00     0.156 C 
BRANCH   7   8
ATOM      8  O   UNL     1     159.568 166.494 170.073  1.00  0.00    -0.396 OA
ATOM      9  H   UNL     1     158.727 166.544 170.600  1.00  0.00     0.210 HD
ENDBRANCH   7   8
ENDBRANCH   6   7
ENDBRANCH   1   6
TORSDOF 6
ENDMDL
MODEL 8
REMARK VINA RESULT:    -2.921     10.525     12.223
REMARK INTER + INTRA:          -4.091
REMARK INTER:                  -3.906
REMARK INTRA:                  -0.185
REMARK UNBOUND:                -0.231
REMARK SMILES CCCCCCCO
REMARK SMILES IDX 5 1 4 2 3 3 2 4 1 5 6 6 7 7 8 8
REMARK H PARENT 8 9
REMARK Flexibility Score: inf
ROOT
ATOM      1  C   UNL     1     169.286 169.483 163.128  1.00  0.00     0.002 C 
ENDROOT
BRANCH   1   2
ATOM      2  C   UNL     1     168.918 170.526 164.198  1.00  0.00     0.000 C 
BRANCH   2   3
ATOM      3  C   UNL     1     167.694 171.403 163.863  1.00  0.00    -0.000 C 
BRANCH   3   4
ATOM      4  C   UNL     1     166.352 170.654 163.809  1.00  0.00    -0.003 C 
ATOM      5  C   UNL     1     165.617 170.841 162.483  1.00  0.00     0.004 C 
ENDBRANCH   3   4
ENDBRANCH   2   3
ENDBRANCH   1   2
BRANCH   1   6
ATOM      6  C   UNL     1     169.515 168.081 163.713  1.00  0.00     0.028 C 
BRANCH   6   7
ATOM      7  C   UNL     1     170.525 167.278 162.886  1.00  0.00     0.156 C 
BRANCH   7   8
ATOM      8  O   UNL     1     171.723 167.990 162.727  1.00  0.00    -0.396 OA
ATOM      9  H   UNL     1     171.506 168.948 162.878  1.00  0.00     0.210 HD
ENDBRANCH   7   8
ENDBRANCH   6   7
ENDBRANCH   1   6
TORSDOF 6
ENDMDL
MODEL 9
REMARK VINA RESULT:    -2.897      8.907     10.182
REMARK INTER + INTRA:          -4.059
REMARK INTER:                  -3.921
REMARK INTRA:                  -0.139
REMARK UNBOUND:                -0.231
REMARK SMILES CCCCCCCO
REMARK SMILES IDX 5 1 4 2 3 3 2 4 1 5 6 6 7 7 8 8
REMARK H PARENT 8 9
REMARK Flexibility Score: inf
ROOT
ATOM      1  C   UNL     1     166.476 170.673 163.781  1.00  0.00     0.002 C 
ENDROOT
BRANCH   1   2
ATOM      2  C   UNL     1     167.918 171.204 163.688  1.00  0.00     0.000 C 
BRANCH   2   3
ATOM      3  C   UNL     1     168.968 170.380 164.461  1.00  0.00    -0.000 C 
BRANCH   3   4
ATOM      4  C   UNL     1     169.837 169.455 163.593  1.00  0.00    -0.003 C 
ATOM      5  C   UNL     1     169.552 167.972 163.831  1.00  0.00     0.004 C 
ENDBRANCH   3   4
ENDBRANCH   2   3
ENDBRANCH   1   2
BRANCH   1   6
ATOM      6  C   UNL     1     165.612 171.076 162.575  1.00  0.00     0.028 C 
BRANCH   6   7
ATOM      7  C   UNL     1     165.811 172.549 162.203  1.00  0.00     0.156 C 
BRANCH   7   8
ATOM      8  O   UNL     1     164.630 173.280 162.394  1.00  0.00    -0.396 OA
ATOM      9  H   UNL     1     164.566 173.467 163.368  1.00  0.00     0.210 HD
ENDBRANCH   7   8
ENDBRANCH   6   7
ENDBRANCH   1   6
TORSDOF 6
ENDMDL
