MODEL 1
REMARK VINA RESULT:    -5.089      0.000      0.000
REMARK INTER + INTRA:          -5.638
REMARK INTER:                  -6.279
REMARK INTRA:                   0.641
REMARK UNBOUND:                 0.641
REMARK SMILES C=C1[C@H]2CC[C@@H]3[C@H]2C(C)(C)CCC[C@]13C
REMARK SMILES IDX 14 1 6 2 7 3 3 4 2 5 1 6 4 7 5 8 15 9 8 10 9 11 10 12 11 13
REMARK SMILES IDX 13 15 12 16
REMARK H PARENT
REMARK Flexibility Score: 80.00
ROOT
ATOM      1  C   UNL     1       8.732  32.006  23.359  1.00  0.00    -0.008 C 
ATOM      2  C   UNL     1      10.112  32.466  23.975  1.00  0.00     0.003 C 
ATOM      3  C   UNL     1      10.670  33.487  22.960  1.00  0.00     0.006 C 
ATOM      4  C   UNL     1       9.388  34.321  22.946  1.00  0.00     0.019 C 
ATOM      5  C   UNL     1       8.339  33.283  22.660  1.00  0.00    -0.068 C 
ATOM      6  C   UNL     1       7.210  33.499  21.975  1.00  0.00     0.009 C 
ATOM      7  C   UNL     1       9.255  34.681  24.445  1.00  0.00     0.008 C 
ATOM      8  C   UNL     1       9.852  33.442  25.156  1.00  0.00     0.005 C 
ATOM      9  C   UNL     1       7.674  31.620  24.428  1.00  0.00     0.016 C 
ENDROOT
BRANCH   3  10
ATOM     10  C   UNL     1      11.299  32.981  21.592  1.00  0.00    -0.032 C 
ATOM     11  C   UNL     1      10.868  33.875  20.402  1.00  0.00     0.011 C 
ATOM     12  C   UNL     1      12.844  33.121  21.699  1.00  0.00     0.011 C 
BRANCH  10  13
ATOM     13  C   UNL     1      11.046  31.480  21.268  1.00  0.00     0.007 CG0
ATOM     14  G   UNL     1       9.586  31.079  21.076  1.00  0.00     0.000 G0
ENDBRANCH  10  13
ENDBRANCH   3  10
BRANCH   1  15
ATOM     15  C   UNL     1       8.877  30.798  22.395  1.00  0.00     0.011 C 
BRANCH  15  16
ATOM     16  C   UNL     1       9.586  31.080  21.074  1.00  0.00     0.001 CG0
ATOM     17  G   UNL     1      11.046  31.481  21.268  1.00  0.00     0.000 G0
ENDBRANCH  15  16
ENDBRANCH   1  15
TORSDOF 0
ENDMDL
MODEL 2
REMARK VINA RESULT:    -4.514      1.636      3.570
REMARK INTER + INTRA:          -4.929
REMARK INTER:                  -5.554
REMARK INTRA:                   0.625
REMARK UNBOUND:                 0.641
REMARK SMILES C=C1[C@H]2CC[C@@H]3[C@H]2C(C)(C)CCC[C@]13C
REMARK SMILES IDX 14 1 6 2 7 3 3 4 2 5 1 6 4 7 5 8 15 9 8 10 9 11 10 12 11 13
REMARK SMILES IDX 13 15 12 16
REMARK H PARENT
REMARK Flexibility Score: 80.00
ROOT
ATOM      1  C   UNL     1       8.950  33.926  23.094  1.00  0.00    -0.008 C 
ATOM      2  C   UNL     1       7.529  33.336  23.449  1.00  0.00     0.003 C 
ATOM      3  C   UNL     1       7.636  31.834  23.111  1.00  0.00     0.006 C 
ATOM      4  C   UNL     1       8.905  31.637  23.942  1.00  0.00     0.019 C 
ATOM      5  C   UNL     1       9.800  32.721  23.411  1.00  0.00    -0.068 C 
ATOM      6  C   UNL     1      11.134  32.646  23.327  1.00  0.00     0.009 C 
ATOM      7  C   UNL     1       8.421  32.107  25.335  1.00  0.00     0.008 C 
ATOM      8  C   UNL     1       7.390  33.211  24.992  1.00  0.00     0.005 C 
ATOM      9  C   UNL     1       9.359  35.134  23.981  1.00  0.00     0.016 C 
ENDROOT
BRANCH   3  10
ATOM     10  C   UNL     1       7.601  31.357  21.596  1.00  0.00    -0.032 C 
ATOM     11  C   UNL     1       8.631  30.230  21.330  1.00  0.00     0.011 C 
ATOM     12  C   UNL     1       6.202  30.736  21.326  1.00  0.00     0.011 C 
BRANCH  10  13
ATOM     13  C   UNL     1       7.753  32.495  20.547  1.00  0.00     0.007 CG0
ATOM     14  G   UNL     1       9.074  33.259  20.581  1.00  0.00     0.000 G0
ENDBRANCH  10  13
ENDBRANCH   3  10
BRANCH   1  15
ATOM     15  C   UNL     1       9.059  34.382  21.614  1.00  0.00     0.011 C 
BRANCH  15  16
ATOM     16  C   UNL     1       9.073  33.268  20.572  1.00  0.00     0.001 CG0
ATOM     17  G   UNL     1       7.763  32.485  20.538  1.00  0.00     0.000 G0
ENDBRANCH  15  16
ENDBRANCH   1  15
TORSDOF 0
ENDMDL
MODEL 3
REMARK VINA RESULT:    -4.467      1.374      3.483
REMARK INTER + INTRA:          -4.871
REMARK INTER:                  -5.503
REMARK INTRA:                   0.632
REMARK UNBOUND:                 0.641
REMARK SMILES C=C1[C@H]2CC[C@@H]3[C@H]2C(C)(C)CCC[C@]13C
REMARK SMILES IDX 14 1 6 2 7 3 3 4 2 5 1 6 4 7 5 8 15 9 8 10 9 11 10 12 11 13
REMARK SMILES IDX 13 15 12 16
REMARK H PARENT
REMARK Flexibility Score: 80.00
ROOT
ATOM      1  C   UNL     1       9.498  31.906  21.362  1.00  0.00    -0.008 C 
ATOM      2  C   UNL     1       8.583  31.296  22.497  1.00  0.00     0.003 C 
ATOM      3  C   UNL     1       8.227  32.498  23.397  1.00  0.00     0.006 C 
ATOM      4  C   UNL     1       7.732  33.352  22.229  1.00  0.00     0.019 C 
ATOM      5  C   UNL     1       8.891  33.284  21.275  1.00  0.00    -0.068 C 
ATOM      6  C   UNL     1       9.253  34.259  20.433  1.00  0.00     0.009 C 
ATOM      7  C   UNL     1       6.626  32.440  21.646  1.00  0.00     0.008 C 
ATOM      8  C   UNL     1       7.166  31.015  21.924  1.00  0.00     0.005 C 
ATOM      9  C   UNL     1       9.374  31.166  20.002  1.00  0.00     0.016 C 
ENDROOT
BRANCH   3  10
ATOM     10  C   UNL     1       9.309  33.083  24.402  1.00  0.00    -0.032 C 
ATOM     11  C   UNL     1       9.287  34.633  24.423  1.00  0.00     0.011 C 
ATOM     12  C   UNL     1       8.921  32.628  25.837  1.00  0.00     0.011 C 
BRANCH  10  13
ATOM     13  C   UNL     1      10.758  32.561  24.185  1.00  0.00     0.007 CG0
ATOM     14  G   UNL     1      11.395  32.908  22.842  1.00  0.00     0.000 G0
ENDBRANCH  10  13
ENDBRANCH   3  10
BRANCH   1  15
ATOM     15  C   UNL     1      11.002  31.920  21.746  1.00  0.00     0.011 C 
BRANCH  15  16
ATOM     16  C   UNL     1      11.400  32.896  22.849  1.00  0.00     0.001 CG0
ATOM     17  G   UNL     1      10.754  32.556  24.190  1.00  0.00     0.000 G0
ENDBRANCH  15  16
ENDBRANCH   1  15
TORSDOF 0
ENDMDL
MODEL 4
REMARK VINA RESULT:    -4.404      2.471      4.080
REMARK INTER + INTRA:          -4.793
REMARK INTER:                  -5.431
REMARK INTRA:                   0.638
REMARK UNBOUND:                 0.641
REMARK SMILES C=C1[C@H]2CC[C@@H]3[C@H]2C(C)(C)CCC[C@]13C
REMARK SMILES IDX 14 1 6 2 7 3 3 4 2 5 1 6 4 7 5 8 15 9 8 10 9 11 10 12 11 13
REMARK SMILES IDX 13 15 12 16
REMARK H PARENT
REMARK Flexibility Score: 80.00
ROOT
ATOM      1  C   UNL     1      11.405  31.928  19.994  1.00  0.00    -0.008 C 
ATOM      2  C   UNL     1      11.490  31.297  21.440  1.00  0.00     0.003 C 
ATOM      3  C   UNL     1      12.806  31.849  22.028  1.00  0.00     0.006 C 
ATOM      4  C   UNL     1      12.447  33.304  21.721  1.00  0.00     0.019 C 
ATOM      5  C   UNL     1      12.098  33.241  20.261  1.00  0.00    -0.068 C 
ATOM      6  C   UNL     1      12.294  34.229  19.380  1.00  0.00     0.009 C 
ATOM      7  C   UNL     1      11.111  33.445  22.489  1.00  0.00     0.008 C 
ATOM      8  C   UNL     1      10.496  32.028  22.384  1.00  0.00     0.005 C 
ATOM      9  C   UNL     1       9.949  32.167  19.507  1.00  0.00     0.016 C 
ENDROOT
BRANCH   3  10
ATOM     10  C   UNL     1      14.200  31.259  21.545  1.00  0.00    -0.032 C 
ATOM     11  C   UNL     1      15.250  32.380  21.337  1.00  0.00     0.011 C 
ATOM     12  C   UNL     1      14.753  30.355  22.682  1.00  0.00     0.011 C 
BRANCH  10  13
ATOM     13  C   UNL     1      14.125  30.341  20.292  1.00  0.00     0.007 CG0
ATOM     14  G   UNL     1      13.624  31.004  19.011  1.00  0.00     0.000 G0
ENDBRANCH  10  13
ENDBRANCH   3  10
BRANCH   1  15
ATOM     15  C   UNL     1      12.117  31.066  18.918  1.00  0.00     0.011 C 
BRANCH  15  16
ATOM     16  C   UNL     1      13.639  31.005  19.011  1.00  0.00     0.001 CG0
ATOM     17  G   UNL     1      14.119  30.351  20.304  1.00  0.00     0.000 G0
ENDBRANCH  15  16
ENDBRANCH   1  15
TORSDOF 0
ENDMDL
MODEL 5
REMARK VINA RESULT:    -4.375      3.309      5.679
REMARK INTER + INTRA:          -4.757
REMARK INTER:                  -5.387
REMARK INTRA:                   0.630
REMARK UNBOUND:                 0.641
REMARK SMILES C=C1[C@H]2CC[C@@H]3[C@H]2C(C)(C)CCC[C@]13C
REMARK SMILES IDX 14 1 6 2 7 3 3 4 2 5 1 6 4 7 5 8 15 9 8 10 9 11 10 12 11 13
REMARK SMILES IDX 13 15 12 16
REMARK H PARENT
REMARK Flexibility Score: 80.00
ROOT
ATOM      1  C   UNL     1      13.281  33.394  19.811  1.00  0.00    -0.008 C 
ATOM      2  C   UNL     1      14.621  33.485  20.642  1.00  0.00     0.003 C 
ATOM      3  C   UNL     1      15.081  32.021  20.803  1.00  0.00     0.006 C 
ATOM      4  C   UNL     1      14.991  31.726  19.305  1.00  0.00     0.019 C 
ATOM      5  C   UNL     1      13.595  32.176  18.978  1.00  0.00    -0.068 C 
ATOM      6  C   UNL     1      12.811  31.633  18.039  1.00  0.00     0.009 C 
ATOM      7  C   UNL     1      15.946  32.802  18.736  1.00  0.00     0.008 C 
ATOM      8  C   UNL     1      15.769  33.983  19.722  1.00  0.00     0.005 C 
ATOM      9  C   UNL     1      13.029  34.628  18.903  1.00  0.00     0.016 C 
ENDROOT
BRANCH   3  10
ATOM     10  C   UNL     1      14.347  31.069  21.842  1.00  0.00    -0.032 C 
ATOM     11  C   UNL     1      14.131  29.649  21.258  1.00  0.00     0.011 C 
ATOM     12  C   UNL     1      15.284  30.892  23.069  1.00  0.00     0.011 C 
BRANCH  10  13
ATOM     13  C   UNL     1      13.017  31.630  22.421  1.00  0.00     0.007 CG0
ATOM     14  G   UNL     1      11.897  31.860  21.409  1.00  0.00     0.000 G0
ENDBRANCH  10  13
ENDBRANCH   3  10
BRANCH   1  15
ATOM     15  C   UNL     1      12.027  33.216  20.709  1.00  0.00     0.011 C 
BRANCH  15  16
ATOM     16  C   UNL     1      11.897  31.870  21.415  1.00  0.00     0.001 CG0
ATOM     17  G   UNL     1      13.025  31.623  22.413  1.00  0.00     0.000 G0
ENDBRANCH  15  16
ENDBRANCH   1  15
TORSDOF 0
ENDMDL
MODEL 6
REMARK VINA RESULT:    -4.301      1.570      3.983
REMARK INTER + INTRA:          -4.667
REMARK INTER:                  -5.293
REMARK INTRA:                   0.626
REMARK UNBOUND:                 0.641
REMARK SMILES C=C1[C@H]2CC[C@@H]3[C@H]2C(C)(C)CCC[C@]13C
REMARK SMILES IDX 14 1 6 2 7 3 3 4 2 5 1 6 4 7 5 8 15 9 8 10 9 11 10 12 11 13
REMARK SMILES IDX 13 15 12 16
REMARK H PARENT
REMARK Flexibility Score: 80.00
ROOT
ATOM      1  C   UNL     1      11.335  32.477  20.136  1.00  0.00    -0.008 C 
ATOM      2  C   UNL     1      11.861  33.501  21.218  1.00  0.00     0.003 C 
ATOM      3  C   UNL     1      11.151  33.086  22.524  1.00  0.00     0.006 C 
ATOM      4  C   UNL     1      11.583  31.624  22.410  1.00  0.00     0.019 C 
ATOM      5  C   UNL     1      11.138  31.270  21.020  1.00  0.00    -0.068 C 
ATOM      6  C   UNL     1      10.725  30.059  20.629  1.00  0.00     0.009 C 
ATOM      7  C   UNL     1      13.123  31.777  22.355  1.00  0.00     0.008 C 
ATOM      8  C   UNL     1      13.313  33.127  21.622  1.00  0.00     0.005 C 
ATOM      9  C   UNL     1      12.368  32.173  19.017  1.00  0.00     0.016 C 
ENDROOT
BRANCH   3  10
ATOM     10  C   UNL     1       9.618  33.443  22.740  1.00  0.00    -0.032 C 
ATOM     11  C   UNL     1       8.848  32.268  23.397  1.00  0.00     0.011 C 
ATOM     12  C   UNL     1       9.542  34.624  23.747  1.00  0.00     0.011 C 
BRANCH  10  13
ATOM     13  C   UNL     1       8.873  33.941  21.468  1.00  0.00     0.007 CG0
ATOM     14  G   UNL     1       8.781  32.941  20.318  1.00  0.00     0.000 G0
ENDBRANCH  10  13
ENDBRANCH   3  10
BRANCH   1  15
ATOM     15  C   UNL     1      10.029  32.951  19.444  1.00  0.00     0.011 C 
BRANCH  15  16
ATOM     16  C   UNL     1       8.775  32.950  20.313  1.00  0.00     0.001 CG0
ATOM     17  G   UNL     1       8.863  33.948  21.466  1.00  0.00     0.000 G0
ENDBRANCH  15  16
ENDBRANCH   1  15
TORSDOF 0
ENDMDL
MODEL 7
REMARK VINA RESULT:    -4.283      2.014      4.904
REMARK INTER + INTRA:          -4.644
REMARK INTER:                  -5.268
REMARK INTRA:                   0.624
REMARK UNBOUND:                 0.641
REMARK SMILES C=C1[C@H]2CC[C@@H]3[C@H]2C(C)(C)CCC[C@]13C
REMARK SMILES IDX 14 1 6 2 7 3 3 4 2 5 1 6 4 7 5 8 15 9 8 10 9 11 10 12 11 13
REMARK SMILES IDX 13 15 12 16
REMARK H PARENT
REMARK Flexibility Score: 80.00
ROOT
ATOM      1  C   UNL     1      13.538  31.070  20.138  1.00  0.00    -0.008 C 
ATOM      2  C   UNL     1      13.111  32.536  19.734  1.00  0.00     0.003 C 
ATOM      3  C   UNL     1      12.576  33.160  21.040  1.00  0.00     0.006 C 
ATOM      4  C   UNL     1      13.827  32.796  21.841  1.00  0.00     0.019 C 
ATOM      5  C   UNL     1      13.962  31.325  21.563  1.00  0.00    -0.068 C 
ATOM      6  C   UNL     1      14.462  30.424  22.417  1.00  0.00     0.009 C 
ATOM      7  C   UNL     1      14.925  33.504  21.011  1.00  0.00     0.008 C 
ATOM      8  C   UNL     1      14.379  33.417  19.564  1.00  0.00     0.005 C 
ATOM      9  C   UNL     1      14.726  30.518  19.304  1.00  0.00     0.016 C 
ENDROOT
BRANCH   3  10
ATOM     10  C   UNL     1      11.141  32.752  21.585  1.00  0.00    -0.032 C 
ATOM     11  C   UNL     1      11.148  32.570  23.125  1.00  0.00     0.011 C 
ATOM     12  C   UNL     1      10.169  33.929  21.295  1.00  0.00     0.011 C 
BRANCH  10  13
ATOM     13  C   UNL     1      10.504  31.514  20.892  1.00  0.00     0.007 CG0
ATOM     14  G   UNL     1      11.267  30.200  21.044  1.00  0.00     0.000 G0
ENDBRANCH  10  13
ENDBRANCH   3  10
BRANCH   1  15
ATOM     15  C   UNL     1      12.375  30.050  20.018  1.00  0.00     0.011 C 
BRANCH  15  16
ATOM     16  C   UNL     1      11.248  30.199  21.036  1.00  0.00     0.001 CG0
ATOM     17  G   UNL     1      10.504  31.525  20.894  1.00  0.00     0.000 G0
ENDBRANCH  15  16
ENDBRANCH   1  15
TORSDOF 0
ENDMDL
MODEL 8
REMARK VINA RESULT:    -4.172      1.497      3.043
REMARK INTER + INTRA:          -4.508
REMARK INTER:                  -5.134
REMARK INTRA:                   0.626
REMARK UNBOUND:                 0.641
REMARK SMILES C=C1[C@H]2CC[C@@H]3[C@H]2C(C)(C)CCC[C@]13C
REMARK SMILES IDX 14 1 6 2 7 3 3 4 2 5 1 6 4 7 5 8 15 9 8 10 9 11 10 12 11 13
REMARK SMILES IDX 13 15 12 16
REMARK H PARENT
REMARK Flexibility Score: 80.00
ROOT
ATOM      1  C   UNL     1       9.047  33.326  22.774  1.00  0.00    -0.008 C 
ATOM      2  C   UNL     1      10.159  32.218  22.951  1.00  0.00     0.003 C 
ATOM      3  C   UNL     1      10.263  31.545  21.566  1.00  0.00     0.006 C 
ATOM      4  C   UNL     1      10.449  32.872  20.827  1.00  0.00     0.019 C 
ATOM      5  C   UNL     1       9.283  33.677  21.326  1.00  0.00    -0.068 C 
ATOM      6  C   UNL     1       8.633  34.609  20.620  1.00  0.00     0.009 C 
ATOM      7  C   UNL     1      11.706  33.429  21.537  1.00  0.00     0.008 C 
ATOM      8  C   UNL     1      11.560  32.890  22.982  1.00  0.00     0.005 C 
ATOM      9  C   UNL     1       9.261  34.569  23.681  1.00  0.00     0.016 C 
ENDROOT
BRANCH   3  10
ATOM     10  C   UNL     1       9.139  30.528  21.093  1.00  0.00    -0.032 C 
ATOM     11  C   UNL     1       8.777  30.734  19.599  1.00  0.00     0.011 C 
ATOM     12  C   UNL     1       9.722  29.091  21.201  1.00  0.00     0.011 C 
BRANCH  10  13
ATOM     13  C   UNL     1       7.854  30.515  21.969  1.00  0.00     0.007 CG0
ATOM     14  G   UNL     1       7.065  31.821  22.012  1.00  0.00     0.000 G0
ENDBRANCH  10  13
ENDBRANCH   3  10
BRANCH   1  15
ATOM     15  C   UNL     1       7.617  32.791  23.051  1.00  0.00     0.011 C 
BRANCH  15  16
ATOM     16  C   UNL     1       7.060  31.811  22.023  1.00  0.00     0.001 CG0
ATOM     17  G   UNL     1       7.860  30.512  21.962  1.00  0.00     0.000 G0
ENDBRANCH  15  16
ENDBRANCH   1  15
TORSDOF 0
ENDMDL
MODEL 9
REMARK VINA RESULT:    -4.147      3.101      5.331
REMARK INTER + INTRA:          -4.477
REMARK INTER:                  -5.104
REMARK INTRA:                   0.627
REMARK UNBOUND:                 0.641
REMARK SMILES C=C1[C@H]2CC[C@@H]3[C@H]2C(C)(C)CCC[C@]13C
REMARK SMILES IDX 14 1 6 2 7 3 3 4 2 5 1 6 4 7 5 8 15 9 8 10 9 11 10 12 11 13
REMARK SMILES IDX 13 15 12 16
REMARK H PARENT
REMARK Flexibility Score: 80.00
ROOT
ATOM      1  C   UNL     1      13.250  32.782  19.745  1.00  0.00    -0.008 C 
ATOM      2  C   UNL     1      11.938  32.003  20.154  1.00  0.00     0.003 C 
ATOM      3  C   UNL     1      12.409  30.968  21.196  1.00  0.00     0.006 C 
ATOM      4  C   UNL     1      13.119  32.013  22.058  1.00  0.00     0.019 C 
ATOM      5  C   UNL     1      13.995  32.708  21.054  1.00  0.00    -0.068 C 
ATOM      6  C   UNL     1      15.192  33.243  21.318  1.00  0.00     0.009 C 
ATOM      7  C   UNL     1      11.951  32.980  22.368  1.00  0.00     0.008 C 
ATOM      8  C   UNL     1      11.078  32.894  21.092  1.00  0.00     0.005 C 
ATOM      9  C   UNL     1      12.994  34.261  19.344  1.00  0.00     0.016 C 
ENDROOT
BRANCH   3  10
ATOM     10  C   UNL     1      13.192  29.668  20.725  1.00  0.00    -0.032 C 
ATOM     11  C   UNL     1      14.372  29.339  21.675  1.00  0.00     0.011 C 
ATOM     12  C   UNL     1      12.214  28.464  20.819  1.00  0.00     0.011 C 
BRANCH  10  13
ATOM     13  C   UNL     1      13.672  29.691  19.245  1.00  0.00     0.007 CG0
ATOM     14  G   UNL     1      14.664  30.793  18.885  1.00  0.00     0.000 G0
ENDBRANCH  10  13
ENDBRANCH   3  10
BRANCH   1  15
ATOM     15  C   UNL     1      14.007  32.110  18.569  1.00  0.00     0.011 C 
BRANCH  15  16
ATOM     16  C   UNL     1      14.679  30.776  18.883  1.00  0.00     0.001 CG0
ATOM     17  G   UNL     1      13.672  29.684  19.235  1.00  0.00     0.000 G0
ENDBRANCH  15  16
ENDBRANCH   1  15
TORSDOF 0
ENDMDL
