MODEL 1
REMARK VINA RESULT:    -3.316      0.000      0.000
REMARK INTER + INTRA:          -3.941
REMARK INTER:                  -3.898
REMARK INTRA:                  -0.043
REMARK UNBOUND:                -0.043
REMARK SMILES O=C([O-])CCC(=O)[O-]
REMARK SMILES IDX 4 1 2 2 1 3 3 4 5 5 6 6 7 7 8 8
REMARK H PARENT
REMARK Flexibility Score: inf
ROOT
ATOM      1  C   UNL     1      33.635  30.473  47.760  1.00  0.00     0.059 C 
ENDROOT
BRANCH   1   2
ATOM      2  C   UNL     1      34.353  31.331  46.764  1.00  0.00     0.042 C 
ATOM      3  O   UNL     1      35.346  32.019  47.120  1.00  0.00    -0.550 OA
ATOM      4  O   UNL     1      33.951  31.338  45.434  1.00  0.00    -0.550 OA
ENDBRANCH   1   2
BRANCH   1   5
ATOM      5  C   UNL     1      33.413  29.054  47.227  1.00  0.00     0.059 C 
BRANCH   5   6
ATOM      6  C   UNL     1      32.055  28.900  46.613  1.00  0.00     0.042 C 
ATOM      7  O   UNL     1      31.787  27.890  45.912  1.00  0.00    -0.550 OA
ATOM      8  O   UNL     1      31.099  29.895  46.781  1.00  0.00    -0.550 OA
ENDBRANCH   5   6
ENDBRANCH   1   5
TORSDOF 3
ENDMDL
MODEL 2
REMARK VINA RESULT:    -3.307      1.380      3.816
REMARK INTER + INTRA:          -3.930
REMARK INTER:                  -3.806
REMARK INTRA:                  -0.123
REMARK UNBOUND:                -0.043
REMARK SMILES O=C([O-])CCC(=O)[O-]
REMARK SMILES IDX 4 1 2 2 1 3 3 4 5 5 6 6 7 7 8 8
REMARK H PARENT
REMARK Flexibility Score: inf
ROOT
ATOM      1  C   UNL     1      33.356  29.157  47.323  1.00  0.00     0.059 C 
ENDROOT
BRANCH   1   2
ATOM      2  C   UNL     1      32.068  28.952  46.586  1.00  0.00     0.042 C 
ATOM      3  O   UNL     1      31.900  27.924  45.879  1.00  0.00    -0.550 OA
ATOM      4  O   UNL     1      31.039  29.877  46.712  1.00  0.00    -0.550 OA
ENDBRANCH   1   2
BRANCH   1   5
ATOM      5  C   UNL     1      33.938  30.551  47.065  1.00  0.00     0.059 C 
BRANCH   5   6
ATOM      6  C   UNL     1      33.949  31.384  48.310  1.00  0.00     0.042 C 
ATOM      7  O   UNL     1      34.938  32.117  48.573  1.00  0.00    -0.550 OA
ATOM      8  O   UNL     1      32.884  31.319  49.200  1.00  0.00    -0.550 OA
ENDBRANCH   5   6
ENDBRANCH   1   5
TORSDOF 3
ENDMDL
MODEL 3
REMARK VINA RESULT:    -3.291      1.368      1.972
REMARK INTER + INTRA:          -3.911
REMARK INTER:                  -3.788
REMARK INTRA:                  -0.123
REMARK UNBOUND:                -0.043
REMARK SMILES O=C([O-])CCC(=O)[O-]
REMARK SMILES IDX 4 1 2 2 1 3 3 4 5 5 6 6 7 7 8 8
REMARK H PARENT
REMARK Flexibility Score: inf
ROOT
ATOM      1  C   UNL     1      33.887  30.534  47.047  1.00  0.00     0.059 C 
ENDROOT
BRANCH   1   2
ATOM      2  C   UNL     1      33.933  31.353  48.300  1.00  0.00     0.042 C 
ATOM      3  O   UNL     1      34.929  32.084  48.543  1.00  0.00    -0.550 OA
ATOM      4  O   UNL     1      32.858  31.339  49.180  1.00  0.00    -0.550 OA
ENDBRANCH   1   2
BRANCH   1   5
ATOM      5  C   UNL     1      33.297  29.143  47.302  1.00  0.00     0.059 C 
BRANCH   5   6
ATOM      6  C   UNL     1      32.013  28.942  46.557  1.00  0.00     0.042 C 
ATOM      7  O   UNL     1      31.085  29.787  46.654  1.00  0.00    -0.550 OA
ATOM      8  O   UNL     1      31.827  27.800  45.788  1.00  0.00    -0.550 OA
ENDBRANCH   5   6
ENDBRANCH   1   5
TORSDOF 3
ENDMDL
MODEL 4
REMARK VINA RESULT:    -3.283     11.334     12.269
REMARK INTER + INTRA:          -3.902
REMARK INTER:                  -3.770
REMARK INTRA:                  -0.132
REMARK UNBOUND:                -0.043
REMARK SMILES O=C([O-])CCC(=O)[O-]
REMARK SMILES IDX 4 1 2 2 1 3 3 4 5 5 6 6 7 7 8 8
REMARK H PARENT
REMARK Flexibility Score: inf
ROOT
ATOM      1  C   UNL     1      28.386  40.298  44.181  1.00  0.00     0.059 C 
ENDROOT
BRANCH   1   2
ATOM      2  C   UNL     1      29.724  39.794  44.626  1.00  0.00     0.042 C 
ATOM      3  O   UNL     1      30.728  39.914  43.875  1.00  0.00    -0.550 OA
ATOM      4  O   UNL     1      29.871  39.228  45.887  1.00  0.00    -0.550 OA
ENDBRANCH   1   2
BRANCH   1   5
ATOM      5  C   UNL     1      27.570  40.847  45.357  1.00  0.00     0.059 C 
BRANCH   5   6
ATOM      6  C   UNL     1      27.880  42.289  45.620  1.00  0.00     0.042 C 
ATOM      7  O   UNL     1      27.502  43.176  44.810  1.00  0.00    -0.550 OA
ATOM      8  O   UNL     1      28.623  42.648  46.737  1.00  0.00    -0.550 OA
ENDBRANCH   5   6
ENDBRANCH   1   5
TORSDOF 3
ENDMDL
MODEL 5
REMARK VINA RESULT:    -3.273     11.401     12.265
REMARK INTER + INTRA:          -3.890
REMARK INTER:                  -3.774
REMARK INTRA:                  -0.116
REMARK UNBOUND:                -0.043
REMARK SMILES O=C([O-])CCC(=O)[O-]
REMARK SMILES IDX 4 1 2 2 1 3 3 4 5 5 6 6 7 7 8 8
REMARK H PARENT
REMARK Flexibility Score: inf
ROOT
ATOM      1  C   UNL     1      27.557  40.918  45.352  1.00  0.00     0.059 C 
ENDROOT
BRANCH   1   2
ATOM      2  C   UNL     1      27.839  42.358  45.652  1.00  0.00     0.042 C 
ATOM      3  O   UNL     1      27.349  43.264  44.927  1.00  0.00    -0.550 OA
ATOM      4  O   UNL     1      28.609  42.701  46.756  1.00  0.00    -0.550 OA
ENDBRANCH   1   2
BRANCH   1   5
ATOM      5  C   UNL     1      28.389  40.414  44.168  1.00  0.00     0.059 C 
BRANCH   5   6
ATOM      6  C   UNL     1      29.699  39.841  44.616  1.00  0.00     0.042 C 
ATOM      7  O   UNL     1      30.713  39.925  43.875  1.00  0.00    -0.550 OA
ATOM      8  O   UNL     1      29.787  39.178  45.833  1.00  0.00    -0.550 OA
ENDBRANCH   5   6
ENDBRANCH   1   5
TORSDOF 3
ENDMDL
MODEL 6
REMARK VINA RESULT:    -3.244     13.867     14.481
REMARK INTER + INTRA:          -3.856
REMARK INTER:                  -3.734
REMARK INTRA:                  -0.122
REMARK UNBOUND:                -0.043
REMARK SMILES O=C([O-])CCC(=O)[O-]
REMARK SMILES IDX 4 1 2 2 1 3 3 4 5 5 6 6 7 7 8 8
REMARK H PARENT
REMARK Flexibility Score: inf
ROOT
ATOM      1  C   UNL     1      20.018  31.904  44.397  1.00  0.00     0.059 C 
ENDROOT
BRANCH   1   2
ATOM      2  C   UNL     1      19.430  33.279  44.479  1.00  0.00     0.042 C 
ATOM      3  O   UNL     1      18.306  33.456  45.017  1.00  0.00    -0.550 OA
ATOM      4  O   UNL     1      20.143  34.370  43.998  1.00  0.00    -0.550 OA
ENDBRANCH   1   2
BRANCH   1   5
ATOM      5  C   UNL     1      19.000  30.884  43.876  1.00  0.00     0.059 C 
BRANCH   5   6
ATOM      6  C   UNL     1      18.616  29.897  44.936  1.00  0.00     0.042 C 
ATOM      7  O   UNL     1      18.203  28.752  44.615  1.00  0.00    -0.550 OA
ATOM      8  O   UNL     1      18.674  30.257  46.276  1.00  0.00    -0.550 OA
ENDBRANCH   5   6
ENDBRANCH   1   5
TORSDOF 3
ENDMDL
MODEL 7
REMARK VINA RESULT:    -3.227     13.794     14.825
REMARK INTER + INTRA:          -3.835
REMARK INTER:                  -3.715
REMARK INTRA:                  -0.121
REMARK UNBOUND:                -0.043
REMARK SMILES O=C([O-])CCC(=O)[O-]
REMARK SMILES IDX 4 1 2 2 1 3 3 4 5 5 6 6 7 7 8 8
REMARK H PARENT
REMARK Flexibility Score: inf
ROOT
ATOM      1  C   UNL     1      18.937  30.966  43.875  1.00  0.00     0.059 C 
ENDROOT
BRANCH   1   2
ATOM      2  C   UNL     1      18.644  29.962  44.947  1.00  0.00     0.042 C 
ATOM      3  O   UNL     1      18.258  28.803  44.642  1.00  0.00    -0.550 OA
ATOM      4  O   UNL     1      18.838  30.294  46.282  1.00  0.00    -0.550 OA
ENDBRANCH   1   2
BRANCH   1   5
ATOM      5  C   UNL     1      20.044  31.938  44.299  1.00  0.00     0.059 C 
BRANCH   5   6
ATOM      6  C   UNL     1      19.516  33.327  44.487  1.00  0.00     0.042 C 
ATOM      7  O   UNL     1      20.243  34.322  44.227  1.00  0.00    -0.550 OA
ATOM      8  O   UNL     1      18.236  33.523  44.990  1.00  0.00    -0.550 OA
ENDBRANCH   5   6
ENDBRANCH   1   5
TORSDOF 3
ENDMDL
MODEL 8
REMARK VINA RESULT:    -3.206     10.635     11.384
REMARK INTER + INTRA:          -3.811
REMARK INTER:                  -3.707
REMARK INTRA:                  -0.104
REMARK UNBOUND:                -0.043
REMARK SMILES O=C([O-])CCC(=O)[O-]
REMARK SMILES IDX 4 1 2 2 1 3 3 4 5 5 6 6 7 7 8 8
REMARK H PARENT
REMARK Flexibility Score: inf
ROOT
ATOM      1  C   UNL     1      28.338  40.591  44.245  1.00  0.00     0.059 C 
ENDROOT
BRANCH   1   2
ATOM      2  C   UNL     1      28.033  41.731  45.168  1.00  0.00     0.042 C 
ATOM      3  O   UNL     1      28.178  41.596  46.411  1.00  0.00    -0.550 OA
ATOM      4  O   UNL     1      27.630  42.956  44.651  1.00  0.00    -0.550 OA
ENDBRANCH   1   2
BRANCH   1   5
ATOM      5  C   UNL     1      29.673  39.924  44.593  1.00  0.00     0.059 C 
BRANCH   5   6
ATOM      6  C   UNL     1      29.471  38.578  45.218  1.00  0.00     0.042 C 
ATOM      7  O   UNL     1      29.598  38.431  46.462  1.00  0.00    -0.550 OA
ATOM      8  O   UNL     1      29.186  37.477  44.420  1.00  0.00    -0.550 OA
ENDBRANCH   5   6
ENDBRANCH   1   5
TORSDOF 3
ENDMDL
MODEL 9
REMARK VINA RESULT:    -3.186     10.665     11.590
REMARK INTER + INTRA:          -3.787
REMARK INTER:                  -3.674
REMARK INTRA:                  -0.113
REMARK UNBOUND:                -0.043
REMARK SMILES O=C([O-])CCC(=O)[O-]
REMARK SMILES IDX 4 1 2 2 1 3 3 4 5 5 6 6 7 7 8 8
REMARK H PARENT
REMARK Flexibility Score: inf
ROOT
ATOM      1  C   UNL     1      29.656  39.926  44.659  1.00  0.00     0.059 C 
ENDROOT
BRANCH   1   2
ATOM      2  C   UNL     1      29.412  38.573  45.253  1.00  0.00     0.042 C 
ATOM      3  O   UNL     1      29.240  38.447  46.494  1.00  0.00    -0.550 OA
ATOM      4  O   UNL     1      29.332  37.456  44.430  1.00  0.00    -0.550 OA
ENDBRANCH   1   2
BRANCH   1   5
ATOM      5  C   UNL     1      28.345  40.616  44.269  1.00  0.00     0.059 C 
BRANCH   5   6
ATOM      6  C   UNL     1      28.031  41.762  45.181  1.00  0.00     0.042 C 
ATOM      7  O   UNL     1      28.098  41.615  46.429  1.00  0.00    -0.550 OA
ATOM      8  O   UNL     1      27.622  42.980  44.652  1.00  0.00    -0.550 OA
ENDBRANCH   5   6
ENDBRANCH   1   5
TORSDOF 3
ENDMDL
