MODEL 1
REMARK VINA RESULT:    -2.358      0.000      0.000
REMARK INTER + INTRA:          -2.358
REMARK INTER:                  -2.358
REMARK INTRA:                   0.000
REMARK UNBOUND:                 0.000
REMARK SMILES CC(=O)[O-]
REMARK SMILES IDX 1 1 2 2 3 3 4 4
REMARK H PARENT
REMARK Flexibility Score: inf
ROOT
ATOM      1  C   UNL     1     -20.234  -9.196 -13.384  1.00  0.00     0.063 C 
ATOM      2  C   UNL     1     -20.125  -7.717 -13.542  1.00  0.00     0.038 C 
ATOM      3  O   UNL     1     -20.606  -6.952 -12.666  1.00  0.00    -0.550 OA
ATOM      4  O   UNL     1     -19.445  -7.181 -14.628  1.00  0.00    -0.550 OA
ENDROOT
TORSDOF 0
ENDMDL
MODEL 2
REMARK VINA RESULT:    -2.344      0.090      1.620
REMARK INTER + INTRA:          -2.344
REMARK INTER:                  -2.344
REMARK INTRA:                   0.000
REMARK UNBOUND:                 0.000
REMARK SMILES CC(=O)[O-]
REMARK SMILES IDX 1 1 2 2 3 3 4 4
REMARK H PARENT
REMARK Flexibility Score: inf
ROOT
ATOM      1  C   UNL     1     -20.247  -9.196 -13.375  1.00  0.00     0.063 C 
ATOM      2  C   UNL     1     -20.093  -7.722 -13.543  1.00  0.00     0.038 C 
ATOM      3  O   UNL     1     -19.481  -7.261 -14.540  1.00  0.00    -0.550 OA
ATOM      4  O   UNL     1     -20.673  -6.853 -12.627  1.00  0.00    -0.550 OA
ENDROOT
TORSDOF 0
ENDMDL
MODEL 3
REMARK VINA RESULT:    -2.237     16.969     17.209
REMARK INTER + INTRA:          -2.237
REMARK INTER:                  -2.237
REMARK INTRA:                   0.000
REMARK UNBOUND:                 0.000
REMARK SMILES CC(=O)[O-]
REMARK SMILES IDX 1 1 2 2 3 3 4 4
REMARK H PARENT
REMARK Flexibility Score: inf
ROOT
ATOM      1  C   UNL     1      -9.381  -8.508   0.064  1.00  0.00     0.063 C 
ATOM      2  C   UNL     1     -10.083  -7.237   0.407  1.00  0.00     0.038 C 
ATOM      3  O   UNL     1      -9.524  -6.388   1.149  1.00  0.00    -0.550 OA
ATOM      4  O   UNL     1     -11.331  -6.963  -0.137  1.00  0.00    -0.550 OA
ENDROOT
TORSDOF 0
ENDMDL
MODEL 4
REMARK VINA RESULT:    -2.179     17.109     17.359
REMARK INTER + INTRA:          -2.179
REMARK INTER:                  -2.179
REMARK INTRA:                   0.000
REMARK UNBOUND:                 0.000
REMARK SMILES CC(=O)[O-]
REMARK SMILES IDX 1 1 2 2 3 3 4 4
REMARK H PARENT
REMARK Flexibility Score: inf
ROOT
ATOM      1  C   UNL     1     -11.191  -6.688   0.106  1.00  0.00     0.063 C 
ATOM      2  C   UNL     1      -9.857  -7.315   0.338  1.00  0.00     0.038 C 
ATOM      3  O   UNL     1      -9.628  -8.482  -0.073  1.00  0.00    -0.550 OA
ATOM      4  O   UNL     1      -8.847  -6.591   0.959  1.00  0.00    -0.550 OA
ENDROOT
TORSDOF 0
ENDMDL
MODEL 5
REMARK VINA RESULT:    -2.093      1.512      2.062
REMARK INTER + INTRA:          -2.093
REMARK INTER:                  -2.093
REMARK INTRA:                   0.000
REMARK UNBOUND:                 0.000
REMARK SMILES CC(=O)[O-]
REMARK SMILES IDX 1 1 2 2 3 3 4 4
REMARK H PARENT
REMARK Flexibility Score: inf
ROOT
ATOM      1  C   UNL     1     -20.574  -6.788 -12.834  1.00  0.00     0.063 C 
ATOM      2  C   UNL     1     -19.813  -7.592 -13.833  1.00  0.00     0.038 C 
ATOM      3  O   UNL     1     -19.290  -7.029 -14.830  1.00  0.00    -0.550 OA
ATOM      4  O   UNL     1     -19.634  -8.955 -13.639  1.00  0.00    -0.550 OA
ENDROOT
TORSDOF 0
ENDMDL
MODEL 6
REMARK VINA RESULT:    -2.071     18.005     18.154
REMARK INTER + INTRA:          -2.071
REMARK INTER:                  -2.071
REMARK INTRA:                   0.000
REMARK UNBOUND:                 0.000
REMARK SMILES CC(=O)[O-]
REMARK SMILES IDX 1 1 2 2 3 3 4 4
REMARK H PARENT
REMARK Flexibility Score: inf
ROOT
ATOM      1  C   UNL     1      -9.255  -8.563  -0.022  1.00  0.00     0.063 C 
ATOM      2  C   UNL     1      -7.794  -8.450  -0.300  1.00  0.00     0.038 C 
ATOM      3  O   UNL     1      -7.230  -7.326  -0.261  1.00  0.00    -0.550 OA
ATOM      4  O   UNL     1      -7.042  -9.591  -0.549  1.00  0.00    -0.550 OA
ENDROOT
TORSDOF 0
ENDMDL
MODEL 7
REMARK VINA RESULT:    -2.020     17.233     17.483
REMARK INTER + INTRA:          -2.020
REMARK INTER:                  -2.020
REMARK INTRA:                   0.000
REMARK UNBOUND:                 0.000
REMARK SMILES CC(=O)[O-]
REMARK SMILES IDX 1 1 2 2 3 3 4 4
REMARK H PARENT
REMARK Flexibility Score: inf
ROOT
ATOM      1  C   UNL     1      -8.315  -6.968   0.578  1.00  0.00     0.063 C 
ATOM      2  C   UNL     1      -9.476  -7.791   0.132  1.00  0.00     0.038 C 
ATOM      3  O   UNL     1      -9.316  -9.006  -0.153  1.00  0.00    -0.550 OA
ATOM      4  O   UNL     1     -10.747  -7.233   0.082  1.00  0.00    -0.550 OA
ENDROOT
TORSDOF 0
ENDMDL
MODEL 8
REMARK VINA RESULT:    -2.020     17.993     18.165
REMARK INTER + INTRA:          -2.020
REMARK INTER:                  -2.020
REMARK INTRA:                   0.000
REMARK UNBOUND:                 0.000
REMARK SMILES CC(=O)[O-]
REMARK SMILES IDX 1 1 2 2 3 3 4 4
REMARK H PARENT
REMARK Flexibility Score: inf
ROOT
ATOM      1  C   UNL     1      -6.962  -9.896  -0.268  1.00  0.00     0.063 C 
ATOM      2  C   UNL     1      -7.857  -8.703  -0.273  1.00  0.00     0.038 C 
ATOM      3  O   UNL     1      -9.105  -8.850  -0.198  1.00  0.00    -0.550 OA
ATOM      4  O   UNL     1      -7.314  -7.424  -0.305  1.00  0.00    -0.550 OA
ENDROOT
TORSDOF 0
ENDMDL
MODEL 9
REMARK VINA RESULT:    -1.982      1.290      2.237
REMARK INTER + INTRA:          -1.982
REMARK INTER:                  -1.982
REMARK INTRA:                   0.000
REMARK UNBOUND:                 0.000
REMARK SMILES CC(=O)[O-]
REMARK SMILES IDX 1 1 2 2 3 3 4 4
REMARK H PARENT
REMARK Flexibility Score: inf
ROOT
ATOM      1  C   UNL     1     -19.540  -6.667 -14.878  1.00  0.00     0.063 C 
ATOM      2  C   UNL     1     -19.930  -7.559 -13.748  1.00  0.00     0.038 C 
ATOM      3  O   UNL     1     -19.550  -8.758 -13.731  1.00  0.00    -0.550 OA
ATOM      4  O   UNL     1     -20.667  -7.054 -12.685  1.00  0.00    -0.550 OA
ENDROOT
TORSDOF 0
ENDMDL
