MODEL 1
REMARK VINA RESULT:    -4.129      0.000      0.000
REMARK INTER + INTRA:          -4.491
REMARK INTER:                  -4.491
REMARK INTRA:                   0.000
REMARK UNBOUND:                 0.000
REMARK SMILES Cc1cc(O)c2c(c1)C(=O)c1cc(O)cc(O)c1C2=O
REMARK SMILES IDX 1 1 2 2 8 3 7 4 6 5 4 6 3 7 19 8 20 9 18 10 11 11 9 12 10 13
REMARK SMILES IDX 12 14 13 15 15 16 16 17 5 18 17 20 14 22
REMARK H PARENT 5 19 17 21 14 23
REMARK Flexibility Score: inf
ROOT
ATOM      1  C   UNL     1      27.814  44.123  18.628  1.00  0.00     0.044 C 
ATOM      2  C   UNL     1      27.438  42.823  19.278  1.00  0.00    -0.047 A 
ATOM      3  C   UNL     1      28.009  41.625  18.839  1.00  0.00     0.016 A 
ATOM      4  C   UNL     1      27.629  40.397  19.409  1.00  0.00     0.038 A 
ATOM      5  C   UNL     1      26.639  40.364  20.418  1.00  0.00     0.076 A 
ATOM      6  C   UNL     1      26.107  41.591  20.900  1.00  0.00     0.127 A 
ATOM      7  C   UNL     1      26.483  42.797  20.298  1.00  0.00     0.050 A 
ATOM      8  C   UNL     1      26.148  39.037  20.885  1.00  0.00     0.201 C 
ATOM      9  O   UNL     1      25.024  38.938  21.444  1.00  0.00    -0.288 OA
ATOM     10  C   UNL     1      26.929  37.806  20.592  1.00  0.00     0.076 A 
ATOM     11  C   UNL     1      27.960  37.861  19.629  1.00  0.00     0.041 A 
ATOM     12  C   UNL     1      28.273  39.141  18.956  1.00  0.00     0.194 C 
ATOM     13  O   UNL     1      29.105  39.165  18.006  1.00  0.00    -0.289 OA
ATOM     14  C   UNL     1      28.681  36.697  19.312  1.00  0.00     0.059 A 
ATOM     15  C   UNL     1      28.394  35.488  19.947  1.00  0.00     0.120 A 
ATOM     16  C   UNL     1      27.380  35.431  20.907  1.00  0.00     0.093 A 
ATOM     17  C   UNL     1      26.648  36.579  21.236  1.00  0.00     0.131 A 
ENDROOT
BRANCH   6  18
ATOM     18  O   UNL     1      25.235  41.668  21.988  1.00  0.00    -0.507 OA
ATOM     19  H   UNL     1      24.391  41.118  22.071  1.00  0.00     0.293 HD
ENDBRANCH   6  18
BRANCH  17  20
ATOM     20  O   UNL     1      25.650  36.499  22.208  1.00  0.00    -0.507 OA
ATOM     21  H   UNL     1      25.395  35.617  22.638  1.00  0.00     0.293 HD
ENDBRANCH  17  20
BRANCH  15  22
ATOM     22  O   UNL     1      29.124  34.348  19.618  1.00  0.00    -0.508 OA
ATOM     23  H   UNL     1      30.001  34.130  20.075  1.00  0.00     0.293 HD
ENDBRANCH  15  22
TORSDOF 3
ENDMDL
MODEL 2
REMARK VINA RESULT:    -4.099      2.375      3.870
REMARK INTER + INTRA:          -4.459
REMARK INTER:                  -4.459
REMARK INTRA:                   0.000
REMARK UNBOUND:                 0.000
REMARK SMILES Cc1cc(O)c2c(c1)C(=O)c1cc(O)cc(O)c1C2=O
REMARK SMILES IDX 1 1 2 2 8 3 7 4 6 5 4 6 3 7 19 8 20 9 18 10 11 11 9 12 10 13
REMARK SMILES IDX 12 14 13 15 15 16 16 17 5 18 17 20 14 22
REMARK H PARENT 5 19 17 21 14 23
REMARK Flexibility Score: inf
ROOT
ATOM      1  C   UNL     1      28.523  38.951  16.750  1.00  0.00     0.044 C 
ATOM      2  C   UNL     1      28.222  38.366  18.099  1.00  0.00    -0.047 A 
ATOM      3  C   UNL     1      28.532  37.032  18.373  1.00  0.00     0.016 A 
ATOM      4  C   UNL     1      28.211  36.460  19.617  1.00  0.00     0.038 A 
ATOM      5  C   UNL     1      27.542  37.232  20.596  1.00  0.00     0.076 A 
ATOM      6  C   UNL     1      27.285  38.605  20.332  1.00  0.00     0.127 A 
ATOM      7  C   UNL     1      27.591  39.141  19.077  1.00  0.00     0.050 A 
ATOM      8  C   UNL     1      27.078  36.552  21.838  1.00  0.00     0.201 C 
ATOM      9  O   UNL     1      26.150  37.053  22.526  1.00  0.00    -0.288 OA
ATOM     10  C   UNL     1      27.626  35.221  22.210  1.00  0.00     0.076 A 
ATOM     11  C   UNL     1      28.348  34.482  21.248  1.00  0.00     0.041 A 
ATOM     12  C   UNL     1      28.581  35.054  19.903  1.00  0.00     0.194 C 
ATOM     13  O   UNL     1      29.114  34.345  19.003  1.00  0.00    -0.289 OA
ATOM     14  C   UNL     1      28.839  33.205  21.572  1.00  0.00     0.059 A 
ATOM     15  C   UNL     1      28.627  32.664  22.841  1.00  0.00     0.120 A 
ATOM     16  C   UNL     1      27.920  33.395  23.799  1.00  0.00     0.093 A 
ATOM     17  C   UNL     1      27.420  34.668  23.495  1.00  0.00     0.131 A 
ENDROOT
BRANCH   6  18
ATOM     18  O   UNL     1      26.762  39.479  21.287  1.00  0.00    -0.507 OA
ATOM     19  H   UNL     1      27.309  40.185  21.760  1.00  0.00     0.293 HD
ENDBRANCH   6  18
BRANCH  17  20
ATOM     20  O   UNL     1      26.730  35.383  24.475  1.00  0.00    -0.507 OA
ATOM     21  H   UNL     1      26.425  36.338  24.321  1.00  0.00     0.293 HD
ENDBRANCH  17  20
BRANCH  15  22
ATOM     22  O   UNL     1      29.124  31.397  23.139  1.00  0.00    -0.508 OA
ATOM     23  H   UNL     1      29.821  30.951  22.555  1.00  0.00     0.293 HD
ENDBRANCH  15  22
TORSDOF 3
ENDMDL
MODEL 3
REMARK VINA RESULT:    -2.758      1.369      5.515
REMARK INTER + INTRA:          -3.000
REMARK INTER:                  -3.000
REMARK INTRA:                   0.000
REMARK UNBOUND:                 0.000
REMARK SMILES Cc1cc(O)c2c(c1)C(=O)c1cc(O)cc(O)c1C2=O
REMARK SMILES IDX 1 1 2 2 8 3 7 4 6 5 4 6 3 7 19 8 20 9 18 10 11 11 9 12 10 13
REMARK SMILES IDX 12 14 13 15 15 16 16 17 5 18 17 20 14 22
REMARK H PARENT 5 19 17 21 14 23
REMARK Flexibility Score: inf
ROOT
ATOM      1  C   UNL     1      29.125  34.158  19.137  1.00  0.00     0.044 C 
ATOM      2  C   UNL     1      28.520  35.435  19.641  1.00  0.00    -0.047 A 
ATOM      3  C   UNL     1      28.708  36.629  18.939  1.00  0.00     0.016 A 
ATOM      4  C   UNL     1      28.187  37.840  19.427  1.00  0.00     0.038 A 
ATOM      5  C   UNL     1      27.486  37.862  20.656  1.00  0.00     0.076 A 
ATOM      6  C   UNL     1      27.247  36.635  21.333  1.00  0.00     0.127 A 
ATOM      7  C   UNL     1      27.799  35.448  20.839  1.00  0.00     0.050 A 
ATOM      8  C   UNL     1      27.085  39.181  21.219  1.00  0.00     0.201 C 
ATOM      9  O   UNL     1      26.849  39.299  22.451  1.00  0.00    -0.288 OA
ATOM     10  C   UNL     1      27.075  40.391  20.354  1.00  0.00     0.076 A 
ATOM     11  C   UNL     1      27.722  40.344  19.100  1.00  0.00     0.041 A 
ATOM     12  C   UNL     1      28.365  39.089  18.650  1.00  0.00     0.194 C 
ATOM     13  O   UNL     1      29.052  39.081  17.590  1.00  0.00    -0.289 OA
ATOM     14  C   UNL     1      27.755  41.490  18.288  1.00  0.00     0.059 A 
ATOM     15  C   UNL     1      27.145  42.674  18.706  1.00  0.00     0.120 A 
ATOM     16  C   UNL     1      26.497  42.723  19.943  1.00  0.00     0.093 A 
ATOM     17  C   UNL     1      26.455  41.592  20.768  1.00  0.00     0.131 A 
ENDROOT
BRANCH   6  18
ATOM     18  O   UNL     1      26.445  36.537  22.472  1.00  0.00    -0.507 OA
ATOM     19  H   UNL     1      26.672  35.961  23.271  1.00  0.00     0.293 HD
ENDBRANCH   6  18
BRANCH  17  20
ATOM     20  O   UNL     1      25.788  41.663  21.993  1.00  0.00    -0.507 OA
ATOM     21  H   UNL     1      25.009  41.054  22.211  1.00  0.00     0.293 HD
ENDBRANCH  17  20
BRANCH  15  22
ATOM     22  O   UNL     1      27.189  43.798  17.883  1.00  0.00    -0.508 OA
ATOM     23  H   UNL     1      27.950  44.465  17.938  1.00  0.00     0.293 HD
ENDBRANCH  15  22
TORSDOF 3
ENDMDL
MODEL 4
REMARK VINA RESULT:    -2.496      1.996      6.209
REMARK INTER + INTRA:          -2.715
REMARK INTER:                  -2.715
REMARK INTRA:                   0.000
REMARK UNBOUND:                 0.000
REMARK SMILES Cc1cc(O)c2c(c1)C(=O)c1cc(O)cc(O)c1C2=O
REMARK SMILES IDX 1 1 2 2 8 3 7 4 6 5 4 6 3 7 19 8 20 9 18 10 11 11 9 12 10 13
REMARK SMILES IDX 12 14 13 15 15 16 16 17 5 18 17 20 14 22
REMARK H PARENT 5 19 17 21 14 23
REMARK Flexibility Score: inf
ROOT
ATOM      1  C   UNL     1      29.124  35.039  19.724  1.00  0.00     0.044 C 
ATOM      2  C   UNL     1      28.856  36.485  19.428  1.00  0.00    -0.047 A 
ATOM      3  C   UNL     1      28.367  37.330  20.428  1.00  0.00     0.016 A 
ATOM      4  C   UNL     1      28.067  38.675  20.149  1.00  0.00     0.038 A 
ATOM      5  C   UNL     1      28.235  39.178  18.838  1.00  0.00     0.076 A 
ATOM      6  C   UNL     1      28.789  38.329  17.841  1.00  0.00     0.127 A 
ATOM      7  C   UNL     1      29.054  36.988  18.139  1.00  0.00     0.050 A 
ATOM      8  C   UNL     1      27.760  40.559  18.543  1.00  0.00     0.201 C 
ATOM      9  O   UNL     1      27.500  40.901  17.359  1.00  0.00    -0.288 OA
ATOM     10  C   UNL     1      27.479  41.506  19.654  1.00  0.00     0.076 A 
ATOM     11  C   UNL     1      27.375  41.007  20.971  1.00  0.00     0.041 A 
ATOM     12  C   UNL     1      27.584  39.565  21.232  1.00  0.00     0.194 C 
ATOM     13  O   UNL     1      27.367  39.098  22.385  1.00  0.00    -0.289 OA
ATOM     14  C   UNL     1      27.071  41.883  22.027  1.00  0.00     0.059 A 
ATOM     15  C   UNL     1      26.879  43.245  21.788  1.00  0.00     0.120 A 
ATOM     16  C   UNL     1      26.988  43.744  20.487  1.00  0.00     0.093 A 
ATOM     17  C   UNL     1      27.288  42.887  19.421  1.00  0.00     0.131 A 
ENDROOT
BRANCH   6  18
ATOM     18  O   UNL     1      29.125  38.775  16.562  1.00  0.00    -0.507 OA
ATOM     19  H   UNL     1      28.968  39.720  16.237  1.00  0.00     0.293 HD
ENDBRANCH   6  18
BRANCH  17  20
ATOM     20  O   UNL     1      27.406  43.414  18.133  1.00  0.00    -0.507 OA
ATOM     21  H   UNL     1      27.161  42.872  17.312  1.00  0.00     0.293 HD
ENDBRANCH  17  20
BRANCH  15  22
ATOM     22  O   UNL     1      26.581  44.094  22.851  1.00  0.00    -0.508 OA
ATOM     23  H   UNL     1      27.310  44.522  23.409  1.00  0.00     0.293 HD
ENDBRANCH  15  22
TORSDOF 3
ENDMDL
MODEL 5
REMARK VINA RESULT:    -2.081      2.206      3.613
REMARK INTER + INTRA:          -2.263
REMARK INTER:                  -2.263
REMARK INTRA:                   0.000
REMARK UNBOUND:                 0.000
REMARK SMILES Cc1cc(O)c2c(c1)C(=O)c1cc(O)cc(O)c1C2=O
REMARK SMILES IDX 1 1 2 2 8 3 7 4 6 5 4 6 3 7 19 8 20 9 18 10 11 11 9 12 10 13
REMARK SMILES IDX 12 14 13 15 15 16 16 17 5 18 17 20 14 22
REMARK H PARENT 5 19 17 21 14 23
REMARK Flexibility Score: inf
ROOT
ATOM      1  C   UNL     1      26.799  44.125  24.067  1.00  0.00     0.044 C 
ATOM      2  C   UNL     1      26.916  43.396  22.761  1.00  0.00    -0.047 A 
ATOM      3  C   UNL     1      27.487  42.121  22.713  1.00  0.00     0.016 A 
ATOM      4  C   UNL     1      27.644  41.449  21.489  1.00  0.00     0.038 A 
ATOM      5  C   UNL     1      27.248  42.076  20.284  1.00  0.00     0.076 A 
ATOM      6  C   UNL     1      26.614  43.346  20.346  1.00  0.00     0.127 A 
ATOM      7  C   UNL     1      26.493  44.004  21.575  1.00  0.00     0.050 A 
ATOM      8  C   UNL     1      27.574  41.403  18.995  1.00  0.00     0.201 C 
ATOM      9  O   UNL     1      27.629  42.070  17.928  1.00  0.00    -0.288 OA
ATOM     10  C   UNL     1      27.948  39.964  18.978  1.00  0.00     0.076 A 
ATOM     11  C   UNL     1      28.282  39.327  20.192  1.00  0.00     0.041 A 
ATOM     12  C   UNL     1      28.218  40.083  21.463  1.00  0.00     0.194 C 
ATOM     13  O   UNL     1      28.637  39.553  22.530  1.00  0.00    -0.289 OA
ATOM     14  C   UNL     1      28.676  37.977  20.187  1.00  0.00     0.059 A 
ATOM     15  C   UNL     1      28.733  37.259  18.992  1.00  0.00     0.120 A 
ATOM     16  C   UNL     1      28.396  37.883  17.789  1.00  0.00     0.093 A 
ATOM     17  C   UNL     1      28.003  39.227  17.772  1.00  0.00     0.131 A 
ENDROOT
BRANCH   6  18
ATOM     18  O   UNL     1      26.060  43.977  19.230  1.00  0.00    -0.507 OA
ATOM     19  H   UNL     1      26.573  44.164  18.379  1.00  0.00     0.293 HD
ENDBRANCH   6  18
BRANCH  17  20
ATOM     20  O   UNL     1      27.658  39.824  16.558  1.00  0.00    -0.507 OA
ATOM     21  H   UNL     1      28.106  40.674  16.236  1.00  0.00     0.293 HD
ENDBRANCH  17  20
BRANCH  15  22
ATOM     22  O   UNL     1      29.125  35.922  19.013  1.00  0.00    -0.508 OA
ATOM     23  H   UNL     1      29.541  35.479  18.202  1.00  0.00     0.293 HD
ENDBRANCH  15  22
TORSDOF 3
ENDMDL
MODEL 6
REMARK VINA RESULT:    -1.692      2.100      5.743
REMARK INTER + INTRA:          -1.840
REMARK INTER:                  -1.840
REMARK INTRA:                   0.000
REMARK UNBOUND:                 0.000
REMARK SMILES Cc1cc(O)c2c(c1)C(=O)c1cc(O)cc(O)c1C2=O
REMARK SMILES IDX 1 1 2 2 8 3 7 4 6 5 4 6 3 7 19 8 20 9 18 10 11 11 9 12 10 13
REMARK SMILES IDX 12 14 13 15 15 16 16 17 5 18 17 20 14 22
REMARK H PARENT 5 19 17 21 14 23
REMARK Flexibility Score: inf
ROOT
ATOM      1  C   UNL     1      28.469  32.392  23.246  1.00  0.00     0.044 C 
ATOM      2  C   UNL     1      27.984  33.728  22.765  1.00  0.00    -0.047 A 
ATOM      3  C   UNL     1      28.374  34.210  21.513  1.00  0.00     0.016 A 
ATOM      4  C   UNL     1      27.965  35.480  21.072  1.00  0.00     0.038 A 
ATOM      5  C   UNL     1      27.172  36.297  21.912  1.00  0.00     0.076 A 
ATOM      6  C   UNL     1      26.730  35.777  23.159  1.00  0.00     0.127 A 
ATOM      7  C   UNL     1      27.173  34.520  23.584  1.00  0.00     0.050 A 
ATOM      8  C   UNL     1      26.890  37.695  21.480  1.00  0.00     0.201 C 
ATOM      9  O   UNL     1      26.568  38.568  22.329  1.00  0.00    -0.288 OA
ATOM     10  C   UNL     1      27.099  38.095  20.063  1.00  0.00     0.076 A 
ATOM     11  C   UNL     1      27.838  37.245  19.212  1.00  0.00     0.041 A 
ATOM     12  C   UNL     1      28.359  35.959  19.725  1.00  0.00     0.194 C 
ATOM     13  O   UNL     1      29.125  35.259  19.005  1.00  0.00    -0.289 OA
ATOM     14  C   UNL     1      28.078  37.628  17.881  1.00  0.00     0.059 A 
ATOM     15  C   UNL     1      27.584  38.838  17.390  1.00  0.00     0.120 A 
ATOM     16  C   UNL     1      26.846  39.679  18.227  1.00  0.00     0.093 A 
ATOM     17  C   UNL     1      26.598  39.317  19.557  1.00  0.00     0.131 A 
ENDROOT
BRANCH   6  18
ATOM     18  O   UNL     1      25.830  36.448  23.989  1.00  0.00    -0.507 OA
ATOM     19  H   UNL     1      26.016  37.351  24.404  1.00  0.00     0.293 HD
ENDBRANCH   6  18
BRANCH  17  20
ATOM     20  O   UNL     1      25.846  40.167  20.369  1.00  0.00    -0.507 OA
ATOM     21  H   UNL     1      25.759  41.157  20.168  1.00  0.00     0.293 HD
ENDBRANCH  17  20
BRANCH  15  22
ATOM     22  O   UNL     1      27.834  39.195  16.066  1.00  0.00    -0.508 OA
ATOM     23  H   UNL     1      28.385  40.013  15.833  1.00  0.00     0.293 HD
ENDBRANCH  15  22
TORSDOF 3
ENDMDL
