MODEL 1
REMARK VINA RESULT:    -4.973      0.000      0.000
REMARK INTER + INTRA:          -6.821
REMARK INTER:                  -6.427
REMARK INTRA:                  -0.394
REMARK UNBOUND:                -0.394
REMARK SMILES CCO[C@H]1O[C@@H](CO)[C@@H](O)[C@@H](O)[C@@H]1O
REMARK SMILES IDX 4 1 13 2 11 3 9 4 6 5 5 6 3 7 2 8 1 9 14 10 12 12 7 14 8 15
REMARK SMILES IDX 10 17
REMARK H PARENT 14 11 12 13 8 16 10 18
REMARK Flexibility Score: inf
ROOT
ATOM      1  C   UNL     1       6.484  -5.088  20.945  1.00  0.00     0.281 C 
ATOM      2  C   UNL     1       7.288  -3.787  20.738  1.00  0.00     0.202 C 
ATOM      3  C   UNL     1       6.440  -2.716  20.011  1.00  0.00     0.179 C 
ATOM      4  C   UNL     1       4.927  -3.038  20.108  1.00  0.00     0.177 C 
ATOM      5  C   UNL     1       4.552  -3.736  21.450  1.00  0.00     0.178 C 
ATOM      6  O   UNL     1       5.353  -4.873  21.780  1.00  0.00    -0.341 OA
ENDROOT
BRANCH   1   7
ATOM      7  O   UNL     1       7.331  -6.039  21.566  1.00  0.00    -0.350 OA
BRANCH   7   8
ATOM      8  C   UNL     1       7.138  -7.331  21.020  1.00  0.00     0.160 C 
ATOM      9  C   UNL     1       6.922  -8.346  22.136  1.00  0.00     0.035 C 
ENDBRANCH   7   8
ENDBRANCH   1   7
BRANCH   2  10
ATOM     10  O   UNL     1       8.445  -4.048  19.984  1.00  0.00    -0.385 OA
ATOM     11  H   UNL     1       8.197  -4.710  19.288  1.00  0.00     0.211 HD
ENDBRANCH   2  10
BRANCH   3  12
ATOM     12  O   UNL     1       6.720  -1.448  20.548  1.00  0.00    -0.387 OA
ATOM     13  H   UNL     1       7.417  -1.578  21.243  1.00  0.00     0.211 HD
ENDBRANCH   3  12
BRANCH   5  14
ATOM     14  C   UNL     1       4.547  -2.776  22.650  1.00  0.00     0.191 C 
BRANCH  14  15
ATOM     15  O   UNL     1       3.381  -1.997  22.627  1.00  0.00    -0.394 OA
ATOM     16  H   UNL     1       2.625  -2.634  22.545  1.00  0.00     0.210 HD
ENDBRANCH  14  15
ENDBRANCH   5  14
BRANCH   4  17
ATOM     17  O   UNL     1       4.110  -1.924  19.826  1.00  0.00    -0.387 OA
ATOM     18  H   UNL     1       4.678  -1.194  19.473  1.00  0.00     0.211 HD
ENDBRANCH   4  17
TORSDOF 7
ENDMDL
MODEL 2
REMARK VINA RESULT:    -4.853      2.825      5.716
REMARK INTER + INTRA:          -6.666
REMARK INTER:                  -6.503
REMARK INTRA:                  -0.164
REMARK UNBOUND:                -0.394
REMARK SMILES CCO[C@H]1O[C@@H](CO)[C@@H](O)[C@@H](O)[C@@H]1O
REMARK SMILES IDX 4 1 13 2 11 3 9 4 6 5 5 6 3 7 2 8 1 9 14 10 12 12 7 14 8 15
REMARK SMILES IDX 10 17
REMARK H PARENT 14 11 12 13 8 16 10 18
REMARK Flexibility Score: inf
ROOT
ATOM      1  C   UNL     1       3.732  -0.305  19.631  1.00  0.00     0.281 C 
ATOM      2  C   UNL     1       5.272  -0.323  19.713  1.00  0.00     0.202 C 
ATOM      3  C   UNL     1       5.754  -1.012  21.012  1.00  0.00     0.179 C 
ATOM      4  C   UNL     1       4.638  -1.893  21.627  1.00  0.00     0.177 C 
ATOM      5  C   UNL     1       3.723  -2.538  20.542  1.00  0.00     0.178 C 
ATOM      6  O   UNL     1       3.199  -1.623  19.577  1.00  0.00    -0.341 OA
ENDROOT
BRANCH   1   7
ATOM      7  O   UNL     1       3.358   0.382  18.450  1.00  0.00    -0.350 OA
BRANCH   7   8
ATOM      8  C   UNL     1       1.950   0.456  18.323  1.00  0.00     0.160 C 
ATOM      9  C   UNL     1       1.541   1.826  17.796  1.00  0.00     0.035 C 
ENDBRANCH   7   8
ENDBRANCH   1   7
BRANCH   2  10
ATOM     10  O   UNL     1       5.774   0.990  19.676  1.00  0.00    -0.385 OA
ATOM     11  H   UNL     1       6.720   0.932  19.381  1.00  0.00     0.211 HD
ENDBRANCH   2  10
BRANCH   3  12
ATOM     12  O   UNL     1       6.905  -1.773  20.744  1.00  0.00    -0.387 OA
ATOM     13  H   UNL     1       7.393  -1.308  20.015  1.00  0.00     0.211 HD
ENDBRANCH   3  12
BRANCH   5  14
ATOM     14  C   UNL     1       4.397  -3.702  19.797  1.00  0.00     0.191 C 
BRANCH  14  15
ATOM     15  O   UNL     1       5.263  -4.380  20.665  1.00  0.00    -0.394 OA
ATOM     16  H   UNL     1       6.037  -4.667  20.115  1.00  0.00     0.210 HD
ENDBRANCH  14  15
ENDBRANCH   5  14
BRANCH   4  17
ATOM     17  O   UNL     1       5.129  -2.834  22.554  1.00  0.00    -0.387 OA
ATOM     18  H   UNL     1       5.816  -2.397  23.118  1.00  0.00     0.211 HD
ENDBRANCH   4  17
TORSDOF 7
ENDMDL
MODEL 3
REMARK VINA RESULT:    -4.533      1.903      5.250
REMARK INTER + INTRA:          -6.252
REMARK INTER:                  -5.824
REMARK INTRA:                  -0.428
REMARK UNBOUND:                -0.394
REMARK SMILES CCO[C@H]1O[C@@H](CO)[C@@H](O)[C@@H](O)[C@@H]1O
REMARK SMILES IDX 4 1 13 2 11 3 9 4 6 5 5 6 3 7 2 8 1 9 14 10 12 12 7 14 8 15
REMARK SMILES IDX 10 17
REMARK H PARENT 14 11 12 13 8 16 10 18
REMARK Flexibility Score: inf
ROOT
ATOM      1  C   UNL     1       3.479  -2.589  20.328  1.00  0.00     0.281 C 
ATOM      2  C   UNL     1       4.094  -2.117  21.662  1.00  0.00     0.202 C 
ATOM      3  C   UNL     1       4.937  -3.238  22.316  1.00  0.00     0.179 C 
ATOM      4  C   UNL     1       5.327  -4.322  21.280  1.00  0.00     0.177 C 
ATOM      5  C   UNL     1       5.549  -3.732  19.855  1.00  0.00     0.178 C 
ATOM      6  O   UNL     1       4.487  -2.905  19.375  1.00  0.00    -0.341 OA
ENDROOT
BRANCH   1   7
ATOM      7  O   UNL     1       2.681  -1.538  19.811  1.00  0.00    -0.350 OA
BRANCH   7   8
ATOM      8  C   UNL     1       3.480  -0.538  19.207  1.00  0.00     0.160 C 
ATOM      9  C   UNL     1       2.612   0.637  18.773  1.00  0.00     0.035 C 
ENDBRANCH   7   8
ENDBRANCH   1   7
BRANCH   2  10
ATOM     10  O   UNL     1       3.077  -1.728  22.552  1.00  0.00    -0.385 OA
ATOM     11  H   UNL     1       3.342  -2.045  23.455  1.00  0.00     0.211 HD
ENDBRANCH   2  10
BRANCH   3  12
ATOM     12  O   UNL     1       6.080  -2.681  22.915  1.00  0.00    -0.387 OA
ATOM     13  H   UNL     1       6.754  -3.407  22.976  1.00  0.00     0.211 HD
ENDBRANCH   3  12
BRANCH   5  14
ATOM     14  C   UNL     1       6.871  -2.958  19.720  1.00  0.00     0.191 C 
BRANCH  14  15
ATOM     15  O   UNL     1       7.951  -3.830  19.914  1.00  0.00    -0.394 OA
ATOM     16  H   UNL     1       8.315  -3.624  20.814  1.00  0.00     0.210 HD
ENDBRANCH  14  15
ENDBRANCH   5  14
BRANCH   4  17
ATOM     17  O   UNL     1       6.400  -5.130  21.708  1.00  0.00    -0.387 OA
ATOM     18  H   UNL     1       6.060  -5.793  22.361  1.00  0.00     0.211 HD
ENDBRANCH   4  17
TORSDOF 7
ENDMDL
MODEL 4
REMARK VINA RESULT:    -4.147      1.645      1.878
REMARK INTER + INTRA:          -5.753
REMARK INTER:                  -5.757
REMARK INTRA:                   0.004
REMARK UNBOUND:                -0.394
REMARK SMILES CCO[C@H]1O[C@@H](CO)[C@@H](O)[C@@H](O)[C@@H]1O
REMARK SMILES IDX 4 1 13 2 11 3 9 4 6 5 5 6 3 7 2 8 1 9 14 10 12 12 7 14 8 15
REMARK SMILES IDX 10 17
REMARK H PARENT 14 11 12 13 8 16 10 18
REMARK Flexibility Score: inf
ROOT
ATOM      1  C   UNL     1       5.698  -4.124  20.524  1.00  0.00     0.281 C 
ATOM      2  C   UNL     1       6.294  -3.092  21.503  1.00  0.00     0.202 C 
ATOM      3  C   UNL     1       6.355  -1.684  20.863  1.00  0.00     0.179 C 
ATOM      4  C   UNL     1       5.402  -1.581  19.646  1.00  0.00     0.177 C 
ATOM      5  C   UNL     1       4.116  -2.444  19.820  1.00  0.00     0.178 C 
ATOM      6  O   UNL     1       4.352  -3.805  20.188  1.00  0.00    -0.341 OA
ENDROOT
BRANCH   1   7
ATOM      7  O   UNL     1       5.718  -5.394  21.151  1.00  0.00    -0.350 OA
BRANCH   7   8
ATOM      8  C   UNL     1       6.880  -6.122  20.797  1.00  0.00     0.160 C 
ATOM      9  C   UNL     1       6.943  -7.426  21.582  1.00  0.00     0.035 C 
ENDBRANCH   7   8
ENDBRANCH   1   7
BRANCH   2  10
ATOM     10  O   UNL     1       7.590  -3.480  21.886  1.00  0.00    -0.385 OA
ATOM     11  H   UNL     1       8.171  -2.680  21.801  1.00  0.00     0.211 HD
ENDBRANCH   2  10
BRANCH   3  12
ATOM     12  O   UNL     1       6.043  -0.712  21.829  1.00  0.00    -0.387 OA
ATOM     13  H   UNL     1       6.881  -0.526  22.328  1.00  0.00     0.211 HD
ENDBRANCH   3  12
BRANCH   5  14
ATOM     14  C   UNL     1       3.110  -1.837  20.811  1.00  0.00     0.191 C 
BRANCH  14  15
ATOM     15  O   UNL     1       2.388  -0.813  20.182  1.00  0.00    -0.394 OA
ATOM     16  H   UNL     1       2.715   0.038  20.576  1.00  0.00     0.210 HD
ENDBRANCH  14  15
ENDBRANCH   5  14
BRANCH   4  17
ATOM     17  O   UNL     1       5.118  -0.249  19.282  1.00  0.00    -0.387 OA
ATOM     18  H   UNL     1       4.136  -0.138  19.223  1.00  0.00     0.211 HD
ENDBRANCH   4  17
TORSDOF 7
ENDMDL
MODEL 5
REMARK VINA RESULT:    -4.020      3.317      6.410
REMARK INTER + INTRA:          -5.589
REMARK INTER:                  -5.625
REMARK INTRA:                   0.035
REMARK UNBOUND:                -0.394
REMARK SMILES CCO[C@H]1O[C@@H](CO)[C@@H](O)[C@@H](O)[C@@H]1O
REMARK SMILES IDX 4 1 13 2 11 3 9 4 6 5 5 6 3 7 2 8 1 9 14 10 12 12 7 14 8 15
REMARK SMILES IDX 10 17
REMARK H PARENT 14 11 12 13 8 16 10 18
REMARK Flexibility Score: inf
ROOT
ATOM      1  C   UNL     1       3.410  -0.082  18.930  1.00  0.00     0.281 C 
ATOM      2  C   UNL     1       2.810  -1.040  19.980  1.00  0.00     0.202 C 
ATOM      3  C   UNL     1       3.660  -2.327  20.112  1.00  0.00     0.179 C 
ATOM      4  C   UNL     1       5.085  -2.119  19.542  1.00  0.00     0.177 C 
ATOM      5  C   UNL     1       5.603  -0.663  19.750  1.00  0.00     0.178 C 
ATOM      6  O   UNL     1       4.707   0.361  19.312  1.00  0.00    -0.341 OA
ENDROOT
BRANCH   1   7
ATOM      7  O   UNL     1       2.561   1.047  18.822  1.00  0.00    -0.350 OA
BRANCH   7   8
ATOM      8  C   UNL     1       1.969   1.122  17.539  1.00  0.00     0.160 C 
ATOM      9  C   UNL     1       1.078   2.354  17.442  1.00  0.00     0.035 C 
ENDBRANCH   7   8
ENDBRANCH   1   7
BRANCH   2  10
ATOM     10  O   UNL     1       1.497  -1.390  19.622  1.00  0.00    -0.385 OA
ATOM     11  H   UNL     1       1.264  -0.863  18.814  1.00  0.00     0.211 HD
ENDBRANCH   2  10
BRANCH   3  12
ATOM     12  O   UNL     1       3.711  -2.723  21.460  1.00  0.00    -0.387 OA
ATOM     13  H   UNL     1       4.670  -2.844  21.687  1.00  0.00     0.211 HD
ENDBRANCH   3  12
BRANCH   5  14
ATOM     14  C   UNL     1       6.012  -0.368  21.202  1.00  0.00     0.191 C 
BRANCH  14  15
ATOM     15  O   UNL     1       6.201  -1.573  21.893  1.00  0.00    -0.394 OA
ATOM     16  H   UNL     1       7.137  -1.558  22.223  1.00  0.00     0.210 HD
ENDBRANCH  14  15
ENDBRANCH   5  14
BRANCH   4  17
ATOM     17  O   UNL     1       6.002  -3.092  19.988  1.00  0.00    -0.387 OA
ATOM     18  H   UNL     1       5.866  -3.237  20.958  1.00  0.00     0.211 HD
ENDBRANCH   4  17
TORSDOF 7
ENDMDL
MODEL 6
REMARK VINA RESULT:    -3.886     17.134     18.980
REMARK INTER + INTRA:          -5.417
REMARK INTER:                  -4.999
REMARK INTRA:                  -0.418
REMARK UNBOUND:                -0.394
REMARK SMILES CCO[C@H]1O[C@@H](CO)[C@@H](O)[C@@H](O)[C@@H]1O
REMARK SMILES IDX 4 1 13 2 11 3 9 4 6 5 5 6 3 7 2 8 1 9 14 10 12 12 7 14 8 15
REMARK SMILES IDX 10 17
REMARK H PARENT 14 11 12 13 8 16 10 18
REMARK Flexibility Score: inf
ROOT
ATOM      1  C   UNL     1      14.402  -6.556   4.988  1.00  0.00     0.281 C 
ATOM      2  C   UNL     1      14.721  -6.643   6.495  1.00  0.00     0.202 C 
ATOM      3  C   UNL     1      15.947  -7.552   6.756  1.00  0.00     0.179 C 
ATOM      4  C   UNL     1      16.790  -7.737   5.470  1.00  0.00     0.177 C 
ATOM      5  C   UNL     1      16.775  -6.472   4.559  1.00  0.00     0.178 C 
ATOM      6  O   UNL     1      15.473  -5.960   4.265  1.00  0.00    -0.341 OA
ENDROOT
BRANCH   1   7
ATOM      7  O   UNL     1      13.245  -5.755   4.825  1.00  0.00    -0.350 OA
BRANCH   7   8
ATOM      8  C   UNL     1      12.306  -6.381   3.971  1.00  0.00     0.160 C 
ATOM      9  C   UNL     1      11.029  -6.701   4.739  1.00  0.00     0.035 C 
ENDBRANCH   7   8
ENDBRANCH   1   7
BRANCH   2  10
ATOM     10  O   UNL     1      13.614  -7.153   7.196  1.00  0.00    -0.385 OA
ATOM     11  H   UNL     1      13.709  -6.866   8.141  1.00  0.00     0.211 HD
ENDBRANCH   2  10
BRANCH   3  12
ATOM     12  O   UNL     1      16.725  -7.009   7.793  1.00  0.00    -0.387 OA
ATOM     13  H   UNL     1      16.282  -7.263   8.645  1.00  0.00     0.211 HD
ENDBRANCH   3  12
BRANCH   5  14
ATOM     14  C   UNL     1      17.639  -5.324   5.104  1.00  0.00     0.191 C 
BRANCH  14  15
ATOM     15  O   UNL     1      18.996  -5.637   4.941  1.00  0.00    -0.394 OA
ATOM     16  H   UNL     1      19.403  -4.865   4.469  1.00  0.00     0.210 HD
ENDBRANCH  14  15
ENDBRANCH   5  14
BRANCH   4  17
ATOM     17  O   UNL     1      18.094  -8.204   5.731  1.00  0.00    -0.387 OA
ATOM     18  H   UNL     1      18.130  -9.174   5.537  1.00  0.00     0.211 HD
ENDBRANCH   4  17
TORSDOF 7
ENDMDL
MODEL 7
REMARK VINA RESULT:    -3.845      2.201      4.828
REMARK INTER + INTRA:          -5.363
REMARK INTER:                  -5.092
REMARK INTRA:                  -0.271
REMARK UNBOUND:                -0.394
REMARK SMILES CCO[C@H]1O[C@@H](CO)[C@@H](O)[C@@H](O)[C@@H]1O
REMARK SMILES IDX 4 1 13 2 11 3 9 4 6 5 5 6 3 7 2 8 1 9 14 10 12 12 7 14 8 15
REMARK SMILES IDX 10 17
REMARK H PARENT 14 11 12 13 8 16 10 18
REMARK Flexibility Score: inf
ROOT
ATOM      1  C   UNL     1       4.475  -1.841  19.613  1.00  0.00     0.281 C 
ATOM      2  C   UNL     1       4.536  -3.382  19.589  1.00  0.00     0.202 C 
ATOM      3  C   UNL     1       5.787  -3.904  20.337  1.00  0.00     0.179 C 
ATOM      4  C   UNL     1       6.364  -2.824  21.284  1.00  0.00     0.177 C 
ATOM      5  C   UNL     1       5.257  -1.912  21.894  1.00  0.00     0.178 C 
ATOM      6  O   UNL     1       4.353  -1.346  20.942  1.00  0.00    -0.341 OA
ENDROOT
BRANCH   1   7
ATOM      7  O   UNL     1       3.340  -1.430  18.871  1.00  0.00    -0.350 OA
BRANCH   7   8
ATOM      8  C   UNL     1       2.443  -0.688  19.677  1.00  0.00     0.160 C 
ATOM      9  C   UNL     1       1.765   0.396  18.847  1.00  0.00     0.035 C 
ENDBRANCH   7   8
ENDBRANCH   1   7
BRANCH   2  10
ATOM     10  O   UNL     1       4.567  -3.845  18.262  1.00  0.00    -0.385 OA
ATOM     11  H   UNL     1       5.250  -3.309  17.782  1.00  0.00     0.211 HD
ENDBRANCH   2  10
BRANCH   3  12
ATOM     12  O   UNL     1       5.460  -5.072  21.046  1.00  0.00    -0.387 OA
ATOM     13  H   UNL     1       5.748  -4.928  21.985  1.00  0.00     0.211 HD
ENDBRANCH   3  12
BRANCH   5  14
ATOM     14  C   UNL     1       4.437  -2.608  22.992  1.00  0.00     0.191 C 
BRANCH  14  15
ATOM     15  O   UNL     1       3.123  -2.118  22.983  1.00  0.00    -0.394 OA
ATOM     16  H   UNL     1       2.797  -2.185  23.918  1.00  0.00     0.210 HD
ENDBRANCH  14  15
ENDBRANCH   5  14
BRANCH   4  17
ATOM     17  O   UNL     1       7.229  -3.356  22.262  1.00  0.00    -0.387 OA
ATOM     18  H   UNL     1       8.061  -3.661  21.818  1.00  0.00     0.211 HD
ENDBRANCH   4  17
TORSDOF 7
ENDMDL
MODEL 8
REMARK VINA RESULT:    -3.776      1.498      2.290
REMARK INTER + INTRA:          -5.274
REMARK INTER:                  -5.220
REMARK INTRA:                  -0.054
REMARK UNBOUND:                -0.394
REMARK SMILES CCO[C@H]1O[C@@H](CO)[C@@H](O)[C@@H](O)[C@@H]1O
REMARK SMILES IDX 4 1 13 2 11 3 9 4 6 5 5 6 3 7 2 8 1 9 14 10 12 12 7 14 8 15
REMARK SMILES IDX 10 17
REMARK H PARENT 14 11 12 13 8 16 10 18
REMARK Flexibility Score: inf
ROOT
ATOM      1  C   UNL     1       6.655  -4.090  20.950  1.00  0.00     0.281 C 
ATOM      2  C   UNL     1       6.039  -3.675  19.598  1.00  0.00     0.202 C 
ATOM      3  C   UNL     1       4.581  -3.187  19.775  1.00  0.00     0.179 C 
ATOM      4  C   UNL     1       4.293  -2.801  21.247  1.00  0.00     0.177 C 
ATOM      5  C   UNL     1       5.543  -2.203  21.961  1.00  0.00     0.178 C 
ATOM      6  O   UNL     1       6.732  -2.988  21.846  1.00  0.00    -0.341 OA
ENDROOT
BRANCH   1   7
ATOM      7  O   UNL     1       7.965  -4.572  20.712  1.00  0.00    -0.350 OA
BRANCH   7   8
ATOM      8  C   UNL     1       8.246  -5.709  21.508  1.00  0.00     0.160 C 
ATOM      9  C   UNL     1       7.142  -6.748  21.348  1.00  0.00     0.035 C 
ENDBRANCH   7   8
ENDBRANCH   1   7
BRANCH   2  10
ATOM     10  O   UNL     1       6.056  -4.760  18.704  1.00  0.00    -0.385 OA
ATOM     11  H   UNL     1       6.777  -5.373  19.003  1.00  0.00     0.211 HD
ENDBRANCH   2  10
BRANCH   3  12
ATOM     12  O   UNL     1       4.338  -2.103  18.913  1.00  0.00    -0.387 OA
ATOM     13  H   UNL     1       4.767  -1.308  19.325  1.00  0.00     0.211 HD
ENDBRANCH   3  12
BRANCH   5  14
ATOM     14  C   UNL     1       5.861  -0.765  21.520  1.00  0.00     0.191 C 
BRANCH  14  15
ATOM     15  O   UNL     1       6.666  -0.791  20.372  1.00  0.00    -0.394 OA
ATOM     16  H   UNL     1       7.546  -1.147  20.659  1.00  0.00     0.210 HD
ENDBRANCH  14  15
ENDBRANCH   5  14
BRANCH   4  17
ATOM     17  O   UNL     1       3.147  -1.992  21.388  1.00  0.00    -0.387 OA
ATOM     18  H   UNL     1       3.392  -1.179  21.898  1.00  0.00     0.211 HD
ENDBRANCH   4  17
TORSDOF 7
ENDMDL
MODEL 9
REMARK VINA RESULT:    -3.662     16.215     17.717
REMARK INTER + INTRA:          -5.127
REMARK INTER:                  -4.663
REMARK INTRA:                  -0.464
REMARK UNBOUND:                -0.394
REMARK SMILES CCO[C@H]1O[C@@H](CO)[C@@H](O)[C@@H](O)[C@@H]1O
REMARK SMILES IDX 4 1 13 2 11 3 9 4 6 5 5 6 3 7 2 8 1 9 14 10 12 12 7 14 8 15
REMARK SMILES IDX 10 17
REMARK H PARENT 14 11 12 13 8 16 10 18
REMARK Flexibility Score: inf
ROOT
ATOM      1  C   UNL     1      15.753  -6.876   6.186  1.00  0.00     0.281 C 
ATOM      2  C   UNL     1      14.748  -6.967   7.353  1.00  0.00     0.202 C 
ATOM      3  C   UNL     1      13.379  -6.362   6.960  1.00  0.00     0.179 C 
ATOM      4  C   UNL     1      13.229  -6.267   5.421  1.00  0.00     0.177 C 
ATOM      5  C   UNL     1      13.953  -7.431   4.679  1.00  0.00     0.178 C 
ATOM      6  O   UNL     1      15.316  -7.632   5.063  1.00  0.00    -0.341 OA
ENDROOT
BRANCH   1   7
ATOM      7  O   UNL     1      16.994  -7.398   6.627  1.00  0.00    -0.350 OA
BRANCH   7   8
ATOM      8  C   UNL     1      16.986  -8.814   6.621  1.00  0.00     0.160 C 
ATOM      9  C   UNL     1      17.425  -9.347   7.979  1.00  0.00     0.035 C 
ENDBRANCH   7   8
ENDBRANCH   1   7
BRANCH   2  10
ATOM     10  O   UNL     1      15.247  -6.286   8.476  1.00  0.00    -0.385 OA
ATOM     11  H   UNL     1      15.624  -5.426   8.153  1.00  0.00     0.211 HD
ENDBRANCH   2  10
BRANCH   3  12
ATOM     12  O   UNL     1      12.344  -7.130   7.520  1.00  0.00    -0.387 OA
ATOM     13  H   UNL     1      11.663  -7.256   6.808  1.00  0.00     0.211 HD
ENDBRANCH   3  12
BRANCH   5  14
ATOM     14  C   UNL     1      13.212  -8.773   4.790  1.00  0.00     0.191 C 
BRANCH  14  15
ATOM     15  O   UNL     1      12.015  -8.713   4.062  1.00  0.00    -0.394 OA
ATOM     16  H   UNL     1      12.181  -9.206   3.216  1.00  0.00     0.210 HD
ENDBRANCH  14  15
ENDBRANCH   5  14
BRANCH   4  17
ATOM     17  O   UNL     1      11.890  -6.109   5.009  1.00  0.00    -0.387 OA
ATOM     18  H   UNL     1      11.862  -5.460   4.261  1.00  0.00     0.211 HD
ENDBRANCH   4  17
TORSDOF 7
ENDMDL
