MODEL 1
REMARK VINA RESULT:    -1.305      0.000      0.000
REMARK INTER + INTRA:          -1.469
REMARK INTER:                  -1.571
REMARK INTRA:                   0.102
REMARK UNBOUND:                 0.102
REMARK SMILES Oc1cc(O)c2c(c1)O[C@H](c1ccc(O)c(O)c1)[C@H](O)C2
REMARK SMILES IDX 21 1 19 2 10 3 9 4 7 5 8 6 2 7 3 8 4 9 6 10 20 11 11 13
REMARK SMILES IDX 18 14 12 15 16 16 13 17 14 18 17 19 15 21 5 23 1 25
REMARK H PARENT 20 12 17 20 15 22 5 24 1 26
REMARK Flexibility Score: inf
ROOT
ATOM      1  C   UNL     1       9.350  72.895   1.700  1.00  0.00     0.079 C 
ATOM      2  C   UNL     1      10.262  73.006   0.462  1.00  0.00     0.164 C 
ATOM      3  C   UNL     1       9.956  71.850  -0.504  1.00  0.00     0.232 C 
ATOM      4  O   UNL     1      10.133  70.599   0.162  1.00  0.00    -0.482 OA
ATOM      5  C   UNL     1       9.736  70.404   1.490  1.00  0.00     0.131 A 
ATOM      6  C   UNL     1       9.757  69.112   2.021  1.00  0.00     0.093 A 
ATOM      7  C   UNL     1       9.351  68.886   3.341  1.00  0.00     0.122 A 
ATOM      8  C   UNL     1       8.913  69.955   4.125  1.00  0.00     0.092 A 
ATOM      9  C   UNL     1       8.886  71.257   3.609  1.00  0.00     0.126 A 
ATOM     10  C   UNL     1       9.337  71.498   2.290  1.00  0.00     0.039 A 
ENDROOT
BRANCH   2  11
ATOM     11  O   UNL     1      11.610  72.955   0.857  1.00  0.00    -0.389 OA
ATOM     12  H   UNL     1      12.061  72.306   0.256  1.00  0.00     0.211 HD
ENDBRANCH   2  11
BRANCH   3  13
ATOM     13  C   UNL     1      10.822  71.919  -1.741  1.00  0.00    -0.001 A 
ATOM     14  C   UNL     1      10.809  70.861  -2.665  1.00  0.00     0.057 A 
ATOM     15  C   UNL     1      11.598  73.059  -2.017  1.00  0.00     0.012 A 
ATOM     16  C   UNL     1      11.578  70.923  -3.833  1.00  0.00     0.157 A 
ATOM     17  C   UNL     1      12.368  73.124  -3.182  1.00  0.00     0.050 A 
ATOM     18  C   UNL     1      12.364  72.059  -4.093  1.00  0.00     0.157 A 
BRANCH  16  19
ATOM     19  O   UNL     1      11.546  69.850  -4.723  1.00  0.00    -0.504 OA
ATOM     20  H   UNL     1      11.924  69.918  -5.661  1.00  0.00     0.293 HD
ENDBRANCH  16  19
BRANCH  18  21
ATOM     21  O   UNL     1      13.133  72.126  -5.254  1.00  0.00    -0.504 OA
ATOM     22  H   UNL     1      12.738  72.439  -6.134  1.00  0.00     0.293 HD
ENDBRANCH  18  21
ENDBRANCH   3  13
BRANCH   9  23
ATOM     23  O   UNL     1       8.395  72.276   4.428  1.00  0.00    -0.507 OA
ATOM     24  H   UNL     1       7.453  72.638   4.360  1.00  0.00     0.293 HD
ENDBRANCH   9  23
BRANCH   7  25
ATOM     25  O   UNL     1       9.370  67.601   3.879  1.00  0.00    -0.508 OA
ATOM     26  H   UNL     1       8.638  66.931   3.674  1.00  0.00     0.293 HD
ENDBRANCH   7  25
TORSDOF 6
ENDMDL
MODEL 2
REMARK VINA RESULT:     0.640      2.466      3.454
REMARK INTER + INTRA:           0.873
REMARK INTER:                   1.133
REMARK INTRA:                  -0.260
REMARK UNBOUND:                 0.102
REMARK SMILES Oc1cc(O)c2c(c1)O[C@H](c1ccc(O)c(O)c1)[C@H](O)C2
REMARK SMILES IDX 21 1 19 2 10 3 9 4 7 5 8 6 2 7 3 8 4 9 6 10 20 11 11 13
REMARK SMILES IDX 18 14 12 15 16 16 13 17 14 18 17 19 15 21 5 23 1 25
REMARK H PARENT 20 12 17 20 15 22 5 24 1 26
REMARK Flexibility Score: inf
ROOT
ATOM      1  C   UNL     1       9.024  68.938   2.067  1.00  0.00     0.079 C 
ATOM      2  C   UNL     1       9.857  69.877   1.173  1.00  0.00     0.164 C 
ATOM      3  C   UNL     1       9.449  69.680  -0.297  1.00  0.00     0.232 C 
ATOM      4  O   UNL     1       9.625  68.313  -0.671  1.00  0.00    -0.482 OA
ATOM      5  C   UNL     1       9.308  67.260   0.195  1.00  0.00     0.131 A 
ATOM      6  C   UNL     1       9.318  65.952  -0.295  1.00  0.00     0.093 A 
ATOM      7  C   UNL     1       8.991  64.882   0.545  1.00  0.00     0.122 A 
ATOM      8  C   UNL     1       8.642  65.125   1.875  1.00  0.00     0.092 A 
ATOM      9  C   UNL     1       8.627  66.430   2.384  1.00  0.00     0.126 A 
ATOM     10  C   UNL     1       9.001  67.511   1.551  1.00  0.00     0.039 A 
ENDROOT
BRANCH   2  11
ATOM     11  O   UNL     1      11.226  69.596   1.331  1.00  0.00    -0.389 OA
ATOM     12  H   UNL     1      11.336  68.618   1.194  1.00  0.00     0.211 HD
ENDBRANCH   2  11
BRANCH   3  13
ATOM     13  C   UNL     1      10.235  70.587  -1.215  1.00  0.00    -0.001 A 
ATOM     14  C   UNL     1      10.603  70.139  -2.494  1.00  0.00     0.057 A 
ATOM     15  C   UNL     1      10.553  71.902  -0.833  1.00  0.00     0.012 A 
ATOM     16  C   UNL     1      11.301  70.977  -3.371  1.00  0.00     0.157 A 
ATOM     17  C   UNL     1      11.250  72.742  -1.706  1.00  0.00     0.050 A 
ATOM     18  C   UNL     1      11.630  72.285  -2.976  1.00  0.00     0.157 A 
BRANCH  16  19
ATOM     19  O   UNL     1      11.657  70.495  -4.630  1.00  0.00    -0.504 OA
ATOM     20  H   UNL     1      11.124  69.773  -5.100  1.00  0.00     0.293 HD
ENDBRANCH  16  19
BRANCH  18  21
ATOM     21  O   UNL     1      12.325  73.125  -3.844  1.00  0.00    -0.504 OA
ATOM     22  H   UNL     1      11.843  73.788  -4.440  1.00  0.00     0.293 HD
ENDBRANCH  18  21
ENDBRANCH   3  13
BRANCH   9  23
ATOM     23  O   UNL     1       8.226  66.613   3.709  1.00  0.00    -0.507 OA
ATOM     24  H   UNL     1       8.482  67.421   4.260  1.00  0.00     0.293 HD
ENDBRANCH   9  23
BRANCH   7  25
ATOM     25  O   UNL     1       8.999  63.574   0.065  1.00  0.00    -0.508 OA
ATOM     26  H   UNL     1       8.555  63.329  -0.813  1.00  0.00     0.293 HD
ENDBRANCH   7  25
TORSDOF 6
ENDMDL
MODEL 3
REMARK VINA RESULT:     0.762      3.319      5.941
REMARK INTER + INTRA:           1.021
REMARK INTER:                   1.394
REMARK INTRA:                  -0.373
REMARK UNBOUND:                 0.102
REMARK SMILES Oc1cc(O)c2c(c1)O[C@H](c1ccc(O)c(O)c1)[C@H](O)C2
REMARK SMILES IDX 21 1 19 2 10 3 9 4 7 5 8 6 2 7 3 8 4 9 6 10 20 11 11 13
REMARK SMILES IDX 18 14 12 15 16 16 13 17 14 18 17 19 15 21 5 23 1 25
REMARK H PARENT 20 12 17 20 15 22 5 24 1 26
REMARK Flexibility Score: inf
ROOT
ATOM      1  C   UNL     1      10.502  70.298  -0.135  1.00  0.00     0.079 C 
ATOM      2  C   UNL     1      10.488  68.758  -0.079  1.00  0.00     0.164 C 
ATOM      3  C   UNL     1       9.076  68.272   0.289  1.00  0.00     0.232 C 
ATOM      4  O   UNL     1       8.676  68.841   1.535  1.00  0.00    -0.482 OA
ATOM      5  C   UNL     1       8.971  70.167   1.874  1.00  0.00     0.131 A 
ATOM      6  C   UNL     1       8.388  70.721   3.017  1.00  0.00     0.093 A 
ATOM      7  C   UNL     1       8.653  72.048   3.370  1.00  0.00     0.122 A 
ATOM      8  C   UNL     1       9.495  72.824   2.571  1.00  0.00     0.092 A 
ATOM      9  C   UNL     1      10.088  72.286   1.423  1.00  0.00     0.126 A 
ATOM     10  C   UNL     1       9.859  70.931   1.085  1.00  0.00     0.039 A 
ENDROOT
BRANCH   2  11
ATOM     11  O   UNL     1      11.414  68.307   0.878  1.00  0.00    -0.389 OA
ATOM     12  H   UNL     1      12.273  68.767   0.685  1.00  0.00     0.211 HD
ENDBRANCH   2  11
BRANCH   3  13
ATOM     13  C   UNL     1       9.009  66.763   0.348  1.00  0.00    -0.001 A 
ATOM     14  C   UNL     1       9.412  66.000  -0.761  1.00  0.00     0.057 A 
ATOM     15  C   UNL     1       8.607  66.103   1.522  1.00  0.00     0.012 A 
ATOM     16  C   UNL     1       9.389  64.602  -0.712  1.00  0.00     0.157 A 
ATOM     17  C   UNL     1       8.583  64.707   1.575  1.00  0.00     0.050 A 
ATOM     18  C   UNL     1       8.970  63.950   0.460  1.00  0.00     0.157 A 
BRANCH  16  19
ATOM     19  O   UNL     1       9.789  63.879  -1.835  1.00  0.00    -0.504 OA
ATOM     20  H   UNL     1      10.716  63.972  -2.234  1.00  0.00     0.293 HD
ENDBRANCH  16  19
BRANCH  18  21
ATOM     21  O   UNL     1       8.945  62.557   0.515  1.00  0.00    -0.504 OA
ATOM     22  H   UNL     1       9.677  62.031   0.978  1.00  0.00     0.293 HD
ENDBRANCH  18  21
ENDBRANCH   3  13
BRANCH   9  23
ATOM     23  O   UNL     1      10.884  73.125   0.640  1.00  0.00    -0.507 OA
ATOM     24  H   UNL     1      11.718  73.581   0.986  1.00  0.00     0.293 HD
ENDBRANCH   9  23
BRANCH   7  25
ATOM     25  O   UNL     1       8.077  72.608   4.508  1.00  0.00    -0.508 OA
ATOM     26  H   UNL     1       7.165  73.049   4.478  1.00  0.00     0.293 HD
ENDBRANCH   7  25
TORSDOF 6
ENDMDL
MODEL 4
REMARK VINA RESULT:     1.059      3.146      6.162
REMARK INTER + INTRA:           1.378
REMARK INTER:                   1.759
REMARK INTRA:                  -0.381
REMARK UNBOUND:                 0.102
REMARK SMILES Oc1cc(O)c2c(c1)O[C@H](c1ccc(O)c(O)c1)[C@H](O)C2
REMARK SMILES IDX 21 1 19 2 10 3 9 4 7 5 8 6 2 7 3 8 4 9 6 10 20 11 11 13
REMARK SMILES IDX 18 14 12 15 16 16 13 17 14 18 17 19 15 21 5 23 1 25
REMARK H PARENT 20 12 17 20 15 22 5 24 1 26
REMARK Flexibility Score: inf
ROOT
ATOM      1  C   UNL     1      10.502  70.284  -0.457  1.00  0.00     0.079 C 
ATOM      2  C   UNL     1      10.507  68.745  -0.380  1.00  0.00     0.164 C 
ATOM      3  C   UNL     1       9.118  68.249   0.054  1.00  0.00     0.232 C 
ATOM      4  O   UNL     1       8.764  68.831   1.309  1.00  0.00    -0.482 OA
ATOM      5  C   UNL     1       9.059  70.164   1.618  1.00  0.00     0.131 A 
ATOM      6  C   UNL     1       8.519  70.728   2.777  1.00  0.00     0.093 A 
ATOM      7  C   UNL     1       8.784  72.062   3.101  1.00  0.00     0.122 A 
ATOM      8  C   UNL     1       9.582  72.836   2.256  1.00  0.00     0.092 A 
ATOM      9  C   UNL     1      10.132  72.288   1.091  1.00  0.00     0.126 A 
ATOM     10  C   UNL     1       9.904  70.926   0.781  1.00  0.00     0.039 A 
ENDROOT
BRANCH   2  11
ATOM     11  O   UNL     1      11.478  68.317   0.542  1.00  0.00    -0.389 OA
ATOM     12  H   UNL     1      11.506  68.996   1.266  1.00  0.00     0.211 HD
ENDBRANCH   2  11
BRANCH   3  13
ATOM     13  C   UNL     1       9.070  66.740   0.137  1.00  0.00    -0.001 A 
ATOM     14  C   UNL     1       8.598  66.117   1.304  1.00  0.00     0.057 A 
ATOM     15  C   UNL     1       9.434  65.944  -0.964  1.00  0.00     0.012 A 
ATOM     16  C   UNL     1       8.515  64.723   1.386  1.00  0.00     0.157 A 
ATOM     17  C   UNL     1       9.352  64.551  -0.886  1.00  0.00     0.050 A 
ATOM     18  C   UNL     1       8.896  63.934   0.287  1.00  0.00     0.157 A 
BRANCH  16  19
ATOM     19  O   UNL     1       8.049  64.140   2.563  1.00  0.00    -0.504 OA
ATOM     20  H   UNL     1       7.103  64.283   2.897  1.00  0.00     0.293 HD
ENDBRANCH  16  19
BRANCH  18  21
ATOM     21  O   UNL     1       8.816  62.544   0.362  1.00  0.00    -0.504 OA
ATOM     22  H   UNL     1       8.932  61.961  -0.459  1.00  0.00     0.293 HD
ENDBRANCH  18  21
ENDBRANCH   3  13
BRANCH   9  23
ATOM     23  O   UNL     1      10.885  73.125   0.264  1.00  0.00    -0.507 OA
ATOM     24  H   UNL     1      10.919  74.130   0.374  1.00  0.00     0.293 HD
ENDBRANCH   9  23
BRANCH   7  25
ATOM     25  O   UNL     1       8.250  72.632   4.255  1.00  0.00    -0.508 OA
ATOM     26  H   UNL     1       7.379  72.303   4.654  1.00  0.00     0.293 HD
ENDBRANCH   7  25
TORSDOF 6
ENDMDL
MODEL 5
REMARK VINA RESULT:     1.376      3.247      6.925
REMARK INTER + INTRA:           1.759
REMARK INTER:                   2.098
REMARK INTRA:                  -0.339
REMARK UNBOUND:                 0.102
REMARK SMILES Oc1cc(O)c2c(c1)O[C@H](c1ccc(O)c(O)c1)[C@H](O)C2
REMARK SMILES IDX 21 1 19 2 10 3 9 4 7 5 8 6 2 7 3 8 4 9 6 10 20 11 11 13
REMARK SMILES IDX 18 14 12 15 16 16 13 17 14 18 17 19 15 21 5 23 1 25
REMARK H PARENT 20 12 17 20 15 22 5 24 1 26
REMARK Flexibility Score: inf
ROOT
ATOM      1  C   UNL     1       9.379  70.326   0.706  1.00  0.00     0.079 C 
ATOM      2  C   UNL     1       8.905  68.860   0.705  1.00  0.00     0.164 C 
ATOM      3  C   UNL     1      10.053  67.952   0.231  1.00  0.00     0.232 C 
ATOM      4  O   UNL     1      10.491  68.358  -1.065  1.00  0.00    -0.482 OA
ATOM      5  C   UNL     1      10.595  69.707  -1.424  1.00  0.00     0.131 A 
ATOM      6  C   UNL     1      11.211  70.042  -2.633  1.00  0.00     0.093 A 
ATOM      7  C   UNL     1      11.341  71.383  -3.009  1.00  0.00     0.122 A 
ATOM      8  C   UNL     1      10.864  72.390  -2.167  1.00  0.00     0.092 A 
ATOM      9  C   UNL     1      10.244  72.073  -0.952  1.00  0.00     0.126 A 
ATOM     10  C   UNL     1      10.069  70.716  -0.588  1.00  0.00     0.039 A 
ENDROOT
BRANCH   2  11
ATOM     11  O   UNL     1       7.798  68.717  -0.151  1.00  0.00    -0.389 OA
ATOM     12  H   UNL     1       7.013  68.523   0.426  1.00  0.00     0.211 HD
ENDBRANCH   2  11
BRANCH   3  13
ATOM     13  C   UNL     1       9.639  66.498   0.220  1.00  0.00    -0.001 A 
ATOM     14  C   UNL     1       8.985  65.948   1.335  1.00  0.00     0.057 A 
ATOM     15  C   UNL     1       9.842  65.697  -0.917  1.00  0.00     0.012 A 
ATOM     16  C   UNL     1       8.564  64.614   1.330  1.00  0.00     0.157 A 
ATOM     17  C   UNL     1       9.423  64.364  -0.926  1.00  0.00     0.050 A 
ATOM     18  C   UNL     1       8.785  63.815   0.195  1.00  0.00     0.157 A 
BRANCH  16  19
ATOM     19  O   UNL     1       7.925  64.100   2.458  1.00  0.00    -0.504 OA
ATOM     20  H   UNL     1       7.139  63.465   2.389  1.00  0.00     0.293 HD
ENDBRANCH  16  19
BRANCH  18  21
ATOM     21  O   UNL     1       8.369  62.485   0.183  1.00  0.00    -0.504 OA
ATOM     22  H   UNL     1       8.671  61.840  -0.539  1.00  0.00     0.293 HD
ENDBRANCH  18  21
ENDBRANCH   3  13
BRANCH   9  23
ATOM     23  O   UNL     1       9.828  73.125  -0.133  1.00  0.00    -0.507 OA
ATOM     24  H   UNL     1       9.829  73.076   0.877  1.00  0.00     0.293 HD
ENDBRANCH   9  23
BRANCH   7  25
ATOM     25  O   UNL     1      11.954  71.727  -4.212  1.00  0.00    -0.508 OA
ATOM     26  H   UNL     1      12.064  71.053  -4.961  1.00  0.00     0.293 HD
ENDBRANCH   7  25
TORSDOF 6
ENDMDL
