MODEL 1
REMARK VINA RESULT:    -6.796      0.000      0.000
REMARK INTER + INTRA:          -8.511
REMARK INTER:                  -8.187
REMARK INTRA:                  -0.324
REMARK UNBOUND:                -0.324
REMARK SMILES O=c1c(O)c(-c2ccc(O)c(O)c2)oc2cc(O)cc(O)c12
REMARK SMILES IDX 5 1 3 2 2 3 1 4 22 5 20 6 19 7 17 8 16 9 15 10 14 11 6 12
REMARK SMILES IDX 7 13 8 14 9 15 13 16 11 17 10 18 12 20 4 22 21 24 18 26
REMARK H PARENT 10 19 12 21 4 23 21 25 18 27
REMARK Flexibility Score: inf
ROOT
ATOM      1  C   UNL     1       8.918  16.912  76.717  1.00  0.00     0.180 A 
ATOM      2  C   UNL     1       8.532  16.127  77.817  1.00  0.00     0.208 A 
ATOM      3  C   UNL     1       7.286  16.365  78.419  1.00  0.00     0.238 A 
ATOM      4  O   UNL     1       6.969  15.696  79.437  1.00  0.00    -0.285 OA
ATOM      5  C   UNL     1       6.437  17.375  77.906  1.00  0.00     0.111 A 
ATOM      6  C   UNL     1       5.137  17.676  78.414  1.00  0.00     0.134 A 
ATOM      7  C   UNL     1       4.438  18.782  77.912  1.00  0.00     0.093 A 
ATOM      8  C   UNL     1       4.966  19.558  76.877  1.00  0.00     0.123 A 
ATOM      9  C   UNL     1       6.208  19.236  76.335  1.00  0.00     0.094 A 
ATOM     10  C   UNL     1       6.945  18.161  76.839  1.00  0.00     0.146 A 
ATOM     11  O   UNL     1       8.128  17.895  76.301  1.00  0.00    -0.452 OA
ENDROOT
BRANCH   1  12
ATOM     12  C   UNL     1      10.205  16.704  76.014  1.00  0.00     0.025 A 
ATOM     13  C   UNL     1      10.342  15.724  75.018  1.00  0.00     0.016 A 
ATOM     14  C   UNL     1      11.558  15.562  74.352  1.00  0.00     0.051 A 
ATOM     15  C   UNL     1      12.653  16.380  74.652  1.00  0.00     0.157 A 
ATOM     16  C   UNL     1      11.294  17.540  76.302  1.00  0.00     0.062 A 
ATOM     17  C   UNL     1      12.518  17.385  75.639  1.00  0.00     0.158 A 
BRANCH  15  18
ATOM     18  O   UNL     1      13.842  16.163  73.953  1.00  0.00    -0.504 OA
ATOM     19  H   UNL     1      14.528  16.881  73.769  1.00  0.00     0.293 HD
ENDBRANCH  15  18
BRANCH  17  20
ATOM     20  O   UNL     1      13.562  18.245  75.987  1.00  0.00    -0.504 OA
ATOM     21  H   UNL     1      13.526  18.892  76.761  1.00  0.00     0.293 HD
ENDBRANCH  17  20
ENDBRANCH   1  12
BRANCH   2  22
ATOM     22  O   UNL     1       9.394  15.150  78.321  1.00  0.00    -0.502 OA
ATOM     23  H   UNL     1      10.397  15.183  78.181  1.00  0.00     0.293 HD
ENDBRANCH   2  22
BRANCH   6  24
ATOM     24  O   UNL     1       4.480  16.911  79.382  1.00  0.00    -0.507 OA
ATOM     25  H   UNL     1       4.609  17.011  80.378  1.00  0.00     0.293 HD
ENDBRANCH   6  24
BRANCH   8  26
ATOM     26  O   UNL     1       4.258  20.647  76.374  1.00  0.00    -0.508 OA
ATOM     27  H   UNL     1       4.265  21.545  76.842  1.00  0.00     0.293 HD
ENDBRANCH   8  26
TORSDOF 6
ENDMDL
MODEL 2
REMARK VINA RESULT:    -6.757      4.027      5.976
REMARK INTER + INTRA:          -8.464
REMARK INTER:                  -8.297
REMARK INTRA:                  -0.168
REMARK UNBOUND:                -0.324
REMARK SMILES O=c1c(O)c(-c2ccc(O)c(O)c2)oc2cc(O)cc(O)c12
REMARK SMILES IDX 5 1 3 2 2 3 1 4 22 5 20 6 19 7 17 8 16 9 15 10 14 11 6 12
REMARK SMILES IDX 7 13 8 14 9 15 13 16 11 17 10 18 12 20 4 22 21 24 18 26
REMARK H PARENT 10 19 12 21 4 23 21 25 18 27
REMARK Flexibility Score: inf
ROOT
ATOM      1  C   UNL     1       5.776  19.243  77.178  1.00  0.00     0.180 A 
ATOM      2  C   UNL     1       5.606  20.625  77.368  1.00  0.00     0.208 A 
ATOM      3  C   UNL     1       5.124  21.404  76.304  1.00  0.00     0.238 A 
ATOM      4  O   UNL     1       5.025  22.649  76.462  1.00  0.00    -0.285 OA
ATOM      5  C   UNL     1       4.806  20.789  75.069  1.00  0.00     0.111 A 
ATOM      6  C   UNL     1       4.273  21.476  73.936  1.00  0.00     0.134 A 
ATOM      7  C   UNL     1       4.117  20.791  72.724  1.00  0.00     0.093 A 
ATOM      8  C   UNL     1       4.414  19.429  72.623  1.00  0.00     0.123 A 
ATOM      9  C   UNL     1       4.878  18.738  73.739  1.00  0.00     0.094 A 
ATOM     10  C   UNL     1       5.078  19.402  74.952  1.00  0.00     0.146 A 
ATOM     11  O   UNL     1       5.531  18.707  75.989  1.00  0.00    -0.452 OA
ENDROOT
BRANCH   1  12
ATOM     12  C   UNL     1       6.256  18.353  78.260  1.00  0.00     0.025 A 
ATOM     13  C   UNL     1       5.439  17.341  78.789  1.00  0.00     0.016 A 
ATOM     14  C   UNL     1       5.921  16.498  79.792  1.00  0.00     0.051 A 
ATOM     15  C   UNL     1       7.226  16.636  80.276  1.00  0.00     0.157 A 
ATOM     16  C   UNL     1       7.573  18.479  78.729  1.00  0.00     0.062 A 
ATOM     17  C   UNL     1       8.065  17.638  79.735  1.00  0.00     0.158 A 
BRANCH  15  18
ATOM     18  O   UNL     1       7.645  15.763  81.283  1.00  0.00    -0.504 OA
ATOM     19  H   UNL     1       7.809  14.776  81.143  1.00  0.00     0.293 HD
ENDBRANCH  15  18
BRANCH  17  20
ATOM     20  O   UNL     1       9.381  17.831  80.160  1.00  0.00    -0.504 OA
ATOM     21  H   UNL     1       9.985  18.561  79.812  1.00  0.00     0.293 HD
ENDBRANCH  17  20
ENDBRANCH   1  12
BRANCH   2  22
ATOM     22  O   UNL     1       5.947  21.215  78.588  1.00  0.00    -0.502 OA
ATOM     23  H   UNL     1       5.334  21.193  79.394  1.00  0.00     0.293 HD
ENDBRANCH   2  22
BRANCH   6  24
ATOM     24  O   UNL     1       3.859  22.810  73.955  1.00  0.00    -0.507 OA
ATOM     25  H   UNL     1       3.566  23.333  73.142  1.00  0.00     0.293 HD
ENDBRANCH   6  24
BRANCH   8  26
ATOM     26  O   UNL     1       4.242  18.753  71.418  1.00  0.00    -0.508 OA
ATOM     27  H   UNL     1       3.325  18.463  71.098  1.00  0.00     0.293 HD
ENDBRANCH   8  26
TORSDOF 6
ENDMDL
MODEL 3
REMARK VINA RESULT:    -6.378      3.920      6.666
REMARK INTER + INTRA:          -8.008
REMARK INTER:                  -7.748
REMARK INTRA:                  -0.259
REMARK UNBOUND:                -0.324
REMARK SMILES O=c1c(O)c(-c2ccc(O)c(O)c2)oc2cc(O)cc(O)c12
REMARK SMILES IDX 5 1 3 2 2 3 1 4 22 5 20 6 19 7 17 8 16 9 15 10 14 11 6 12
REMARK SMILES IDX 7 13 8 14 9 15 13 16 11 17 10 18 12 20 4 22 21 24 18 26
REMARK H PARENT 10 19 12 21 4 23 21 25 18 27
REMARK Flexibility Score: inf
ROOT
ATOM      1  C   UNL     1       5.971  20.259  75.543  1.00  0.00     0.180 A 
ATOM      2  C   UNL     1       4.993  21.267  75.505  1.00  0.00     0.208 A 
ATOM      3  C   UNL     1       4.486  21.676  74.262  1.00  0.00     0.238 A 
ATOM      4  O   UNL     1       3.650  22.617  74.229  1.00  0.00    -0.285 OA
ATOM      5  C   UNL     1       4.952  21.062  73.074  1.00  0.00     0.111 A 
ATOM      6  C   UNL     1       4.478  21.370  71.763  1.00  0.00     0.134 A 
ATOM      7  C   UNL     1       5.103  20.794  70.650  1.00  0.00     0.093 A 
ATOM      8  C   UNL     1       6.140  19.870  70.804  1.00  0.00     0.123 A 
ATOM      9  C   UNL     1       6.569  19.519  72.082  1.00  0.00     0.094 A 
ATOM     10  C   UNL     1       5.990  20.104  73.210  1.00  0.00     0.146 A 
ATOM     11  O   UNL     1       6.435  19.749  74.409  1.00  0.00    -0.452 OA
ENDROOT
BRANCH   1  12
ATOM     12  C   UNL     1       6.536  19.757  76.817  1.00  0.00     0.025 A 
ATOM     13  C   UNL     1       5.780  18.951  77.684  1.00  0.00     0.016 A 
ATOM     14  C   UNL     1       6.342  18.470  78.868  1.00  0.00     0.051 A 
ATOM     15  C   UNL     1       7.667  18.768  79.205  1.00  0.00     0.157 A 
ATOM     16  C   UNL     1       7.872  20.039  77.141  1.00  0.00     0.062 A 
ATOM     17  C   UNL     1       8.443  19.561  78.327  1.00  0.00     0.158 A 
BRANCH  15  18
ATOM     18  O   UNL     1       8.166  18.260  80.405  1.00  0.00    -0.504 OA
ATOM     19  H   UNL     1       8.608  17.356  80.495  1.00  0.00     0.293 HD
ENDBRANCH  15  18
BRANCH  17  20
ATOM     20  O   UNL     1       9.774  19.893  78.589  1.00  0.00    -0.504 OA
ATOM     21  H   UNL     1      10.293  20.592  78.079  1.00  0.00     0.293 HD
ENDBRANCH  17  20
ENDBRANCH   1  12
BRANCH   2  22
ATOM     22  O   UNL     1       4.563  21.875  76.687  1.00  0.00    -0.502 OA
ATOM     23  H   UNL     1       4.003  22.719  76.693  1.00  0.00     0.293 HD
ENDBRANCH   2  22
BRANCH   6  24
ATOM     24  O   UNL     1       3.390  22.208  71.503  1.00  0.00    -0.507 OA
ATOM     25  H   UNL     1       3.444  23.213  71.425  1.00  0.00     0.293 HD
ENDBRANCH   6  24
BRANCH   8  26
ATOM     26  O   UNL     1       6.746  19.290  69.692  1.00  0.00    -0.508 OA
ATOM     27  H   UNL     1       7.141  18.358  69.728  1.00  0.00     0.293 HD
ENDBRANCH   8  26
TORSDOF 6
ENDMDL
MODEL 4
REMARK VINA RESULT:    -6.161      3.905      6.184
REMARK INTER + INTRA:          -7.746
REMARK INTER:                  -7.445
REMARK INTRA:                  -0.301
REMARK UNBOUND:                -0.324
REMARK SMILES O=c1c(O)c(-c2ccc(O)c(O)c2)oc2cc(O)cc(O)c12
REMARK SMILES IDX 5 1 3 2 2 3 1 4 22 5 20 6 19 7 17 8 16 9 15 10 14 11 6 12
REMARK SMILES IDX 7 13 8 14 9 15 13 16 11 17 10 18 12 20 4 22 21 24 18 26
REMARK H PARENT 10 19 12 21 4 23 21 25 18 27
REMARK Flexibility Score: inf
ROOT
ATOM      1  C   UNL     1       5.746  19.872  75.568  1.00  0.00     0.180 A 
ATOM      2  C   UNL     1       5.608  18.915  74.550  1.00  0.00     0.208 A 
ATOM      3  C   UNL     1       4.964  19.277  73.356  1.00  0.00     0.238 A 
ATOM      4  O   UNL     1       4.795  18.400  72.469  1.00  0.00    -0.285 OA
ATOM      5  C   UNL     1       4.478  20.597  73.191  1.00  0.00     0.111 A 
ATOM      6  C   UNL     1       3.845  21.085  72.008  1.00  0.00     0.134 A 
ATOM      7  C   UNL     1       3.288  22.370  72.003  1.00  0.00     0.093 A 
ATOM      8  C   UNL     1       3.399  23.208  73.116  1.00  0.00     0.123 A 
ATOM      9  C   UNL     1       4.067  22.761  74.253  1.00  0.00     0.094 A 
ATOM     10  C   UNL     1       4.602  21.471  74.302  1.00  0.00     0.146 A 
ATOM     11  O   UNL     1       5.222  21.082  75.409  1.00  0.00    -0.452 OA
ENDROOT
BRANCH   1  12
ATOM     12  C   UNL     1       6.435  19.572  76.844  1.00  0.00     0.025 A 
ATOM     13  C   UNL     1       5.776  18.907  77.891  1.00  0.00     0.016 A 
ATOM     14  C   UNL     1       6.452  18.613  79.076  1.00  0.00     0.051 A 
ATOM     15  C   UNL     1       7.797  18.963  79.237  1.00  0.00     0.157 A 
ATOM     16  C   UNL     1       7.790  19.905  76.995  1.00  0.00     0.062 A 
ATOM     17  C   UNL     1       8.476  19.615  78.181  1.00  0.00     0.158 A 
BRANCH  15  18
ATOM     18  O   UNL     1       8.414  18.645  80.449  1.00  0.00    -0.504 OA
ATOM     19  H   UNL     1       7.913  18.397  81.290  1.00  0.00     0.293 HD
ENDBRANCH  15  18
BRANCH  17  20
ATOM     20  O   UNL     1       9.819  19.986  78.264  1.00  0.00    -0.504 OA
ATOM     21  H   UNL     1      10.138  20.883  78.601  1.00  0.00     0.293 HD
ENDBRANCH  17  20
ENDBRANCH   1  12
BRANCH   2  22
ATOM     22  O   UNL     1       6.075  17.611  74.742  1.00  0.00    -0.502 OA
ATOM     23  H   UNL     1       6.476  17.060  73.992  1.00  0.00     0.293 HD
ENDBRANCH   2  22
BRANCH   6  24
ATOM     24  O   UNL     1       3.761  20.365  70.813  1.00  0.00    -0.507 OA
ATOM     25  H   UNL     1       3.507  20.761  69.920  1.00  0.00     0.293 HD
ENDBRANCH   6  24
BRANCH   8  26
ATOM     26  O   UNL     1       2.855  24.490  73.097  1.00  0.00    -0.508 OA
ATOM     27  H   UNL     1       3.194  25.219  73.714  1.00  0.00     0.293 HD
ENDBRANCH   8  26
TORSDOF 6
ENDMDL
MODEL 5
REMARK VINA RESULT:    -6.069      1.803      2.248
REMARK INTER + INTRA:          -7.635
REMARK INTER:                  -7.346
REMARK INTRA:                  -0.289
REMARK UNBOUND:                -0.324
REMARK SMILES O=c1c(O)c(-c2ccc(O)c(O)c2)oc2cc(O)cc(O)c12
REMARK SMILES IDX 5 1 3 2 2 3 1 4 22 5 20 6 19 7 17 8 16 9 15 10 14 11 6 12
REMARK SMILES IDX 7 13 8 14 9 15 13 16 11 17 10 18 12 20 4 22 21 24 18 26
REMARK H PARENT 10 19 12 21 4 23 21 25 18 27
REMARK Flexibility Score: inf
ROOT
ATOM      1  C   UNL     1       9.288  16.636  75.881  1.00  0.00     0.180 A 
ATOM      2  C   UNL     1       8.776  16.008  77.028  1.00  0.00     0.208 A 
ATOM      3  C   UNL     1       7.385  15.957  77.213  1.00  0.00     0.238 A 
ATOM      4  O   UNL     1       6.933  15.441  78.269  1.00  0.00    -0.285 OA
ATOM      5  C   UNL     1       6.524  16.523  76.242  1.00  0.00     0.111 A 
ATOM      6  C   UNL     1       5.098  16.493  76.307  1.00  0.00     0.134 A 
ATOM      7  C   UNL     1       4.349  17.198  75.356  1.00  0.00     0.093 A 
ATOM      8  C   UNL     1       4.973  17.875  74.306  1.00  0.00     0.123 A 
ATOM      9  C   UNL     1       6.361  17.859  74.201  1.00  0.00     0.094 A 
ATOM     10  C   UNL     1       7.137  17.196  75.154  1.00  0.00     0.146 A 
ATOM     11  O   UNL     1       8.458  17.215  75.022  1.00  0.00    -0.452 OA
ENDROOT
BRANCH   1  12
ATOM     12  C   UNL     1      10.741  16.707  75.604  1.00  0.00     0.025 A 
ATOM     13  C   UNL     1      11.560  17.653  76.242  1.00  0.00     0.016 A 
ATOM     14  C   UNL     1      12.932  17.686  75.983  1.00  0.00     0.051 A 
ATOM     15  C   UNL     1      13.515  16.773  75.098  1.00  0.00     0.157 A 
ATOM     16  C   UNL     1      11.327  15.776  74.733  1.00  0.00     0.062 A 
ATOM     17  C   UNL     1      12.702  15.802  74.467  1.00  0.00     0.158 A 
BRANCH  15  18
ATOM     18  O   UNL     1      14.891  16.863  74.879  1.00  0.00    -0.504 OA
ATOM     19  H   UNL     1      15.324  17.550  74.278  1.00  0.00     0.293 HD
ENDBRANCH  15  18
BRANCH  17  20
ATOM     20  O   UNL     1      13.212  14.853  73.579  1.00  0.00    -0.504 OA
ATOM     21  H   UNL     1      13.797  15.077  72.787  1.00  0.00     0.293 HD
ENDBRANCH  17  20
ENDBRANCH   1  12
BRANCH   2  22
ATOM     22  O   UNL     1       9.643  15.475  77.986  1.00  0.00    -0.502 OA
ATOM     23  H   UNL     1       9.653  14.491  78.225  1.00  0.00     0.293 HD
ENDBRANCH   2  22
BRANCH   6  24
ATOM     24  O   UNL     1       4.375  15.772  77.261  1.00  0.00    -0.507 OA
ATOM     25  H   UNL     1       4.556  14.811  77.514  1.00  0.00     0.293 HD
ENDBRANCH   6  24
BRANCH   8  26
ATOM     26  O   UNL     1       4.219  18.560  73.356  1.00  0.00    -0.508 OA
ATOM     27  H   UNL     1       4.657  19.122  72.636  1.00  0.00     0.293 HD
ENDBRANCH   8  26
TORSDOF 6
ENDMDL
MODEL 6
REMARK VINA RESULT:    -6.068      4.040      6.315
REMARK INTER + INTRA:          -7.633
REMARK INTER:                  -7.464
REMARK INTRA:                  -0.170
REMARK UNBOUND:                -0.324
REMARK SMILES O=c1c(O)c(-c2ccc(O)c(O)c2)oc2cc(O)cc(O)c12
REMARK SMILES IDX 5 1 3 2 2 3 1 4 22 5 20 6 19 7 17 8 16 9 15 10 14 11 6 12
REMARK SMILES IDX 7 13 8 14 9 15 13 16 11 17 10 18 12 20 4 22 21 24 18 26
REMARK H PARENT 10 19 12 21 4 23 21 25 18 27
REMARK Flexibility Score: inf
ROOT
ATOM      1  C   UNL     1       6.212  19.150  77.628  1.00  0.00     0.180 A 
ATOM      2  C   UNL     1       7.455  19.395  78.236  1.00  0.00     0.208 A 
ATOM      3  C   UNL     1       7.952  18.470  79.167  1.00  0.00     0.238 A 
ATOM      4  O   UNL     1       9.040  18.722  79.748  1.00  0.00    -0.285 OA
ATOM      5  C   UNL     1       7.208  17.304  79.468  1.00  0.00     0.111 A 
ATOM      6  C   UNL     1       7.635  16.279  80.365  1.00  0.00     0.134 A 
ATOM      7  C   UNL     1       6.759  15.233  80.686  1.00  0.00     0.093 A 
ATOM      8  C   UNL     1       5.498  15.142  80.092  1.00  0.00     0.123 A 
ATOM      9  C   UNL     1       5.097  16.105  79.170  1.00  0.00     0.094 A 
ATOM     10  C   UNL     1       5.933  17.179  78.856  1.00  0.00     0.146 A 
ATOM     11  O   UNL     1       5.507  18.081  77.980  1.00  0.00    -0.452 OA
ENDROOT
BRANCH   1  12
ATOM     12  C   UNL     1       5.633  20.066  76.619  1.00  0.00     0.025 A 
ATOM     13  C   UNL     1       5.242  21.372  76.958  1.00  0.00     0.016 A 
ATOM     14  C   UNL     1       4.720  22.226  75.984  1.00  0.00     0.051 A 
ATOM     15  C   UNL     1       4.592  21.804  74.657  1.00  0.00     0.157 A 
ATOM     16  C   UNL     1       5.526  19.648  75.284  1.00  0.00     0.062 A 
ATOM     17  C   UNL     1       5.003  20.498  74.301  1.00  0.00     0.158 A 
BRANCH  15  18
ATOM     18  O   UNL     1       4.059  22.705  73.733  1.00  0.00    -0.504 OA
ATOM     19  H   UNL     1       4.408  22.823  72.792  1.00  0.00     0.293 HD
ENDBRANCH  15  18
BRANCH  17  20
ATOM     20  O   UNL     1       4.915  20.008  72.996  1.00  0.00    -0.504 OA
ATOM     21  H   UNL     1       4.679  20.576  72.195  1.00  0.00     0.293 HD
ENDBRANCH  17  20
ENDBRANCH   1  12
BRANCH   2  22
ATOM     22  O   UNL     1       8.163  20.564  77.941  1.00  0.00    -0.502 OA
ATOM     23  H   UNL     1       9.160  20.650  78.099  1.00  0.00     0.293 HD
ENDBRANCH   2  22
BRANCH   6  24
ATOM     24  O   UNL     1       8.906  16.227  80.942  1.00  0.00    -0.507 OA
ATOM     25  H   UNL     1       9.453  17.034  81.204  1.00  0.00     0.293 HD
ENDBRANCH   6  24
BRANCH   8  26
ATOM     26  O   UNL     1       4.640  14.091  80.405  1.00  0.00    -0.508 OA
ATOM     27  H   UNL     1       4.965  13.131  80.435  1.00  0.00     0.293 HD
ENDBRANCH   8  26
TORSDOF 6
ENDMDL
MODEL 7
REMARK VINA RESULT:    -6.002      4.818      7.897
REMARK INTER + INTRA:          -7.554
REMARK INTER:                  -7.349
REMARK INTRA:                  -0.205
REMARK UNBOUND:                -0.324
REMARK SMILES O=c1c(O)c(-c2ccc(O)c(O)c2)oc2cc(O)cc(O)c12
REMARK SMILES IDX 5 1 3 2 2 3 1 4 22 5 20 6 19 7 17 8 16 9 15 10 14 11 6 12
REMARK SMILES IDX 7 13 8 14 9 15 13 16 11 17 10 18 12 20 4 22 21 24 18 26
REMARK H PARENT 10 19 12 21 4 23 21 25 18 27
REMARK Flexibility Score: inf
ROOT
ATOM      1  C   UNL     1       4.639  20.958  73.275  1.00  0.00     0.180 A 
ATOM      2  C   UNL     1       4.725  19.579  73.026  1.00  0.00     0.208 A 
ATOM      3  C   UNL     1       5.070  18.717  74.079  1.00  0.00     0.238 A 
ATOM      4  O   UNL     1       5.199  17.488  73.838  1.00  0.00    -0.285 OA
ATOM      5  C   UNL     1       5.309  19.244  75.371  1.00  0.00     0.111 A 
ATOM      6  C   UNL     1       5.626  18.460  76.521  1.00  0.00     0.134 A 
ATOM      7  C   UNL     1       5.971  19.098  77.719  1.00  0.00     0.093 A 
ATOM      8  C   UNL     1       5.946  20.491  77.826  1.00  0.00     0.123 A 
ATOM      9  C   UNL     1       5.580  21.262  76.726  1.00  0.00     0.094 A 
ATOM     10  C   UNL     1       5.267  20.656  75.507  1.00  0.00     0.146 A 
ATOM     11  O   UNL     1       4.934  21.429  74.480  1.00  0.00    -0.452 OA
ENDROOT
BRANCH   1  12
ATOM     12  C   UNL     1       4.257  21.927  72.221  1.00  0.00     0.025 A 
ATOM     13  C   UNL     1       3.039  22.624  72.276  1.00  0.00     0.016 A 
ATOM     14  C   UNL     1       2.711  23.550  71.284  1.00  0.00     0.051 A 
ATOM     15  C   UNL     1       3.593  23.810  70.229  1.00  0.00     0.157 A 
ATOM     16  C   UNL     1       5.153  22.202  71.176  1.00  0.00     0.062 A 
ATOM     17  C   UNL     1       4.832  23.129  70.176  1.00  0.00     0.158 A 
BRANCH  15  18
ATOM     18  O   UNL     1       3.203  24.744  69.267  1.00  0.00    -0.504 OA
ATOM     19  H   UNL     1       2.944  24.505  68.320  1.00  0.00     0.293 HD
ENDBRANCH  15  18
BRANCH  17  20
ATOM     20  O   UNL     1       5.766  23.342  69.161  1.00  0.00    -0.504 OA
ATOM     21  H   UNL     1       5.627  23.069  68.199  1.00  0.00     0.293 HD
ENDBRANCH  17  20
ENDBRANCH   1  12
BRANCH   2  22
ATOM     22  O   UNL     1       4.506  19.081  71.738  1.00  0.00    -0.502 OA
ATOM     23  H   UNL     1       4.267  19.678  70.956  1.00  0.00     0.293 HD
ENDBRANCH   2  22
BRANCH   6  24
ATOM     24  O   UNL     1       5.591  17.063  76.547  1.00  0.00    -0.507 OA
ATOM     25  H   UNL     1       4.967  16.493  75.994  1.00  0.00     0.293 HD
ENDBRANCH   6  24
BRANCH   8  26
ATOM     26  O   UNL     1       6.276  21.117  79.025  1.00  0.00    -0.508 OA
ATOM     27  H   UNL     1       6.419  22.118  79.080  1.00  0.00     0.293 HD
ENDBRANCH   8  26
TORSDOF 6
ENDMDL
MODEL 8
REMARK VINA RESULT:    -5.970      3.835      6.682
REMARK INTER + INTRA:          -7.515
REMARK INTER:                  -7.474
REMARK INTRA:                  -0.042
REMARK UNBOUND:                -0.324
REMARK SMILES O=c1c(O)c(-c2ccc(O)c(O)c2)oc2cc(O)cc(O)c12
REMARK SMILES IDX 5 1 3 2 2 3 1 4 22 5 20 6 19 7 17 8 16 9 15 10 14 11 6 12
REMARK SMILES IDX 7 13 8 14 9 15 13 16 11 17 10 18 12 20 4 22 21 24 18 26
REMARK H PARENT 10 19 12 21 4 23 21 25 18 27
REMARK Flexibility Score: inf
ROOT
ATOM      1  C   UNL     1       6.728  19.563  75.008  1.00  0.00     0.180 A 
ATOM      2  C   UNL     1       5.541  20.186  74.590  1.00  0.00     0.208 A 
ATOM      3  C   UNL     1       5.319  20.376  73.216  1.00  0.00     0.238 A 
ATOM      4  O   UNL     1       4.279  20.983  72.850  1.00  0.00    -0.285 OA
ATOM      5  C   UNL     1       6.280  19.927  72.279  1.00  0.00     0.111 A 
ATOM      6  C   UNL     1       6.140  20.030  70.862  1.00  0.00     0.134 A 
ATOM      7  C   UNL     1       7.211  19.670  70.034  1.00  0.00     0.093 A 
ATOM      8  C   UNL     1       8.392  19.149  70.569  1.00  0.00     0.123 A 
ATOM      9  C   UNL     1       8.514  18.989  71.947  1.00  0.00     0.094 A 
ATOM     10  C   UNL     1       7.478  19.373  72.801  1.00  0.00     0.146 A 
ATOM     11  O   UNL     1       7.640  19.212  74.109  1.00  0.00    -0.452 OA
ENDROOT
BRANCH   1  12
ATOM     12  C   UNL     1       7.023  19.306  76.437  1.00  0.00     0.025 A 
ATOM     13  C   UNL     1       6.100  18.647  77.265  1.00  0.00     0.016 A 
ATOM     14  C   UNL     1       6.409  18.395  78.603  1.00  0.00     0.051 A 
ATOM     15  C   UNL     1       7.643  18.780  79.137  1.00  0.00     0.157 A 
ATOM     16  C   UNL     1       8.270  19.674  76.964  1.00  0.00     0.062 A 
ATOM     17  C   UNL     1       8.588  19.425  78.305  1.00  0.00     0.158 A 
BRANCH  15  18
ATOM     18  O   UNL     1       7.888  18.502  80.484  1.00  0.00    -0.504 OA
ATOM     19  H   UNL     1       7.685  17.615  80.923  1.00  0.00     0.293 HD
ENDBRANCH  15  18
BRANCH  17  20
ATOM     20  O   UNL     1       9.844  19.830  78.763  1.00  0.00    -0.504 OA
ATOM     21  H   UNL     1      10.710  19.378  78.510  1.00  0.00     0.293 HD
ENDBRANCH  17  20
ENDBRANCH   1  12
BRANCH   2  22
ATOM     22  O   UNL     1       4.616  20.642  75.532  1.00  0.00    -0.502 OA
ATOM     23  H   UNL     1       3.808  21.198  75.278  1.00  0.00     0.293 HD
ENDBRANCH   2  22
BRANCH   6  24
ATOM     24  O   UNL     1       4.971  20.451  70.222  1.00  0.00    -0.507 OA
ATOM     25  H   UNL     1       4.189  19.852  70.001  1.00  0.00     0.293 HD
ENDBRANCH   6  24
BRANCH   8  26
ATOM     26  O   UNL     1       9.446  18.780  69.738  1.00  0.00    -0.508 OA
ATOM     27  H   UNL     1       9.424  18.960  68.741  1.00  0.00     0.293 HD
ENDBRANCH   8  26
TORSDOF 6
ENDMDL
MODEL 9
REMARK VINA RESULT:    -5.905      2.926      6.827
REMARK INTER + INTRA:          -7.437
REMARK INTER:                  -7.134
REMARK INTRA:                  -0.303
REMARK UNBOUND:                -0.324
REMARK SMILES O=c1c(O)c(-c2ccc(O)c(O)c2)oc2cc(O)cc(O)c12
REMARK SMILES IDX 5 1 3 2 2 3 1 4 22 5 20 6 19 7 17 8 16 9 15 10 14 11 6 12
REMARK SMILES IDX 7 13 8 14 9 15 13 16 11 17 10 18 12 20 4 22 21 24 18 26
REMARK H PARENT 10 19 12 21 4 23 21 25 18 27
REMARK Flexibility Score: inf
ROOT
ATOM      1  C   UNL     1       5.657  19.766  75.667  1.00  0.00     0.180 A 
ATOM      2  C   UNL     1       4.962  19.216  76.757  1.00  0.00     0.208 A 
ATOM      3  C   UNL     1       5.682  18.524  77.744  1.00  0.00     0.238 A 
ATOM      4  O   UNL     1       5.048  17.986  78.690  1.00  0.00    -0.285 OA
ATOM      5  C   UNL     1       7.088  18.404  77.636  1.00  0.00     0.111 A 
ATOM      6  C   UNL     1       7.923  17.759  78.598  1.00  0.00     0.134 A 
ATOM      7  C   UNL     1       9.286  17.585  78.325  1.00  0.00     0.093 A 
ATOM      8  C   UNL     1       9.855  18.092  77.154  1.00  0.00     0.123 A 
ATOM      9  C   UNL     1       9.060  18.775  76.237  1.00  0.00     0.094 A 
ATOM     10  C   UNL     1       7.691  18.932  76.465  1.00  0.00     0.146 A 
ATOM     11  O   UNL     1       6.967  19.580  75.560  1.00  0.00    -0.452 OA
ENDROOT
BRANCH   1  12
ATOM     12  C   UNL     1       4.971  20.530  74.600  1.00  0.00     0.025 A 
ATOM     13  C   UNL     1       4.581  21.866  74.793  1.00  0.00     0.016 A 
ATOM     14  C   UNL     1       3.958  22.574  73.764  1.00  0.00     0.051 A 
ATOM     15  C   UNL     1       3.723  21.973  72.522  1.00  0.00     0.157 A 
ATOM     16  C   UNL     1       4.756  19.933  73.348  1.00  0.00     0.062 A 
ATOM     17  C   UNL     1       4.131  20.635  72.311  1.00  0.00     0.158 A 
BRANCH  15  18
ATOM     18  O   UNL     1       3.091  22.734  71.537  1.00  0.00    -0.504 OA
ATOM     19  H   UNL     1       3.550  23.074  70.704  1.00  0.00     0.293 HD
ENDBRANCH  15  18
BRANCH  17  20
ATOM     20  O   UNL     1       3.939  19.971  71.097  1.00  0.00    -0.504 OA
ATOM     21  H   UNL     1       4.648  19.884  70.383  1.00  0.00     0.293 HD
ENDBRANCH  17  20
ENDBRANCH   1  12
BRANCH   2  22
ATOM     22  O   UNL     1       3.571  19.327  76.833  1.00  0.00    -0.502 OA
ATOM     23  H   UNL     1       2.951  18.548  76.645  1.00  0.00     0.293 HD
ENDBRANCH   2  22
BRANCH   6  24
ATOM     24  O   UNL     1       7.472  17.298  79.839  1.00  0.00    -0.507 OA
ATOM     25  H   UNL     1       7.011  17.871  80.531  1.00  0.00     0.293 HD
ENDBRANCH   6  24
BRANCH   8  26
ATOM     26  O   UNL     1      11.214  17.928  76.897  1.00  0.00    -0.508 OA
ATOM     27  H   UNL     1      11.802  17.356  77.493  1.00  0.00     0.293 HD
ENDBRANCH   8  26
TORSDOF 6
ENDMDL
