MODEL 1
REMARK VINA RESULT:    -5.806      0.000      0.000
REMARK INTER + INTRA:          -6.235
REMARK INTER:                  -6.146
REMARK INTRA:                  -0.089
REMARK UNBOUND:                -0.089
REMARK SMILES C=C(C)[C@H]1CC=C(C)C(=O)C1
REMARK SMILES IDX 8 1 7 2 6 3 5 4 4 5 11 6 9 7 10 8 2 9 1 10 3 11
REMARK H PARENT
REMARK Flexibility Score: inf
ROOT
ATOM      1  C   UNL     1     -12.050 -20.639  31.676  1.00  0.00     0.048 C 
ATOM      2  C   UNL     1     -12.067 -19.798  30.428  1.00  0.00    -0.012 C 
ATOM      3  C   UNL     1     -13.110 -19.864  29.583  1.00  0.00    -0.019 C 
ATOM      4  C   UNL     1     -13.136 -19.103  28.283  1.00  0.00     0.036 C 
ATOM      5  C   UNL     1     -12.335 -17.790  28.392  1.00  0.00     0.025 C 
ATOM      6  C   UNL     1     -10.901 -18.076  28.873  1.00  0.00     0.089 C 
ATOM      7  C   UNL     1     -10.916 -18.912  30.125  1.00  0.00     0.158 C 
ATOM      8  O   UNL     1      -9.918 -18.885  30.893  1.00  0.00    -0.295 OA
ENDROOT
BRANCH   5   9
ATOM      9  C   UNL     1     -12.343 -17.016  27.080  1.00  0.00    -0.077 C 
ATOM     10  C   UNL     1     -13.369 -16.215  26.748  1.00  0.00     0.008 C 
ATOM     11  C   UNL     1     -11.185 -17.139  26.124  1.00  0.00     0.039 C 
ENDBRANCH   5   9
TORSDOF 1
ENDMDL
MODEL 2
REMARK VINA RESULT:    -5.161      1.689      2.186
REMARK INTER + INTRA:          -5.553
REMARK INTER:                  -5.457
REMARK INTRA:                  -0.096
REMARK UNBOUND:                -0.089
REMARK SMILES C=C(C)[C@H]1CC=C(C)C(=O)C1
REMARK SMILES IDX 8 1 7 2 6 3 5 4 4 5 11 6 9 7 10 8 2 9 1 10 3 11
REMARK H PARENT
REMARK Flexibility Score: inf
ROOT
ATOM      1  C   UNL     1     -12.040 -20.722  31.479  1.00  0.00     0.048 C 
ATOM      2  C   UNL     1     -12.378 -19.564  30.579  1.00  0.00    -0.012 C 
ATOM      3  C   UNL     1     -12.345 -18.307  31.054  1.00  0.00    -0.019 C 
ATOM      4  C   UNL     1     -12.753 -17.125  30.215  1.00  0.00     0.036 C 
ATOM      5  C   UNL     1     -12.462 -17.375  28.723  1.00  0.00     0.025 C 
ATOM      6  C   UNL     1     -13.135 -18.680  28.258  1.00  0.00     0.089 C 
ATOM      7  C   UNL     1     -12.772 -19.820  29.172  1.00  0.00     0.158 C 
ATOM      8  O   UNL     1     -12.849 -21.001  28.740  1.00  0.00    -0.295 OA
ENDROOT
BRANCH   5   9
ATOM      9  C   UNL     1     -12.881 -16.190  27.862  1.00  0.00    -0.077 C 
ATOM     10  C   UNL     1     -13.021 -14.961  28.385  1.00  0.00     0.008 C 
ATOM     11  C   UNL     1     -13.149 -16.383  26.391  1.00  0.00     0.039 C 
ENDBRANCH   5   9
TORSDOF 1
ENDMDL
MODEL 3
REMARK VINA RESULT:    -5.133      2.985      4.334
REMARK INTER + INTRA:          -5.522
REMARK INTER:                  -5.427
REMARK INTRA:                  -0.096
REMARK UNBOUND:                -0.089
REMARK SMILES C=C(C)[C@H]1CC=C(C)C(=O)C1
REMARK SMILES IDX 8 1 7 2 6 3 5 4 4 5 11 6 9 7 10 8 2 9 1 10 3 11
REMARK H PARENT
REMARK Flexibility Score: inf
ROOT
ATOM      1  C   UNL     1     -10.802 -17.471  27.000  1.00  0.00     0.048 C 
ATOM      2  C   UNL     1     -11.520 -16.818  28.149  1.00  0.00    -0.012 C 
ATOM      3  C   UNL     1     -12.523 -15.954  27.917  1.00  0.00    -0.019 C 
ATOM      4  C   UNL     1     -13.217 -15.215  29.031  1.00  0.00     0.036 C 
ATOM      5  C   UNL     1     -13.223 -16.045  30.329  1.00  0.00     0.025 C 
ATOM      6  C   UNL     1     -11.788 -16.458  30.707  1.00  0.00     0.089 C 
ATOM      7  C   UNL     1     -11.099 -17.114  29.541  1.00  0.00     0.158 C 
ATOM      8  O   UNL     1     -10.127 -17.887  29.758  1.00  0.00    -0.295 OA
ENDROOT
BRANCH   5   9
ATOM      9  C   UNL     1     -13.911 -15.304  31.468  1.00  0.00    -0.077 C 
ATOM     10  C   UNL     1     -14.742 -14.275  31.231  1.00  0.00     0.008 C 
ATOM     11  C   UNL     1     -13.669 -15.720  32.896  1.00  0.00     0.039 C 
ENDBRANCH   5   9
TORSDOF 1
ENDMDL
MODEL 4
REMARK VINA RESULT:    -4.996      2.378      4.752
REMARK INTER + INTRA:          -5.377
REMARK INTER:                  -5.284
REMARK INTRA:                  -0.093
REMARK UNBOUND:                -0.089
REMARK SMILES C=C(C)[C@H]1CC=C(C)C(=O)C1
REMARK SMILES IDX 8 1 7 2 6 3 5 4 4 5 11 6 9 7 10 8 2 9 1 10 3 11
REMARK H PARENT
REMARK Flexibility Score: inf
ROOT
ATOM      1  C   UNL     1     -13.924 -14.256  27.888  1.00  0.00     0.048 C 
ATOM      2  C   UNL     1     -13.231 -15.437  28.512  1.00  0.00    -0.012 C 
ATOM      3  C   UNL     1     -13.018 -15.471  29.839  1.00  0.00    -0.019 C 
ATOM      4  C   UNL     1     -12.257 -16.592  30.498  1.00  0.00     0.036 C 
ATOM      5  C   UNL     1     -12.440 -17.915  29.729  1.00  0.00     0.025 C 
ATOM      6  C   UNL     1     -12.048 -17.734  28.251  1.00  0.00     0.089 C 
ATOM      7  C   UNL     1     -12.762 -16.552  27.653  1.00  0.00     0.158 C 
ATOM      8  O   UNL     1     -12.920 -16.498  26.403  1.00  0.00    -0.295 OA
ENDROOT
BRANCH   5   9
ATOM      9  C   UNL     1     -11.667 -19.055  30.379  1.00  0.00    -0.077 C 
ATOM     10  C   UNL     1     -10.327 -19.022  30.481  1.00  0.00     0.008 C 
ATOM     11  C   UNL     1     -12.402 -20.252  30.925  1.00  0.00     0.039 C 
ENDBRANCH   5   9
TORSDOF 1
ENDMDL
MODEL 5
REMARK VINA RESULT:    -4.914      3.536      4.264
REMARK INTER + INTRA:          -5.290
REMARK INTER:                  -5.194
REMARK INTRA:                  -0.096
REMARK UNBOUND:                -0.089
REMARK SMILES C=C(C)[C@H]1CC=C(C)C(=O)C1
REMARK SMILES IDX 8 1 7 2 6 3 5 4 4 5 11 6 9 7 10 8 2 9 1 10 3 11
REMARK H PARENT
REMARK Flexibility Score: inf
ROOT
ATOM      1  C   UNL     1     -14.756 -14.948  32.343  1.00  0.00     0.048 C 
ATOM      2  C   UNL     1     -13.862 -15.352  31.201  1.00  0.00    -0.012 C 
ATOM      3  C   UNL     1     -12.944 -16.318  31.371  1.00  0.00    -0.019 C 
ATOM      4  C   UNL     1     -11.974 -16.700  30.284  1.00  0.00     0.036 C 
ATOM      5  C   UNL     1     -12.590 -16.482  28.888  1.00  0.00     0.025 C 
ATOM      6  C   UNL     1     -13.088 -15.032  28.743  1.00  0.00     0.089 C 
ATOM      7  C   UNL     1     -13.984 -14.661  29.894  1.00  0.00     0.158 C 
ATOM      8  O   UNL     1     -14.813 -13.722  29.749  1.00  0.00    -0.295 OA
ENDROOT
BRANCH   5   9
ATOM      9  C   UNL     1     -11.615 -16.854  27.779  1.00  0.00    -0.077 C 
ATOM     10  C   UNL     1     -10.365 -17.262  28.054  1.00  0.00     0.008 C 
ATOM     11  C   UNL     1     -12.043 -16.768  26.336  1.00  0.00     0.039 C 
ENDBRANCH   5   9
TORSDOF 1
ENDMDL
MODEL 6
REMARK VINA RESULT:    -4.818      3.210      5.061
REMARK INTER + INTRA:          -5.189
REMARK INTER:                  -5.100
REMARK INTRA:                  -0.090
REMARK UNBOUND:                -0.089
REMARK SMILES C=C(C)[C@H]1CC=C(C)C(=O)C1
REMARK SMILES IDX 8 1 7 2 6 3 5 4 4 5 11 6 9 7 10 8 2 9 1 10 3 11
REMARK H PARENT
REMARK Flexibility Score: inf
ROOT
ATOM      1  C   UNL     1     -15.058 -13.142  29.030  1.00  0.00     0.048 C 
ATOM      2  C   UNL     1     -14.126 -14.306  29.229  1.00  0.00    -0.012 C 
ATOM      3  C   UNL     1     -13.401 -14.775  28.199  1.00  0.00    -0.019 C 
ATOM      4  C   UNL     1     -12.517 -15.988  28.330  1.00  0.00     0.036 C 
ATOM      5  C   UNL     1     -11.967 -16.122  29.763  1.00  0.00     0.025 C 
ATOM      6  C   UNL     1     -13.121 -16.129  30.782  1.00  0.00     0.089 C 
ATOM      7  C   UNL     1     -14.030 -14.950  30.563  1.00  0.00     0.158 C 
ATOM      8  O   UNL     1     -14.746 -14.540  31.516  1.00  0.00    -0.295 OA
ENDROOT
BRANCH   5   9
ATOM      9  C   UNL     1     -11.080 -17.352  29.912  1.00  0.00    -0.077 C 
ATOM     10  C   UNL     1      -9.875 -17.278  30.501  1.00  0.00     0.008 C 
ATOM     11  C   UNL     1     -11.548 -18.688  29.394  1.00  0.00     0.039 C 
ENDBRANCH   5   9
TORSDOF 1
ENDMDL
MODEL 7
REMARK VINA RESULT:    -4.690      1.690      2.611
REMARK INTER + INTRA:          -5.054
REMARK INTER:                  -4.960
REMARK INTRA:                  -0.094
REMARK UNBOUND:                -0.089
REMARK SMILES C=C(C)[C@H]1CC=C(C)C(=O)C1
REMARK SMILES IDX 8 1 7 2 6 3 5 4 4 5 11 6 9 7 10 8 2 9 1 10 3 11
REMARK H PARENT
REMARK Flexibility Score: inf
ROOT
ATOM      1  C   UNL     1      -9.879 -19.142  30.962  1.00  0.00     0.048 C 
ATOM      2  C   UNL     1     -10.808 -18.265  30.166  1.00  0.00    -0.012 C 
ATOM      3  C   UNL     1     -10.625 -16.934  30.141  1.00  0.00    -0.019 C 
ATOM      4  C   UNL     1     -11.575 -16.010  29.426  1.00  0.00     0.036 C 
ATOM      5  C   UNL     1     -12.218 -16.705  28.211  1.00  0.00     0.025 C 
ATOM      6  C   UNL     1     -12.896 -18.019  28.642  1.00  0.00     0.089 C 
ATOM      7  C   UNL     1     -11.941 -18.876  29.429  1.00  0.00     0.158 C 
ATOM      8  O   UNL     1     -12.141 -20.119  29.491  1.00  0.00    -0.295 OA
ENDROOT
BRANCH   5   9
ATOM      9  C   UNL     1     -13.191 -15.784  27.485  1.00  0.00    -0.077 C 
ATOM     10  C   UNL     1     -13.630 -16.067  26.247  1.00  0.00     0.008 C 
ATOM     11  C   UNL     1     -13.681 -14.526  28.154  1.00  0.00     0.039 C 
ENDBRANCH   5   9
TORSDOF 1
ENDMDL
MODEL 8
REMARK VINA RESULT:    -4.281      2.066      4.451
REMARK INTER + INTRA:          -4.621
REMARK INTER:                  -4.524
REMARK INTRA:                  -0.097
REMARK UNBOUND:                -0.089
REMARK SMILES C=C(C)[C@H]1CC=C(C)C(=O)C1
REMARK SMILES IDX 8 1 7 2 6 3 5 4 4 5 11 6 9 7 10 8 2 9 1 10 3 11
REMARK H PARENT
REMARK Flexibility Score: inf
ROOT
ATOM      1  C   UNL     1      -9.894 -14.961  29.073  1.00  0.00     0.048 C 
ATOM      2  C   UNL     1     -10.516 -16.313  29.299  1.00  0.00    -0.012 C 
ATOM      3  C   UNL     1      -9.875 -17.237  30.035  1.00  0.00    -0.019 C 
ATOM      4  C   UNL     1     -10.420 -18.629  30.221  1.00  0.00     0.036 C 
ATOM      5  C   UNL     1     -11.960 -18.634  30.179  1.00  0.00     0.025 C 
ATOM      6  C   UNL     1     -12.462 -17.980  28.878  1.00  0.00     0.089 C 
ATOM      7  C   UNL     1     -11.829 -16.628  28.684  1.00  0.00     0.158 C 
ATOM      8  O   UNL     1     -12.408 -15.778  27.955  1.00  0.00    -0.295 OA
ENDROOT
BRANCH   5   9
ATOM      9  C   UNL     1     -12.523 -20.038  30.354  1.00  0.00    -0.077 C 
ATOM     10  C   UNL     1     -13.371 -20.569  29.458  1.00  0.00     0.008 C 
ATOM     11  C   UNL     1     -12.131 -20.865  31.552  1.00  0.00     0.039 C 
ENDBRANCH   5   9
TORSDOF 1
ENDMDL
MODEL 9
REMARK VINA RESULT:    -4.274      2.405      2.999
REMARK INTER + INTRA:          -4.613
REMARK INTER:                  -4.518
REMARK INTRA:                  -0.095
REMARK UNBOUND:                -0.089
REMARK SMILES C=C(C)[C@H]1CC=C(C)C(=O)C1
REMARK SMILES IDX 8 1 7 2 6 3 5 4 4 5 11 6 9 7 10 8 2 9 1 10 3 11
REMARK H PARENT
REMARK Flexibility Score: inf
ROOT
ATOM      1  C   UNL     1     -13.518 -15.843  32.369  1.00  0.00     0.048 C 
ATOM      2  C   UNL     1     -13.233 -16.137  30.921  1.00  0.00    -0.012 C 
ATOM      3  C   UNL     1     -13.269 -15.149  30.011  1.00  0.00    -0.019 C 
ATOM      4  C   UNL     1     -13.071 -15.409  28.541  1.00  0.00     0.036 C 
ATOM      5  C   UNL     1     -12.138 -16.613  28.309  1.00  0.00     0.025 C 
ATOM      6  C   UNL     1     -12.669 -17.852  29.055  1.00  0.00     0.089 C 
ATOM      7  C   UNL     1     -12.936 -17.529  30.500  1.00  0.00     0.158 C 
ATOM      8  O   UNL     1     -12.949 -18.463  31.346  1.00  0.00    -0.295 OA
ENDROOT
BRANCH   5   9
ATOM      9  C   UNL     1     -11.939 -16.894  26.826  1.00  0.00    -0.077 C 
ATOM     10  C   UNL     1     -12.847 -16.509  25.913  1.00  0.00     0.008 C 
ATOM     11  C   UNL     1     -10.703 -17.615  26.353  1.00  0.00     0.039 C 
ENDBRANCH   5   9
TORSDOF 1
ENDMDL
