MODEL 1
REMARK VINA RESULT:    -7.587      0.000      0.000
REMARK INTER + INTRA:          -9.235
REMARK INTER:                  -8.918
REMARK INTRA:                  -0.317
REMARK UNBOUND:                -0.317
REMARK SMILES O=c1cc(-c2ccc(O)c(O)c2)oc2cc(O)cc(O)c12
REMARK SMILES IDX 4 1 3 2 2 3 1 4 21 5 19 6 18 7 16 8 15 9 14 10 13 11 5 12
REMARK SMILES IDX 6 13 7 14 8 15 12 16 10 17 9 18 11 20 20 22 17 24
REMARK H PARENT 9 19 11 21 20 23 17 25
REMARK Flexibility Score: inf
ROOT
ATOM      1  C   UNL     1     145.510 -22.303  77.139  1.00  0.00     0.138 A 
ATOM      2  C   UNL     1     146.025 -23.187  78.097  1.00  0.00     0.100 A 
ATOM      3  C   UNL     1     147.294 -23.739  77.914  1.00  0.00     0.197 A 
ATOM      4  O   UNL     1     147.755 -24.480  78.820  1.00  0.00    -0.289 OA
ATOM      5  C   UNL     1     148.035 -23.427  76.749  1.00  0.00     0.107 A 
ATOM      6  C   UNL     1     149.322 -23.962  76.438  1.00  0.00     0.134 A 
ATOM      7  C   UNL     1     150.011 -23.492  75.314  1.00  0.00     0.093 A 
ATOM      8  C   UNL     1     149.435 -22.550  74.458  1.00  0.00     0.123 A 
ATOM      9  C   UNL     1     148.158 -22.061  74.724  1.00  0.00     0.094 A 
ATOM     10  C   UNL     1     147.459 -22.486  75.856  1.00  0.00     0.146 A 
ATOM     11  O   UNL     1     146.249 -21.984  76.081  1.00  0.00    -0.456 OA
ENDROOT
BRANCH   1  12
ATOM     12  C   UNL     1     144.166 -21.688  77.282  1.00  0.00     0.021 A 
ATOM     13  C   UNL     1     143.295 -22.153  78.283  1.00  0.00     0.016 A 
ATOM     14  C   UNL     1     142.029 -21.586  78.443  1.00  0.00     0.051 A 
ATOM     15  C   UNL     1     141.614 -20.537  77.613  1.00  0.00     0.157 A 
ATOM     16  C   UNL     1     143.747 -20.624  76.459  1.00  0.00     0.062 A 
ATOM     17  C   UNL     1     142.480 -20.052  76.619  1.00  0.00     0.158 A 
BRANCH  15  18
ATOM     18  O   UNL     1     140.349 -19.974  77.774  1.00  0.00    -0.504 OA
ATOM     19  H   UNL     1     140.060 -19.158  77.248  1.00  0.00     0.293 HD
ENDBRANCH  15  18
BRANCH  17  20
ATOM     20  O   UNL     1     142.101 -19.000  75.785  1.00  0.00    -0.504 OA
ATOM     21  H   UNL     1     141.415 -18.310  76.066  1.00  0.00     0.293 HD
ENDBRANCH  17  20
ENDBRANCH   1  12
BRANCH   6  22
ATOM     22  O   UNL     1     149.949 -24.968  77.179  1.00  0.00    -0.507 OA
ATOM     23  H   UNL     1     149.482 -25.590  77.821  1.00  0.00     0.293 HD
ENDBRANCH   6  22
BRANCH   8  24
ATOM     24  O   UNL     1     150.123 -22.098  73.333  1.00  0.00    -0.508 OA
ATOM     25  H   UNL     1     150.677 -22.726  72.763  1.00  0.00     0.293 HD
ENDBRANCH   8  24
TORSDOF 5
ENDMDL
MODEL 2
REMARK VINA RESULT:    -6.806      4.732      9.878
REMARK INTER + INTRA:          -8.317
REMARK INTER:                  -8.045
REMARK INTRA:                  -0.272
REMARK UNBOUND:                -0.317
REMARK SMILES O=c1cc(-c2ccc(O)c(O)c2)oc2cc(O)cc(O)c12
REMARK SMILES IDX 4 1 3 2 2 3 1 4 21 5 19 6 18 7 16 8 15 9 14 10 13 11 5 12
REMARK SMILES IDX 6 13 7 14 8 15 12 16 10 17 9 18 11 20 20 22 17 24
REMARK H PARENT 9 19 11 21 20 23 17 25
REMARK Flexibility Score: inf
ROOT
ATOM      1  C   UNL     1     140.642 -18.121  78.741  1.00  0.00     0.138 A 
ATOM      2  C   UNL     1     139.287 -17.959  78.424  1.00  0.00     0.100 A 
ATOM      3  C   UNL     1     138.593 -16.850  78.910  1.00  0.00     0.197 A 
ATOM      4  O   UNL     1     137.394 -16.699  78.558  1.00  0.00    -0.289 OA
ATOM      5  C   UNL     1     139.254 -15.917  79.744  1.00  0.00     0.107 A 
ATOM      6  C   UNL     1     138.635 -14.771  80.330  1.00  0.00     0.134 A 
ATOM      7  C   UNL     1     139.417 -13.855  81.043  1.00  0.00     0.093 A 
ATOM      8  C   UNL     1     140.783 -14.073  81.242  1.00  0.00     0.123 A 
ATOM      9  C   UNL     1     141.384 -15.216  80.719  1.00  0.00     0.094 A 
ATOM     10  C   UNL     1     140.638 -16.132  79.974  1.00  0.00     0.146 A 
ATOM     11  O   UNL     1     141.254 -17.201  79.481  1.00  0.00    -0.456 OA
ENDROOT
BRANCH   1  12
ATOM     12  C   UNL     1     141.429 -19.282  78.251  1.00  0.00     0.021 A 
ATOM     13  C   UNL     1     141.109 -20.574  78.703  1.00  0.00     0.016 A 
ATOM     14  C   UNL     1     141.829 -21.683  78.252  1.00  0.00     0.051 A 
ATOM     15  C   UNL     1     142.874 -21.521  77.334  1.00  0.00     0.157 A 
ATOM     16  C   UNL     1     142.473 -19.128  77.318  1.00  0.00     0.062 A 
ATOM     17  C   UNL     1     143.194 -20.237  76.863  1.00  0.00     0.158 A 
BRANCH  15  18
ATOM     18  O   UNL     1     143.591 -22.630  76.887  1.00  0.00    -0.504 OA
ATOM     19  H   UNL     1     143.168 -23.549  76.831  1.00  0.00     0.293 HD
ENDBRANCH  15  18
BRANCH  17  20
ATOM     20  O   UNL     1     144.221 -20.045  75.940  1.00  0.00    -0.504 OA
ATOM     21  H   UNL     1     145.190 -19.951  76.222  1.00  0.00     0.293 HD
ENDBRANCH  17  20
ENDBRANCH   1  12
BRANCH   6  22
ATOM     22  O   UNL     1     137.265 -14.504  80.264  1.00  0.00    -0.507 OA
ATOM     23  H   UNL     1     136.596 -14.740  80.980  1.00  0.00     0.293 HD
ENDBRANCH   6  22
BRANCH   8  24
ATOM     24  O   UNL     1     141.551 -13.163  81.966  1.00  0.00    -0.508 OA
ATOM     25  H   UNL     1     142.562 -13.156  81.904  1.00  0.00     0.293 HD
ENDBRANCH   8  24
TORSDOF 5
ENDMDL
MODEL 3
REMARK VINA RESULT:    -6.508      1.224      2.717
REMARK INTER + INTRA:          -7.966
REMARK INTER:                  -7.670
REMARK INTRA:                  -0.296
REMARK UNBOUND:                -0.317
REMARK SMILES O=c1cc(-c2ccc(O)c(O)c2)oc2cc(O)cc(O)c12
REMARK SMILES IDX 4 1 3 2 2 3 1 4 21 5 19 6 18 7 16 8 15 9 14 10 13 11 5 12
REMARK SMILES IDX 6 13 7 14 8 15 12 16 10 17 9 18 11 20 20 22 17 24
REMARK H PARENT 9 19 11 21 20 23 17 25
REMARK Flexibility Score: inf
ROOT
ATOM      1  C   UNL     1     145.408 -22.168  76.790  1.00  0.00     0.138 A 
ATOM      2  C   UNL     1     146.142 -21.772  75.663  1.00  0.00     0.100 A 
ATOM      3  C   UNL     1     147.383 -22.357  75.408  1.00  0.00     0.197 A 
ATOM      4  O   UNL     1     147.990 -22.026  74.358  1.00  0.00    -0.289 OA
ATOM      5  C   UNL     1     147.903 -23.322  76.305  1.00  0.00     0.107 A 
ATOM      6  C   UNL     1     149.175 -23.955  76.167  1.00  0.00     0.134 A 
ATOM      7  C   UNL     1     149.534 -24.979  77.051  1.00  0.00     0.093 A 
ATOM      8  C   UNL     1     148.694 -25.351  78.103  1.00  0.00     0.123 A 
ATOM      9  C   UNL     1     147.474 -24.701  78.278  1.00  0.00     0.094 A 
ATOM     10  C   UNL     1     147.072 -23.699  77.392  1.00  0.00     0.146 A 
ATOM     11  O   UNL     1     145.894 -23.115  77.586  1.00  0.00    -0.456 OA
ENDROOT
BRANCH   1  12
ATOM     12  C   UNL     1     144.083 -21.577  77.110  1.00  0.00     0.021 A 
ATOM     13  C   UNL     1     143.308 -22.135  78.141  1.00  0.00     0.016 A 
ATOM     14  C   UNL     1     142.062 -21.593  78.466  1.00  0.00     0.051 A 
ATOM     15  C   UNL     1     141.573 -20.478  77.773  1.00  0.00     0.157 A 
ATOM     16  C   UNL     1     143.591 -20.448  76.425  1.00  0.00     0.062 A 
ATOM     17  C   UNL     1     142.344 -19.902  76.750  1.00  0.00     0.158 A 
BRANCH  15  18
ATOM     18  O   UNL     1     140.329 -19.942  78.098  1.00  0.00    -0.504 OA
ATOM     19  H   UNL     1     139.541 -20.533  78.333  1.00  0.00     0.293 HD
ENDBRANCH  15  18
BRANCH  17  20
ATOM     20  O   UNL     1     141.891 -18.785  76.050  1.00  0.00    -0.504 OA
ATOM     21  H   UNL     1     140.911 -18.647  75.831  1.00  0.00     0.293 HD
ENDBRANCH  17  20
ENDBRANCH   1  12
BRANCH   6  22
ATOM     22  O   UNL     1     150.124 -23.600  75.204  1.00  0.00    -0.507 OA
ATOM     23  H   UNL     1     150.262 -22.669  74.845  1.00  0.00     0.293 HD
ENDBRANCH   6  22
BRANCH   8  24
ATOM     24  O   UNL     1     149.066 -26.362  78.988  1.00  0.00    -0.508 OA
ATOM     25  H   UNL     1     148.610 -26.475  79.885  1.00  0.00     0.293 HD
ENDBRANCH   8  24
TORSDOF 5
ENDMDL
MODEL 4
REMARK VINA RESULT:    -6.123      1.422      3.133
REMARK INTER + INTRA:          -7.514
REMARK INTER:                  -7.196
REMARK INTRA:                  -0.317
REMARK UNBOUND:                -0.317
REMARK SMILES O=c1cc(-c2ccc(O)c(O)c2)oc2cc(O)cc(O)c12
REMARK SMILES IDX 4 1 3 2 2 3 1 4 21 5 19 6 18 7 16 8 15 9 14 10 13 11 5 12
REMARK SMILES IDX 6 13 7 14 8 15 12 16 10 17 9 18 11 20 20 22 17 24
REMARK H PARENT 9 19 11 21 20 23 17 25
REMARK Flexibility Score: inf
ROOT
ATOM      1  C   UNL     1     145.214 -22.106  76.894  1.00  0.00     0.138 A 
ATOM      2  C   UNL     1     145.921 -21.765  75.732  1.00  0.00     0.100 A 
ATOM      3  C   UNL     1     147.144 -22.381  75.463  1.00  0.00     0.197 A 
ATOM      4  O   UNL     1     147.724 -22.100  74.383  1.00  0.00    -0.289 OA
ATOM      5  C   UNL     1     147.675 -23.319  76.380  1.00  0.00     0.107 A 
ATOM      6  C   UNL     1     148.932 -23.979  76.229  1.00  0.00     0.134 A 
ATOM      7  C   UNL     1     149.302 -24.975  77.141  1.00  0.00     0.093 A 
ATOM      8  C   UNL     1     148.488 -25.293  78.231  1.00  0.00     0.123 A 
ATOM      9  C   UNL     1     147.284 -24.616  78.416  1.00  0.00     0.094 A 
ATOM     10  C   UNL     1     146.872 -23.642  77.505  1.00  0.00     0.146 A 
ATOM     11  O   UNL     1     145.709 -23.031  77.711  1.00  0.00    -0.456 OA
ENDROOT
BRANCH   1  12
ATOM     12  C   UNL     1     143.909 -21.482  77.230  1.00  0.00     0.021 A 
ATOM     13  C   UNL     1     143.432 -20.414  76.450  1.00  0.00     0.016 A 
ATOM     14  C   UNL     1     142.204 -19.815  76.741  1.00  0.00     0.051 A 
ATOM     15  C   UNL     1     141.427 -20.279  77.809  1.00  0.00     0.157 A 
ATOM     16  C   UNL     1     143.116 -21.952  78.295  1.00  0.00     0.062 A 
ATOM     17  C   UNL     1     141.885 -21.355  78.587  1.00  0.00     0.158 A 
BRANCH  15  18
ATOM     18  O   UNL     1     140.203 -19.678  78.098  1.00  0.00    -0.504 OA
ATOM     19  H   UNL     1     139.962 -19.390  79.039  1.00  0.00     0.293 HD
ENDBRANCH  15  18
BRANCH  17  20
ATOM     20  O   UNL     1     141.128 -21.847  79.650  1.00  0.00    -0.504 OA
ATOM     21  H   UNL     1     140.416 -22.557  79.523  1.00  0.00     0.293 HD
ENDBRANCH  17  20
ENDBRANCH   1  12
BRANCH   6  22
ATOM     22  O   UNL     1     149.858 -23.677  75.225  1.00  0.00    -0.507 OA
ATOM     23  H   UNL     1     150.530 -24.325  74.846  1.00  0.00     0.293 HD
ENDBRANCH   6  22
BRANCH   8  24
ATOM     24  O   UNL     1     148.871 -26.275  79.142  1.00  0.00    -0.508 OA
ATOM     25  H   UNL     1     148.199 -26.716  79.759  1.00  0.00     0.293 HD
ENDBRANCH   8  24
TORSDOF 5
ENDMDL
MODEL 5
REMARK VINA RESULT:    -5.417      4.488      7.835
REMARK INTER + INTRA:          -6.684
REMARK INTER:                  -6.390
REMARK INTRA:                  -0.294
REMARK UNBOUND:                -0.317
REMARK SMILES O=c1cc(-c2ccc(O)c(O)c2)oc2cc(O)cc(O)c12
REMARK SMILES IDX 4 1 3 2 2 3 1 4 21 5 19 6 18 7 16 8 15 9 14 10 13 11 5 12
REMARK SMILES IDX 6 13 7 14 8 15 12 16 10 17 9 18 11 20 20 22 17 24
REMARK H PARENT 9 19 11 21 20 23 17 25
REMARK Flexibility Score: inf
ROOT
ATOM      1  C   UNL     1     140.636 -17.611  78.944  1.00  0.00     0.138 A 
ATOM      2  C   UNL     1     139.462 -18.351  78.743  1.00  0.00     0.100 A 
ATOM      3  C   UNL     1     139.507 -19.524  77.990  1.00  0.00     0.197 A 
ATOM      4  O   UNL     1     138.451 -20.198  77.878  1.00  0.00    -0.289 OA
ATOM      5  C   UNL     1     140.729 -19.940  77.408  1.00  0.00     0.107 A 
ATOM      6  C   UNL     1     140.884 -21.098  76.587  1.00  0.00     0.134 A 
ATOM      7  C   UNL     1     142.164 -21.476  76.163  1.00  0.00     0.093 A 
ATOM      8  C   UNL     1     143.285 -20.705  76.481  1.00  0.00     0.123 A 
ATOM      9  C   UNL     1     143.136 -19.544  77.237  1.00  0.00     0.094 A 
ATOM     10  C   UNL     1     141.877 -19.159  77.703  1.00  0.00     0.146 A 
ATOM     11  O   UNL     1     141.781 -18.053  78.434  1.00  0.00    -0.456 OA
ENDROOT
BRANCH   1  12
ATOM     12  C   UNL     1     140.645 -16.355  79.737  1.00  0.00     0.021 A 
ATOM     13  C   UNL     1     141.866 -15.850  80.218  1.00  0.00     0.016 A 
ATOM     14  C   UNL     1     141.902 -14.667  80.959  1.00  0.00     0.051 A 
ATOM     15  C   UNL     1     140.721 -13.962  81.224  1.00  0.00     0.157 A 
ATOM     16  C   UNL     1     139.463 -15.634  79.996  1.00  0.00     0.062 A 
ATOM     17  C   UNL     1     139.497 -14.448  80.737  1.00  0.00     0.158 A 
BRANCH  15  18
ATOM     18  O   UNL     1     140.761 -12.783  81.966  1.00  0.00    -0.504 OA
ATOM     19  H   UNL     1     141.448 -12.062  81.781  1.00  0.00     0.293 HD
ENDBRANCH  15  18
BRANCH  17  20
ATOM     20  O   UNL     1     138.306 -13.762  80.974  1.00  0.00    -0.504 OA
ATOM     21  H   UNL     1     138.281 -12.877  81.465  1.00  0.00     0.293 HD
ENDBRANCH  17  20
ENDBRANCH   1  12
BRANCH   6  22
ATOM     22  O   UNL     1     139.821 -21.888  76.142  1.00  0.00    -0.507 OA
ATOM     23  H   UNL     1     139.700 -22.214  75.196  1.00  0.00     0.293 HD
ENDBRANCH   6  22
BRANCH   8  24
ATOM     24  O   UNL     1     144.553 -21.080  76.042  1.00  0.00    -0.508 OA
ATOM     25  H   UNL     1     144.908 -20.791  75.137  1.00  0.00     0.293 HD
ENDBRANCH   8  24
TORSDOF 5
ENDMDL
MODEL 6
REMARK VINA RESULT:    -4.781      7.909     10.813
REMARK INTER + INTRA:          -5.937
REMARK INTER:                  -5.673
REMARK INTRA:                  -0.264
REMARK UNBOUND:                -0.317
REMARK SMILES O=c1cc(-c2ccc(O)c(O)c2)oc2cc(O)cc(O)c12
REMARK SMILES IDX 4 1 3 2 2 3 1 4 21 5 19 6 18 7 16 8 15 9 14 10 13 11 5 12
REMARK SMILES IDX 6 13 7 14 8 15 12 16 10 17 9 18 11 20 20 22 17 24
REMARK H PARENT 9 19 11 21 20 23 17 25
REMARK Flexibility Score: inf
ROOT
ATOM      1  C   UNL     1     136.007 -18.748  77.247  1.00  0.00     0.138 A 
ATOM      2  C   UNL     1     136.854 -19.857  77.113  1.00  0.00     0.100 A 
ATOM      3  C   UNL     1     138.170 -19.779  77.570  1.00  0.00     0.197 A 
ATOM      4  O   UNL     1     138.887 -20.810  77.492  1.00  0.00    -0.289 OA
ATOM      5  C   UNL     1     138.648 -18.573  78.136  1.00  0.00     0.107 A 
ATOM      6  C   UNL     1     139.982 -18.366  78.600  1.00  0.00     0.134 A 
ATOM      7  C   UNL     1     140.309 -17.169  79.248  1.00  0.00     0.093 A 
ATOM      8  C   UNL     1     139.366 -16.149  79.397  1.00  0.00     0.123 A 
ATOM      9  C   UNL     1     138.076 -16.321  78.900  1.00  0.00     0.094 A 
ATOM     10  C   UNL     1     137.710 -17.517  78.279  1.00  0.00     0.146 A 
ATOM     11  O   UNL     1     136.464 -17.645  77.832  1.00  0.00    -0.456 OA
ENDROOT
BRANCH   1  12
ATOM     12  C   UNL     1     134.599 -18.775  76.776  1.00  0.00     0.021 A 
ATOM     13  C   UNL     1     133.583 -19.178  77.660  1.00  0.00     0.016 A 
ATOM     14  C   UNL     1     132.249 -19.205  77.244  1.00  0.00     0.051 A 
ATOM     15  C   UNL     1     131.907 -18.819  75.942  1.00  0.00     0.157 A 
ATOM     16  C   UNL     1     134.246 -18.377  75.472  1.00  0.00     0.062 A 
ATOM     17  C   UNL     1     132.911 -18.400  75.053  1.00  0.00     0.158 A 
BRANCH  15  18
ATOM     18  O   UNL     1     130.576 -18.849  75.529  1.00  0.00    -0.504 OA
ATOM     19  H   UNL     1     129.830 -19.113  76.162  1.00  0.00     0.293 HD
ENDBRANCH  15  18
BRANCH  17  20
ATOM     20  O   UNL     1     132.601 -17.999  73.754  1.00  0.00    -0.504 OA
ATOM     21  H   UNL     1     132.612 -17.026  73.473  1.00  0.00     0.293 HD
ENDBRANCH  17  20
ENDBRANCH   1  12
BRANCH   6  22
ATOM     22  O   UNL     1     141.021 -19.286  78.425  1.00  0.00    -0.507 OA
ATOM     23  H   UNL     1     141.860 -19.321  78.982  1.00  0.00     0.293 HD
ENDBRANCH   6  22
BRANCH   8  24
ATOM     24  O   UNL     1     139.705 -14.955  80.030  1.00  0.00    -0.508 OA
ATOM     25  H   UNL     1     139.262 -14.078  79.780  1.00  0.00     0.293 HD
ENDBRANCH   8  24
TORSDOF 5
ENDMDL
MODEL 7
REMARK VINA RESULT:    -4.772      5.028      9.914
REMARK INTER + INTRA:          -5.926
REMARK INTER:                  -5.629
REMARK INTRA:                  -0.296
REMARK UNBOUND:                -0.317
REMARK SMILES O=c1cc(-c2ccc(O)c(O)c2)oc2cc(O)cc(O)c12
REMARK SMILES IDX 4 1 3 2 2 3 1 4 21 5 19 6 18 7 16 8 15 9 14 10 13 11 5 12
REMARK SMILES IDX 6 13 7 14 8 15 12 16 10 17 9 18 11 20 20 22 17 24
REMARK H PARENT 9 19 11 21 20 23 17 25
REMARK Flexibility Score: inf
ROOT
ATOM      1  C   UNL     1     141.143 -17.686  78.780  1.00  0.00     0.138 A 
ATOM      2  C   UNL     1     142.215 -16.873  79.171  1.00  0.00     0.100 A 
ATOM      3  C   UNL     1     141.977 -15.754  79.969  1.00  0.00     0.197 A 
ATOM      4  O   UNL     1     142.966 -15.078  80.354  1.00  0.00    -0.289 OA
ATOM      5  C   UNL     1     140.653 -15.432  80.351  1.00  0.00     0.107 A 
ATOM      6  C   UNL     1     140.287 -14.293  81.130  1.00  0.00     0.134 A 
ATOM      7  C   UNL     1     138.959 -14.139  81.546  1.00  0.00     0.093 A 
ATOM      8  C   UNL     1     137.973 -15.051  81.161  1.00  0.00     0.123 A 
ATOM      9  C   UNL     1     138.311 -16.137  80.356  1.00  0.00     0.094 A 
ATOM     10  C   UNL     1     139.633 -16.336  79.953  1.00  0.00     0.146 A 
ATOM     11  O   UNL     1     139.916 -17.393  79.198  1.00  0.00    -0.456 OA
ENDROOT
BRANCH   1  12
ATOM     12  C   UNL     1     141.339 -18.889  77.930  1.00  0.00     0.021 A 
ATOM     13  C   UNL     1     140.264 -19.770  77.720  1.00  0.00     0.016 A 
ATOM     14  C   UNL     1     140.421 -20.904  76.920  1.00  0.00     0.051 A 
ATOM     15  C   UNL     1     141.651 -21.171  76.305  1.00  0.00     0.157 A 
ATOM     16  C   UNL     1     142.570 -19.157  77.299  1.00  0.00     0.062 A 
ATOM     17  C   UNL     1     142.729 -20.290  76.495  1.00  0.00     0.158 A 
BRANCH  15  18
ATOM     18  O   UNL     1     141.805 -22.304  75.508  1.00  0.00    -0.504 OA
ATOM     19  H   UNL     1     141.075 -23.001  75.431  1.00  0.00     0.293 HD
ENDBRANCH  15  18
BRANCH  17  20
ATOM     20  O   UNL     1     143.963 -20.522  75.888  1.00  0.00    -0.504 OA
ATOM     21  H   UNL     1     144.074 -21.182  75.127  1.00  0.00     0.293 HD
ENDBRANCH  17  20
ENDBRANCH   1  12
BRANCH   6  22
ATOM     22  O   UNL     1     141.177 -13.278  81.496  1.00  0.00    -0.507 OA
ATOM     23  H   UNL     1     141.530 -13.128  82.428  1.00  0.00     0.293 HD
ENDBRANCH   6  22
BRANCH   8  24
ATOM     24  O   UNL     1     136.651 -14.882  81.567  1.00  0.00    -0.508 OA
ATOM     25  H   UNL     1     135.965 -15.620  81.458  1.00  0.00     0.293 HD
ENDBRANCH   8  24
TORSDOF 5
ENDMDL
