MODEL 1
REMARK VINA RESULT:    -2.330      0.000      0.000
REMARK INTER + INTRA:          -2.330
REMARK INTER:                  -2.330
REMARK INTRA:                   0.000
REMARK UNBOUND:                 0.000
REMARK SMILES CC(=O)[O-]
REMARK SMILES IDX 1 1 2 2 3 3 4 4
REMARK H PARENT
REMARK Flexibility Score: inf
ROOT
ATOM      1  C   UNL     1      -5.490 -27.995 -47.835  1.00  0.00     0.063 C 
ATOM      2  C   UNL     1      -5.967 -29.164 -48.630  1.00  0.00     0.038 C 
ATOM      3  O   UNL     1      -5.880 -29.151 -49.885  1.00  0.00    -0.550 OA
ATOM      4  O   UNL     1      -6.458 -30.291 -47.984  1.00  0.00    -0.550 OA
ENDROOT
TORSDOF 0
ENDMDL
MODEL 2
REMARK VINA RESULT:    -2.329     15.064     15.298
REMARK INTER + INTRA:          -2.329
REMARK INTER:                  -2.329
REMARK INTRA:                   0.000
REMARK UNBOUND:                 0.000
REMARK SMILES CC(=O)[O-]
REMARK SMILES IDX 1 1 2 2 3 3 4 4
REMARK H PARENT
REMARK Flexibility Score: inf
ROOT
ATOM      1  C   UNL     1     -14.470 -27.524 -35.416  1.00  0.00     0.063 C 
ATOM      2  C   UNL     1     -13.299 -26.617 -35.590  1.00  0.00     0.038 C 
ATOM      3  O   UNL     1     -12.163 -26.967 -35.174  1.00  0.00    -0.550 OA
ATOM      4  O   UNL     1     -13.446 -25.410 -36.260  1.00  0.00    -0.550 OA
ENDROOT
TORSDOF 0
ENDMDL
MODEL 3
REMARK VINA RESULT:    -2.311      1.428      1.785
REMARK INTER + INTRA:          -2.311
REMARK INTER:                  -2.311
REMARK INTRA:                   0.000
REMARK UNBOUND:                 0.000
REMARK SMILES CC(=O)[O-]
REMARK SMILES IDX 1 1 2 2 3 3 4 4
REMARK H PARENT
REMARK Flexibility Score: inf
ROOT
ATOM      1  C   UNL     1      -6.420 -30.543 -48.184  1.00  0.00     0.063 C 
ATOM      2  C   UNL     1      -5.922 -29.297 -48.836  1.00  0.00     0.038 C 
ATOM      3  O   UNL     1      -5.805 -29.244 -50.088  1.00  0.00    -0.550 OA
ATOM      4  O   UNL     1      -5.639 -28.176 -48.068  1.00  0.00    -0.550 OA
ENDROOT
TORSDOF 0
ENDMDL
MODEL 4
REMARK VINA RESULT:    -2.301      0.255      1.621
REMARK INTER + INTRA:          -2.301
REMARK INTER:                  -2.301
REMARK INTRA:                   0.000
REMARK UNBOUND:                 0.000
REMARK SMILES CC(=O)[O-]
REMARK SMILES IDX 1 1 2 2 3 3 4 4
REMARK H PARENT
REMARK Flexibility Score: inf
ROOT
ATOM      1  C   UNL     1      -5.528 -28.077 -47.884  1.00  0.00     0.063 C 
ATOM      2  C   UNL     1      -6.104 -29.239 -48.620  1.00  0.00     0.038 C 
ATOM      3  O   UNL     1      -6.423 -30.285 -47.997  1.00  0.00    -0.550 OA
ATOM      4  O   UNL     1      -6.341 -29.150 -49.986  1.00  0.00    -0.550 OA
ENDROOT
TORSDOF 0
ENDMDL
MODEL 5
REMARK VINA RESULT:    -2.301     15.001     15.478
REMARK INTER + INTRA:          -2.301
REMARK INTER:                  -2.301
REMARK INTRA:                   0.000
REMARK UNBOUND:                 0.000
REMARK SMILES CC(=O)[O-]
REMARK SMILES IDX 1 1 2 2 3 3 4 4
REMARK H PARENT
REMARK Flexibility Score: inf
ROOT
ATOM      1  C   UNL     1     -13.577 -27.675 -35.370  1.00  0.00     0.063 C 
ATOM      2  C   UNL     1     -12.297 -27.940 -34.651  1.00  0.00     0.038 C 
ATOM      3  O   UNL     1     -12.283 -28.700 -33.647  1.00  0.00    -0.550 OA
ATOM      4  O   UNL     1     -11.110 -27.392 -35.119  1.00  0.00    -0.550 OA
ENDROOT
TORSDOF 0
ENDMDL
MODEL 6
REMARK VINA RESULT:    -2.286     14.936     15.341
REMARK INTER + INTRA:          -2.286
REMARK INTER:                  -2.286
REMARK INTRA:                   0.000
REMARK UNBOUND:                 0.000
REMARK SMILES CC(=O)[O-]
REMARK SMILES IDX 1 1 2 2 3 3 4 4
REMARK H PARENT
REMARK Flexibility Score: inf
ROOT
ATOM      1  C   UNL     1     -13.460 -27.572 -35.485  1.00  0.00     0.063 C 
ATOM      2  C   UNL     1     -12.200 -27.861 -34.741  1.00  0.00     0.038 C 
ATOM      3  O   UNL     1     -11.114 -27.347 -35.117  1.00  0.00    -0.550 OA
ATOM      4  O   UNL     1     -12.231 -28.653 -33.600  1.00  0.00    -0.550 OA
ENDROOT
TORSDOF 0
ENDMDL
MODEL 7
REMARK VINA RESULT:    -2.246     14.985     15.410
REMARK INTER + INTRA:          -2.246
REMARK INTER:                  -2.246
REMARK INTRA:                   0.000
REMARK UNBOUND:                 0.000
REMARK SMILES CC(=O)[O-]
REMARK SMILES IDX 1 1 2 2 3 3 4 4
REMARK H PARENT
REMARK Flexibility Score: inf
ROOT
ATOM      1  C   UNL     1     -12.458 -28.292 -33.287  1.00  0.00     0.063 C 
ATOM      2  C   UNL     1     -12.231 -27.861 -34.697  1.00  0.00     0.038 C 
ATOM      3  O   UNL     1     -11.082 -27.511 -35.072  1.00  0.00    -0.550 OA
ATOM      4  O   UNL     1     -13.275 -27.897 -35.612  1.00  0.00    -0.550 OA
ENDROOT
TORSDOF 0
ENDMDL
MODEL 8
REMARK VINA RESULT:    -2.224     14.992     15.443
REMARK INTER + INTRA:          -2.224
REMARK INTER:                  -2.224
REMARK INTRA:                   0.000
REMARK UNBOUND:                 0.000
REMARK SMILES CC(=O)[O-]
REMARK SMILES IDX 1 1 2 2 3 3 4 4
REMARK H PARENT
REMARK Flexibility Score: inf
ROOT
ATOM      1  C   UNL     1     -12.563 -28.238 -33.293  1.00  0.00     0.063 C 
ATOM      2  C   UNL     1     -12.304 -27.854 -34.711  1.00  0.00     0.038 C 
ATOM      3  O   UNL     1     -13.234 -27.910 -35.558  1.00  0.00    -0.550 OA
ATOM      4  O   UNL     1     -11.054 -27.383 -35.087  1.00  0.00    -0.550 OA
ENDROOT
TORSDOF 0
ENDMDL
MODEL 9
REMARK VINA RESULT:    -2.209      1.491      1.631
REMARK INTER + INTRA:          -2.209
REMARK INTER:                  -2.209
REMARK INTRA:                   0.000
REMARK UNBOUND:                 0.000
REMARK SMILES CC(=O)[O-]
REMARK SMILES IDX 1 1 2 2 3 3 4 4
REMARK H PARENT
REMARK Flexibility Score: inf
ROOT
ATOM      1  C   UNL     1      -5.884 -29.023 -48.621  1.00  0.00     0.063 C 
ATOM      2  C   UNL     1      -6.751 -30.222 -48.431  1.00  0.00     0.038 C 
ATOM      3  O   UNL     1      -7.848 -30.310 -49.041  1.00  0.00    -0.550 OA
ATOM      4  O   UNL     1      -6.324 -31.268 -47.624  1.00  0.00    -0.550 OA
ENDROOT
TORSDOF 0
ENDMDL
