MODEL 1
REMARK VINA RESULT:    -4.854      0.000      0.000
REMARK INTER + INTRA:          -8.266
REMARK INTER:                  -7.408
REMARK INTRA:                  -0.858
REMARK UNBOUND:                -0.858
REMARK SMILES O=C([O-])CCCCCCCCC(=O)[O-]
REMARK SMILES IDX 7 1 6 2 5 3 4 4 2 5 1 6 3 7 8 8 9 9 10 10 11 11 12 12 13 13
REMARK SMILES IDX 14 14
REMARK H PARENT
REMARK Flexibility Score: inf
ROOT
ATOM      1  C   UNL     1      15.454  -6.947  14.692  1.00  0.00     0.000 C 
ENDROOT
BRANCH   1   2
ATOM      2  C   UNL     1      16.142  -7.222  13.346  1.00  0.00     0.000 C 
BRANCH   2   3
ATOM      3  C   UNL     1      16.329  -5.925  12.552  1.00  0.00     0.006 C 
BRANCH   3   4
ATOM      4  C   UNL     1      17.714  -5.874  11.899  1.00  0.00     0.053 C 
BRANCH   4   5
ATOM      5  C   UNL     1      18.521  -4.748  12.467  1.00  0.00     0.041 C 
ATOM      6  O   UNL     1      17.958  -3.676  12.810  1.00  0.00    -0.550 OA
ATOM      7  O   UNL     1      19.887  -4.902  12.664  1.00  0.00    -0.550 OA
ENDBRANCH   4   5
ENDBRANCH   3   4
ENDBRANCH   2   3
ENDBRANCH   1   2
BRANCH   1   8
ATOM      8  C   UNL     1      15.852  -5.592  15.298  1.00  0.00     0.000 C 
BRANCH   8   9
ATOM      9  C   UNL     1      17.085  -5.693  16.212  1.00  0.00     0.000 C 
BRANCH   9  10
ATOM     10  C   UNL     1      17.951  -4.420  16.187  1.00  0.00     0.006 C 
BRANCH  10  11
ATOM     11  C   UNL     1      17.153  -3.107  16.233  1.00  0.00     0.053 C 
BRANCH  11  12
ATOM     12  C   UNL     1      16.635  -2.814  17.608  1.00  0.00     0.041 C 
ATOM     13  O   UNL     1      17.431  -2.727  18.580  1.00  0.00    -0.550 OA
ATOM     14  O   UNL     1      15.270  -2.670  17.821  1.00  0.00    -0.550 OA
ENDBRANCH  11  12
ENDBRANCH  10  11
ENDBRANCH   9  10
ENDBRANCH   8   9
ENDBRANCH   1   8
TORSDOF 9
ENDMDL
MODEL 2
REMARK VINA RESULT:    -4.795      0.698      4.856
REMARK INTER + INTRA:          -8.177
REMARK INTER:                  -7.508
REMARK INTRA:                  -0.669
REMARK UNBOUND:                -0.858
REMARK SMILES O=C([O-])CCCCCCCCC(=O)[O-]
REMARK SMILES IDX 7 1 6 2 5 3 4 4 2 5 1 6 3 7 8 8 9 9 10 10 11 11 12 12 13 13
REMARK SMILES IDX 14 14
REMARK H PARENT
REMARK Flexibility Score: inf
ROOT
ATOM      1  C   UNL     1      15.113  -6.398  15.676  1.00  0.00     0.000 C 
ENDROOT
BRANCH   1   2
ATOM      2  C   UNL     1      15.666  -4.976  15.854  1.00  0.00     0.000 C 
BRANCH   2   3
ATOM      3  C   UNL     1      17.133  -5.010  16.297  1.00  0.00     0.006 C 
BRANCH   3   4
ATOM      4  C   UNL     1      17.714  -3.596  16.386  1.00  0.00     0.053 C 
BRANCH   4   5
ATOM      5  C   UNL     1      17.360  -2.964  17.695  1.00  0.00     0.041 C 
ATOM      6  O   UNL     1      16.345  -2.226  17.788  1.00  0.00    -0.550 OA
ATOM      7  O   UNL     1      18.122  -3.232  18.825  1.00  0.00    -0.550 OA
ENDBRANCH   4   5
ENDBRANCH   3   4
ENDBRANCH   2   3
ENDBRANCH   1   2
BRANCH   1   8
ATOM      8  C   UNL     1      14.758  -6.720  14.215  1.00  0.00     0.000 C 
BRANCH   8   9
ATOM      9  C   UNL     1      15.998  -7.040  13.363  1.00  0.00     0.000 C 
BRANCH   9  10
ATOM     10  C   UNL     1      16.280  -5.967  12.295  1.00  0.00     0.006 C 
BRANCH  10  11
ATOM     11  C   UNL     1      17.749  -5.884  11.850  1.00  0.00     0.053 C 
BRANCH  11  12
ATOM     12  C   UNL     1      18.464  -4.733  12.489  1.00  0.00     0.041 C 
ATOM     13  O   UNL     1      19.711  -4.777  12.659  1.00  0.00    -0.550 OA
ATOM     14  O   UNL     1      17.749  -3.625  12.926  1.00  0.00    -0.550 OA
ENDBRANCH  11  12
ENDBRANCH  10  11
ENDBRANCH   9  10
ENDBRANCH   8   9
ENDBRANCH   1   8
TORSDOF 9
ENDMDL
MODEL 3
REMARK VINA RESULT:    -4.790      3.321      4.028
REMARK INTER + INTRA:          -8.169
REMARK INTER:                  -7.493
REMARK INTRA:                  -0.677
REMARK UNBOUND:                -0.858
REMARK SMILES O=C([O-])CCCCCCCCC(=O)[O-]
REMARK SMILES IDX 7 1 6 2 5 3 4 4 2 5 1 6 3 7 8 8 9 9 10 10 11 11 12 12 13 13
REMARK SMILES IDX 14 14
REMARK H PARENT
REMARK Flexibility Score: inf
ROOT
ATOM      1  C   UNL     1      15.671  -7.325  14.084  1.00  0.00     0.000 C 
ENDROOT
BRANCH   1   2
ATOM      2  C   UNL     1      14.470  -6.752  13.316  1.00  0.00     0.000 C 
BRANCH   2   3
ATOM      3  C   UNL     1      14.927  -5.748  12.253  1.00  0.00     0.006 C 
BRANCH   3   4
ATOM      4  C   UNL     1      13.769  -5.360  11.328  1.00  0.00     0.053 C 
BRANCH   4   5
ATOM      5  C   UNL     1      14.164  -5.529   9.894  1.00  0.00     0.041 C 
ATOM      6  O   UNL     1      15.342  -5.281   9.529  1.00  0.00    -0.550 OA
ATOM      7  O   UNL     1      13.243  -6.008   8.972  1.00  0.00    -0.550 OA
ENDBRANCH   4   5
ENDBRANCH   3   4
ENDBRANCH   2   3
ENDBRANCH   1   2
BRANCH   1   8
ATOM      8  C   UNL     1      16.148  -6.400  15.216  1.00  0.00     0.000 C 
BRANCH   8   9
ATOM      9  C   UNL     1      14.985  -5.843  16.053  1.00  0.00     0.000 C 
BRANCH   9  10
ATOM     10  C   UNL     1      15.011  -4.307  16.162  1.00  0.00     0.006 C 
BRANCH  10  11
ATOM     11  C   UNL     1      13.623  -3.654  16.271  1.00  0.00     0.053 C 
BRANCH  11  12
ATOM     12  C   UNL     1      13.151  -3.119  14.954  1.00  0.00     0.041 C 
ATOM     13  O   UNL     1      13.976  -2.881  14.033  1.00  0.00    -0.550 OA
ATOM     14  O   UNL     1      11.802  -2.850  14.756  1.00  0.00    -0.550 OA
ENDBRANCH  11  12
ENDBRANCH  10  11
ENDBRANCH   9  10
ENDBRANCH   8   9
ENDBRANCH   1   8
TORSDOF 9
ENDMDL
MODEL 4
REMARK VINA RESULT:    -4.720      2.921      4.037
REMARK INTER + INTRA:          -8.061
REMARK INTER:                  -7.262
REMARK INTRA:                  -0.800
REMARK UNBOUND:                -0.858
REMARK SMILES O=C([O-])CCCCCCCCC(=O)[O-]
REMARK SMILES IDX 7 1 6 2 5 3 4 4 2 5 1 6 3 7 8 8 9 9 10 10 11 11 12 12 13 13
REMARK SMILES IDX 14 14
REMARK H PARENT
REMARK Flexibility Score: inf
ROOT
ATOM      1  C   UNL     1      18.482  -4.854  12.526  1.00  0.00     0.000 C 
ENDROOT
BRANCH   1   2
ATOM      2  C   UNL     1      17.794  -5.901  11.637  1.00  0.00     0.000 C 
BRANCH   2   3
ATOM      3  C   UNL     1      16.316  -5.556  11.427  1.00  0.00     0.006 C 
BRANCH   3   4
ATOM      4  C   UNL     1      15.962  -5.538   9.937  1.00  0.00     0.053 C 
BRANCH   4   5
ATOM      5  C   UNL     1      14.481  -5.424   9.751  1.00  0.00     0.041 C 
ATOM      6  O   UNL     1      13.916  -6.014   8.793  1.00  0.00    -0.550 OA
ATOM      7  O   UNL     1      13.719  -4.707  10.664  1.00  0.00    -0.550 OA
ENDBRANCH   4   5
ENDBRANCH   3   4
ENDBRANCH   2   3
ENDBRANCH   1   2
BRANCH   1   8
ATOM      8  C   UNL     1      17.523  -3.744  12.988  1.00  0.00     0.000 C 
BRANCH   8   9
ATOM      9  C   UNL     1      17.416  -3.656  14.520  1.00  0.00     0.000 C 
BRANCH   9  10
ATOM     10  C   UNL     1      18.122  -4.823  15.234  1.00  0.00     0.006 C 
BRANCH  10  11
ATOM     11  C   UNL     1      17.238  -5.582  16.236  1.00  0.00     0.053 C 
BRANCH  11  12
ATOM     12  C   UNL     1      16.016  -6.153  15.585  1.00  0.00     0.041 C 
ATOM     13  O   UNL     1      16.128  -6.985  14.646  1.00  0.00    -0.550 OA
ATOM     14  O   UNL     1      14.753  -5.741  15.993  1.00  0.00    -0.550 OA
ENDBRANCH  11  12
ENDBRANCH  10  11
ENDBRANCH   9  10
ENDBRANCH   8   9
ENDBRANCH   1   8
TORSDOF 9
ENDMDL
MODEL 5
REMARK VINA RESULT:    -4.676      2.940      4.911
REMARK INTER + INTRA:          -7.995
REMARK INTER:                  -7.163
REMARK INTRA:                  -0.831
REMARK UNBOUND:                -0.858
REMARK SMILES O=C([O-])CCCCCCCCC(=O)[O-]
REMARK SMILES IDX 7 1 6 2 5 3 4 4 2 5 1 6 3 7 8 8 9 9 10 10 11 11 12 12 13 13
REMARK SMILES IDX 14 14
REMARK H PARENT
REMARK Flexibility Score: inf
ROOT
ATOM      1  C   UNL     1      16.817  -2.627  18.024  1.00  0.00     0.000 C 
ENDROOT
BRANCH   1   2
ATOM      2  C   UNL     1      15.305  -2.632  17.754  1.00  0.00     0.000 C 
BRANCH   2   3
ATOM      3  C   UNL     1      14.956  -3.586  16.606  1.00  0.00     0.006 C 
BRANCH   3   4
ATOM      4  C   UNL     1      13.472  -3.489  16.242  1.00  0.00     0.053 C 
BRANCH   4   5
ATOM      5  C   UNL     1      13.307  -3.224  14.778  1.00  0.00     0.041 C 
ATOM      6  O   UNL     1      12.635  -2.234  14.386  1.00  0.00    -0.550 OA
ATOM      7  O   UNL     1      13.937  -4.041  13.848  1.00  0.00    -0.550 OA
ENDBRANCH   4   5
ENDBRANCH   3   4
ENDBRANCH   2   3
ENDBRANCH   1   2
BRANCH   1   8
ATOM      8  C   UNL     1      17.555  -3.761  17.294  1.00  0.00     0.000 C 
BRANCH   8   9
ATOM      9  C   UNL     1      18.807  -3.267  16.549  1.00  0.00     0.000 C 
BRANCH   9  10
ATOM     10  C   UNL     1      19.047  -4.016  15.225  1.00  0.00     0.006 C 
BRANCH  10  11
ATOM     11  C   UNL     1      17.867  -3.959  14.241  1.00  0.00     0.053 C 
BRANCH  11  12
ATOM     12  C   UNL     1      17.669  -2.584  13.683  1.00  0.00     0.041 C 
ATOM     13  O   UNL     1      18.585  -2.031  13.019  1.00  0.00    -0.550 OA
ATOM     14  O   UNL     1      16.484  -1.900  13.923  1.00  0.00    -0.550 OA
ENDBRANCH  11  12
ENDBRANCH  10  11
ENDBRANCH   9  10
ENDBRANCH   8   9
ENDBRANCH   1   8
TORSDOF 9
ENDMDL
MODEL 6
REMARK VINA RESULT:    -4.654      2.932      5.472
REMARK INTER + INTRA:          -7.960
REMARK INTER:                  -6.941
REMARK INTRA:                  -1.019
REMARK UNBOUND:                -0.858
REMARK SMILES O=C([O-])CCCCCCCCC(=O)[O-]
REMARK SMILES IDX 7 1 6 2 5 3 4 4 2 5 1 6 3 7 8 8 9 9 10 10 11 11 12 12 13 13
REMARK SMILES IDX 14 14
REMARK H PARENT
REMARK Flexibility Score: inf
ROOT
ATOM      1  C   UNL     1      18.154  -5.194  12.126  1.00  0.00     0.000 C 
ENDROOT
BRANCH   1   2
ATOM      2  C   UNL     1      17.868  -4.382  13.398  1.00  0.00     0.000 C 
BRANCH   2   3
ATOM      3  C   UNL     1      16.735  -5.017  14.210  1.00  0.00     0.006 C 
BRANCH   3   4
ATOM      4  C   UNL     1      15.842  -3.944  14.841  1.00  0.00     0.053 C 
BRANCH   4   5
ATOM      5  C   UNL     1      14.872  -4.565  15.797  1.00  0.00     0.041 C 
ATOM      6  O   UNL     1      14.776  -5.817  15.878  1.00  0.00    -0.550 OA
ATOM      7  O   UNL     1      14.110  -3.761  16.634  1.00  0.00    -0.550 OA
ENDBRANCH   4   5
ENDBRANCH   3   4
ENDBRANCH   2   3
ENDBRANCH   1   2
BRANCH   1   8
ATOM      8  C   UNL     1      16.955  -6.047  11.683  1.00  0.00     0.000 C 
BRANCH   8   9
ATOM      9  C   UNL     1      16.386  -5.606  10.323  1.00  0.00     0.000 C 
BRANCH   9  10
ATOM     10  C   UNL     1      14.854  -5.454  10.339  1.00  0.00     0.006 C 
BRANCH  10  11
ATOM     11  C   UNL     1      14.321  -4.509  11.428  1.00  0.00     0.053 C 
BRANCH  11  12
ATOM     12  C   UNL     1      13.360  -5.198  12.348  1.00  0.00     0.041 C 
ATOM     13  O   UNL     1      13.586  -6.375  12.734  1.00  0.00    -0.550 OA
ATOM     14  O   UNL     1      12.198  -4.552  12.751  1.00  0.00    -0.550 OA
ENDBRANCH  11  12
ENDBRANCH  10  11
ENDBRANCH   9  10
ENDBRANCH   8   9
ENDBRANCH   1   8
TORSDOF 9
ENDMDL
MODEL 7
REMARK VINA RESULT:    -4.650      2.078      2.585
REMARK INTER + INTRA:          -7.956
REMARK INTER:                  -7.339
REMARK INTRA:                  -0.617
REMARK UNBOUND:                -0.858
REMARK SMILES O=C([O-])CCCCCCCCC(=O)[O-]
REMARK SMILES IDX 7 1 6 2 5 3 4 4 2 5 1 6 3 7 8 8 9 9 10 10 11 11 12 12 13 13
REMARK SMILES IDX 14 14
REMARK H PARENT
REMARK Flexibility Score: inf
ROOT
ATOM      1  C   UNL     1      13.501  -3.607  13.991  1.00  0.00     0.000 C 
ENDROOT
BRANCH   1   2
ATOM      2  C   UNL     1      14.375  -4.870  14.013  1.00  0.00     0.000 C 
BRANCH   2   3
ATOM      3  C   UNL     1      15.688  -4.641  13.257  1.00  0.00     0.006 C 
BRANCH   3   4
ATOM      4  C   UNL     1      16.294  -5.968  12.791  1.00  0.00     0.053 C 
BRANCH   4   5
ATOM      5  C   UNL     1      17.370  -5.727  11.779  1.00  0.00     0.041 C 
ATOM      6  O   UNL     1      17.153  -5.950  10.559  1.00  0.00    -0.550 OA
ATOM      7  O   UNL     1      18.595  -5.209  12.176  1.00  0.00    -0.550 OA
ENDBRANCH   4   5
ENDBRANCH   3   4
ENDBRANCH   2   3
ENDBRANCH   1   2
BRANCH   1   8
ATOM      8  C   UNL     1      13.272  -3.018  15.393  1.00  0.00     0.000 C 
BRANCH   8   9
ATOM      9  C   UNL     1      13.982  -3.823  16.494  1.00  0.00     0.000 C 
BRANCH   9  10
ATOM     10  C   UNL     1      15.106  -3.028  17.183  1.00  0.00     0.006 C 
BRANCH  10  11
ATOM     11  C   UNL     1      16.508  -3.279  16.606  1.00  0.00     0.053 C 
BRANCH  11  12
ATOM     12  C   UNL     1      17.585  -3.014  17.613  1.00  0.00     0.041 C 
ATOM     13  O   UNL     1      18.793  -2.984  17.257  1.00  0.00    -0.550 OA
ATOM     14  O   UNL     1      17.258  -2.832  18.951  1.00  0.00    -0.550 OA
ENDBRANCH  11  12
ENDBRANCH  10  11
ENDBRANCH   9  10
ENDBRANCH   8   9
ENDBRANCH   1   8
TORSDOF 9
ENDMDL
MODEL 8
REMARK VINA RESULT:    -4.625      3.239      5.980
REMARK INTER + INTRA:          -7.916
REMARK INTER:                  -7.054
REMARK INTRA:                  -0.862
REMARK UNBOUND:                -0.858
REMARK SMILES O=C([O-])CCCCCCCCC(=O)[O-]
REMARK SMILES IDX 7 1 6 2 5 3 4 4 2 5 1 6 3 7 8 8 9 9 10 10 11 11 12 12 13 13
REMARK SMILES IDX 14 14
REMARK H PARENT
REMARK Flexibility Score: inf
ROOT
ATOM      1  C   UNL     1      14.831  -6.020  15.863  1.00  0.00     0.000 C 
ENDROOT
BRANCH   1   2
ATOM      2  C   UNL     1      15.828  -4.853  15.917  1.00  0.00     0.000 C 
BRANCH   2   3
ATOM      3  C   UNL     1      15.178  -3.554  15.426  1.00  0.00     0.006 C 
BRANCH   3   4
ATOM      4  C   UNL     1      13.725  -3.453  15.897  1.00  0.00     0.053 C 
BRANCH   4   5
ATOM      5  C   UNL     1      12.860  -2.886  14.815  1.00  0.00     0.041 C 
ATOM      6  O   UNL     1      11.609  -3.007  14.876  1.00  0.00    -0.550 OA
ATOM      7  O   UNL     1      13.434  -2.182  13.765  1.00  0.00    -0.550 OA
ENDBRANCH   4   5
ENDBRANCH   3   4
ENDBRANCH   2   3
ENDBRANCH   1   2
BRANCH   1   8
ATOM      8  C   UNL     1      15.320  -7.180  14.981  1.00  0.00     0.000 C 
BRANCH   8   9
ATOM      9  C   UNL     1      15.652  -6.733  13.547  1.00  0.00     0.000 C 
BRANCH   9  10
ATOM     10  C   UNL     1      14.404  -6.308  12.752  1.00  0.00     0.006 C 
BRANCH  10  11
ATOM     11  C   UNL     1      14.595  -5.045  11.898  1.00  0.00     0.053 C 
BRANCH  11  12
ATOM     12  C   UNL     1      14.602  -5.354  10.432  1.00  0.00     0.041 C 
ATOM     13  O   UNL     1      15.676  -5.296   9.777  1.00  0.00    -0.550 OA
ATOM     14  O   UNL     1      13.417  -5.675   9.783  1.00  0.00    -0.550 OA
ENDBRANCH  11  12
ENDBRANCH  10  11
ENDBRANCH   9  10
ENDBRANCH   8   9
ENDBRANCH   1   8
TORSDOF 9
ENDMDL
MODEL 9
REMARK VINA RESULT:    -4.624      1.645      5.437
REMARK INTER + INTRA:          -7.915
REMARK INTER:                  -7.286
REMARK INTRA:                  -0.628
REMARK UNBOUND:                -0.858
REMARK SMILES O=C([O-])CCCCCCCCC(=O)[O-]
REMARK SMILES IDX 7 1 6 2 5 3 4 4 2 5 1 6 3 7 8 8 9 9 10 10 11 11 12 12 13 13
REMARK SMILES IDX 14 14
REMARK H PARENT
REMARK Flexibility Score: inf
ROOT
ATOM      1  C   UNL     1      15.214  -5.983  16.276  1.00  0.00     0.000 C 
ENDROOT
BRANCH   1   2
ATOM      2  C   UNL     1      14.515  -4.652  15.957  1.00  0.00     0.000 C 
BRANCH   2   3
ATOM      3  C   UNL     1      15.197  -3.488  16.684  1.00  0.00     0.006 C 
BRANCH   3   4
ATOM      4  C   UNL     1      16.630  -3.289  16.181  1.00  0.00     0.053 C 
BRANCH   4   5
ATOM      5  C   UNL     1      17.561  -3.054  17.329  1.00  0.00     0.041 C 
ATOM      6  O   UNL     1      18.807  -3.076  17.149  1.00  0.00    -0.550 OA
ATOM      7  O   UNL     1      17.053  -2.760  18.588  1.00  0.00    -0.550 OA
ENDBRANCH   4   5
ENDBRANCH   3   4
ENDBRANCH   2   3
ENDBRANCH   1   2
BRANCH   1   8
ATOM      8  C   UNL     1      14.868  -7.091  15.268  1.00  0.00     0.000 C 
BRANCH   8   9
ATOM      9  C   UNL     1      15.781  -7.069  14.030  1.00  0.00     0.000 C 
BRANCH   9  10
ATOM     10  C   UNL     1      15.148  -6.329  12.837  1.00  0.00     0.006 C 
BRANCH  10  11
ATOM     11  C   UNL     1      16.011  -5.193  12.264  1.00  0.00     0.053 C 
BRANCH  11  12
ATOM     12  C   UNL     1      16.939  -5.679  11.193  1.00  0.00     0.041 C 
ATOM     13  O   UNL     1      16.576  -5.668   9.988  1.00  0.00    -0.550 OA
ATOM     14  O   UNL     1      18.191  -6.176  11.530  1.00  0.00    -0.550 OA
ENDBRANCH  11  12
ENDBRANCH  10  11
ENDBRANCH   9  10
ENDBRANCH   8   9
ENDBRANCH   1   8
TORSDOF 9
ENDMDL
