MODEL 1
REMARK VINA RESULT:    -2.424      0.000      0.000
REMARK INTER + INTRA:          -3.581
REMARK INTER:                  -3.133
REMARK INTRA:                  -0.448
REMARK UNBOUND:                -0.448
REMARK SMILES CCCCCCC(C)=O
REMARK SMILES IDX 4 1 3 2 2 3 1 4 5 5 6 6 7 7 9 8 8 9
REMARK H PARENT
REMARK Flexibility Score: inf
ROOT
ATOM      1  C   UNL     1     122.995 120.536 118.566  1.00  0.00     0.000 C 
ENDROOT
BRANCH   1   2
ATOM      2  C   UNL     1     121.644 120.321 117.859  1.00  0.00    -0.000 C 
BRANCH   2   3
ATOM      3  C   UNL     1     121.386 121.249 116.659  1.00  0.00    -0.003 C 
ATOM      4  C   UNL     1     120.534 120.597 115.571  1.00  0.00     0.004 C 
ENDBRANCH   2   3
ENDBRANCH   1   2
BRANCH   1   5
ATOM      5  C   UNL     1     124.195 120.103 117.709  1.00  0.00     0.008 C 
BRANCH   5   6
ATOM      6  C   UNL     1     125.081 121.294 117.312  1.00  0.00     0.075 C 
BRANCH   6   7
ATOM      7  C   UNL     1     125.223 121.423 115.819  1.00  0.00     0.129 C 
ATOM      8  O   UNL     1     125.787 122.397 115.344  1.00  0.00    -0.300 OA
ATOM      9  C   UNL     1     124.646 120.381 114.910  1.00  0.00     0.087 C 
ENDBRANCH   6   7
ENDBRANCH   5   6
ENDBRANCH   1   5
TORSDOF 5
ENDMDL
MODEL 2
REMARK VINA RESULT:    -2.354      1.555      3.633
REMARK INTER + INTRA:          -3.489
REMARK INTER:                  -2.975
REMARK INTRA:                  -0.514
REMARK UNBOUND:                -0.448
REMARK SMILES CCCCCCC(C)=O
REMARK SMILES IDX 4 1 3 2 2 3 1 4 5 5 6 6 7 7 9 8 8 9
REMARK H PARENT
REMARK Flexibility Score: inf
ROOT
ATOM      1  C   UNL     1     124.392 120.371 117.800  1.00  0.00     0.000 C 
ENDROOT
BRANCH   1   2
ATOM      2  C   UNL     1     125.238 121.531 117.244  1.00  0.00    -0.000 C 
BRANCH   2   3
ATOM      3  C   UNL     1     125.247 121.649 115.709  1.00  0.00    -0.003 C 
ATOM      4  C   UNL     1     124.718 120.398 115.010  1.00  0.00     0.004 C 
ENDBRANCH   2   3
ENDBRANCH   1   2
BRANCH   1   5
ATOM      5  C   UNL     1     123.152 120.851 118.572  1.00  0.00     0.008 C 
BRANCH   5   6
ATOM      6  C   UNL     1     121.847 120.338 117.945  1.00  0.00     0.075 C 
BRANCH   6   7
ATOM      7  C   UNL     1     121.356 121.238 116.843  1.00  0.00     0.129 C 
ATOM      8  O   UNL     1     121.469 122.449 116.950  1.00  0.00    -0.300 OA
ATOM      9  C   UNL     1     120.698 120.657 115.627  1.00  0.00     0.087 C 
ENDBRANCH   6   7
ENDBRANCH   5   6
ENDBRANCH   1   5
TORSDOF 5
ENDMDL
MODEL 3
REMARK VINA RESULT:    -2.345     14.705     16.779
REMARK INTER + INTRA:          -3.479
REMARK INTER:                  -3.088
REMARK INTRA:                  -0.391
REMARK UNBOUND:                -0.448
REMARK SMILES CCCCCCC(C)=O
REMARK SMILES IDX 4 1 3 2 2 3 1 4 5 5 6 6 7 7 9 8 8 9
REMARK H PARENT
REMARK Flexibility Score: inf
ROOT
ATOM      1  C   UNL     1     110.560 110.887 116.972  1.00  0.00     0.000 C 
ENDROOT
BRANCH   1   2
ATOM      2  C   UNL     1     112.038 111.145 116.626  1.00  0.00    -0.000 C 
BRANCH   2   3
ATOM      3  C   UNL     1     112.367 112.595 116.228  1.00  0.00    -0.003 C 
ATOM      4  C   UNL     1     112.792 112.732 114.767  1.00  0.00     0.004 C 
ENDBRANCH   2   3
ENDBRANCH   1   2
BRANCH   1   5
ATOM      5  C   UNL     1     109.757 112.183 117.172  1.00  0.00     0.008 C 
BRANCH   5   6
ATOM      6  C   UNL     1     108.256 111.978 116.919  1.00  0.00     0.075 C 
BRANCH   6   7
ATOM      7  C   UNL     1     107.944 111.828 115.454  1.00  0.00     0.129 C 
ATOM      8  O   UNL     1     107.320 110.853 115.061  1.00  0.00    -0.300 OA
ATOM      9  C   UNL     1     108.422 112.851 114.468  1.00  0.00     0.087 C 
ENDBRANCH   6   7
ENDBRANCH   5   6
ENDBRANCH   1   5
TORSDOF 5
ENDMDL
MODEL 4
REMARK VINA RESULT:    -2.249     14.287     16.164
REMARK INTER + INTRA:          -3.355
REMARK INTER:                  -2.959
REMARK INTRA:                  -0.396
REMARK UNBOUND:                -0.448
REMARK SMILES CCCCCCC(C)=O
REMARK SMILES IDX 4 1 3 2 2 3 1 4 5 5 6 6 7 7 9 8 8 9
REMARK H PARENT
REMARK Flexibility Score: inf
ROOT
ATOM      1  C   UNL     1     108.795 112.834 117.283  1.00  0.00     0.000 C 
ENDROOT
BRANCH   1   2
ATOM      2  C   UNL     1     108.117 111.554 116.762  1.00  0.00    -0.000 C 
BRANCH   2   3
ATOM      3  C   UNL     1     107.753 111.575 115.267  1.00  0.00    -0.003 C 
ATOM      4  C   UNL     1     108.332 112.782 114.528  1.00  0.00     0.004 C 
ENDBRANCH   2   3
ENDBRANCH   1   2
BRANCH   1   5
ATOM      5  C   UNL     1     110.247 112.601 117.734  1.00  0.00     0.008 C 
BRANCH   5   6
ATOM      6  C   UNL     1     110.814 111.279 117.195  1.00  0.00     0.075 C 
BRANCH   6   7
ATOM      7  C   UNL     1     112.187 111.451 116.603  1.00  0.00     0.129 C 
ATOM      8  O   UNL     1     113.114 110.766 117.007  1.00  0.00    -0.300 OA
ATOM      9  C   UNL     1     112.432 112.481 115.541  1.00  0.00     0.087 C 
ENDBRANCH   6   7
ENDBRANCH   5   6
ENDBRANCH   1   5
TORSDOF 5
ENDMDL
MODEL 5
REMARK VINA RESULT:    -2.241     11.357     12.047
REMARK INTER + INTRA:          -3.343
REMARK INTER:                  -2.878
REMARK INTRA:                  -0.465
REMARK UNBOUND:                -0.448
REMARK SMILES CCCCCCC(C)=O
REMARK SMILES IDX 4 1 3 2 2 3 1 4 5 5 6 6 7 7 9 8 8 9
REMARK H PARENT
REMARK Flexibility Score: inf
ROOT
ATOM      1  C   UNL     1     112.948 122.938 118.083  1.00  0.00     0.000 C 
ENDROOT
BRANCH   1   2
ATOM      2  C   UNL     1     111.465 122.541 117.967  1.00  0.00    -0.000 C 
BRANCH   2   3
ATOM      3  C   UNL     1     111.143 121.568 116.819  1.00  0.00    -0.003 C 
ATOM      4  C   UNL     1     112.388 120.911 116.225  1.00  0.00     0.004 C 
ENDBRANCH   2   3
ENDBRANCH   1   2
BRANCH   1   5
ATOM      5  C   UNL     1     113.228 124.363 117.575  1.00  0.00     0.008 C 
BRANCH   5   6
ATOM      6  C   UNL     1     111.935 125.125 117.252  1.00  0.00     0.075 C 
BRANCH   6   7
ATOM      7  C   UNL     1     111.805 125.426 115.783  1.00  0.00     0.129 C 
ATOM      8  O   UNL     1     110.884 126.121 115.383  1.00  0.00    -0.300 OA
ATOM      9  C   UNL     1     112.782 124.849 114.802  1.00  0.00     0.087 C 
ENDBRANCH   6   7
ENDBRANCH   5   6
ENDBRANCH   1   5
TORSDOF 5
ENDMDL
MODEL 6
REMARK VINA RESULT:    -2.229     16.352     17.745
REMARK INTER + INTRA:          -3.328
REMARK INTER:                  -2.834
REMARK INTRA:                  -0.493
REMARK UNBOUND:                -0.448
REMARK SMILES CCCCCCC(C)=O
REMARK SMILES IDX 4 1 3 2 2 3 1 4 5 5 6 6 7 7 9 8 8 9
REMARK H PARENT
REMARK Flexibility Score: inf
ROOT
ATOM      1  C   UNL     1     109.707 111.522 118.327  1.00  0.00     0.000 C 
ENDROOT
BRANCH   1   2
ATOM      2  C   UNL     1     110.933 111.516 117.396  1.00  0.00    -0.000 C 
BRANCH   2   3
ATOM      3  C   UNL     1     111.547 110.128 117.141  1.00  0.00    -0.003 C 
ATOM      4  C   UNL     1     110.500 109.058 116.835  1.00  0.00     0.004 C 
ENDBRANCH   2   3
ENDBRANCH   1   2
BRANCH   1   5
ATOM      5  C   UNL     1     108.507 112.277 117.733  1.00  0.00     0.008 C 
BRANCH   5   6
ATOM      6  C   UNL     1     107.548 111.340 116.984  1.00  0.00     0.075 C 
BRANCH   6   7
ATOM      7  C   UNL     1     107.716 111.431 115.491  1.00  0.00     0.129 C 
ATOM      8  O   UNL     1     107.404 110.484 114.785  1.00  0.00    -0.300 OA
ATOM      9  C   UNL     1     108.296 112.664 114.867  1.00  0.00     0.087 C 
ENDBRANCH   6   7
ENDBRANCH   5   6
ENDBRANCH   1   5
TORSDOF 5
ENDMDL
MODEL 7
REMARK VINA RESULT:    -2.228      5.329      7.318
REMARK INTER + INTRA:          -3.327
REMARK INTER:                  -3.041
REMARK INTRA:                  -0.286
REMARK UNBOUND:                -0.448
REMARK SMILES CCCCCCC(C)=O
REMARK SMILES IDX 4 1 3 2 2 3 1 4 5 5 6 6 7 7 9 8 8 9
REMARK H PARENT
REMARK Flexibility Score: inf
ROOT
ATOM      1  C   UNL     1     118.920 116.375 114.341  1.00  0.00     0.000 C 
ENDROOT
BRANCH   1   2
ATOM      2  C   UNL     1     119.190 115.958 112.884  1.00  0.00    -0.000 C 
BRANCH   2   3
ATOM      3  C   UNL     1     119.790 114.551 112.712  1.00  0.00    -0.003 C 
ATOM      4  C   UNL     1     119.692 113.700 113.978  1.00  0.00     0.004 C 
ENDBRANCH   2   3
ENDBRANCH   1   2
BRANCH   1   5
ATOM      5  C   UNL     1     118.086 117.662 114.451  1.00  0.00     0.008 C 
BRANCH   5   6
ATOM      6  C   UNL     1     118.060 118.447 113.131  1.00  0.00     0.075 C 
BRANCH   6   7
ATOM      7  C   UNL     1     118.808 119.750 113.231  1.00  0.00     0.129 C 
ATOM      8  O   UNL     1     118.659 120.604 112.371  1.00  0.00    -0.300 OA
ATOM      9  C   UNL     1     119.760 119.992 114.363  1.00  0.00     0.087 C 
ENDBRANCH   6   7
ENDBRANCH   5   6
ENDBRANCH   1   5
TORSDOF 5
ENDMDL
MODEL 8
REMARK VINA RESULT:    -2.160      8.025      9.702
REMARK INTER + INTRA:          -3.239
REMARK INTER:                  -2.706
REMARK INTRA:                  -0.533
REMARK UNBOUND:                -0.448
REMARK SMILES CCCCCCC(C)=O
REMARK SMILES IDX 4 1 3 2 2 3 1 4 5 5 6 6 7 7 9 8 8 9
REMARK H PARENT
REMARK Flexibility Score: inf
ROOT
ATOM      1  C   UNL     1     118.817 116.455 113.974  1.00  0.00     0.000 C 
ENDROOT
BRANCH   1   2
ATOM      2  C   UNL     1     119.274 115.887 112.618  1.00  0.00    -0.000 C 
BRANCH   2   3
ATOM      3  C   UNL     1     119.861 114.466 112.675  1.00  0.00    -0.003 C 
ATOM      4  C   UNL     1     119.463 113.705 113.940  1.00  0.00     0.004 C 
ENDBRANCH   2   3
ENDBRANCH   1   2
BRANCH   1   5
ATOM      5  C   UNL     1     117.342 116.891 113.974  1.00  0.00     0.008 C 
BRANCH   5   6
ATOM      6  C   UNL     1     116.631 116.521 112.664  1.00  0.00     0.075 C 
BRANCH   6   7
ATOM      7  C   UNL     1     115.531 115.516 112.880  1.00  0.00     0.129 C 
ATOM      8  O   UNL     1     114.382 115.898 113.043  1.00  0.00    -0.300 OA
ATOM      9  C   UNL     1     115.842 114.050 112.928  1.00  0.00     0.087 C 
ENDBRANCH   6   7
ENDBRANCH   5   6
ENDBRANCH   1   5
TORSDOF 5
ENDMDL
MODEL 9
REMARK VINA RESULT:    -0.053     10.700     11.741
REMARK INTER + INTRA:          -0.516
REMARK INTER:                  -0.135
REMARK INTRA:                  -0.381
REMARK UNBOUND:                -0.448
REMARK SMILES CCCCCCC(C)=O
REMARK SMILES IDX 4 1 3 2 2 3 1 4 5 5 6 6 7 7 9 8 8 9
REMARK H PARENT
REMARK Flexibility Score: inf
ROOT
ATOM      1  C   UNL     1     115.270 117.121 112.624  1.00  0.00     0.000 C 
ENDROOT
BRANCH   1   2
ATOM      2  C   UNL     1     113.931 117.253 111.875  1.00  0.00    -0.000 C 
BRANCH   2   3
ATOM      3  C   UNL     1     113.094 118.487 112.257  1.00  0.00    -0.003 C 
ATOM      4  C   UNL     1     113.755 119.348 113.334  1.00  0.00     0.004 C 
ENDBRANCH   2   3
ENDBRANCH   1   2
BRANCH   1   5
ATOM      5  C   UNL     1     115.536 115.691 113.125  1.00  0.00     0.008 C 
BRANCH   5   6
ATOM      6  C   UNL     1     114.378 115.154 113.979  1.00  0.00     0.075 C 
BRANCH   6   7
ATOM      7  C   UNL     1     113.900 113.807 113.504  1.00  0.00     0.129 C 
ATOM      8  O   UNL     1     113.270 113.084 114.261  1.00  0.00    -0.300 OA
ATOM      9  C   UNL     1     114.221 113.335 112.118  1.00  0.00     0.087 C 
ENDBRANCH   6   7
ENDBRANCH   5   6
ENDBRANCH   1   5
TORSDOF 5
ENDMDL
