MODEL 1
REMARK VINA RESULT:    -3.291      0.000      0.000
REMARK INTER + INTRA:          -4.909
REMARK INTER:                  -4.541
REMARK INTRA:                  -0.368
REMARK UNBOUND:                -0.368
REMARK SMILES CCCCCCCCO
REMARK SMILES IDX 5 1 4 2 3 3 2 4 1 5 6 6 7 7 8 8 9 9
REMARK H PARENT 9 10
REMARK Flexibility Score: inf
ROOT
ATOM      1  C   UNL     1     162.948 177.479 187.814  1.00  0.00     0.000 C 
ENDROOT
BRANCH   1   2
ATOM      2  C   UNL     1     161.470 177.797 188.109  1.00  0.00    -0.000 C 
BRANCH   2   3
ATOM      3  C   UNL     1     160.631 178.188 186.878  1.00  0.00    -0.000 C 
BRANCH   3   4
ATOM      4  C   UNL     1     160.672 177.175 185.720  1.00  0.00    -0.003 C 
ATOM      5  C   UNL     1     160.212 177.771 184.389  1.00  0.00     0.004 C 
ENDBRANCH   3   4
ENDBRANCH   2   3
ENDBRANCH   1   2
BRANCH   1   6
ATOM      6  C   UNL     1     163.696 178.617 187.085  1.00  0.00     0.002 C 
BRANCH   6   7
ATOM      7  C   UNL     1     164.980 178.128 186.397  1.00  0.00     0.028 C 
BRANCH   7   8
ATOM      8  C   UNL     1     164.740 177.789 184.922  1.00  0.00     0.156 C 
BRANCH   8   9
ATOM      9  O   UNL     1     163.680 178.542 184.399  1.00  0.00    -0.396 OA
ATOM     10  H   UNL     1     163.794 178.546 183.412  1.00  0.00     0.210 HD
ENDBRANCH   8   9
ENDBRANCH   7   8
ENDBRANCH   6   7
ENDBRANCH   1   6
TORSDOF 7
ENDMDL
MODEL 2
REMARK VINA RESULT:    -3.243      1.951      2.368
REMARK INTER + INTRA:          -4.844
REMARK INTER:                  -4.634
REMARK INTRA:                  -0.210
REMARK UNBOUND:                -0.368
REMARK SMILES CCCCCCCCO
REMARK SMILES IDX 5 1 4 2 3 3 2 4 1 5 6 6 7 7 8 8 9 9
REMARK H PARENT 9 10
REMARK Flexibility Score: inf
ROOT
ATOM      1  C   UNL     1     162.500 177.674 188.003  1.00  0.00     0.000 C 
ENDROOT
BRANCH   1   2
ATOM      2  C   UNL     1     160.998 177.334 187.966  1.00  0.00    -0.000 C 
BRANCH   2   3
ATOM      3  C   UNL     1     160.598 176.264 186.933  1.00  0.00    -0.000 C 
BRANCH   3   4
ATOM      4  C   UNL     1     160.345 174.863 187.519  1.00  0.00    -0.003 C 
ATOM      5  C   UNL     1     161.552 173.935 187.388  1.00  0.00     0.004 C 
ENDBRANCH   3   4
ENDBRANCH   2   3
ENDBRANCH   1   2
BRANCH   1   6
ATOM      6  C   UNL     1     163.044 178.234 186.671  1.00  0.00     0.002 C 
BRANCH   6   7
ATOM      7  C   UNL     1     164.377 178.978 186.849  1.00  0.00     0.028 C 
BRANCH   7   8
ATOM      8  C   UNL     1     165.571 178.110 186.441  1.00  0.00     0.156 C 
BRANCH   8   9
ATOM      9  O   UNL     1     166.132 178.560 185.237  1.00  0.00    -0.396 OA
ATOM     10  H   UNL     1     165.721 178.018 184.513  1.00  0.00     0.210 HD
ENDBRANCH   8   9
ENDBRANCH   7   8
ENDBRANCH   6   7
ENDBRANCH   1   6
TORSDOF 7
ENDMDL
MODEL 3
REMARK VINA RESULT:    -3.199     10.286     12.140
REMARK INTER + INTRA:          -4.783
REMARK INTER:                  -4.397
REMARK INTRA:                  -0.385
REMARK UNBOUND:                -0.368
REMARK SMILES CCCCCCCCO
REMARK SMILES IDX 5 1 4 2 3 3 2 4 1 5 6 6 7 7 8 8 9 9
REMARK H PARENT 9 10
REMARK Flexibility Score: inf
ROOT
ATOM      1  C   UNL     1     174.847 179.017 188.411  1.00  0.00     0.000 C 
ENDROOT
BRANCH   1   2
ATOM      2  C   UNL     1     173.944 179.973 187.608  1.00  0.00    -0.000 C 
BRANCH   2   3
ATOM      3  C   UNL     1     172.440 179.649 187.665  1.00  0.00    -0.000 C 
BRANCH   3   4
ATOM      4  C   UNL     1     172.014 178.414 186.850  1.00  0.00    -0.003 C 
ATOM      5  C   UNL     1     171.815 177.169 187.714  1.00  0.00     0.004 C 
ENDBRANCH   3   4
ENDBRANCH   2   3
ENDBRANCH   1   2
BRANCH   1   6
ATOM      6  C   UNL     1     175.959 178.357 187.567  1.00  0.00     0.002 C 
BRANCH   6   7
ATOM      7  C   UNL     1     175.500 177.039 186.921  1.00  0.00     0.028 C 
BRANCH   7   8
ATOM      8  C   UNL     1     176.656 176.043 186.780  1.00  0.00     0.156 C 
BRANCH   8   9
ATOM      9  O   UNL     1     177.221 176.108 185.498  1.00  0.00    -0.396 OA
ATOM     10  H   UNL     1     177.736 175.268 185.373  1.00  0.00     0.210 HD
ENDBRANCH   8   9
ENDBRANCH   7   8
ENDBRANCH   6   7
ENDBRANCH   1   6
TORSDOF 7
ENDMDL
MODEL 4
REMARK VINA RESULT:    -3.176      1.067      3.400
REMARK INTER + INTRA:          -4.752
REMARK INTER:                  -4.189
REMARK INTRA:                  -0.563
REMARK UNBOUND:                -0.368
REMARK SMILES CCCCCCCCO
REMARK SMILES IDX 5 1 4 2 3 3 2 4 1 5 6 6 7 7 8 8 9 9
REMARK H PARENT 9 10
REMARK Flexibility Score: inf
ROOT
ATOM      1  C   UNL     1     161.058 177.081 187.434  1.00  0.00     0.000 C 
ENDROOT
BRANCH   1   2
ATOM      2  C   UNL     1     162.408 177.260 188.154  1.00  0.00    -0.000 C 
BRANCH   2   3
ATOM      3  C   UNL     1     163.593 176.517 187.510  1.00  0.00    -0.000 C 
BRANCH   3   4
ATOM      4  C   UNL     1     164.624 177.424 186.814  1.00  0.00    -0.003 C 
ATOM      5  C   UNL     1     164.276 178.909 186.914  1.00  0.00     0.004 C 
ENDBRANCH   3   4
ENDBRANCH   2   3
ENDBRANCH   1   2
BRANCH   1   6
ATOM      6  C   UNL     1     160.617 178.318 186.623  1.00  0.00     0.002 C 
BRANCH   6   7
ATOM      7  C   UNL     1     160.332 177.982 185.150  1.00  0.00     0.028 C 
BRANCH   7   8
ATOM      8  C   UNL     1     161.481 177.193 184.515  1.00  0.00     0.156 C 
BRANCH   8   9
ATOM      9  O   UNL     1     162.465 178.055 184.009  1.00  0.00    -0.396 OA
ATOM     10  H   UNL     1     162.008 178.661 183.369  1.00  0.00     0.210 HD
ENDBRANCH   8   9
ENDBRANCH   7   8
ENDBRANCH   6   7
ENDBRANCH   1   6
TORSDOF 7
ENDMDL
MODEL 5
REMARK VINA RESULT:    -3.165      2.095      3.349
REMARK INTER + INTRA:          -4.736
REMARK INTER:                  -4.259
REMARK INTRA:                  -0.477
REMARK UNBOUND:                -0.368
REMARK SMILES CCCCCCCCO
REMARK SMILES IDX 5 1 4 2 3 3 2 4 1 5 6 6 7 7 8 8 9 9
REMARK H PARENT 9 10
REMARK Flexibility Score: inf
ROOT
ATOM      1  C   UNL     1     161.643 177.467 188.360  1.00  0.00     0.000 C 
ENDROOT
BRANCH   1   2
ATOM      2  C   UNL     1     162.752 176.589 187.748  1.00  0.00    -0.000 C 
BRANCH   2   3
ATOM      3  C   UNL     1     162.496 175.072 187.824  1.00  0.00    -0.000 C 
BRANCH   3   4
ATOM      4  C   UNL     1     161.512 174.530 186.772  1.00  0.00    -0.003 C 
ATOM      5  C   UNL     1     160.109 174.295 187.332  1.00  0.00     0.004 C 
ENDBRANCH   3   4
ENDBRANCH   2   3
ENDBRANCH   1   2
BRANCH   1   6
ATOM      6  C   UNL     1     160.702 178.099 187.312  1.00  0.00     0.002 C 
BRANCH   6   7
ATOM      7  C   UNL     1     161.319 178.117 185.904  1.00  0.00     0.028 C 
BRANCH   7   8
ATOM      8  C   UNL     1     160.307 177.695 184.834  1.00  0.00     0.156 C 
BRANCH   8   9
ATOM      9  O   UNL     1     160.764 178.029 183.551  1.00  0.00    -0.396 OA
ATOM     10  H   UNL     1     160.183 178.767 183.227  1.00  0.00     0.210 HD
ENDBRANCH   8   9
ENDBRANCH   7   8
ENDBRANCH   6   7
ENDBRANCH   1   6
TORSDOF 7
ENDMDL
MODEL 6
REMARK VINA RESULT:    -3.132      1.911      2.297
REMARK INTER + INTRA:          -4.691
REMARK INTER:                  -4.351
REMARK INTRA:                  -0.340
REMARK UNBOUND:                -0.368
REMARK SMILES CCCCCCCCO
REMARK SMILES IDX 5 1 4 2 3 3 2 4 1 5 6 6 7 7 8 8 9 9
REMARK H PARENT 9 10
REMARK Flexibility Score: inf
ROOT
ATOM      1  C   UNL     1     162.239 177.906 187.963  1.00  0.00     0.000 C 
ENDROOT
BRANCH   1   2
ATOM      2  C   UNL     1     160.800 177.399 187.752  1.00  0.00    -0.000 C 
BRANCH   2   3
ATOM      3  C   UNL     1     160.672 176.161 186.846  1.00  0.00    -0.000 C 
BRANCH   3   4
ATOM      4  C   UNL     1     160.153 174.894 187.552  1.00  0.00    -0.003 C 
ATOM      5  C   UNL     1     161.081 173.692 187.379  1.00  0.00     0.004 C 
ENDBRANCH   3   4
ENDBRANCH   2   3
ENDBRANCH   1   2
BRANCH   1   6
ATOM      6  C   UNL     1     163.281 177.215 187.055  1.00  0.00     0.002 C 
BRANCH   6   7
ATOM      7  C   UNL     1     163.806 178.148 185.951  1.00  0.00     0.028 C 
BRANCH   7   8
ATOM      8  C   UNL     1     163.236 177.780 184.578  1.00  0.00     0.156 C 
BRANCH   8   9
ATOM      9  O   UNL     1     163.752 178.618 183.579  1.00  0.00    -0.396 OA
ATOM     10  H   UNL     1     163.846 178.060 182.762  1.00  0.00     0.210 HD
ENDBRANCH   8   9
ENDBRANCH   7   8
ENDBRANCH   6   7
ENDBRANCH   1   6
TORSDOF 7
ENDMDL
MODEL 7
REMARK VINA RESULT:    -3.131      1.397      3.003
REMARK INTER + INTRA:          -4.689
REMARK INTER:                  -4.152
REMARK INTRA:                  -0.538
REMARK UNBOUND:                -0.368
REMARK SMILES CCCCCCCCO
REMARK SMILES IDX 5 1 4 2 3 3 2 4 1 5 6 6 7 7 8 8 9 9
REMARK H PARENT 9 10
REMARK Flexibility Score: inf
ROOT
ATOM      1  C   UNL     1     160.893 178.034 185.868  1.00  0.00     0.000 C 
ENDROOT
BRANCH   1   2
ATOM      2  C   UNL     1     160.587 177.392 187.235  1.00  0.00    -0.000 C 
BRANCH   2   3
ATOM      3  C   UNL     1     161.694 177.554 188.293  1.00  0.00    -0.000 C 
BRANCH   3   4
ATOM      4  C   UNL     1     163.008 176.820 187.970  1.00  0.00    -0.003 C 
ATOM      5  C   UNL     1     162.802 175.340 187.649  1.00  0.00     0.004 C 
ENDBRANCH   3   4
ENDBRANCH   2   3
ENDBRANCH   1   2
BRANCH   1   6
ATOM      6  C   UNL     1     160.880 177.032 184.693  1.00  0.00     0.002 C 
BRANCH   6   7
ATOM      7  C   UNL     1     162.289 176.746 184.151  1.00  0.00     0.028 C 
BRANCH   7   8
ATOM      8  C   UNL     1     163.277 177.857 184.522  1.00  0.00     0.156 C 
BRANCH   8   9
ATOM      9  O   UNL     1     163.675 178.575 183.385  1.00  0.00    -0.396 OA
ATOM     10  H   UNL     1     162.946 178.475 182.717  1.00  0.00     0.210 HD
ENDBRANCH   8   9
ENDBRANCH   7   8
ENDBRANCH   6   7
ENDBRANCH   1   6
TORSDOF 7
ENDMDL
MODEL 8
REMARK VINA RESULT:    -3.083      2.924      3.874
REMARK INTER + INTRA:          -4.622
REMARK INTER:                  -4.094
REMARK INTRA:                  -0.528
REMARK UNBOUND:                -0.368
REMARK SMILES CCCCCCCCO
REMARK SMILES IDX 5 1 4 2 3 3 2 4 1 5 6 6 7 7 8 8 9 9
REMARK H PARENT 9 10
REMARK Flexibility Score: inf
ROOT
ATOM      1  C   UNL     1     160.704 178.250 186.928  1.00  0.00     0.000 C 
ENDROOT
BRANCH   1   2
ATOM      2  C   UNL     1     161.296 177.876 185.556  1.00  0.00    -0.000 C 
BRANCH   2   3
ATOM      3  C   UNL     1     160.257 177.612 184.450  1.00  0.00    -0.000 C 
BRANCH   3   4
ATOM      4  C   UNL     1     160.582 176.423 183.528  1.00  0.00    -0.003 C 
ATOM      5  C   UNL     1     161.972 175.837 183.779  1.00  0.00     0.004 C 
ENDBRANCH   3   4
ENDBRANCH   2   3
ENDBRANCH   1   2
BRANCH   1   6
ATOM      6  C   UNL     1     161.000 177.215 188.036  1.00  0.00     0.002 C 
BRANCH   6   7
ATOM      7  C   UNL     1     161.303 175.819 187.468  1.00  0.00     0.028 C 
BRANCH   7   8
ATOM      8  C   UNL     1     160.072 174.909 187.510  1.00  0.00     0.156 C 
BRANCH   8   9
ATOM      9  O   UNL     1     159.875 174.272 186.276  1.00  0.00    -0.396 OA
ATOM     10  H   UNL     1     160.744 174.307 185.797  1.00  0.00     0.210 HD
ENDBRANCH   8   9
ENDBRANCH   7   8
ENDBRANCH   6   7
ENDBRANCH   1   6
TORSDOF 7
ENDMDL
MODEL 9
REMARK VINA RESULT:    -3.026      7.411     10.238
REMARK INTER + INTRA:          -4.544
REMARK INTER:                  -4.339
REMARK INTRA:                  -0.205
REMARK UNBOUND:                -0.368
REMARK SMILES CCCCCCCCO
REMARK SMILES IDX 5 1 4 2 3 3 2 4 1 5 6 6 7 7 8 8 9 9
REMARK H PARENT 9 10
REMARK Flexibility Score: inf
ROOT
ATOM      1  C   UNL     1     171.120 179.979 187.147  1.00  0.00     0.000 C 
ENDROOT
BRANCH   1   2
ATOM      2  C   UNL     1     172.556 179.568 187.523  1.00  0.00    -0.000 C 
BRANCH   2   3
ATOM      3  C   UNL     1     173.600 179.757 186.406  1.00  0.00    -0.000 C 
BRANCH   3   4
ATOM      4  C   UNL     1     175.064 179.742 186.882  1.00  0.00    -0.003 C 
ATOM      5  C   UNL     1     175.241 179.080 188.248  1.00  0.00     0.004 C 
ENDBRANCH   3   4
ENDBRANCH   2   3
ENDBRANCH   1   2
BRANCH   1   6
ATOM      6  C   UNL     1     170.059 178.909 187.484  1.00  0.00     0.002 C 
BRANCH   6   7
ATOM      7  C   UNL     1     169.191 178.541 186.269  1.00  0.00     0.028 C 
BRANCH   7   8
ATOM      8  C   UNL     1     169.741 179.146 184.974  1.00  0.00     0.156 C 
BRANCH   8   9
ATOM      9  O   UNL     1     168.875 180.125 184.468  1.00  0.00    -0.396 OA
ATOM     10  H   UNL     1     168.712 180.769 185.207  1.00  0.00     0.210 HD
ENDBRANCH   8   9
ENDBRANCH   7   8
ENDBRANCH   6   7
ENDBRANCH   1   6
TORSDOF 7
ENDMDL
