MODEL 1
REMARK VINA RESULT:    -8.005      0.000      0.000
REMARK INTER + INTRA:         -11.708
REMARK INTER:                 -10.813
REMARK INTRA:                  -0.895
REMARK UNBOUND:                -0.895
REMARK SMILES CC[C@@H](CC[C@@H](C)[C@H]1CC[C@@H]2[C@H]3CC(=O)C4=CC(=O)CC[C@@]4(C)[C@H]3CC[C@@]21C)C(C)C
REMARK SMILES IDX 4 1 3 2 2 3 1 4 29 5 30 6 31 7 5 8 6 9 7 10 8 11 9 12 27 13
REMARK SMILES IDX 10 14 11 15 26 16 28 17 12 18 25 19 24 20 13 21 22 22 14 23
REMARK SMILES IDX 16 24 21 25 23 26 15 27 17 28 20 29 18 30 19 31
REMARK H PARENT
REMARK Flexibility Score: inf
ROOT
ATOM      1  C   UNL     1      13.888 -32.318  22.987  1.00  0.00     0.004 C 
ENDROOT
BRANCH   1   2
ATOM      2  C   UNL     1      12.893 -31.111  22.976  1.00  0.00    -0.009 C 
BRANCH   2   3
ATOM      3  C   UNL     1      12.401 -30.843  21.527  1.00  0.00     0.000 C 
ATOM      4  C   UNL     1      10.889 -30.638  21.421  1.00  0.00     0.004 C 
ENDBRANCH   2   3
BRANCH   2   5
ATOM      5  C   UNL     1      13.465 -29.829  23.671  1.00  0.00    -0.014 C 
ATOM      6  C   UNL     1      12.382 -28.845  24.147  1.00  0.00     0.007 C 
ATOM      7  C   UNL     1      14.503 -29.113  22.788  1.00  0.00     0.007 C 
ENDBRANCH   2   5
ENDBRANCH   1   2
BRANCH   1   8
ATOM      8  C   UNL     1      14.256 -32.826  21.577  1.00  0.00     0.004 C 
BRANCH   8   9
ATOM      9  C   UNL     1      15.415 -33.862  21.558  1.00  0.00    -0.011 C 
ATOM     10  C   UNL     1      16.017 -34.026  20.146  1.00  0.00     0.008 C 
BRANCH   9  11
ATOM     11  C   UNL     1      16.462 -33.656  22.718  1.00  0.00    -0.002 C 
ATOM     12  C   UNL     1      17.278 -34.950  22.938  1.00  0.00     0.005 C 
ATOM     13  C   UNL     1      17.551 -32.527  22.630  1.00  0.00    -0.026 C 
ATOM     14  C   UNL     1      18.702 -34.680  22.449  1.00  0.00     0.005 C 
ATOM     15  C   UNL     1      18.736 -33.232  21.935  1.00  0.00    -0.001 C 
ATOM     16  C   UNL     1      17.953 -32.123  24.081  1.00  0.00     0.007 C 
ATOM     17  C   UNL     1      17.087 -31.254  21.881  1.00  0.00     0.012 C 
ATOM     18  C   UNL     1      20.135 -32.559  22.100  1.00  0.00     0.004 C 
ATOM     19  C   UNL     1      19.265 -31.339  24.175  1.00  0.00     0.005 C 
ATOM     20  C   UNL     1      20.461 -32.115  23.564  1.00  0.00     0.003 C 
ATOM     21  C   UNL     1      20.378 -31.459  21.019  1.00  0.00     0.085 C 
ATOM     22  C   UNL     1      21.833 -31.331  23.643  1.00  0.00    -0.000 C 
ATOM     23  C   UNL     1      20.932 -30.157  21.526  1.00  0.00     0.159 C 
ATOM     24  C   UNL     1      21.764 -30.101  22.751  1.00  0.00     0.005 C 
ATOM     25  C   UNL     1      22.153 -30.908  25.115  1.00  0.00     0.020 C 
ATOM     26  C   UNL     1      22.985 -32.240  23.133  1.00  0.00     0.017 C 
ATOM     27  O   UNL     1      20.718 -29.112  20.856  1.00  0.00    -0.295 OA
ATOM     28  C   UNL     1      22.500 -29.003  23.019  1.00  0.00     0.055 C 
ATOM     29  C   UNL     1      23.397 -30.016  25.227  1.00  0.00     0.081 C 
ATOM     30  C   UNL     1      23.346 -28.904  24.220  1.00  0.00     0.156 C 
ATOM     31  O   UNL     1      24.058 -27.881  24.392  1.00  0.00    -0.295 OA
ENDBRANCH   9  11
ENDBRANCH   8   9
ENDBRANCH   1   8
TORSDOF 6
ENDMDL
MODEL 2
REMARK VINA RESULT:    -7.998      2.909      8.040
REMARK INTER + INTRA:         -11.698
REMARK INTER:                  -9.812
REMARK INTRA:                  -1.886
REMARK UNBOUND:                -0.895
REMARK SMILES CC[C@@H](CC[C@@H](C)[C@H]1CC[C@@H]2[C@H]3CC(=O)C4=CC(=O)CC[C@@]4(C)[C@H]3CC[C@@]21C)C(C)C
REMARK SMILES IDX 4 1 3 2 2 3 1 4 29 5 30 6 31 7 5 8 6 9 7 10 8 11 9 12 27 13
REMARK SMILES IDX 10 14 11 15 26 16 28 17 12 18 25 19 24 20 13 21 22 22 14 23
REMARK SMILES IDX 16 24 21 25 23 26 15 27 17 28 20 29 18 30 19 31
REMARK H PARENT
REMARK Flexibility Score: inf
ROOT
ATOM      1  C   UNL     1      22.021 -34.506  23.690  1.00  0.00     0.004 C 
ENDROOT
BRANCH   1   2
ATOM      2  C   UNL     1      23.171 -33.463  23.886  1.00  0.00    -0.009 C 
BRANCH   2   3
ATOM      3  C   UNL     1      23.550 -33.369  25.390  1.00  0.00     0.000 C 
ATOM      4  C   UNL     1      25.053 -33.478  25.651  1.00  0.00     0.004 C 
ENDBRANCH   2   3
BRANCH   2   5
ATOM      5  C   UNL     1      22.858 -32.067  23.249  1.00  0.00    -0.014 C 
ATOM      6  C   UNL     1      22.406 -31.007  24.267  1.00  0.00     0.007 C 
ATOM      7  C   UNL     1      21.848 -32.179  22.092  1.00  0.00     0.007 C 
ENDBRANCH   2   5
ENDBRANCH   1   2
BRANCH   1   8
ATOM      8  C   UNL     1      21.385 -34.979  25.015  1.00  0.00     0.004 C 
BRANCH   8   9
ATOM      9  C   UNL     1      19.951 -35.559  24.859  1.00  0.00    -0.011 C 
ATOM     10  C   UNL     1      19.836 -36.975  25.461  1.00  0.00     0.008 C 
BRANCH   9  11
ATOM     11  C   UNL     1      18.815 -34.551  25.281  1.00  0.00    -0.002 C 
ATOM     12  C   UNL     1      19.425 -33.176  25.637  1.00  0.00     0.005 C 
ATOM     13  C   UNL     1      17.639 -34.206  24.298  1.00  0.00    -0.026 C 
ATOM     14  C   UNL     1      19.021 -32.198  24.532  1.00  0.00     0.005 C 
ATOM     15  C   UNL     1      18.176 -32.986  23.518  1.00  0.00    -0.001 C 
ATOM     16  C   UNL     1      16.401 -33.785  25.149  1.00  0.00     0.007 C 
ATOM     17  C   UNL     1      17.220 -35.373  23.373  1.00  0.00     0.012 C 
ATOM     18  C   UNL     1      17.112 -32.103  22.794  1.00  0.00     0.004 C 
ATOM     19  C   UNL     1      15.318 -33.045  24.359  1.00  0.00     0.005 C 
ATOM     20  C   UNL     1      15.861 -31.765  23.671  1.00  0.00     0.003 C 
ATOM     21  C   UNL     1      16.778 -32.651  21.371  1.00  0.00     0.085 C 
ATOM     22  C   UNL     1      14.767 -30.976  22.844  1.00  0.00    -0.000 C 
ATOM     23  C   UNL     1      15.316 -32.729  21.029  1.00  0.00     0.159 C 
ATOM     24  C   UNL     1      14.331 -31.816  21.653  1.00  0.00     0.005 C 
ATOM     25  C   UNL     1      13.530 -30.631  23.737  1.00  0.00     0.020 C 
ATOM     26  C   UNL     1      15.371 -29.648  22.310  1.00  0.00     0.017 C 
ATOM     27  O   UNL     1      14.948 -33.557  20.153  1.00  0.00    -0.295 OA
ATOM     28  C   UNL     1      13.098 -31.685  21.122  1.00  0.00     0.055 C 
ATOM     29  C   UNL     1      12.375 -29.998  22.948  1.00  0.00     0.081 C 
ATOM     30  C   UNL     1      12.088 -30.785  21.704  1.00  0.00     0.156 C 
ATOM     31  O   UNL     1      10.973 -30.657  21.134  1.00  0.00    -0.295 OA
ENDBRANCH   9  11
ENDBRANCH   8   9
ENDBRANCH   1   8
TORSDOF 6
ENDMDL
MODEL 3
REMARK VINA RESULT:    -7.969      2.326      4.059
REMARK INTER + INTRA:         -11.659
REMARK INTER:                  -9.151
REMARK INTRA:                  -2.508
REMARK UNBOUND:                -0.895
REMARK SMILES CC[C@@H](CC[C@@H](C)[C@H]1CC[C@@H]2[C@H]3CC(=O)C4=CC(=O)CC[C@@]4(C)[C@H]3CC[C@@]21C)C(C)C
REMARK SMILES IDX 4 1 3 2 2 3 1 4 29 5 30 6 31 7 5 8 6 9 7 10 8 11 9 12 27 13
REMARK SMILES IDX 10 14 11 15 26 16 28 17 12 18 25 19 24 20 13 21 22 22 14 23
REMARK SMILES IDX 16 24 21 25 23 26 15 27 17 28 20 29 18 30 19 31
REMARK H PARENT
REMARK Flexibility Score: inf
ROOT
ATOM      1  C   UNL     1      15.611 -34.289  21.928  1.00  0.00     0.004 C 
ENDROOT
BRANCH   1   2
ATOM      2  C   UNL     1      15.649 -33.921  23.447  1.00  0.00    -0.009 C 
BRANCH   2   3
ATOM      3  C   UNL     1      15.290 -32.422  23.640  1.00  0.00     0.000 C 
ATOM      4  C   UNL     1      13.825 -32.185  24.012  1.00  0.00     0.004 C 
ENDBRANCH   2   3
BRANCH   2   5
ATOM      5  C   UNL     1      16.991 -34.320  24.149  1.00  0.00    -0.014 C 
ATOM      6  C   UNL     1      17.606 -35.626  23.617  1.00  0.00     0.007 C 
ATOM      7  C   UNL     1      16.844 -34.370  25.681  1.00  0.00     0.007 C 
ENDBRANCH   2   5
ENDBRANCH   1   2
BRANCH   1   8
ATOM      8  C   UNL     1      16.245 -33.215  21.017  1.00  0.00     0.004 C 
BRANCH   8   9
ATOM      9  C   UNL     1      17.691 -33.550  20.553  1.00  0.00    -0.011 C 
ATOM     10  C   UNL     1      17.714 -34.149  19.131  1.00  0.00     0.008 C 
BRANCH   9  11
ATOM     11  C   UNL     1      18.720 -32.385  20.812  1.00  0.00    -0.002 C 
ATOM     12  C   UNL     1      17.975 -31.093  21.216  1.00  0.00     0.005 C 
ATOM     13  C   UNL     1      19.848 -32.532  21.896  1.00  0.00    -0.026 C 
ATOM     14  C   UNL     1      18.269 -30.841  22.696  1.00  0.00     0.005 C 
ATOM     15  C   UNL     1      19.183 -31.980  23.175  1.00  0.00    -0.001 C 
ATOM     16  C   UNL     1      21.042 -31.617  21.484  1.00  0.00     0.007 C 
ATOM     17  C   UNL     1      20.378 -33.976  22.070  1.00  0.00     0.012 C 
ATOM     18  C   UNL     1      20.146 -31.546  24.325  1.00  0.00     0.004 C 
ATOM     19  C   UNL     1      22.038 -31.337  22.613  1.00  0.00     0.005 C 
ATOM     20  C   UNL     1      21.361 -30.685  23.847  1.00  0.00     0.003 C 
ATOM     21  C   UNL     1      20.524 -32.748  25.246  1.00  0.00     0.085 C 
ATOM     22  C   UNL     1      22.363 -30.383  25.034  1.00  0.00    -0.000 C 
ATOM     23  C   UNL     1      21.983 -32.879  25.582  1.00  0.00     0.159 C 
ATOM     24  C   UNL     1      22.874 -31.696  25.609  1.00  0.00     0.005 C 
ATOM     25  C   UNL     1      23.564 -29.508  24.546  1.00  0.00     0.020 C 
ATOM     26  C   UNL     1      21.622 -29.612  26.161  1.00  0.00     0.017 C 
ATOM     27  O   UNL     1      22.428 -34.016  25.893  1.00  0.00    -0.295 OA
ATOM     28  C   UNL     1      24.083 -31.773  26.202  1.00  0.00     0.055 C 
ATOM     29  C   UNL     1      24.642 -29.312  25.622  1.00  0.00     0.081 C 
ATOM     30  C   UNL     1      25.000 -30.621  26.260  1.00  0.00     0.156 C 
ATOM     31  O   UNL     1      26.092 -30.731  26.877  1.00  0.00    -0.295 OA
ENDBRANCH   9  11
ENDBRANCH   8   9
ENDBRANCH   1   8
TORSDOF 6
ENDMDL
MODEL 4
REMARK VINA RESULT:    -7.851      2.261      4.215
REMARK INTER + INTRA:         -11.499
REMARK INTER:                  -9.105
REMARK INTRA:                  -2.395
REMARK UNBOUND:                -0.895
REMARK SMILES CC[C@@H](CC[C@@H](C)[C@H]1CC[C@@H]2[C@H]3CC(=O)C4=CC(=O)CC[C@@]4(C)[C@H]3CC[C@@]21C)C(C)C
REMARK SMILES IDX 4 1 3 2 2 3 1 4 29 5 30 6 31 7 5 8 6 9 7 10 8 11 9 12 27 13
REMARK SMILES IDX 10 14 11 15 26 16 28 17 12 18 25 19 24 20 13 21 22 22 14 23
REMARK SMILES IDX 16 24 21 25 23 26 15 27 17 28 20 29 18 30 19 31
REMARK H PARENT
REMARK Flexibility Score: inf
ROOT
ATOM      1  C   UNL     1      16.246 -34.124  21.205  1.00  0.00     0.004 C 
ENDROOT
BRANCH   1   2
ATOM      2  C   UNL     1      17.747 -34.511  20.997  1.00  0.00    -0.009 C 
BRANCH   2   3
ATOM      3  C   UNL     1      18.487 -33.376  20.237  1.00  0.00     0.000 C 
ATOM      4  C   UNL     1      18.016 -31.972  20.620  1.00  0.00     0.004 C 
ENDBRANCH   2   3
BRANCH   2   5
ATOM      5  C   UNL     1      17.939 -35.915  20.331  1.00  0.00    -0.014 C 
ATOM      6  C   UNL     1      16.738 -36.372  19.486  1.00  0.00     0.007 C 
ATOM      7  C   UNL     1      18.321 -36.991  21.364  1.00  0.00     0.007 C 
ENDBRANCH   2   5
ENDBRANCH   1   2
BRANCH   1   8
ATOM      8  C   UNL     1      15.733 -34.387  22.637  1.00  0.00     0.004 C 
BRANCH   8   9
ATOM      9  C   UNL     1      15.818 -33.153  23.579  1.00  0.00    -0.011 C 
ATOM     10  C   UNL     1      14.421 -32.689  24.044  1.00  0.00     0.008 C 
BRANCH   9  11
ATOM     11  C   UNL     1      16.894 -33.305  24.720  1.00  0.00    -0.002 C 
ATOM     12  C   UNL     1      17.375 -34.770  24.811  1.00  0.00     0.005 C 
ATOM     13  C   UNL     1      18.223 -32.466  24.691  1.00  0.00    -0.026 C 
ATOM     14  C   UNL     1      18.818 -34.809  24.302  1.00  0.00     0.005 C 
ATOM     15  C   UNL     1      19.195 -33.373  23.906  1.00  0.00    -0.001 C 
ATOM     16  C   UNL     1      18.725 -32.297  26.158  1.00  0.00     0.007 C 
ATOM     17  C   UNL     1      18.073 -31.060  24.062  1.00  0.00     0.012 C 
ATOM     18  C   UNL     1      20.718 -33.073  24.083  1.00  0.00     0.004 C 
ATOM     19  C   UNL     1      20.188 -31.861  26.275  1.00  0.00     0.005 C 
ATOM     20  C   UNL     1      21.155 -32.847  25.568  1.00  0.00     0.003 C 
ATOM     21  C   UNL     1      21.208 -31.975  23.087  1.00  0.00     0.085 C 
ATOM     22  C   UNL     1      22.676 -32.425  25.669  1.00  0.00    -0.000 C 
ATOM     23  C   UNL     1      22.066 -30.892  23.682  1.00  0.00     0.159 C 
ATOM     24  C   UNL     1      22.898 -31.142  24.881  1.00  0.00     0.005 C 
ATOM     25  C   UNL     1      23.104 -32.219  27.159  1.00  0.00     0.020 C 
ATOM     26  C   UNL     1      23.570 -33.537  25.052  1.00  0.00     0.017 C 
ATOM     27  O   UNL     1      22.104 -29.772  23.105  1.00  0.00    -0.295 OA
ATOM     28  C   UNL     1      23.880 -30.281  25.215  1.00  0.00     0.055 C 
ATOM     29  C   UNL     1      24.528 -31.665  27.306  1.00  0.00     0.081 C 
ATOM     30  C   UNL     1      24.737 -30.492  26.394  1.00  0.00     0.156 C 
ATOM     31  O   UNL     1      25.677 -29.687  26.627  1.00  0.00    -0.295 OA
ENDBRANCH   9  11
ENDBRANCH   8   9
ENDBRANCH   1   8
TORSDOF 6
ENDMDL
MODEL 5
REMARK VINA RESULT:    -7.745      1.534      2.137
REMARK INTER + INTRA:         -11.357
REMARK INTER:                 -10.500
REMARK INTRA:                  -0.857
REMARK UNBOUND:                -0.895
REMARK SMILES CC[C@@H](CC[C@@H](C)[C@H]1CC[C@@H]2[C@H]3CC(=O)C4=CC(=O)CC[C@@]4(C)[C@H]3CC[C@@]21C)C(C)C
REMARK SMILES IDX 4 1 3 2 2 3 1 4 29 5 30 6 31 7 5 8 6 9 7 10 8 11 9 12 27 13
REMARK SMILES IDX 10 14 11 15 26 16 28 17 12 18 25 19 24 20 13 21 22 22 14 23
REMARK SMILES IDX 16 24 21 25 23 26 15 27 17 28 20 29 18 30 19 31
REMARK H PARENT
REMARK Flexibility Score: inf
ROOT
ATOM      1  C   UNL     1      13.094 -31.156  23.077  1.00  0.00     0.004 C 
ENDROOT
BRANCH   1   2
ATOM      2  C   UNL     1      13.188 -29.607  22.884  1.00  0.00    -0.009 C 
BRANCH   2   3
ATOM      3  C   UNL     1      14.672 -29.152  22.962  1.00  0.00     0.000 C 
ATOM      4  C   UNL     1      15.378 -29.124  21.606  1.00  0.00     0.004 C 
ENDBRANCH   2   3
BRANCH   2   5
ATOM      5  C   UNL     1      12.254 -28.803  23.849  1.00  0.00    -0.014 C 
ATOM      6  C   UNL     1      10.875 -28.475  23.249  1.00  0.00     0.007 C 
ATOM      7  C   UNL     1      12.936 -27.528  24.377  1.00  0.00     0.007 C 
ENDBRANCH   2   5
ENDBRANCH   1   2
BRANCH   1   8
ATOM      8  C   UNL     1      14.169 -31.725  24.027  1.00  0.00     0.004 C 
BRANCH   8   9
ATOM      9  C   UNL     1      14.920 -32.966  23.466  1.00  0.00    -0.011 C 
ATOM     10  C   UNL     1      15.144 -32.861  21.942  1.00  0.00     0.008 C 
BRANCH   9  11
ATOM     11  C   UNL     1      16.190 -33.367  24.309  1.00  0.00    -0.002 C 
ATOM     12  C   UNL     1      16.525 -34.860  24.094  1.00  0.00     0.005 C 
ATOM     13  C   UNL     1      17.563 -32.632  24.097  1.00  0.00    -0.026 C 
ATOM     14  C   UNL     1      17.817 -34.925  23.277  1.00  0.00     0.005 C 
ATOM     15  C   UNL     1      18.250 -33.476  23.002  1.00  0.00    -0.001 C 
ATOM     16  C   UNL     1      18.375 -32.725  25.425  1.00  0.00     0.007 C 
ATOM     17  C   UNL     1      17.431 -31.140  23.709  1.00  0.00     0.012 C 
ATOM     18  C   UNL     1      19.798 -33.317  22.875  1.00  0.00     0.004 C 
ATOM     19  C   UNL     1      19.868 -32.419  25.271  1.00  0.00     0.005 C 
ATOM     20  C   UNL     1      20.558 -33.353  24.242  1.00  0.00     0.003 C 
ATOM     21  C   UNL     1      20.181 -32.118  21.950  1.00  0.00     0.085 C 
ATOM     22  C   UNL     1      22.102 -33.062  24.058  1.00  0.00    -0.000 C 
ATOM     23  C   UNL     1      21.251 -31.204  22.478  1.00  0.00     0.159 C 
ATOM     24  C   UNL     1      22.286 -31.693  23.418  1.00  0.00     0.005 C 
ATOM     25  C   UNL     1      22.851 -33.117  25.430  1.00  0.00     0.020 C 
ATOM     26  C   UNL     1      22.726 -34.129  23.116  1.00  0.00     0.017 C 
ATOM     27  O   UNL     1      21.284 -30.015  22.062  1.00  0.00    -0.295 OA
ATOM     28  C   UNL     1      23.400 -30.966  23.637  1.00  0.00     0.055 C 
ATOM     29  C   UNL     1      24.324 -32.696  25.329  1.00  0.00     0.081 C 
ATOM     30  C   UNL     1      24.458 -31.416  24.558  1.00  0.00     0.156 C 
ATOM     31  O   UNL     1      25.504 -30.726  24.682  1.00  0.00    -0.295 OA
ENDBRANCH   9  11
ENDBRANCH   8   9
ENDBRANCH   1   8
TORSDOF 6
ENDMDL
MODEL 6
REMARK VINA RESULT:    -7.729      1.824      2.982
REMARK INTER + INTRA:         -11.335
REMARK INTER:                  -9.872
REMARK INTRA:                  -1.462
REMARK UNBOUND:                -0.895
REMARK SMILES CC[C@@H](CC[C@@H](C)[C@H]1CC[C@@H]2[C@H]3CC(=O)C4=CC(=O)CC[C@@]4(C)[C@H]3CC[C@@]21C)C(C)C
REMARK SMILES IDX 4 1 3 2 2 3 1 4 29 5 30 6 31 7 5 8 6 9 7 10 8 11 9 12 27 13
REMARK SMILES IDX 10 14 11 15 26 16 28 17 12 18 25 19 24 20 13 21 22 22 14 23
REMARK SMILES IDX 16 24 21 25 23 26 15 27 17 28 20 29 18 30 19 31
REMARK H PARENT
REMARK Flexibility Score: inf
ROOT
ATOM      1  C   UNL     1      14.247 -32.423  21.414  1.00  0.00     0.004 C 
ENDROOT
BRANCH   1   2
ATOM      2  C   UNL     1      14.058 -30.971  21.965  1.00  0.00    -0.009 C 
BRANCH   2   3
ATOM      3  C   UNL     1      15.285 -30.567  22.827  1.00  0.00     0.000 C 
ATOM      4  C   UNL     1      16.144 -29.470  22.196  1.00  0.00     0.004 C 
ENDBRANCH   2   3
BRANCH   2   5
ATOM      5  C   UNL     1      12.696 -30.763  22.710  1.00  0.00    -0.014 C 
ATOM      6  C   UNL     1      11.484 -30.652  21.770  1.00  0.00     0.007 C 
ATOM      7  C   UNL     1      12.749 -29.565  23.676  1.00  0.00     0.007 C 
ENDBRANCH   2   5
ENDBRANCH   1   2
BRANCH   1   8
ATOM      8  C   UNL     1      15.242 -33.270  22.236  1.00  0.00     0.004 C 
BRANCH   8   9
ATOM      9  C   UNL     1      15.851 -34.469  21.456  1.00  0.00    -0.011 C 
ATOM     10  C   UNL     1      15.014 -34.829  20.211  1.00  0.00     0.008 C 
BRANCH   9  11
ATOM     11  C   UNL     1      17.403 -34.337  21.212  1.00  0.00    -0.002 C 
ATOM     12  C   UNL     1      17.683 -33.316  20.086  1.00  0.00     0.005 C 
ATOM     13  C   UNL     1      18.367 -33.901  22.373  1.00  0.00    -0.026 C 
ATOM     14  C   UNL     1      18.311 -32.082  20.735  1.00  0.00     0.005 C 
ATOM     15  C   UNL     1      18.403 -32.363  22.244  1.00  0.00    -0.001 C 
ATOM     16  C   UNL     1      19.781 -34.489  22.079  1.00  0.00     0.007 C 
ATOM     17  C   UNL     1      17.925 -34.375  23.778  1.00  0.00     0.012 C 
ATOM     18  C   UNL     1      19.605 -31.638  22.927  1.00  0.00     0.004 C 
ATOM     19  C   UNL     1      20.912 -33.839  22.882  1.00  0.00     0.005 C 
ATOM     20  C   UNL     1      20.992 -32.307  22.652  1.00  0.00     0.003 C 
ATOM     21  C   UNL     1      19.317 -31.334  24.431  1.00  0.00     0.085 C 
ATOM     22  C   UNL     1      22.150 -31.603  23.469  1.00  0.00    -0.000 C 
ATOM     23  C   UNL     1      20.423 -31.678  25.389  1.00  0.00     0.159 C 
ATOM     24  C   UNL     1      21.840 -31.685  24.957  1.00  0.00     0.005 C 
ATOM     25  C   UNL     1      23.533 -32.271  23.172  1.00  0.00     0.020 C 
ATOM     26  C   UNL     1      22.235 -30.104  23.070  1.00  0.00     0.017 C 
ATOM     27  O   UNL     1      20.126 -31.911  26.591  1.00  0.00    -0.295 OA
ATOM     28  C   UNL     1      22.828 -31.688  25.875  1.00  0.00     0.055 C 
ATOM     29  C   UNL     1      24.666 -31.725  24.051  1.00  0.00     0.081 C 
ATOM     30  C   UNL     1      24.251 -31.688  25.492  1.00  0.00     0.156 C 
ATOM     31  O   UNL     1      25.132 -31.632  26.390  1.00  0.00    -0.295 OA
ENDBRANCH   9  11
ENDBRANCH   8   9
ENDBRANCH   1   8
TORSDOF 6
ENDMDL
MODEL 7
REMARK VINA RESULT:    -7.716      2.218      3.396
REMARK INTER + INTRA:         -11.317
REMARK INTER:                  -9.445
REMARK INTRA:                  -1.873
REMARK UNBOUND:                -0.895
REMARK SMILES CC[C@@H](CC[C@@H](C)[C@H]1CC[C@@H]2[C@H]3CC(=O)C4=CC(=O)CC[C@@]4(C)[C@H]3CC[C@@]21C)C(C)C
REMARK SMILES IDX 4 1 3 2 2 3 1 4 29 5 30 6 31 7 5 8 6 9 7 10 8 11 9 12 27 13
REMARK SMILES IDX 10 14 11 15 26 16 28 17 12 18 25 19 24 20 13 21 22 22 14 23
REMARK SMILES IDX 16 24 21 25 23 26 15 27 17 28 20 29 18 30 19 31
REMARK H PARENT
REMARK Flexibility Score: inf
ROOT
ATOM      1  C   UNL     1      12.985 -31.468  21.966  1.00  0.00     0.004 C 
ENDROOT
BRANCH   1   2
ATOM      2  C   UNL     1      13.642 -30.977  23.297  1.00  0.00    -0.009 C 
BRANCH   2   3
ATOM      3  C   UNL     1      13.496 -32.067  24.394  1.00  0.00     0.000 C 
ATOM      4  C   UNL     1      14.482 -33.226  24.243  1.00  0.00     0.004 C 
ENDBRANCH   2   3
BRANCH   2   5
ATOM      5  C   UNL     1      13.128 -29.573  23.762  1.00  0.00    -0.014 C 
ATOM      6  C   UNL     1      11.682 -29.268  23.335  1.00  0.00     0.007 C 
ATOM      7  C   UNL     1      14.077 -28.442  23.323  1.00  0.00     0.007 C 
ENDBRANCH   2   5
ENDBRANCH   1   2
BRANCH   1   8
ATOM      8  C   UNL     1      13.983 -31.595  20.795  1.00  0.00     0.004 C 
BRANCH   8   9
ATOM      9  C   UNL     1      15.099 -32.654  21.023  1.00  0.00    -0.011 C 
ATOM     10  C   UNL     1      14.879 -33.915  20.162  1.00  0.00     0.008 C 
BRANCH   9  11
ATOM     11  C   UNL     1      16.555 -32.052  20.980  1.00  0.00    -0.002 C 
ATOM     12  C   UNL     1      16.531 -30.563  21.395  1.00  0.00     0.005 C 
ATOM     13  C   UNL     1      17.709 -32.673  21.846  1.00  0.00    -0.026 C 
ATOM     14  C   UNL     1      17.202 -30.461  22.767  1.00  0.00     0.005 C 
ATOM     15  C   UNL     1      17.621 -31.884  23.171  1.00  0.00    -0.001 C 
ATOM     16  C   UNL     1      19.066 -32.370  21.140  1.00  0.00     0.007 C 
ATOM     17  C   UNL     1      17.598 -34.203  22.051  1.00  0.00     0.012 C 
ATOM     18  C   UNL     1      18.891 -31.910  24.079  1.00  0.00     0.004 C 
ATOM     19  C   UNL     1      20.295 -32.549  22.036  1.00  0.00     0.005 C 
ATOM     20  C   UNL     1      20.230 -31.665  23.308  1.00  0.00     0.003 C 
ATOM     21  C   UNL     1      18.902 -33.156  25.020  1.00  0.00     0.085 C 
ATOM     22  C   UNL     1      21.486 -31.827  24.258  1.00  0.00    -0.000 C 
ATOM     23  C   UNL     1      20.202 -33.908  25.091  1.00  0.00     0.159 C 
ATOM     24  C   UNL     1      21.496 -33.230  24.846  1.00  0.00     0.005 C 
ATOM     25  C   UNL     1      22.816 -31.562  23.479  1.00  0.00     0.020 C 
ATOM     26  C   UNL     1      21.392 -30.808  25.428  1.00  0.00     0.017 C 
ATOM     27  O   UNL     1      20.175 -35.125  25.417  1.00  0.00    -0.295 OA
ATOM     28  C   UNL     1      22.651 -33.824  25.210  1.00  0.00     0.055 C 
ATOM     29  C   UNL     1      24.071 -31.853  24.315  1.00  0.00     0.081 C 
ATOM     30  C   UNL     1      23.961 -33.186  24.993  1.00  0.00     0.156 C 
ATOM     31  O   UNL     1      25.003 -33.759  25.405  1.00  0.00    -0.295 OA
ENDBRANCH   9  11
ENDBRANCH   8   9
ENDBRANCH   1   8
TORSDOF 6
ENDMDL
MODEL 8
REMARK VINA RESULT:    -7.621      2.602      7.637
REMARK INTER + INTRA:         -11.189
REMARK INTER:                  -8.648
REMARK INTRA:                  -2.541
REMARK UNBOUND:                -0.895
REMARK SMILES CC[C@@H](CC[C@@H](C)[C@H]1CC[C@@H]2[C@H]3CC(=O)C4=CC(=O)CC[C@@]4(C)[C@H]3CC[C@@]21C)C(C)C
REMARK SMILES IDX 4 1 3 2 2 3 1 4 29 5 30 6 31 7 5 8 6 9 7 10 8 11 9 12 27 13
REMARK SMILES IDX 10 14 11 15 26 16 28 17 12 18 25 19 24 20 13 21 22 22 14 23
REMARK SMILES IDX 16 24 21 25 23 26 15 27 17 28 20 29 18 30 19 31
REMARK H PARENT
REMARK Flexibility Score: inf
ROOT
ATOM      1  C   UNL     1      23.150 -29.908  27.187  1.00  0.00     0.004 C 
ENDROOT
BRANCH   1   2
ATOM      2  C   UNL     1      21.770 -29.353  26.704  1.00  0.00    -0.009 C 
BRANCH   2   3
ATOM      3  C   UNL     1      21.788 -27.800  26.720  1.00  0.00     0.000 C 
ATOM      4  C   UNL     1      22.552 -27.182  25.548  1.00  0.00     0.004 C 
ENDBRANCH   2   3
BRANCH   2   5
ATOM      5  C   UNL     1      20.552 -29.956  27.482  1.00  0.00    -0.014 C 
ATOM      6  C   UNL     1      19.622 -28.896  28.097  1.00  0.00     0.007 C 
ATOM      7  C   UNL     1      21.000 -30.973  28.547  1.00  0.00     0.007 C 
ENDBRANCH   2   5
ENDBRANCH   1   2
BRANCH   1   8
ATOM      8  C   UNL     1      23.787 -30.917  26.207  1.00  0.00     0.004 C 
BRANCH   8   9
ATOM      9  C   UNL     1      23.440 -30.657  24.714  1.00  0.00    -0.011 C 
ATOM     10  C   UNL     1      24.660 -30.140  23.923  1.00  0.00     0.008 C 
BRANCH   9  11
ATOM     11  C   UNL     1      22.647 -31.839  24.037  1.00  0.00    -0.002 C 
ATOM     12  C   UNL     1      22.471 -33.005  25.035  1.00  0.00     0.005 C 
ATOM     13  C   UNL     1      21.206 -31.612  23.454  1.00  0.00    -0.026 C 
ATOM     14  C   UNL     1      20.991 -33.059  25.417  1.00  0.00     0.005 C 
ATOM     15  C   UNL     1      20.286 -31.927  24.653  1.00  0.00    -0.001 C 
ATOM     16  C   UNL     1      20.970 -32.656  22.319  1.00  0.00     0.007 C 
ATOM     17  C   UNL     1      20.971 -30.198  22.872  1.00  0.00     0.012 C 
ATOM     18  C   UNL     1      18.797 -32.253  24.317  1.00  0.00     0.004 C 
ATOM     19  C   UNL     1      19.501 -32.835  21.926  1.00  0.00     0.005 C 
ATOM     20  C   UNL     1      18.616 -33.255  23.129  1.00  0.00     0.003 C 
ATOM     21  C   UNL     1      17.931 -30.958  24.212  1.00  0.00     0.085 C 
ATOM     22  C   UNL     1      17.090 -33.447  22.757  1.00  0.00    -0.000 C 
ATOM     23  C   UNL     1      17.018 -30.879  23.020  1.00  0.00     0.159 C 
ATOM     24  C   UNL     1      16.490 -32.103  22.374  1.00  0.00     0.005 C 
ATOM     25  C   UNL     1      16.924 -34.463  21.579  1.00  0.00     0.020 C 
ATOM     26  C   UNL     1      16.317 -33.995  23.988  1.00  0.00     0.017 C 
ATOM     27  O   UNL     1      16.665 -29.741  22.609  1.00  0.00    -0.295 OA
ATOM     28  C   UNL     1      15.448 -32.022  21.522  1.00  0.00     0.055 C 
ATOM     29  C   UNL     1      15.477 -34.573  21.079  1.00  0.00     0.081 C 
ATOM     30  C   UNL     1      14.885 -33.212  20.861  1.00  0.00     0.156 C 
ATOM     31  O   UNL     1      13.874 -33.088  20.121  1.00  0.00    -0.295 OA
ENDBRANCH   9  11
ENDBRANCH   8   9
ENDBRANCH   1   8
TORSDOF 6
ENDMDL
MODEL 9
REMARK VINA RESULT:    -7.601      1.791      2.825
REMARK INTER + INTRA:         -11.162
REMARK INTER:                  -8.987
REMARK INTRA:                  -2.175
REMARK UNBOUND:                -0.895
REMARK SMILES CC[C@@H](CC[C@@H](C)[C@H]1CC[C@@H]2[C@H]3CC(=O)C4=CC(=O)CC[C@@]4(C)[C@H]3CC[C@@]21C)C(C)C
REMARK SMILES IDX 4 1 3 2 2 3 1 4 29 5 30 6 31 7 5 8 6 9 7 10 8 11 9 12 27 13
REMARK SMILES IDX 10 14 11 15 26 16 28 17 12 18 25 19 24 20 13 21 22 22 14 23
REMARK SMILES IDX 16 24 21 25 23 26 15 27 17 28 20 29 18 30 19 31
REMARK H PARENT
REMARK Flexibility Score: inf
ROOT
ATOM      1  C   UNL     1      15.595 -33.215  21.019  1.00  0.00     0.004 C 
ENDROOT
BRANCH   1   2
ATOM      2  C   UNL     1      15.046 -31.879  21.619  1.00  0.00    -0.009 C 
BRANCH   2   3
ATOM      3  C   UNL     1      13.661 -31.548  20.998  1.00  0.00     0.000 C 
ATOM      4  C   UNL     1      12.654 -30.990  22.004  1.00  0.00     0.004 C 
ENDBRANCH   2   3
BRANCH   2   5
ATOM      5  C   UNL     1      16.059 -30.690  21.516  1.00  0.00    -0.014 C 
ATOM      6  C   UNL     1      17.469 -31.111  21.065  1.00  0.00     0.007 C 
ATOM      7  C   UNL     1      16.124 -29.877  22.822  1.00  0.00     0.007 C 
ENDBRANCH   2   5
ENDBRANCH   1   2
BRANCH   1   8
ATOM      8  C   UNL     1      15.812 -34.321  22.074  1.00  0.00     0.004 C 
BRANCH   8   9
ATOM      9  C   UNL     1      16.296 -33.797  23.455  1.00  0.00    -0.011 C 
ATOM     10  C   UNL     1      15.186 -33.884  24.524  1.00  0.00     0.008 C 
BRANCH   9  11
ATOM     11  C   UNL     1      17.699 -34.370  23.889  1.00  0.00    -0.002 C 
ATOM     12  C   UNL     1      18.161 -35.460  22.897  1.00  0.00     0.005 C 
ATOM     13  C   UNL     1      18.946 -33.425  24.030  1.00  0.00    -0.026 C 
ATOM     14  C   UNL     1      19.338 -34.887  22.105  1.00  0.00     0.005 C 
ATOM     15  C   UNL     1      19.575 -33.458  22.620  1.00  0.00    -0.001 C 
ATOM     16  C   UNL     1      19.927 -34.062  25.061  1.00  0.00     0.007 C 
ATOM     17  C   UNL     1      18.607 -31.990  24.501  1.00  0.00     0.012 C 
ATOM     18  C   UNL     1      21.068 -33.013  22.517  1.00  0.00     0.004 C 
ATOM     19  C   UNL     1      21.346 -33.489  25.017  1.00  0.00     0.005 C 
ATOM     20  C   UNL     1      21.995 -33.631  23.615  1.00  0.00     0.003 C 
ATOM     21  C   UNL     1      21.199 -31.466  22.352  1.00  0.00     0.085 C 
ATOM     22  C   UNL     1      23.463 -33.047  23.534  1.00  0.00    -0.000 C 
ATOM     23  C   UNL     1      22.224 -30.802  23.228  1.00  0.00     0.159 C 
ATOM     24  C   UNL     1      23.416 -31.536  23.710  1.00  0.00     0.005 C 
ATOM     25  C   UNL     1      24.383 -33.686  24.626  1.00  0.00     0.020 C 
ATOM     26  C   UNL     1      24.073 -33.357  22.138  1.00  0.00     0.017 C 
ATOM     27  O   UNL     1      22.076 -29.581  23.506  1.00  0.00    -0.295 OA
ATOM     28  C   UNL     1      24.465 -30.862  24.224  1.00  0.00     0.055 C 
ATOM     29  C   UNL     1      25.777 -33.046  24.689  1.00  0.00     0.081 C 
ATOM     30  C   UNL     1      25.674 -31.549  24.710  1.00  0.00     0.156 C 
ATOM     31  O   UNL     1      26.647 -30.868  25.126  1.00  0.00    -0.295 OA
ENDBRANCH   9  11
ENDBRANCH   8   9
ENDBRANCH   1   8
TORSDOF 6
ENDMDL
