MODEL 1
REMARK VINA RESULT:    -4.700      0.000      0.000
REMARK INTER + INTRA:         -15.997
REMARK INTER:                 -11.843
REMARK INTRA:                  -4.154
REMARK UNBOUND:                -4.154
REMARK SMILES CCCCCCCCCCCCCCCCCCCCCCCCCCCC(=O)[O-]
REMARK SMILES IDX 15 1 16 2 17 3 18 4 19 5 20 6 21 7 22 8 23 9 24 10 25 11
REMARK SMILES IDX 26 12 27 13 28 14 29 15 30 16 14 17 13 18 12 19 11 20 10 21
REMARK SMILES IDX 9 22 8 23 7 24 6 25 5 26 4 27 3 28 2 29 1 30
REMARK H PARENT
REMARK Flexibility Score: inf
ROOT
ATOM      1  C   UNL     1      59.370  28.369  12.675  1.00  0.00     0.000 C 
ENDROOT
BRANCH   1   2
ATOM      2  C   UNL     1      59.866  28.235  11.224  1.00  0.00     0.000 C 
BRANCH   2   3
ATOM      3  C   UNL     1      59.635  29.506  10.395  1.00  0.00     0.000 C 
BRANCH   3   4
ATOM      4  C   UNL     1      60.654  29.606   9.251  1.00  0.00     0.000 C 
BRANCH   4   5
ATOM      5  C   UNL     1      61.743  28.519   9.321  1.00  0.00     0.000 C 
BRANCH   5   6
ATOM      6  C   UNL     1      63.146  29.032   9.691  1.00  0.00     0.000 C 
BRANCH   6   7
ATOM      7  C   UNL     1      63.393  30.479   9.240  1.00  0.00     0.000 C 
BRANCH   7   8
ATOM      8  C   UNL     1      64.726  31.007   9.784  1.00  0.00     0.000 C 
BRANCH   8   9
ATOM      9  C   UNL     1      64.501  31.959  10.965  1.00  0.00     0.000 C 
BRANCH   9  10
ATOM     10  C   UNL     1      65.659  32.955  11.100  1.00  0.00     0.000 C 
BRANCH  10  11
ATOM     11  C   UNL     1      65.372  34.075  12.114  1.00  0.00     0.000 C 
BRANCH  11  12
ATOM     12  C   UNL     1      64.792  33.569  13.452  1.00  0.00     0.006 C 
BRANCH  12  13
ATOM     13  C   UNL     1      65.732  33.839  14.634  1.00  0.00     0.053 C 
BRANCH  13  14
ATOM     14  C   UNL     1      65.744  32.682  15.584  1.00  0.00     0.041 C 
ATOM     15  O   UNL     1      66.259  32.807  16.728  1.00  0.00    -0.550 OA
ATOM     16  O   UNL     1      65.190  31.463  15.207  1.00  0.00    -0.550 OA
ENDBRANCH  13  14
ENDBRANCH  12  13
ENDBRANCH  11  12
ENDBRANCH  10  11
ENDBRANCH   9  10
ENDBRANCH   8   9
ENDBRANCH   7   8
ENDBRANCH   6   7
ENDBRANCH   5   6
ENDBRANCH   4   5
ENDBRANCH   3   4
ENDBRANCH   2   3
ENDBRANCH   1   2
BRANCH   1  17
ATOM     17  C   UNL     1      60.474  28.615  13.725  1.00  0.00     0.000 C 
BRANCH  17  18
ATOM     18  C   UNL     1      61.905  28.277  13.269  1.00  0.00     0.000 C 
BRANCH  18  19
ATOM     19  C   UNL     1      62.829  29.506  13.242  1.00  0.00     0.000 C 
BRANCH  19  20
ATOM     20  C   UNL     1      62.151  30.777  13.786  1.00  0.00     0.000 C 
BRANCH  20  21
ATOM     21  C   UNL     1      61.638  31.756  12.715  1.00  0.00     0.000 C 
BRANCH  21  22
ATOM     22  C   UNL     1      60.209  32.251  12.988  1.00  0.00    -0.000 C 
BRANCH  22  23
ATOM     23  C   UNL     1      59.914  32.273  14.494  1.00  0.00    -0.000 C 
BRANCH  23  24
ATOM     24  C   UNL     1      60.314  33.601  15.161  1.00  0.00    -0.000 C 
BRANCH  24  25
ATOM     25  C   UNL     1      61.630  33.554  15.964  1.00  0.00    -0.000 C 
BRANCH  25  26
ATOM     26  C   UNL     1      61.462  33.603  17.495  1.00  0.00    -0.000 C 
BRANCH  26  27
ATOM     27  C   UNL     1      62.767  33.442  18.301  1.00  0.00    -0.000 C 
BRANCH  27  28
ATOM     28  C   UNL     1      62.604  33.548  19.828  1.00  0.00    -0.000 C 
BRANCH  28  29
ATOM     29  C   UNL     1      63.908  33.932  20.542  1.00  0.00    -0.003 C 
ATOM     30  C   UNL     1      64.888  34.592  19.576  1.00  0.00     0.004 C 
ENDBRANCH  28  29
ENDBRANCH  27  28
ENDBRANCH  26  27
ENDBRANCH  25  26
ENDBRANCH  24  25
ENDBRANCH  23  24
ENDBRANCH  22  23
ENDBRANCH  21  22
ENDBRANCH  20  21
ENDBRANCH  19  20
ENDBRANCH  18  19
ENDBRANCH  17  18
ENDBRANCH   1  17
TORSDOF 26
ENDMDL
MODEL 2
REMARK VINA RESULT:    -4.620      1.876      5.908
REMARK INTER + INTRA:         -15.796
REMARK INTER:                 -11.928
REMARK INTRA:                  -3.868
REMARK UNBOUND:                -4.154
REMARK SMILES CCCCCCCCCCCCCCCCCCCCCCCCCCCC(=O)[O-]
REMARK SMILES IDX 15 1 16 2 17 3 18 4 19 5 20 6 21 7 22 8 23 9 24 10 25 11
REMARK SMILES IDX 26 12 27 13 28 14 29 15 30 16 14 17 13 18 12 19 11 20 10 21
REMARK SMILES IDX 9 22 8 23 7 24 6 25 5 26 4 27 3 28 2 29 1 30
REMARK H PARENT
REMARK Flexibility Score: inf
ROOT
ATOM      1  C   UNL     1      60.556  28.113  13.374  1.00  0.00     0.000 C 
ENDROOT
BRANCH   1   2
ATOM      2  C   UNL     1      61.465  29.340  13.568  1.00  0.00     0.000 C 
BRANCH   2   3
ATOM      3  C   UNL     1      61.032  30.223  14.748  1.00  0.00     0.000 C 
BRANCH   3   4
ATOM      4  C   UNL     1      60.220  31.430  14.257  1.00  0.00     0.000 C 
BRANCH   4   5
ATOM      5  C   UNL     1      60.893  32.777  14.577  1.00  0.00     0.000 C 
BRANCH   5   6
ATOM      6  C   UNL     1      60.132  33.659  15.582  1.00  0.00     0.000 C 
BRANCH   6   7
ATOM      7  C   UNL     1      60.906  33.884  16.889  1.00  0.00     0.000 C 
BRANCH   7   8
ATOM      8  C   UNL     1      62.264  33.173  16.854  1.00  0.00     0.000 C 
BRANCH   8   9
ATOM      9  C   UNL     1      63.417  34.184  16.892  1.00  0.00     0.000 C 
BRANCH   9  10
ATOM     10  C   UNL     1      64.683  33.557  17.488  1.00  0.00     0.000 C 
BRANCH  10  11
ATOM     11  C   UNL     1      65.581  34.581  18.202  1.00  0.00     0.000 C 
BRANCH  11  12
ATOM     12  C   UNL     1      65.057  35.006  19.590  1.00  0.00     0.006 C 
BRANCH  12  13
ATOM     13  C   UNL     1      64.953  33.821  20.561  1.00  0.00     0.053 C 
BRANCH  13  14
ATOM     14  C   UNL     1      63.555  33.671  21.074  1.00  0.00     0.041 C 
ATOM     15  O   UNL     1      63.352  33.262  22.250  1.00  0.00    -0.550 OA
ATOM     16  O   UNL     1      62.473  33.977  20.255  1.00  0.00    -0.550 OA
ENDBRANCH  13  14
ENDBRANCH  12  13
ENDBRANCH  11  12
ENDBRANCH  10  11
ENDBRANCH   9  10
ENDBRANCH   8   9
ENDBRANCH   7   8
ENDBRANCH   6   7
ENDBRANCH   5   6
ENDBRANCH   4   5
ENDBRANCH   3   4
ENDBRANCH   2   3
ENDBRANCH   1   2
BRANCH   1  17
ATOM     17  C   UNL     1      59.366  28.325  12.416  1.00  0.00     0.000 C 
BRANCH  17  18
ATOM     18  C   UNL     1      59.585  29.380  11.316  1.00  0.00     0.000 C 
BRANCH  18  19
ATOM     19  C   UNL     1      59.386  28.816   9.899  1.00  0.00     0.000 C 
BRANCH  19  20
ATOM     20  C   UNL     1      60.665  28.884   9.043  1.00  0.00     0.000 C 
BRANCH  20  21
ATOM     21  C   UNL     1      61.919  28.269   9.690  1.00  0.00     0.000 C 
BRANCH  21  22
ATOM     22  C   UNL     1      63.190  29.098   9.445  1.00  0.00    -0.000 C 
BRANCH  22  23
ATOM     23  C   UNL     1      63.391  30.135  10.558  1.00  0.00    -0.000 C 
BRANCH  23  24
ATOM     24  C   UNL     1      64.282  31.312  10.123  1.00  0.00    -0.000 C 
BRANCH  24  25
ATOM     25  C   UNL     1      64.495  32.398  11.198  1.00  0.00    -0.000 C 
BRANCH  25  26
ATOM     26  C   UNL     1      63.671  32.210  12.486  1.00  0.00    -0.000 C 
BRANCH  26  27
ATOM     27  C   UNL     1      64.450  32.431  13.798  1.00  0.00    -0.000 C 
BRANCH  27  28
ATOM     28  C   UNL     1      65.701  33.320  13.669  1.00  0.00    -0.000 C 
BRANCH  28  29
ATOM     29  C   UNL     1      65.403  34.807  13.908  1.00  0.00    -0.003 C 
ATOM     30  C   UNL     1      66.133  35.682  12.894  1.00  0.00     0.004 C 
ENDBRANCH  28  29
ENDBRANCH  27  28
ENDBRANCH  26  27
ENDBRANCH  25  26
ENDBRANCH  24  25
ENDBRANCH  23  24
ENDBRANCH  22  23
ENDBRANCH  21  22
ENDBRANCH  20  21
ENDBRANCH  19  20
ENDBRANCH  18  19
ENDBRANCH  17  18
ENDBRANCH   1  17
TORSDOF 26
ENDMDL
MODEL 3
REMARK VINA RESULT:    -4.583      1.512      4.274
REMARK INTER + INTRA:         -15.702
REMARK INTER:                 -10.471
REMARK INTRA:                  -5.231
REMARK UNBOUND:                -4.154
REMARK SMILES CCCCCCCCCCCCCCCCCCCCCCCCCCCC(=O)[O-]
REMARK SMILES IDX 15 1 16 2 17 3 18 4 19 5 20 6 21 7 22 8 23 9 24 10 25 11
REMARK SMILES IDX 26 12 27 13 28 14 29 15 30 16 14 17 13 18 12 19 11 20 10 21
REMARK SMILES IDX 9 22 8 23 7 24 6 25 5 26 4 27 3 28 2 29 1 30
REMARK H PARENT
REMARK Flexibility Score: inf
ROOT
ATOM      1  C   UNL     1      59.609  29.726  11.106  1.00  0.00     0.000 C 
ENDROOT
BRANCH   1   2
ATOM      2  C   UNL     1      59.634  28.440  11.952  1.00  0.00     0.000 C 
BRANCH   2   3
ATOM      3  C   UNL     1      60.367  28.619  13.289  1.00  0.00     0.000 C 
BRANCH   3   4
ATOM      4  C   UNL     1      61.751  27.954  13.247  1.00  0.00     0.000 C 
BRANCH   4   5
ATOM      5  C   UNL     1      62.906  28.968  13.343  1.00  0.00     0.000 C 
BRANCH   5   6
ATOM      6  C   UNL     1      63.105  29.594  14.734  1.00  0.00     0.000 C 
BRANCH   6   7
ATOM      7  C   UNL     1      64.371  30.459  14.826  1.00  0.00     0.000 C 
BRANCH   7   8
ATOM      8  C   UNL     1      64.117  31.720  15.660  1.00  0.00     0.000 C 
BRANCH   8   9
ATOM      9  C   UNL     1      65.209  32.770  15.417  1.00  0.00     0.000 C 
BRANCH   9  10
ATOM     10  C   UNL     1      64.600  34.163  15.214  1.00  0.00     0.000 C 
BRANCH  10  11
ATOM     11  C   UNL     1      65.202  35.223  16.152  1.00  0.00     0.000 C 
BRANCH  11  12
ATOM     12  C   UNL     1      64.289  35.588  17.343  1.00  0.00     0.006 C 
BRANCH  12  13
ATOM     13  C   UNL     1      64.988  35.388  18.695  1.00  0.00     0.053 C 
BRANCH  13  14
ATOM     14  C   UNL     1      64.475  34.164  19.386  1.00  0.00     0.041 C 
ATOM     15  O   UNL     1      64.800  33.018  18.970  1.00  0.00    -0.550 OA
ATOM     16  O   UNL     1      63.634  34.283  20.487  1.00  0.00    -0.550 OA
ENDBRANCH  13  14
ENDBRANCH  12  13
ENDBRANCH  11  12
ENDBRANCH  10  11
ENDBRANCH   9  10
ENDBRANCH   8   9
ENDBRANCH   7   8
ENDBRANCH   6   7
ENDBRANCH   5   6
ENDBRANCH   4   5
ENDBRANCH   3   4
ENDBRANCH   2   3
ENDBRANCH   1   2
BRANCH   1  17
ATOM     17  C   UNL     1      60.500  29.699   9.847  1.00  0.00     0.000 C 
BRANCH  17  18
ATOM     18  C   UNL     1      61.242  28.374   9.593  1.00  0.00     0.000 C 
BRANCH  18  19
ATOM     19  C   UNL     1      62.743  28.572   9.323  1.00  0.00     0.000 C 
BRANCH  19  20
ATOM     20  C   UNL     1      63.160  30.054   9.316  1.00  0.00     0.000 C 
BRANCH  20  21
ATOM     21  C   UNL     1      64.327  30.412  10.253  1.00  0.00     0.000 C 
BRANCH  21  22
ATOM     22  C   UNL     1      64.460  31.923  10.498  1.00  0.00    -0.000 C 
BRANCH  22  23
ATOM     23  C   UNL     1      63.957  32.298  11.899  1.00  0.00    -0.000 C 
BRANCH  23  24
ATOM     24  C   UNL     1      62.472  31.954  12.112  1.00  0.00    -0.000 C 
BRANCH  24  25
ATOM     25  C   UNL     1      61.780  32.734  13.247  1.00  0.00    -0.000 C 
BRANCH  25  26
ATOM     26  C   UNL     1      60.479  32.100  13.776  1.00  0.00    -0.000 C 
BRANCH  26  27
ATOM     27  C   UNL     1      60.306  32.144  15.308  1.00  0.00    -0.000 C 
BRANCH  27  28
ATOM     28  C   UNL     1      60.788  33.442  15.979  1.00  0.00    -0.000 C 
BRANCH  28  29
ATOM     29  C   UNL     1      61.424  33.202  17.356  1.00  0.00    -0.003 C 
ATOM     30  C   UNL     1      60.871  34.176  18.392  1.00  0.00     0.004 C 
ENDBRANCH  28  29
ENDBRANCH  27  28
ENDBRANCH  26  27
ENDBRANCH  25  26
ENDBRANCH  24  25
ENDBRANCH  23  24
ENDBRANCH  22  23
ENDBRANCH  21  22
ENDBRANCH  20  21
ENDBRANCH  19  20
ENDBRANCH  18  19
ENDBRANCH  17  18
ENDBRANCH   1  17
TORSDOF 26
ENDMDL
MODEL 4
REMARK VINA RESULT:    -4.508      1.919      6.400
REMARK INTER + INTRA:         -15.514
REMARK INTER:                 -10.954
REMARK INTRA:                  -4.559
REMARK UNBOUND:                -4.154
REMARK SMILES CCCCCCCCCCCCCCCCCCCCCCCCCCCC(=O)[O-]
REMARK SMILES IDX 15 1 16 2 17 3 18 4 19 5 20 6 21 7 22 8 23 9 24 10 25 11
REMARK SMILES IDX 26 12 27 13 28 14 29 15 30 16 14 17 13 18 12 19 11 20 10 21
REMARK SMILES IDX 9 22 8 23 7 24 6 25 5 26 4 27 3 28 2 29 1 30
REMARK H PARENT
REMARK Flexibility Score: inf
ROOT
ATOM      1  C   UNL     1      60.658  31.297  15.417  1.00  0.00     0.000 C 
ENDROOT
BRANCH   1   2
ATOM      2  C   UNL     1      60.924  32.220  14.215  1.00  0.00     0.000 C 
BRANCH   2   3
ATOM      3  C   UNL     1      62.181  33.084  14.391  1.00  0.00     0.000 C 
BRANCH   3   4
ATOM      4  C   UNL     1      63.283  32.652  13.413  1.00  0.00     0.000 C 
BRANCH   4   5
ATOM      5  C   UNL     1      64.537  32.109  14.123  1.00  0.00     0.000 C 
BRANCH   5   6
ATOM      6  C   UNL     1      65.789  32.994  13.991  1.00  0.00     0.000 C 
BRANCH   6   7
ATOM      7  C   UNL     1      65.489  34.369  13.376  1.00  0.00     0.000 C 
BRANCH   7   8
ATOM      8  C   UNL     1      65.632  35.483  14.420  1.00  0.00     0.000 C 
BRANCH   8   9
ATOM      9  C   UNL     1      66.288  34.956  15.702  1.00  0.00     0.000 C 
BRANCH   9  10
ATOM     10  C   UNL     1      65.450  35.308  16.937  1.00  0.00     0.000 C 
BRANCH  10  11
ATOM     11  C   UNL     1      64.054  34.662  16.919  1.00  0.00     0.000 C 
BRANCH  11  12
ATOM     12  C   UNL     1      63.917  33.453  17.870  1.00  0.00     0.006 C 
BRANCH  12  13
ATOM     13  C   UNL     1      65.090  33.350  18.854  1.00  0.00     0.053 C 
BRANCH  13  14
ATOM     14  C   UNL     1      64.663  33.729  20.238  1.00  0.00     0.041 C 
ATOM     15  O   UNL     1      63.876  34.698  20.415  1.00  0.00    -0.550 OA
ATOM     16  O   UNL     1      65.134  33.015  21.335  1.00  0.00    -0.550 OA
ENDBRANCH  13  14
ENDBRANCH  12  13
ENDBRANCH  11  12
ENDBRANCH  10  11
ENDBRANCH   9  10
ENDBRANCH   8   9
ENDBRANCH   7   8
ENDBRANCH   6   7
ENDBRANCH   5   6
ENDBRANCH   4   5
ENDBRANCH   3   4
ENDBRANCH   2   3
ENDBRANCH   1   2
BRANCH   1  17
ATOM     17  C   UNL     1      60.757  29.787  15.118  1.00  0.00     0.000 C 
BRANCH  17  18
ATOM     18  C   UNL     1      61.988  29.356  14.301  1.00  0.00     0.000 C 
BRANCH  18  19
ATOM     19  C   UNL     1      61.623  28.506  13.073  1.00  0.00     0.000 C 
BRANCH  19  20
ATOM     20  C   UNL     1      60.197  27.929  13.147  1.00  0.00     0.000 C 
BRANCH  20  21
ATOM     21  C   UNL     1      59.200  28.513  12.129  1.00  0.00     0.000 C 
BRANCH  21  22
ATOM     22  C   UNL     1      59.728  29.773  11.425  1.00  0.00    -0.000 C 
BRANCH  22  23
ATOM     23  C   UNL     1      59.528  29.677   9.906  1.00  0.00    -0.000 C 
BRANCH  23  24
ATOM     24  C   UNL     1      59.700  28.244   9.371  1.00  0.00    -0.000 C 
BRANCH  24  25
ATOM     25  C   UNL     1      61.162  27.810   9.136  1.00  0.00    -0.000 C 
BRANCH  25  26
ATOM     26  C   UNL     1      62.156  28.964   8.904  1.00  0.00    -0.000 C 
BRANCH  26  27
ATOM     27  C   UNL     1      63.383  28.968   9.838  1.00  0.00    -0.000 C 
BRANCH  27  28
ATOM     28  C   UNL     1      63.654  30.306  10.548  1.00  0.00    -0.000 C 
BRANCH  28  29
ATOM     29  C   UNL     1      64.113  31.411   9.586  1.00  0.00    -0.003 C 
ATOM     30  C   UNL     1      65.474  31.966   9.997  1.00  0.00     0.004 C 
ENDBRANCH  28  29
ENDBRANCH  27  28
ENDBRANCH  26  27
ENDBRANCH  25  26
ENDBRANCH  24  25
ENDBRANCH  23  24
ENDBRANCH  22  23
ENDBRANCH  21  22
ENDBRANCH  20  21
ENDBRANCH  19  20
ENDBRANCH  18  19
ENDBRANCH  17  18
ENDBRANCH   1  17
TORSDOF 26
ENDMDL
MODEL 5
REMARK VINA RESULT:    -4.464      5.836     10.675
REMARK INTER + INTRA:         -15.403
REMARK INTER:                 -12.696
REMARK INTRA:                  -2.707
REMARK UNBOUND:                -4.154
REMARK SMILES CCCCCCCCCCCCCCCCCCCCCCCCCCCC(=O)[O-]
REMARK SMILES IDX 15 1 16 2 17 3 18 4 19 5 20 6 21 7 22 8 23 9 24 10 25 11
REMARK SMILES IDX 26 12 27 13 28 14 29 15 30 16 14 17 13 18 12 19 11 20 10 21
REMARK SMILES IDX 9 22 8 23 7 24 6 25 5 26 4 27 3 28 2 29 1 30
REMARK H PARENT
REMARK Flexibility Score: inf
ROOT
ATOM      1  C   UNL     1      63.952  31.126  23.820  1.00  0.00     0.000 C 
ENDROOT
BRANCH   1   2
ATOM      2  C   UNL     1      64.432  32.081  22.713  1.00  0.00     0.000 C 
BRANCH   2   3
ATOM      3  C   UNL     1      63.374  33.124  22.324  1.00  0.00     0.000 C 
BRANCH   3   4
ATOM      4  C   UNL     1      63.711  33.766  20.970  1.00  0.00     0.000 C 
BRANCH   4   5
ATOM      5  C   UNL     1      62.639  33.501  19.897  1.00  0.00     0.000 C 
BRANCH   5   6
ATOM      6  C   UNL     1      63.163  33.478  18.450  1.00  0.00     0.000 C 
BRANCH   6   7
ATOM      7  C   UNL     1      62.199  34.139  17.454  1.00  0.00     0.000 C 
BRANCH   7   8
ATOM      8  C   UNL     1      61.090  33.168  17.033  1.00  0.00     0.000 C 
BRANCH   8   9
ATOM      9  C   UNL     1      60.393  33.649  15.754  1.00  0.00     0.000 C 
BRANCH   9  10
ATOM     10  C   UNL     1      59.882  32.464  14.924  1.00  0.00     0.000 C 
BRANCH  10  11
ATOM     11  C   UNL     1      60.218  32.590  13.429  1.00  0.00     0.000 C 
BRANCH  11  12
ATOM     12  C   UNL     1      60.899  31.336  12.837  1.00  0.00     0.006 C 
BRANCH  12  13
ATOM     13  C   UNL     1      59.912  30.446  12.070  1.00  0.00     0.053 C 
BRANCH  13  14
ATOM     14  C   UNL     1      59.713  29.139  12.772  1.00  0.00     0.041 C 
ATOM     15  O   UNL     1      58.865  28.311  12.341  1.00  0.00    -0.550 OA
ATOM     16  O   UNL     1      60.458  28.834  13.906  1.00  0.00    -0.550 OA
ENDBRANCH  13  14
ENDBRANCH  12  13
ENDBRANCH  11  12
ENDBRANCH  10  11
ENDBRANCH   9  10
ENDBRANCH   8   9
ENDBRANCH   7   8
ENDBRANCH   6   7
ENDBRANCH   5   6
ENDBRANCH   4   5
ENDBRANCH   3   4
ENDBRANCH   2   3
ENDBRANCH   1   2
BRANCH   1  17
ATOM     17  C   UNL     1      64.464  29.675  23.702  1.00  0.00     0.000 C 
BRANCH  17  18
ATOM     18  C   UNL     1      65.957  29.476  24.022  1.00  0.00     0.000 C 
BRANCH  18  19
ATOM     19  C   UNL     1      66.316  29.865  25.466  1.00  0.00     0.000 C 
BRANCH  19  20
ATOM     20  C   UNL     1      65.245  29.433  26.485  1.00  0.00     0.000 C 
BRANCH  20  21
ATOM     21  C   UNL     1      65.124  30.332  27.729  1.00  0.00     0.000 C 
BRANCH  21  22
ATOM     22  C   UNL     1      63.675  30.496  28.213  1.00  0.00    -0.000 C 
BRANCH  22  23
ATOM     23  C   UNL     1      62.681  30.091  27.116  1.00  0.00    -0.000 C 
BRANCH  23  24
ATOM     24  C   UNL     1      61.526  29.224  27.648  1.00  0.00    -0.000 C 
BRANCH  24  25
ATOM     25  C   UNL     1      60.996  28.168  26.657  1.00  0.00    -0.000 C 
BRANCH  25  26
ATOM     26  C   UNL     1      61.653  28.194  25.263  1.00  0.00    -0.000 C 
BRANCH  26  27
ATOM     27  C   UNL     1      62.299  26.867  24.820  1.00  0.00    -0.000 C 
BRANCH  27  28
ATOM     28  C   UNL     1      63.395  26.332  25.760  1.00  0.00    -0.000 C 
BRANCH  28  29
ATOM     29  C   UNL     1      64.749  26.156  25.059  1.00  0.00    -0.003 C 
ATOM     30  C   UNL     1      64.563  25.747  23.601  1.00  0.00     0.004 C 
ENDBRANCH  28  29
ENDBRANCH  27  28
ENDBRANCH  26  27
ENDBRANCH  25  26
ENDBRANCH  24  25
ENDBRANCH  23  24
ENDBRANCH  22  23
ENDBRANCH  21  22
ENDBRANCH  20  21
ENDBRANCH  19  20
ENDBRANCH  18  19
ENDBRANCH  17  18
ENDBRANCH   1  17
TORSDOF 26
ENDMDL
MODEL 6
REMARK VINA RESULT:    -4.392      6.849     12.781
REMARK INTER + INTRA:         -15.221
REMARK INTER:                 -12.025
REMARK INTRA:                  -3.196
REMARK UNBOUND:                -4.154
REMARK SMILES CCCCCCCCCCCCCCCCCCCCCCCCCCCC(=O)[O-]
REMARK SMILES IDX 15 1 16 2 17 3 18 4 19 5 20 6 21 7 22 8 23 9 24 10 25 11
REMARK SMILES IDX 26 12 27 13 28 14 29 15 30 16 14 17 13 18 12 19 11 20 10 21
REMARK SMILES IDX 9 22 8 23 7 24 6 25 5 26 4 27 3 28 2 29 1 30
REMARK H PARENT
REMARK Flexibility Score: inf
ROOT
ATOM      1  C   UNL     1      65.169  29.312  26.492  1.00  0.00     0.000 C 
ENDROOT
BRANCH   1   2
ATOM      2  C   UNL     1      64.334  30.403  27.186  1.00  0.00     0.000 C 
BRANCH   2   3
ATOM      3  C   UNL     1      63.783  29.957  28.548  1.00  0.00     0.000 C 
BRANCH   3   4
ATOM      4  C   UNL     1      62.352  30.473  28.755  1.00  0.00     0.000 C 
BRANCH   4   5
ATOM      5  C   UNL     1      61.313  29.340  28.849  1.00  0.00     0.000 C 
BRANCH   5   6
ATOM      6  C   UNL     1      61.904  27.918  28.838  1.00  0.00     0.000 C 
BRANCH   6   7
ATOM      7  C   UNL     1      62.114  27.368  27.420  1.00  0.00     0.000 C 
BRANCH   7   8
ATOM      8  C   UNL     1      60.776  27.002  26.767  1.00  0.00     0.000 C 
BRANCH   8   9
ATOM      9  C   UNL     1      60.428  27.981  25.638  1.00  0.00     0.000 C 
BRANCH   9  10
ATOM     10  C   UNL     1      61.670  28.755  25.175  1.00  0.00     0.000 C 
BRANCH  10  11
ATOM     11  C   UNL     1      62.236  28.238  23.842  1.00  0.00     0.000 C 
BRANCH  11  12
ATOM     12  C   UNL     1      62.784  26.797  23.917  1.00  0.00     0.006 C 
BRANCH  12  13
ATOM     13  C   UNL     1      63.699  26.460  22.731  1.00  0.00     0.053 C 
BRANCH  13  14
ATOM     14  C   UNL     1      64.996  25.882  23.204  1.00  0.00     0.041 C 
ATOM     15  O   UNL     1      65.209  25.727  24.437  1.00  0.00    -0.550 OA
ATOM     16  O   UNL     1      65.975  25.517  22.285  1.00  0.00    -0.550 OA
ENDBRANCH  13  14
ENDBRANCH  12  13
ENDBRANCH  11  12
ENDBRANCH  10  11
ENDBRANCH   9  10
ENDBRANCH   8   9
ENDBRANCH   7   8
ENDBRANCH   6   7
ENDBRANCH   5   6
ENDBRANCH   4   5
ENDBRANCH   3   4
ENDBRANCH   2   3
ENDBRANCH   1   2
BRANCH   1  17
ATOM     17  C   UNL     1      66.593  29.741  26.079  1.00  0.00     0.000 C 
BRANCH  17  18
ATOM     18  C   UNL     1      66.935  29.544  24.591  1.00  0.00     0.000 C 
BRANCH  18  19
ATOM     19  C   UNL     1      65.688  29.499  23.692  1.00  0.00     0.000 C 
BRANCH  19  20
ATOM     20  C   UNL     1      65.348  30.868  23.073  1.00  0.00     0.000 C 
BRANCH  20  21
ATOM     21  C   UNL     1      64.030  31.498  23.558  1.00  0.00     0.000 C 
BRANCH  21  22
ATOM     22  C   UNL     1      63.580  32.689  22.697  1.00  0.00    -0.000 C 
BRANCH  22  23
ATOM     23  C   UNL     1      64.603  32.984  21.591  1.00  0.00    -0.000 C 
BRANCH  23  24
ATOM     24  C   UNL     1      64.141  34.095  20.632  1.00  0.00    -0.000 C 
BRANCH  24  25
ATOM     25  C   UNL     1      63.365  33.603  19.394  1.00  0.00    -0.000 C 
BRANCH  25  26
ATOM     26  C   UNL     1      61.834  33.550  19.562  1.00  0.00    -0.000 C 
BRANCH  26  27
ATOM     27  C   UNL     1      61.025  33.919  18.302  1.00  0.00    -0.000 C 
BRANCH  27  28
ATOM     28  C   UNL     1      61.194  32.953  17.116  1.00  0.00    -0.000 C 
BRANCH  28  29
ATOM     29  C   UNL     1      61.744  33.641  15.859  1.00  0.00    -0.003 C 
ATOM     30  C   UNL     1      61.453  32.815  14.609  1.00  0.00     0.004 C 
ENDBRANCH  28  29
ENDBRANCH  27  28
ENDBRANCH  26  27
ENDBRANCH  25  26
ENDBRANCH  24  25
ENDBRANCH  23  24
ENDBRANCH  22  23
ENDBRANCH  21  22
ENDBRANCH  20  21
ENDBRANCH  19  20
ENDBRANCH  18  19
ENDBRANCH  17  18
ENDBRANCH   1  17
TORSDOF 26
ENDMDL
MODEL 7
REMARK VINA RESULT:    -4.352      5.728     10.205
REMARK INTER + INTRA:         -15.121
REMARK INTER:                 -12.755
REMARK INTRA:                  -2.366
REMARK UNBOUND:                -4.154
REMARK SMILES CCCCCCCCCCCCCCCCCCCCCCCCCCCC(=O)[O-]
REMARK SMILES IDX 15 1 16 2 17 3 18 4 19 5 20 6 21 7 22 8 23 9 24 10 25 11
REMARK SMILES IDX 26 12 27 13 28 14 29 15 30 16 14 17 13 18 12 19 11 20 10 21
REMARK SMILES IDX 9 22 8 23 7 24 6 25 5 26 4 27 3 28 2 29 1 30
REMARK H PARENT
REMARK Flexibility Score: inf
ROOT
ATOM      1  C   UNL     1      65.669  32.075  22.393  1.00  0.00     0.000 C 
ENDROOT
BRANCH   1   2
ATOM      2  C   UNL     1      64.164  32.346  22.573  1.00  0.00     0.000 C 
BRANCH   2   3
ATOM      3  C   UNL     1      63.638  33.441  21.634  1.00  0.00     0.000 C 
BRANCH   3   4
ATOM      4  C   UNL     1      64.590  33.647  20.447  1.00  0.00     0.000 C 
BRANCH   4   5
ATOM      5  C   UNL     1      63.853  33.977  19.136  1.00  0.00     0.000 C 
BRANCH   5   6
ATOM      6  C   UNL     1      62.392  33.497  19.077  1.00  0.00     0.000 C 
BRANCH   6   7
ATOM      7  C   UNL     1      61.614  34.090  17.893  1.00  0.00     0.000 C 
BRANCH   7   8
ATOM      8  C   UNL     1      62.199  33.617  16.557  1.00  0.00     0.000 C 
BRANCH   8   9
ATOM      9  C   UNL     1      61.262  32.617  15.869  1.00  0.00     0.000 C 
BRANCH   9  10
ATOM     10  C   UNL     1      60.298  33.330  14.912  1.00  0.00     0.000 C 
BRANCH  10  11
ATOM     11  C   UNL     1      60.217  32.658  13.531  1.00  0.00     0.000 C 
BRANCH  11  12
ATOM     12  C   UNL     1      59.458  31.313  13.539  1.00  0.00     0.006 C 
BRANCH  12  13
ATOM     13  C   UNL     1      60.287  30.173  12.932  1.00  0.00     0.053 C 
BRANCH  13  14
ATOM     14  C   UNL     1      59.433  29.288  12.078  1.00  0.00     0.041 C 
ATOM     15  O   UNL     1      59.272  29.551  10.855  1.00  0.00    -0.550 OA
ATOM     16  O   UNL     1      58.811  28.173  12.630  1.00  0.00    -0.550 OA
ENDBRANCH  13  14
ENDBRANCH  12  13
ENDBRANCH  11  12
ENDBRANCH  10  11
ENDBRANCH   9  10
ENDBRANCH   8   9
ENDBRANCH   7   8
ENDBRANCH   6   7
ENDBRANCH   5   6
ENDBRANCH   4   5
ENDBRANCH   3   4
ENDBRANCH   2   3
ENDBRANCH   1   2
BRANCH   1  17
ATOM     17  C   UNL     1      66.136  30.666  22.812  1.00  0.00     0.000 C 
BRANCH  17  18
ATOM     18  C   UNL     1      66.521  30.514  24.295  1.00  0.00     0.000 C 
BRANCH  18  19
ATOM     19  C   UNL     1      66.454  29.057  24.783  1.00  0.00     0.000 C 
BRANCH  19  20
ATOM     20  C   UNL     1      65.797  28.112  23.759  1.00  0.00     0.000 C 
BRANCH  20  21
ATOM     21  C   UNL     1      64.391  27.611  24.137  1.00  0.00     0.000 C 
BRANCH  21  22
ATOM     22  C   UNL     1      63.275  28.581  23.716  1.00  0.00    -0.000 C 
BRANCH  22  23
ATOM     23  C   UNL     1      61.902  27.897  23.780  1.00  0.00    -0.000 C 
BRANCH  23  24
ATOM     24  C   UNL     1      61.086  28.311  25.017  1.00  0.00    -0.000 C 
BRANCH  24  25
ATOM     25  C   UNL     1      60.486  27.141  25.822  1.00  0.00    -0.000 C 
BRANCH  25  26
ATOM     26  C   UNL     1      60.797  27.158  27.331  1.00  0.00    -0.000 C 
BRANCH  26  27
ATOM     27  C   UNL     1      62.004  28.028  27.738  1.00  0.00    -0.000 C 
BRANCH  27  28
ATOM     28  C   UNL     1      61.648  29.310  28.512  1.00  0.00    -0.000 C 
BRANCH  28  29
ATOM     29  C   UNL     1      62.654  30.446  28.279  1.00  0.00    -0.003 C 
ATOM     30  C   UNL     1      63.518  30.170  27.052  1.00  0.00     0.004 C 
ENDBRANCH  28  29
ENDBRANCH  27  28
ENDBRANCH  26  27
ENDBRANCH  25  26
ENDBRANCH  24  25
ENDBRANCH  23  24
ENDBRANCH  22  23
ENDBRANCH  21  22
ENDBRANCH  20  21
ENDBRANCH  19  20
ENDBRANCH  18  19
ENDBRANCH  17  18
ENDBRANCH   1  17
TORSDOF 26
ENDMDL
MODEL 8
REMARK VINA RESULT:    -4.324      1.629      5.361
REMARK INTER + INTRA:         -15.049
REMARK INTER:                 -10.771
REMARK INTRA:                  -4.278
REMARK UNBOUND:                -4.154
REMARK SMILES CCCCCCCCCCCCCCCCCCCCCCCCCCCC(=O)[O-]
REMARK SMILES IDX 15 1 16 2 17 3 18 4 19 5 20 6 21 7 22 8 23 9 24 10 25 11
REMARK SMILES IDX 26 12 27 13 28 14 29 15 30 16 14 17 13 18 12 19 11 20 10 21
REMARK SMILES IDX 9 22 8 23 7 24 6 25 5 26 4 27 3 28 2 29 1 30
REMARK H PARENT
REMARK Flexibility Score: inf
ROOT
ATOM      1  C   UNL     1      63.023  30.340  10.639  1.00  0.00     0.000 C 
ENDROOT
BRANCH   1   2
ATOM      2  C   UNL     1      63.980  31.541  10.744  1.00  0.00     0.000 C 
BRANCH   2   3
ATOM      3  C   UNL     1      64.950  31.637   9.558  1.00  0.00     0.000 C 
BRANCH   3   4
ATOM      4  C   UNL     1      66.245  32.353   9.966  1.00  0.00     0.000 C 
BRANCH   4   5
ATOM      5  C   UNL     1      66.015  33.458  11.014  1.00  0.00     0.000 C 
BRANCH   5   6
ATOM      6  C   UNL     1      67.125  33.588  12.071  1.00  0.00     0.000 C 
BRANCH   6   7
ATOM      7  C   UNL     1      66.582  33.902  13.473  1.00  0.00     0.000 C 
BRANCH   7   8
ATOM      8  C   UNL     1      65.269  33.157  13.736  1.00  0.00     0.000 C 
BRANCH   8   9
ATOM      9  C   UNL     1      65.356  32.320  15.018  1.00  0.00     0.000 C 
BRANCH   9  10
ATOM     10  C   UNL     1      65.311  33.213  16.265  1.00  0.00     0.000 C 
BRANCH  10  11
ATOM     11  C   UNL     1      64.257  34.328  16.167  1.00  0.00     0.000 C 
BRANCH  11  12
ATOM     12  C   UNL     1      63.072  34.150  17.141  1.00  0.00     0.006 C 
BRANCH  12  13
ATOM     13  C   UNL     1      63.390  33.161  18.271  1.00  0.00     0.053 C 
BRANCH  13  14
ATOM     14  C   UNL     1      63.559  33.875  19.575  1.00  0.00     0.041 C 
ATOM     15  O   UNL     1      62.882  33.526  20.581  1.00  0.00    -0.550 OA
ATOM     16  O   UNL     1      64.459  34.930  19.683  1.00  0.00    -0.550 OA
ENDBRANCH  13  14
ENDBRANCH  12  13
ENDBRANCH  11  12
ENDBRANCH  10  11
ENDBRANCH   9  10
ENDBRANCH   8   9
ENDBRANCH   7   8
ENDBRANCH   6   7
ENDBRANCH   5   6
ENDBRANCH   4   5
ENDBRANCH   3   4
ENDBRANCH   2   3
ENDBRANCH   1   2
BRANCH   1  17
ATOM     17  C   UNL     1      63.218  29.453   9.392  1.00  0.00     0.000 C 
BRANCH  17  18
ATOM     18  C   UNL     1      61.994  28.613   8.983  1.00  0.00     0.000 C 
BRANCH  18  19
ATOM     19  C   UNL     1      60.675  29.399   9.065  1.00  0.00     0.000 C 
BRANCH  19  20
ATOM     20  C   UNL     1      59.669  28.777  10.052  1.00  0.00     0.000 C 
BRANCH  20  21
ATOM     21  C   UNL     1      60.295  28.048  11.254  1.00  0.00     0.000 C 
BRANCH  21  22
ATOM     22  C   UNL     1      59.536  28.294  12.568  1.00  0.00    -0.000 C 
BRANCH  22  23
ATOM     23  C   UNL     1      60.489  28.241  13.770  1.00  0.00    -0.000 C 
BRANCH  23  24
ATOM     24  C   UNL     1      61.970  28.333  13.361  1.00  0.00    -0.000 C 
BRANCH  24  25
ATOM     25  C   UNL     1      62.679  29.639  13.776  1.00  0.00    -0.000 C 
BRANCH  25  26
ATOM     26  C   UNL     1      62.295  30.175  15.169  1.00  0.00    -0.000 C 
BRANCH  26  27
ATOM     27  C   UNL     1      61.574  31.537  15.169  1.00  0.00    -0.000 C 
BRANCH  27  28
ATOM     28  C   UNL     1      61.727  32.353  13.873  1.00  0.00    -0.000 C 
BRANCH  28  29
ATOM     29  C   UNL     1      60.379  32.758  13.259  1.00  0.00    -0.003 C 
ATOM     30  C   UNL     1      59.350  31.641  13.412  1.00  0.00     0.004 C 
ENDBRANCH  28  29
ENDBRANCH  27  28
ENDBRANCH  26  27
ENDBRANCH  25  26
ENDBRANCH  24  25
ENDBRANCH  23  24
ENDBRANCH  22  23
ENDBRANCH  21  22
ENDBRANCH  20  21
ENDBRANCH  19  20
ENDBRANCH  18  19
ENDBRANCH  17  18
ENDBRANCH   1  17
TORSDOF 26
ENDMDL
MODEL 9
REMARK VINA RESULT:    -4.310      5.267     11.191
REMARK INTER + INTRA:         -15.014
REMARK INTER:                 -12.476
REMARK INTRA:                  -2.538
REMARK UNBOUND:                -4.154
REMARK SMILES CCCCCCCCCCCCCCCCCCCCCCCCCCCC(=O)[O-]
REMARK SMILES IDX 15 1 16 2 17 3 18 4 19 5 20 6 21 7 22 8 23 9 24 10 25 11
REMARK SMILES IDX 26 12 27 13 28 14 29 15 30 16 14 17 13 18 12 19 11 20 10 21
REMARK SMILES IDX 9 22 8 23 7 24 6 25 5 26 4 27 3 28 2 29 1 30
REMARK H PARENT
REMARK Flexibility Score: inf
ROOT
ATOM      1  C   UNL     1      64.313  32.503  22.377  1.00  0.00     0.000 C 
ENDROOT
BRANCH   1   2
ATOM      2  C   UNL     1      65.801  32.456  21.986  1.00  0.00     0.000 C 
BRANCH   2   3
ATOM      3  C   UNL     1      66.475  31.128  22.360  1.00  0.00     0.000 C 
BRANCH   3   4
ATOM      4  C   UNL     1      65.715  30.430  23.498  1.00  0.00     0.000 C 
BRANCH   4   5
ATOM      5  C   UNL     1      66.571  29.388  24.241  1.00  0.00     0.000 C 
BRANCH   5   6
ATOM      6  C   UNL     1      66.018  28.955  25.610  1.00  0.00     0.000 C 
BRANCH   6   7
ATOM      7  C   UNL     1      65.015  29.960  26.197  1.00  0.00     0.000 C 
BRANCH   7   8
ATOM      8  C   UNL     1      63.610  29.353  26.280  1.00  0.00     0.000 C 
BRANCH   8   9
ATOM      9  C   UNL     1      62.626  30.116  25.384  1.00  0.00     0.000 C 
BRANCH   9  10
ATOM     10  C   UNL     1      61.431  29.234  25.000  1.00  0.00     0.000 C 
BRANCH  10  11
ATOM     11  C   UNL     1      61.852  27.875  24.417  1.00  0.00     0.000 C 
BRANCH  11  12
ATOM     12  C   UNL     1      62.699  27.986  23.131  1.00  0.00     0.006 C 
BRANCH  12  13
ATOM     13  C   UNL     1      63.913  27.046  23.151  1.00  0.00     0.053 C 
BRANCH  13  14
ATOM     14  C   UNL     1      63.695  25.911  24.103  1.00  0.00     0.041 C 
ATOM     15  O   UNL     1      63.014  24.911  23.750  1.00  0.00    -0.550 OA
ATOM     16  O   UNL     1      64.240  25.957  25.381  1.00  0.00    -0.550 OA
ENDBRANCH  13  14
ENDBRANCH  12  13
ENDBRANCH  11  12
ENDBRANCH  10  11
ENDBRANCH   9  10
ENDBRANCH   8   9
ENDBRANCH   7   8
ENDBRANCH   6   7
ENDBRANCH   5   6
ENDBRANCH   4   5
ENDBRANCH   3   4
ENDBRANCH   2   3
ENDBRANCH   1   2
BRANCH   1  17
ATOM     17  C   UNL     1      63.451  33.483  21.555  1.00  0.00     0.000 C 
BRANCH  17  18
ATOM     18  C   UNL     1      64.053  33.921  20.208  1.00  0.00     0.000 C 
BRANCH  18  19
ATOM     19  C   UNL     1      63.199  33.492  19.003  1.00  0.00     0.000 C 
BRANCH  19  20
ATOM     20  C   UNL     1      61.687  33.609  19.270  1.00  0.00     0.000 C 
BRANCH  20  21
ATOM     21  C   UNL     1      60.802  33.671  18.012  1.00  0.00     0.000 C 
BRANCH  21  22
ATOM     22  C   UNL     1      61.361  32.844  16.843  1.00  0.00    -0.000 C 
BRANCH  22  23
ATOM     23  C   UNL     1      60.810  33.349  15.501  1.00  0.00    -0.000 C 
BRANCH  23  24
ATOM     24  C   UNL     1      61.447  32.643  14.291  1.00  0.00    -0.000 C 
BRANCH  24  25
ATOM     25  C   UNL     1      60.446  32.150  13.227  1.00  0.00    -0.000 C 
BRANCH  25  26
ATOM     26  C   UNL     1      59.885  30.734  13.465  1.00  0.00    -0.000 C 
BRANCH  26  27
ATOM     27  C   UNL     1      60.839  29.768  14.196  1.00  0.00    -0.000 C 
BRANCH  27  28
ATOM     28  C   UNL     1      61.285  28.548  13.371  1.00  0.00    -0.000 C 
BRANCH  28  29
ATOM     29  C   UNL     1      60.961  28.687  11.876  1.00  0.00    -0.003 C 
ATOM     30  C   UNL     1      62.219  28.997  11.070  1.00  0.00     0.004 C 
ENDBRANCH  28  29
ENDBRANCH  27  28
ENDBRANCH  26  27
ENDBRANCH  25  26
ENDBRANCH  24  25
ENDBRANCH  23  24
ENDBRANCH  22  23
ENDBRANCH  21  22
ENDBRANCH  20  21
ENDBRANCH  19  20
ENDBRANCH  18  19
ENDBRANCH  17  18
ENDBRANCH   1  17
TORSDOF 26
ENDMDL
