MODEL 1
REMARK VINA RESULT:     7.624      0.000      0.000
REMARK INTER + INTRA:          13.332
REMARK INTER:                  13.419
REMARK INTRA:                  -0.087
REMARK UNBOUND:                -0.087
REMARK SMILES CCCCCCCCCCCCCCC(=O)[O-]
REMARK SMILES IDX 9 1 10 2 11 3 12 4 13 5 14 6 15 7 16 8 17 9 8 10 7 11 6 12
REMARK SMILES IDX 5 13 4 14 3 15 2 16 1 17
REMARK H PARENT
REMARK Flexibility Score: inf
ROOT
ATOM      1  C   UNL     1     -18.827  22.795  18.449  1.00  0.00     0.000 C 
ENDROOT
BRANCH   1   2
ATOM      2  C   UNL     1     -18.151  24.122  18.071  1.00  0.00     0.000 C 
BRANCH   2   3
ATOM      3  C   UNL     1     -19.050  25.022  17.211  1.00  0.00     0.000 C 
BRANCH   3   4
ATOM      4  C   UNL     1     -18.223  26.089  16.484  1.00  0.00     0.000 C 
BRANCH   4   5
ATOM      5  C   UNL     1     -17.031  25.457  15.750  1.00  0.00     0.006 C 
BRANCH   5   6
ATOM      6  C   UNL     1     -15.704  26.146  16.097  1.00  0.00     0.053 C 
BRANCH   6   7
ATOM      7  C   UNL     1     -14.865  25.307  17.011  1.00  0.00     0.041 C 
ATOM      8  O   UNL     1     -14.901  25.494  18.256  1.00  0.00    -0.550 OA
ATOM      9  O   UNL     1     -14.019  24.339  16.485  1.00  0.00    -0.550 OA
ENDBRANCH   6   7
ENDBRANCH   5   6
ENDBRANCH   4   5
ENDBRANCH   3   4
ENDBRANCH   2   3
ENDBRANCH   1   2
BRANCH   1  10
ATOM     10  C   UNL     1     -19.033  22.643  19.966  1.00  0.00     0.000 C 
BRANCH  10  11
ATOM     11  C   UNL     1     -19.125  21.164  20.399  1.00  0.00    -0.000 C 
BRANCH  11  12
ATOM     12  C   UNL     1     -18.337  20.844  21.684  1.00  0.00    -0.000 C 
BRANCH  12  13
ATOM     13  C   UNL     1     -17.545  19.525  21.645  1.00  0.00    -0.000 C 
BRANCH  13  14
ATOM     14  C   UNL     1     -18.401  18.263  21.422  1.00  0.00    -0.000 C 
BRANCH  14  15
ATOM     15  C   UNL     1     -19.123  18.235  20.058  1.00  0.00    -0.000 C 
BRANCH  15  16
ATOM     16  C   UNL     1     -19.031  16.862  19.376  1.00  0.00    -0.003 C 
ATOM     17  C   UNL     1     -18.933  17.003  17.861  1.00  0.00     0.004 C 
ENDBRANCH  15  16
ENDBRANCH  14  15
ENDBRANCH  13  14
ENDBRANCH  12  13
ENDBRANCH  11  12
ENDBRANCH  10  11
ENDBRANCH   1  10
TORSDOF 13
ENDMDL
MODEL 2
REMARK VINA RESULT:     9.579      1.680      2.347
REMARK INTER + INTRA:          16.772
REMARK INTER:                  17.254
REMARK INTRA:                  -0.482
REMARK UNBOUND:                -0.087
REMARK SMILES CCCCCCCCCCCCCCC(=O)[O-]
REMARK SMILES IDX 9 1 10 2 11 3 12 4 13 5 14 6 15 7 16 8 17 9 8 10 7 11 6 12
REMARK SMILES IDX 5 13 4 14 3 15 2 16 1 17
REMARK H PARENT
REMARK Flexibility Score: inf
ROOT
ATOM      1  C   UNL     1     -17.951  23.450  18.084  1.00  0.00     0.000 C 
ENDROOT
BRANCH   1   2
ATOM      2  C   UNL     1     -18.039  24.981  18.006  1.00  0.00     0.000 C 
BRANCH   2   3
ATOM      3  C   UNL     1     -18.969  25.466  16.884  1.00  0.00     0.000 C 
BRANCH   3   4
ATOM      4  C   UNL     1     -18.218  26.378  15.905  1.00  0.00     0.000 C 
BRANCH   4   5
ATOM      5  C   UNL     1     -16.863  25.768  15.513  1.00  0.00     0.006 C 
BRANCH   5   6
ATOM      6  C   UNL     1     -15.710  26.325  16.359  1.00  0.00     0.053 C 
BRANCH   6   7
ATOM      7  C   UNL     1     -14.607  25.324  16.519  1.00  0.00     0.041 C 
ATOM      8  O   UNL     1     -13.704  25.229  15.646  1.00  0.00    -0.550 OA
ATOM      9  O   UNL     1     -14.592  24.475  17.618  1.00  0.00    -0.550 OA
ENDBRANCH   6   7
ENDBRANCH   5   6
ENDBRANCH   4   5
ENDBRANCH   3   4
ENDBRANCH   2   3
ENDBRANCH   1   2
BRANCH   1  10
ATOM     10  C   UNL     1     -19.109  22.827  18.883  1.00  0.00     0.000 C 
BRANCH  10  11
ATOM     11  C   UNL     1     -19.125  21.286  18.785  1.00  0.00    -0.000 C 
BRANCH  11  12
ATOM     12  C   UNL     1     -19.111  20.578  20.153  1.00  0.00    -0.000 C 
BRANCH  12  13
ATOM     13  C   UNL     1     -18.690  21.468  21.336  1.00  0.00    -0.000 C 
BRANCH  13  14
ATOM     14  C   UNL     1     -17.860  20.754  22.421  1.00  0.00    -0.000 C 
BRANCH  14  15
ATOM     15  C   UNL     1     -17.847  19.217  22.282  1.00  0.00    -0.000 C 
BRANCH  15  16
ATOM     16  C   UNL     1     -16.734  18.564  23.113  1.00  0.00    -0.003 C 
ATOM     17  C   UNL     1     -15.614  18.040  22.221  1.00  0.00     0.004 C 
ENDBRANCH  15  16
ENDBRANCH  14  15
ENDBRANCH  13  14
ENDBRANCH  12  13
ENDBRANCH  11  12
ENDBRANCH  10  11
ENDBRANCH   1  10
TORSDOF 13
ENDMDL
MODEL 3
REMARK VINA RESULT:    10.245      6.140      7.670
REMARK INTER + INTRA:          17.945
REMARK INTER:                  18.569
REMARK INTRA:                  -0.625
REMARK UNBOUND:                -0.087
REMARK SMILES CCCCCCCCCCCCCCC(=O)[O-]
REMARK SMILES IDX 9 1 10 2 11 3 12 4 13 5 14 6 15 7 16 8 17 9 8 10 7 11 6 12
REMARK SMILES IDX 5 13 4 14 3 15 2 16 1 17
REMARK H PARENT
REMARK Flexibility Score: inf
ROOT
ATOM      1  C   UNL     1     -17.684  17.058  15.841  1.00  0.00     0.000 C 
ENDROOT
BRANCH   1   2
ATOM      2  C   UNL     1     -18.155  18.447  15.386  1.00  0.00     0.000 C 
BRANCH   2   3
ATOM      3  C   UNL     1     -19.106  18.387  14.181  1.00  0.00     0.000 C 
BRANCH   3   4
ATOM      4  C   UNL     1     -18.834  17.142  13.329  1.00  0.00     0.000 C 
BRANCH   4   5
ATOM      5  C   UNL     1     -18.910  17.472  11.831  1.00  0.00     0.006 C 
BRANCH   5   6
ATOM      6  C   UNL     1     -17.551  17.325  11.135  1.00  0.00     0.053 C 
BRANCH   6   7
ATOM      7  C   UNL     1     -17.668  16.579   9.841  1.00  0.00     0.041 C 
ATOM      8  O   UNL     1     -17.291  15.380   9.764  1.00  0.00    -0.550 OA
ATOM      9  O   UNL     1     -18.164  17.218   8.712  1.00  0.00    -0.550 OA
ENDBRANCH   6   7
ENDBRANCH   5   6
ENDBRANCH   4   5
ENDBRANCH   3   4
ENDBRANCH   2   3
ENDBRANCH   1   2
BRANCH   1  10
ATOM     10  C   UNL     1     -18.457  16.540  17.067  1.00  0.00     0.000 C 
BRANCH  10  11
ATOM     11  C   UNL     1     -19.120  17.683  17.865  1.00  0.00    -0.000 C 
BRANCH  11  12
ATOM     12  C   UNL     1     -18.289  18.157  19.074  1.00  0.00    -0.000 C 
BRANCH  12  13
ATOM     13  C   UNL     1     -19.103  18.423  20.352  1.00  0.00    -0.000 C 
BRANCH  13  14
ATOM     14  C   UNL     1     -18.790  19.759  21.055  1.00  0.00    -0.000 C 
BRANCH  14  15
ATOM     15  C   UNL     1     -17.890  19.609  22.300  1.00  0.00    -0.000 C 
BRANCH  15  16
ATOM     16  C   UNL     1     -16.680  18.701  22.041  1.00  0.00    -0.003 C 
ATOM     17  C   UNL     1     -16.608  17.571  23.063  1.00  0.00     0.004 C 
ENDBRANCH  15  16
ENDBRANCH  14  15
ENDBRANCH  13  14
ENDBRANCH  12  13
ENDBRANCH  11  12
ENDBRANCH  10  11
ENDBRANCH   1  10
TORSDOF 13
ENDMDL
