MODEL 1
REMARK VINA RESULT:    -4.276      0.000      0.000
REMARK INTER + INTRA:          -7.535
REMARK INTER:                  -6.526
REMARK INTRA:                  -1.009
REMARK UNBOUND:                -1.009
REMARK SMILES CCCCCCCCCCC(=O)[O-]
REMARK SMILES IDX 7 1 8 2 9 3 10 4 11 5 12 6 13 7 6 8 5 9 4 10 3 11 2 12 1 13
REMARK H PARENT
REMARK Flexibility Score: inf
ROOT
ATOM      1  C   UNL     1      14.465 -32.838  21.107  1.00  0.00     0.000 C 
ENDROOT
BRANCH   1   2
ATOM      2  C   UNL     1      14.942 -33.375  22.465  1.00  0.00     0.000 C 
BRANCH   2   3
ATOM      3  C   UNL     1      15.061 -32.239  23.492  1.00  0.00     0.006 C 
BRANCH   3   4
ATOM      4  C   UNL     1      13.697 -31.640  23.858  1.00  0.00     0.053 C 
BRANCH   4   5
ATOM      5  C   UNL     1      13.658 -30.160  23.625  1.00  0.00     0.041 C 
ATOM      6  O   UNL     1      14.700 -29.548  23.275  1.00  0.00    -0.550 OA
ATOM      7  O   UNL     1      12.479 -29.455  23.830  1.00  0.00    -0.550 OA
ENDBRANCH   4   5
ENDBRANCH   3   4
ENDBRANCH   2   3
ENDBRANCH   1   2
BRANCH   1   8
ATOM      8  C   UNL     1      14.633 -33.861  19.971  1.00  0.00     0.000 C 
BRANCH   8   9
ATOM      9  C   UNL     1      15.627 -34.980  20.326  1.00  0.00    -0.000 C 
BRANCH   9  10
ATOM     10  C   UNL     1      16.800 -35.074  19.334  1.00  0.00    -0.000 C 
BRANCH  10  11
ATOM     11  C   UNL     1      17.628 -33.782  19.170  1.00  0.00    -0.000 C 
BRANCH  11  12
ATOM     12  C   UNL     1      18.215 -33.215  20.474  1.00  0.00    -0.003 C 
ATOM     13  C   UNL     1      17.912 -31.730  20.666  1.00  0.00     0.004 C 
ENDBRANCH  11  12
ENDBRANCH  10  11
ENDBRANCH   9  10
ENDBRANCH   8   9
ENDBRANCH   1   8
TORSDOF 9
ENDMDL
MODEL 2
REMARK VINA RESULT:    -4.177      3.719      5.926
REMARK INTER + INTRA:          -7.383
REMARK INTER:                  -6.778
REMARK INTRA:                  -0.605
REMARK UNBOUND:                -1.009
REMARK SMILES CCCCCCCCCCC(=O)[O-]
REMARK SMILES IDX 7 1 8 2 9 3 10 4 11 5 12 6 13 7 6 8 5 9 4 10 3 11 2 12 1 13
REMARK H PARENT
REMARK Flexibility Score: inf
ROOT
ATOM      1  C   UNL     1      14.536 -32.551  21.176  1.00  0.00     0.000 C 
ENDROOT
BRANCH   1   2
ATOM      2  C   UNL     1      14.656 -33.761  20.238  1.00  0.00     0.000 C 
BRANCH   2   3
ATOM      3  C   UNL     1      15.651 -34.790  20.795  1.00  0.00     0.006 C 
BRANCH   3   4
ATOM      4  C   UNL     1      16.089 -35.809  19.734  1.00  0.00     0.053 C 
BRANCH   4   5
ATOM      5  C   UNL     1      17.283 -36.598  20.179  1.00  0.00     0.041 C 
ATOM      6  O   UNL     1      17.793 -37.458  19.414  1.00  0.00    -0.550 OA
ATOM      7  O   UNL     1      17.809 -36.407  21.450  1.00  0.00    -0.550 OA
ENDBRANCH   4   5
ENDBRANCH   3   4
ENDBRANCH   2   3
ENDBRANCH   1   2
BRANCH   1   8
ATOM      8  C   UNL     1      13.461 -31.550  20.721  1.00  0.00     0.000 C 
BRANCH   8   9
ATOM      9  C   UNL     1      12.654 -30.976  21.898  1.00  0.00    -0.000 C 
BRANCH   9  10
ATOM     10  C   UNL     1      13.450 -30.954  23.215  1.00  0.00    -0.000 C 
BRANCH  10  11
ATOM     11  C   UNL     1      14.259 -29.667  23.473  1.00  0.00    -0.000 C 
BRANCH  11  12
ATOM     12  C   UNL     1      15.764 -29.771  23.167  1.00  0.00    -0.003 C 
ATOM     13  C   UNL     1      16.150 -29.107  21.846  1.00  0.00     0.004 C 
ENDBRANCH  11  12
ENDBRANCH  10  11
ENDBRANCH   9  10
ENDBRANCH   8   9
ENDBRANCH   1   8
TORSDOF 9
ENDMDL
MODEL 3
REMARK VINA RESULT:    -4.153      3.274      5.209
REMARK INTER + INTRA:          -7.347
REMARK INTER:                  -6.230
REMARK INTRA:                  -1.117
REMARK UNBOUND:                -1.009
REMARK SMILES CCCCCCCCCCC(=O)[O-]
REMARK SMILES IDX 7 1 8 2 9 3 10 4 11 5 12 6 13 7 6 8 5 9 4 10 3 11 2 12 1 13
REMARK H PARENT
REMARK Flexibility Score: inf
ROOT
ATOM      1  C   UNL     1      13.877 -32.234  21.073  1.00  0.00     0.000 C 
ENDROOT
BRANCH   1   2
ATOM      2  C   UNL     1      14.690 -33.160  21.991  1.00  0.00     0.000 C 
BRANCH   2   3
ATOM      3  C   UNL     1      15.234 -34.366  21.211  1.00  0.00     0.006 C 
BRANCH   3   4
ATOM      4  C   UNL     1      15.518 -34.028  19.741  1.00  0.00     0.053 C 
BRANCH   4   5
ATOM      5  C   UNL     1      16.755 -34.711  19.241  1.00  0.00     0.041 C 
ATOM      6  O   UNL     1      17.699 -34.034  18.756  1.00  0.00    -0.550 OA
ATOM      7  O   UNL     1      16.849 -36.096  19.280  1.00  0.00    -0.550 OA
ENDBRANCH   4   5
ENDBRANCH   3   4
ENDBRANCH   2   3
ENDBRANCH   1   2
BRANCH   1   8
ATOM      8  C   UNL     1      13.339 -30.994  21.805  1.00  0.00     0.000 C 
BRANCH   8   9
ATOM      9  C   UNL     1      13.997 -30.789  23.180  1.00  0.00    -0.000 C 
BRANCH   9  10
ATOM     10  C   UNL     1      15.028 -29.646  23.185  1.00  0.00    -0.000 C 
BRANCH  10  11
ATOM     11  C   UNL     1      16.490 -30.079  22.948  1.00  0.00    -0.000 C 
BRANCH  11  12
ATOM     12  C   UNL     1      17.025 -29.819  21.529  1.00  0.00    -0.003 C 
ATOM     13  C   UNL     1      17.590 -31.075  20.867  1.00  0.00     0.004 C 
ENDBRANCH  11  12
ENDBRANCH  10  11
ENDBRANCH   9  10
ENDBRANCH   8   9
ENDBRANCH   1   8
TORSDOF 9
ENDMDL
MODEL 4
REMARK VINA RESULT:    -4.143      5.435      6.999
REMARK INTER + INTRA:          -7.332
REMARK INTER:                  -6.722
REMARK INTRA:                  -0.610
REMARK UNBOUND:                -1.009
REMARK SMILES CCCCCCCCCCC(=O)[O-]
REMARK SMILES IDX 7 1 8 2 9 3 10 4 11 5 12 6 13 7 6 8 5 9 4 10 3 11 2 12 1 13
REMARK H PARENT
REMARK Flexibility Score: inf
ROOT
ATOM      1  C   UNL     1      16.858 -34.839  24.491  1.00  0.00     0.000 C 
ENDROOT
BRANCH   1   2
ATOM      2  C   UNL     1      18.022 -35.280  23.591  1.00  0.00     0.000 C 
BRANCH   2   3
ATOM      3  C   UNL     1      17.562 -35.431  22.134  1.00  0.00     0.006 C 
BRANCH   3   4
ATOM      4  C   UNL     1      16.512 -34.383  21.743  1.00  0.00     0.053 C 
BRANCH   4   5
ATOM      5  C   UNL     1      15.728 -34.801  20.536  1.00  0.00     0.041 C 
ATOM      6  O   UNL     1      16.059 -35.833  19.894  1.00  0.00    -0.550 OA
ATOM      7  O   UNL     1      14.657 -34.033  20.101  1.00  0.00    -0.550 OA
ENDBRANCH   4   5
ENDBRANCH   3   4
ENDBRANCH   2   3
ENDBRANCH   1   2
BRANCH   1   8
ATOM      8  C   UNL     1      16.940 -35.437  25.905  1.00  0.00     0.000 C 
BRANCH   8   9
ATOM      9  C   UNL     1      18.058 -36.484  26.039  1.00  0.00    -0.000 C 
BRANCH   9  10
ATOM     10  C   UNL     1      17.583 -37.784  26.712  1.00  0.00    -0.000 C 
BRANCH  10  11
ATOM     11  C   UNL     1      16.088 -37.819  27.091  1.00  0.00    -0.000 C 
BRANCH  11  12
ATOM     12  C   UNL     1      15.800 -37.814  28.603  1.00  0.00    -0.003 C 
ATOM     13  C   UNL     1      17.070 -37.789  29.451  1.00  0.00     0.004 C 
ENDBRANCH  11  12
ENDBRANCH  10  11
ENDBRANCH   9  10
ENDBRANCH   8   9
ENDBRANCH   1   8
TORSDOF 9
ENDMDL
MODEL 5
REMARK VINA RESULT:    -4.112      1.441      2.531
REMARK INTER + INTRA:          -7.284
REMARK INTER:                  -6.330
REMARK INTRA:                  -0.954
REMARK UNBOUND:                -1.009
REMARK SMILES CCCCCCCCCCC(=O)[O-]
REMARK SMILES IDX 7 1 8 2 9 3 10 4 11 5 12 6 13 7 6 8 5 9 4 10 3 11 2 12 1 13
REMARK H PARENT
REMARK Flexibility Score: inf
ROOT
ATOM      1  C   UNL     1      15.671 -34.714  20.440  1.00  0.00     0.000 C 
ENDROOT
BRANCH   1   2
ATOM      2  C   UNL     1      14.564 -33.723  20.050  1.00  0.00     0.000 C 
BRANCH   2   3
ATOM      3  C   UNL     1      14.303 -32.719  21.183  1.00  0.00     0.006 C 
BRANCH   3   4
ATOM      4  C   UNL     1      13.308 -31.625  20.773  1.00  0.00     0.053 C 
BRANCH   4   5
ATOM      5  C   UNL     1      12.672 -30.975  21.964  1.00  0.00     0.041 C 
ATOM      6  O   UNL     1      13.178 -31.119  23.108  1.00  0.00    -0.550 OA
ATOM      7  O   UNL     1      11.503 -30.241  21.815  1.00  0.00    -0.550 OA
ENDBRANCH   4   5
ENDBRANCH   3   4
ENDBRANCH   2   3
ENDBRANCH   1   2
BRANCH   1   8
ATOM      8  C   UNL     1      16.713 -34.908  19.326  1.00  0.00     0.000 C 
BRANCH   8   9
ATOM      9  C   UNL     1      17.623 -33.681  19.149  1.00  0.00    -0.000 C 
BRANCH   9  10
ATOM     10  C   UNL     1      18.080 -33.076  20.489  1.00  0.00    -0.000 C 
BRANCH  10  11
ATOM     11  C   UNL     1      18.082 -31.535  20.548  1.00  0.00    -0.000 C 
BRANCH  11  12
ATOM     12  C   UNL     1      17.541 -30.932  21.857  1.00  0.00    -0.003 C 
ATOM     13  C   UNL     1      16.593 -29.757  21.624  1.00  0.00     0.004 C 
ENDBRANCH  11  12
ENDBRANCH  10  11
ENDBRANCH   9  10
ENDBRANCH   8   9
ENDBRANCH   1   8
TORSDOF 9
ENDMDL
MODEL 6
REMARK VINA RESULT:    -4.046      1.758      3.154
REMARK INTER + INTRA:          -7.183
REMARK INTER:                  -5.892
REMARK INTRA:                  -1.291
REMARK UNBOUND:                -1.009
REMARK SMILES CCCCCCCCCCC(=O)[O-]
REMARK SMILES IDX 7 1 8 2 9 3 10 4 11 5 12 6 13 7 6 8 5 9 4 10 3 11 2 12 1 13
REMARK H PARENT
REMARK Flexibility Score: inf
ROOT
ATOM      1  C   UNL     1      17.512 -32.862  22.871  1.00  0.00     0.000 C 
ENDROOT
BRANCH   1   2
ATOM      2  C   UNL     1      16.414 -33.915  23.085  1.00  0.00     0.000 C 
BRANCH   2   3
ATOM      3  C   UNL     1      15.018 -33.284  22.968  1.00  0.00     0.006 C 
BRANCH   3   4
ATOM      4  C   UNL     1      14.587 -33.091  21.508  1.00  0.00     0.053 C 
BRANCH   4   5
ATOM      5  C   UNL     1      14.176 -31.677  21.231  1.00  0.00     0.041 C 
ATOM      6  O   UNL     1      12.998 -31.421  20.868  1.00  0.00    -0.550 OA
ATOM      7  O   UNL     1      15.102 -30.648  21.340  1.00  0.00    -0.550 OA
ENDBRANCH   4   5
ENDBRANCH   3   4
ENDBRANCH   2   3
ENDBRANCH   1   2
BRANCH   1   8
ATOM      8  C   UNL     1      18.532 -33.277  21.798  1.00  0.00     0.000 C 
BRANCH   8   9
ATOM      9  C   UNL     1      18.095 -32.873  20.380  1.00  0.00    -0.000 C 
BRANCH   9  10
ATOM     10  C   UNL     1      18.111 -34.052  19.390  1.00  0.00    -0.000 C 
BRANCH  10  11
ATOM     11  C   UNL     1      16.727 -34.649  19.057  1.00  0.00    -0.000 C 
BRANCH  11  12
ATOM     12  C   UNL     1      16.350 -35.907  19.859  1.00  0.00    -0.003 C 
ATOM     13  C   UNL     1      17.568 -36.656  20.398  1.00  0.00     0.004 C 
ENDBRANCH  11  12
ENDBRANCH  10  11
ENDBRANCH   9  10
ENDBRANCH   8   9
ENDBRANCH   1   8
TORSDOF 9
ENDMDL
MODEL 7
REMARK VINA RESULT:    -4.038      3.438      5.860
REMARK INTER + INTRA:          -7.172
REMARK INTER:                  -6.196
REMARK INTRA:                  -0.976
REMARK UNBOUND:                -1.009
REMARK SMILES CCCCCCCCCCC(=O)[O-]
REMARK SMILES IDX 7 1 8 2 9 3 10 4 11 5 12 6 13 7 6 8 5 9 4 10 3 11 2 12 1 13
REMARK H PARENT
REMARK Flexibility Score: inf
ROOT
ATOM      1  C   UNL     1      16.970 -32.150  21.455  1.00  0.00     0.000 C 
ENDROOT
BRANCH   1   2
ATOM      2  C   UNL     1      18.024 -32.591  20.429  1.00  0.00     0.000 C 
BRANCH   2   3
ATOM      3  C   UNL     1      17.411 -33.534  19.382  1.00  0.00     0.006 C 
BRANCH   3   4
ATOM      4  C   UNL     1      18.162 -34.869  19.291  1.00  0.00     0.053 C 
BRANCH   4   5
ATOM      5  C   UNL     1      17.233 -36.039  19.405  1.00  0.00     0.041 C 
ATOM      6  O   UNL     1      16.022 -35.860  19.698  1.00  0.00    -0.550 OA
ATOM      7  O   UNL     1      17.713 -37.329  19.221  1.00  0.00    -0.550 OA
ENDBRANCH   4   5
ENDBRANCH   3   4
ENDBRANCH   2   3
ENDBRANCH   1   2
BRANCH   1   8
ATOM      8  C   UNL     1      16.309 -33.338  22.174  1.00  0.00     0.000 C 
BRANCH   8   9
ATOM      9  C   UNL     1      14.778 -33.343  22.020  1.00  0.00    -0.000 C 
BRANCH   9  10
ATOM     10  C   UNL     1      14.279 -32.322  20.982  1.00  0.00    -0.000 C 
BRANCH  10  11
ATOM     11  C   UNL     1      13.258 -31.292  21.511  1.00  0.00    -0.000 C 
BRANCH  11  12
ATOM     12  C   UNL     1      13.373 -30.973  23.012  1.00  0.00    -0.003 C 
ATOM     13  C   UNL     1      14.341 -29.829  23.305  1.00  0.00     0.004 C 
ENDBRANCH  11  12
ENDBRANCH  10  11
ENDBRANCH   9  10
ENDBRANCH   8   9
ENDBRANCH   1   8
TORSDOF 9
ENDMDL
MODEL 8
REMARK VINA RESULT:    -4.037      3.318      6.026
REMARK INTER + INTRA:          -7.169
REMARK INTER:                  -6.464
REMARK INTRA:                  -0.706
REMARK UNBOUND:                -1.009
REMARK SMILES CCCCCCCCCCC(=O)[O-]
REMARK SMILES IDX 7 1 8 2 9 3 10 4 11 5 12 6 13 7 6 8 5 9 4 10 3 11 2 12 1 13
REMARK H PARENT
REMARK Flexibility Score: inf
ROOT
ATOM      1  C   UNL     1      14.821 -32.902  21.103  1.00  0.00     0.000 C 
ENDROOT
BRANCH   1   2
ATOM      2  C   UNL     1      14.680 -33.898  19.941  1.00  0.00     0.000 C 
BRANCH   2   3
ATOM      3  C   UNL     1      16.059 -34.362  19.447  1.00  0.00     0.006 C 
BRANCH   3   4
ATOM      4  C   UNL     1      16.286 -35.862  19.679  1.00  0.00     0.053 C 
BRANCH   4   5
ATOM      5  C   UNL     1      17.476 -36.117  20.553  1.00  0.00     0.041 C 
ATOM      6  O   UNL     1      17.806 -37.296  20.844  1.00  0.00    -0.550 OA
ATOM      7  O   UNL     1      18.198 -35.051  21.073  1.00  0.00    -0.550 OA
ENDBRANCH   4   5
ENDBRANCH   3   4
ENDBRANCH   2   3
ENDBRANCH   1   2
BRANCH   1   8
ATOM      8  C   UNL     1      15.066 -33.595  22.453  1.00  0.00     0.000 C 
BRANCH   8   9
ATOM      9  C   UNL     1      15.328 -32.594  23.591  1.00  0.00    -0.000 C 
BRANCH   9  10
ATOM     10  C   UNL     1      14.063 -31.827  24.015  1.00  0.00    -0.000 C 
BRANCH  10  11
ATOM     11  C   UNL     1      14.044 -30.331  23.639  1.00  0.00    -0.000 C 
BRANCH  11  12
ATOM     12  C   UNL     1      12.673 -29.788  23.198  1.00  0.00    -0.003 C 
ATOM     13  C   UNL     1      12.080 -30.555  22.018  1.00  0.00     0.004 C 
ENDBRANCH  11  12
ENDBRANCH  10  11
ENDBRANCH   9  10
ENDBRANCH   8   9
ENDBRANCH   1   8
TORSDOF 9
ENDMDL
MODEL 9
REMARK VINA RESULT:    -3.932      1.694      3.978
REMARK INTER + INTRA:          -7.010
REMARK INTER:                  -5.973
REMARK INTRA:                  -1.037
REMARK UNBOUND:                -1.009
REMARK SMILES CCCCCCCCCCC(=O)[O-]
REMARK SMILES IDX 7 1 8 2 9 3 10 4 11 5 12 6 13 7 6 8 5 9 4 10 3 11 2 12 1 13
REMARK H PARENT
REMARK Flexibility Score: inf
ROOT
ATOM      1  C   UNL     1      16.978 -34.195  20.893  1.00  0.00     0.000 C 
ENDROOT
BRANCH   1   2
ATOM      2  C   UNL     1      17.643 -33.233  19.897  1.00  0.00     0.000 C 
BRANCH   2   3
ATOM      3  C   UNL     1      17.840 -31.845  20.523  1.00  0.00     0.006 C 
BRANCH   3   4
ATOM      4  C   UNL     1      17.634 -31.858  22.044  1.00  0.00     0.053 C 
BRANCH   4   5
ATOM      5  C   UNL     1      16.906 -30.637  22.518  1.00  0.00     0.041 C 
ATOM      6  O   UNL     1      16.762 -30.426  23.751  1.00  0.00    -0.550 OA
ATOM      7  O   UNL     1      16.358 -29.753  21.598  1.00  0.00    -0.550 OA
ENDBRANCH   4   5
ENDBRANCH   3   4
ENDBRANCH   2   3
ENDBRANCH   1   2
BRANCH   1   8
ATOM      8  C   UNL     1      15.665 -34.790  20.358  1.00  0.00     0.000 C 
BRANCH   8   9
ATOM      9  C   UNL     1      14.648 -33.709  19.953  1.00  0.00    -0.000 C 
BRANCH   9  10
ATOM     10  C   UNL     1      14.197 -32.839  21.140  1.00  0.00    -0.000 C 
BRANCH  10  11
ATOM     11  C   UNL     1      13.409 -31.568  20.761  1.00  0.00    -0.000 C 
BRANCH  11  12
ATOM     12  C   UNL     1      12.806 -30.797  21.949  1.00  0.00    -0.003 C 
ATOM     13  C   UNL     1      13.306 -31.301  23.301  1.00  0.00     0.004 C 
ENDBRANCH  11  12
ENDBRANCH  10  11
ENDBRANCH   9  10
ENDBRANCH   8   9
ENDBRANCH   1   8
TORSDOF 9
ENDMDL
