MODEL 1
REMARK VINA RESULT:    -4.519      0.000      0.000
REMARK INTER + INTRA:          -6.293
REMARK INTER:                  -5.841
REMARK INTRA:                  -0.452
REMARK UNBOUND:                -0.452
REMARK SMILES CCO[C@@H]1O[C@H](CO)[C@H](O)[C@H](O)[C@H]1O
REMARK SMILES IDX 4 1 13 2 11 3 9 4 6 5 5 6 3 7 2 8 1 9 14 10 12 12 7 14 8 15
REMARK SMILES IDX 10 17
REMARK H PARENT 14 11 12 13 8 16 10 18
REMARK Flexibility Score: inf
ROOT
ATOM      1  C   UNL     1      -2.993  -1.737  -6.780  1.00  0.00     0.281 C 
ATOM      2  C   UNL     1      -4.420  -2.190  -6.402  1.00  0.00     0.202 C 
ATOM      3  C   UNL     1      -5.477  -1.351  -7.148  1.00  0.00     0.179 C 
ATOM      4  C   UNL     1      -5.171  -1.339  -8.657  1.00  0.00     0.177 C 
ATOM      5  C   UNL     1      -3.685  -1.009  -8.954  1.00  0.00     0.178 C 
ATOM      6  O   UNL     1      -2.775  -1.795  -8.185  1.00  0.00    -0.341 OA
ENDROOT
BRANCH   1   7
ATOM      7  O   UNL     1      -2.715  -0.435  -6.297  1.00  0.00    -0.350 OA
BRANCH   7   8
ATOM      8  C   UNL     1      -2.079  -0.450  -5.037  1.00  0.00     0.160 C 
ATOM      9  C   UNL     1      -1.006  -1.527  -4.999  1.00  0.00     0.035 C 
ENDBRANCH   7   8
ENDBRANCH   1   7
BRANCH   2  10
ATOM     10  O   UNL     1      -4.568  -3.550  -6.732  1.00  0.00    -0.385 OA
ATOM     11  H   UNL     1      -5.540  -3.719  -6.837  1.00  0.00     0.211 HD
ENDBRANCH   2  10
BRANCH   3  12
ATOM     12  O   UNL     1      -5.532  -0.038  -6.649  1.00  0.00    -0.387 OA
ATOM     13  H   UNL     1      -5.356  -0.093  -5.675  1.00  0.00     0.211 HD
ENDBRANCH   3  12
BRANCH   5  14
ATOM     14  C   UNL     1      -3.347   0.501  -8.935  1.00  0.00     0.191 C 
BRANCH  14  15
ATOM     15  O   UNL     1      -3.750   1.096 -10.139  1.00  0.00    -0.394 OA
ATOM     16  H   UNL     1      -4.536   0.588 -10.473  1.00  0.00     0.210 HD
ENDBRANCH  14  15
ENDBRANCH   5  14
BRANCH   4  17
ATOM     17  O   UNL     1      -6.014  -0.435  -9.323  1.00  0.00    -0.387 OA
ATOM     18  H   UNL     1      -5.569  -0.200 -10.179  1.00  0.00     0.211 HD
ENDBRANCH   4  17
TORSDOF 7
ENDMDL
MODEL 2
REMARK VINA RESULT:    -4.457      1.398      3.290
REMARK INTER + INTRA:          -6.212
REMARK INTER:                  -5.789
REMARK INTRA:                  -0.422
REMARK UNBOUND:                -0.452
REMARK SMILES CCO[C@@H]1O[C@H](CO)[C@H](O)[C@H](O)[C@H]1O
REMARK SMILES IDX 4 1 13 2 11 3 9 4 6 5 5 6 3 7 2 8 1 9 14 10 12 12 7 14 8 15
REMARK SMILES IDX 10 17
REMARK H PARENT 14 11 12 13 8 16 10 18
REMARK Flexibility Score: inf
ROOT
ATOM      1  C   UNL     1      -2.663  -1.060  -6.749  1.00  0.00     0.281 C 
ATOM      2  C   UNL     1      -1.527  -0.524  -7.648  1.00  0.00     0.202 C 
ATOM      3  C   UNL     1      -2.056  -0.179  -9.054  1.00  0.00     0.179 C 
ATOM      4  C   UNL     1      -3.289   0.736  -8.943  1.00  0.00     0.177 C 
ATOM      5  C   UNL     1      -4.327   0.204  -7.920  1.00  0.00     0.178 C 
ATOM      6  O   UNL     1      -3.745  -0.139  -6.663  1.00  0.00    -0.341 OA
ENDROOT
BRANCH   1   7
ATOM      7  O   UNL     1      -3.130  -2.320  -7.195  1.00  0.00    -0.350 OA
BRANCH   7   8
ATOM      8  C   UNL     1      -3.119  -3.293  -6.172  1.00  0.00     0.160 C 
ATOM      9  C   UNL     1      -4.519  -3.480  -5.606  1.00  0.00     0.035 C 
ENDBRANCH   7   8
ENDBRANCH   1   7
BRANCH   2  10
ATOM     10  O   UNL     1      -0.975   0.623  -7.049  1.00  0.00    -0.385 OA
ATOM     11  H   UNL     1      -0.228   0.318  -6.472  1.00  0.00     0.211 HD
ENDBRANCH   2  10
BRANCH   3  12
ATOM     12  O   UNL     1      -2.373  -1.341  -9.780  1.00  0.00    -0.387 OA
ATOM     13  H   UNL     1      -3.235  -1.676  -9.424  1.00  0.00     0.211 HD
ENDBRANCH   3  12
BRANCH   5  14
ATOM     14  C   UNL     1      -5.267  -0.894  -8.472  1.00  0.00     0.191 C 
BRANCH  14  15
ATOM     15  O   UNL     1      -6.151  -0.340  -9.410  1.00  0.00    -0.394 OA
ATOM     16  H   UNL     1      -6.247   0.625  -9.193  1.00  0.00     0.210 HD
ENDBRANCH  14  15
ENDBRANCH   5  14
BRANCH   4  17
ATOM     17  O   UNL     1      -3.889   0.909 -10.201  1.00  0.00    -0.387 OA
ATOM     18  H   UNL     1      -3.963   0.009 -10.613  1.00  0.00     0.211 HD
ENDBRANCH   4  17
TORSDOF 7
ENDMDL
MODEL 3
REMARK VINA RESULT:    -4.255      1.683      4.026
REMARK INTER + INTRA:          -5.950
REMARK INTER:                  -5.532
REMARK INTRA:                  -0.419
REMARK UNBOUND:                -0.452
REMARK SMILES CCO[C@@H]1O[C@H](CO)[C@H](O)[C@H](O)[C@H]1O
REMARK SMILES IDX 4 1 13 2 11 3 9 4 6 5 5 6 3 7 2 8 1 9 14 10 12 12 7 14 8 15
REMARK SMILES IDX 10 17
REMARK H PARENT 14 11 12 13 8 16 10 18
REMARK Flexibility Score: inf
ROOT
ATOM      1  C   UNL     1      -4.659   0.537  -7.908  1.00  0.00     0.281 C 
ATOM      2  C   UNL     1      -3.378   0.768  -8.740  1.00  0.00     0.202 C 
ATOM      3  C   UNL     1      -2.420  -0.433  -8.618  1.00  0.00     0.179 C 
ATOM      4  C   UNL     1      -3.173  -1.740  -8.925  1.00  0.00     0.177 C 
ATOM      5  C   UNL     1      -4.516  -1.841  -8.156  1.00  0.00     0.178 C 
ATOM      6  O   UNL     1      -5.319  -0.667  -8.281  1.00  0.00    -0.341 OA
ENDROOT
BRANCH   1   7
ATOM      7  O   UNL     1      -4.383   0.532  -6.519  1.00  0.00    -0.350 OA
BRANCH   7   8
ATOM      8  C   UNL     1      -5.451   1.053  -5.755  1.00  0.00     0.160 C 
ATOM      9  C   UNL     1      -6.005   2.310  -6.409  1.00  0.00     0.035 C 
ENDBRANCH   7   8
ENDBRANCH   1   7
BRANCH   2  10
ATOM     10  O   UNL     1      -3.738   0.959 -10.087  1.00  0.00    -0.385 OA
ATOM     11  H   UNL     1      -4.684   0.674 -10.177  1.00  0.00     0.211 HD
ENDBRANCH   2  10
BRANCH   3  12
ATOM     12  O   UNL     1      -1.836  -0.493  -7.340  1.00  0.00    -0.387 OA
ATOM     13  H   UNL     1      -2.016  -1.401  -6.984  1.00  0.00     0.211 HD
ENDBRANCH   3  12
BRANCH   5  14
ATOM     14  C   UNL     1      -4.384  -2.331  -6.695  1.00  0.00     0.191 C 
BRANCH  14  15
ATOM     15  O   UNL     1      -4.504  -3.728  -6.646  1.00  0.00    -0.394 OA
ATOM     16  H   UNL     1      -3.584  -4.105  -6.657  1.00  0.00     0.210 HD
ENDBRANCH  14  15
ENDBRANCH   5  14
BRANCH   4  17
ATOM     17  O   UNL     1      -2.364  -2.853  -8.641  1.00  0.00    -0.387 OA
ATOM     18  H   UNL     1      -2.766  -3.311  -7.857  1.00  0.00     0.211 HD
ENDBRANCH   4  17
TORSDOF 7
ENDMDL
MODEL 4
REMARK VINA RESULT:    -4.208      2.032      3.718
REMARK INTER + INTRA:          -5.890
REMARK INTER:                  -5.423
REMARK INTRA:                  -0.467
REMARK UNBOUND:                -0.452
REMARK SMILES CCO[C@@H]1O[C@H](CO)[C@H](O)[C@H](O)[C@H]1O
REMARK SMILES IDX 4 1 13 2 11 3 9 4 6 5 5 6 3 7 2 8 1 9 14 10 12 12 7 14 8 15
REMARK SMILES IDX 10 17
REMARK H PARENT 14 11 12 13 8 16 10 18
REMARK Flexibility Score: inf
ROOT
ATOM      1  C   UNL     1      -5.887   0.943  -6.436  1.00  0.00     0.281 C 
ATOM      2  C   UNL     1      -6.773   0.163  -7.433  1.00  0.00     0.202 C 
ATOM      3  C   UNL     1      -5.957  -0.929  -8.154  1.00  0.00     0.179 C 
ATOM      4  C   UNL     1      -5.212  -1.796  -7.123  1.00  0.00     0.177 C 
ATOM      5  C   UNL     1      -4.456  -0.942  -6.072  1.00  0.00     0.178 C 
ATOM      6  O   UNL     1      -5.269   0.077  -5.492  1.00  0.00    -0.341 OA
ENDROOT
BRANCH   1   7
ATOM      7  O   UNL     1      -4.906   1.715  -7.105  1.00  0.00    -0.350 OA
BRANCH   7   8
ATOM      8  C   UNL     1      -4.887   3.058  -6.670  1.00  0.00     0.160 C 
ATOM      9  C   UNL     1      -3.508   3.664  -6.888  1.00  0.00     0.035 C 
ENDBRANCH   7   8
ENDBRANCH   1   7
BRANCH   2  10
ATOM     10  O   UNL     1      -7.842  -0.423  -6.730  1.00  0.00    -0.385 OA
ATOM     11  H   UNL     1      -8.637  -0.377  -7.321  1.00  0.00     0.211 HD
ENDBRANCH   2  10
BRANCH   3  12
ATOM     12  O   UNL     1      -5.049  -0.367  -9.069  1.00  0.00    -0.387 OA
ATOM     13  H   UNL     1      -4.607   0.390  -8.607  1.00  0.00     0.211 HD
ENDBRANCH   3  12
BRANCH   5  14
ATOM     14  C   UNL     1      -3.076  -0.422  -6.541  1.00  0.00     0.191 C 
BRANCH  14  15
ATOM     15  O   UNL     1      -2.549   0.463  -5.588  1.00  0.00    -0.394 OA
ATOM     16  H   UNL     1      -2.440   1.345  -6.031  1.00  0.00     0.210 HD
ENDBRANCH  14  15
ENDBRANCH   5  14
BRANCH   4  17
ATOM     17  O   UNL     1      -4.326  -2.674  -7.767  1.00  0.00    -0.387 OA
ATOM     18  H   UNL     1      -4.506  -3.583  -7.408  1.00  0.00     0.211 HD
ENDBRANCH   4  17
TORSDOF 7
ENDMDL
MODEL 5
REMARK VINA RESULT:    -4.197      1.810      3.274
REMARK INTER + INTRA:          -5.876
REMARK INTER:                  -5.483
REMARK INTRA:                  -0.393
REMARK UNBOUND:                -0.452
REMARK SMILES CCO[C@@H]1O[C@H](CO)[C@H](O)[C@H](O)[C@H]1O
REMARK SMILES IDX 4 1 13 2 11 3 9 4 6 5 5 6 3 7 2 8 1 9 14 10 12 12 7 14 8 15
REMARK SMILES IDX 10 17
REMARK H PARENT 14 11 12 13 8 16 10 18
REMARK Flexibility Score: inf
ROOT
ATOM      1  C   UNL     1      -3.100   0.605  -7.866  1.00  0.00     0.281 C 
ATOM      2  C   UNL     1      -2.421  -0.101  -6.672  1.00  0.00     0.202 C 
ATOM      3  C   UNL     1      -3.271  -1.290  -6.181  1.00  0.00     0.179 C 
ATOM      4  C   UNL     1      -3.628  -2.206  -7.366  1.00  0.00     0.177 C 
ATOM      5  C   UNL     1      -4.177  -1.412  -8.580  1.00  0.00     0.178 C 
ATOM      6  O   UNL     1      -3.357  -0.299  -8.935  1.00  0.00    -0.341 OA
ENDROOT
BRANCH   1   7
ATOM      7  O   UNL     1      -4.297   1.252  -7.477  1.00  0.00    -0.350 OA
BRANCH   7   8
ATOM      8  C   UNL     1      -4.085   2.593  -7.089  1.00  0.00     0.160 C 
ATOM      9  C   UNL     1      -5.289   3.118  -6.321  1.00  0.00     0.035 C 
ENDBRANCH   7   8
ENDBRANCH   1   7
BRANCH   2  10
ATOM     10  O   UNL     1      -1.151  -0.554  -7.072  1.00  0.00    -0.385 OA
ATOM     11  H   UNL     1      -1.248  -0.914  -7.991  1.00  0.00     0.211 HD
ENDBRANCH   2  10
BRANCH   3  12
ATOM     12  O   UNL     1      -4.439  -0.849  -5.534  1.00  0.00    -0.387 OA
ATOM     13  H   UNL     1      -4.285  -0.954  -4.560  1.00  0.00     0.211 HD
ENDBRANCH   3  12
BRANCH   5  14
ATOM     14  C   UNL     1      -5.679  -1.051  -8.485  1.00  0.00     0.191 C 
BRANCH  14  15
ATOM     15  O   UNL     1      -6.060  -0.294  -9.602  1.00  0.00    -0.394 OA
ATOM     16  H   UNL     1      -6.131  -0.917 -10.373  1.00  0.00     0.210 HD
ENDBRANCH  14  15
ENDBRANCH   5  14
BRANCH   4  17
ATOM     17  O   UNL     1      -4.550  -3.188  -6.969  1.00  0.00    -0.387 OA
ATOM     18  H   UNL     1      -4.077  -4.060  -7.002  1.00  0.00     0.211 HD
ENDBRANCH   4  17
TORSDOF 7
ENDMDL
MODEL 6
REMARK VINA RESULT:    -4.149      1.842      3.980
REMARK INTER + INTRA:          -5.814
REMARK INTER:                  -5.377
REMARK INTRA:                  -0.437
REMARK UNBOUND:                -0.452
REMARK SMILES CCO[C@@H]1O[C@H](CO)[C@H](O)[C@H](O)[C@H]1O
REMARK SMILES IDX 4 1 13 2 11 3 9 4 6 5 5 6 3 7 2 8 1 9 14 10 12 12 7 14 8 15
REMARK SMILES IDX 10 17
REMARK H PARENT 14 11 12 13 8 16 10 18
REMARK Flexibility Score: inf
ROOT
ATOM      1  C   UNL     1      -1.784  -1.053  -8.255  1.00  0.00     0.281 C 
ATOM      2  C   UNL     1      -1.682   0.442  -8.629  1.00  0.00     0.202 C 
ATOM      3  C   UNL     1      -3.079   1.092  -8.677  1.00  0.00     0.179 C 
ATOM      4  C   UNL     1      -3.843   0.794  -7.373  1.00  0.00     0.177 C 
ATOM      5  C   UNL     1      -3.787  -0.707  -6.988  1.00  0.00     0.178 C 
ATOM      6  O   UNL     1      -2.464  -1.241  -7.019  1.00  0.00    -0.341 OA
ENDROOT
BRANCH   1   7
ATOM      7  O   UNL     1      -2.414  -1.805  -9.276  1.00  0.00    -0.350 OA
BRANCH   7   8
ATOM      8  C   UNL     1      -1.495  -2.564 -10.033  1.00  0.00     0.160 C 
ATOM      9  C   UNL     1      -1.340  -1.972 -11.426  1.00  0.00     0.035 C 
ENDBRANCH   7   8
ENDBRANCH   1   7
BRANCH   2  10
ATOM     10  O   UNL     1      -0.881   1.096  -7.675  1.00  0.00    -0.385 OA
ATOM     11  H   UNL     1      -0.787   2.038  -7.973  1.00  0.00     0.211 HD
ENDBRANCH   2  10
BRANCH   3  12
ATOM     12  O   UNL     1      -3.814   0.643  -9.788  1.00  0.00    -0.387 OA
ATOM     13  H   UNL     1      -4.053  -0.303  -9.612  1.00  0.00     0.211 HD
ENDBRANCH   3  12
BRANCH   5  14
ATOM     14  C   UNL     1      -4.817  -1.597  -7.724  1.00  0.00     0.191 C 
BRANCH  14  15
ATOM     15  O   UNL     1      -4.544  -2.950  -7.475  1.00  0.00    -0.394 OA
ATOM     16  H   UNL     1      -4.886  -3.159  -6.566  1.00  0.00     0.210 HD
ENDBRANCH  14  15
ENDBRANCH   5  14
BRANCH   4  17
ATOM     17  O   UNL     1      -5.177   1.222  -7.476  1.00  0.00    -0.387 OA
ATOM     18  H   UNL     1      -5.534   1.282  -6.551  1.00  0.00     0.211 HD
ENDBRANCH   4  17
TORSDOF 7
ENDMDL
MODEL 7
REMARK VINA RESULT:    -4.118      1.887      3.105
REMARK INTER + INTRA:          -5.774
REMARK INTER:                  -5.836
REMARK INTRA:                   0.062
REMARK UNBOUND:                -0.452
REMARK SMILES CCO[C@@H]1O[C@H](CO)[C@H](O)[C@H](O)[C@H]1O
REMARK SMILES IDX 4 1 13 2 11 3 9 4 6 5 5 6 3 7 2 8 1 9 14 10 12 12 7 14 8 15
REMARK SMILES IDX 10 17
REMARK H PARENT 14 11 12 13 8 16 10 18
REMARK Flexibility Score: inf
ROOT
ATOM      1  C   UNL     1      -5.225   0.064  -6.451  1.00  0.00     0.281 C 
ATOM      2  C   UNL     1      -5.630  -1.302  -7.048  1.00  0.00     0.202 C 
ATOM      3  C   UNL     1      -5.071  -1.464  -8.476  1.00  0.00     0.179 C 
ATOM      4  C   UNL     1      -3.561  -1.167  -8.487  1.00  0.00     0.177 C 
ATOM      5  C   UNL     1      -3.215   0.154  -7.750  1.00  0.00     0.178 C 
ATOM      6  O   UNL     1      -3.813   0.244  -6.458  1.00  0.00    -0.341 OA
ENDROOT
BRANCH   1   7
ATOM      7  O   UNL     1      -5.856   1.136  -7.128  1.00  0.00    -0.350 OA
BRANCH   7   8
ATOM      8  C   UNL     1      -6.605   1.957  -6.258  1.00  0.00     0.160 C 
ATOM      9  C   UNL     1      -5.844   3.239  -5.954  1.00  0.00     0.035 C 
ENDBRANCH   7   8
ENDBRANCH   1   7
BRANCH   2  10
ATOM     10  O   UNL     1      -5.134  -2.326  -6.221  1.00  0.00    -0.385 OA
ATOM     11  H   UNL     1      -4.245  -2.029  -5.895  1.00  0.00     0.211 HD
ENDBRANCH   2  10
BRANCH   3  12
ATOM     12  O   UNL     1      -5.742  -0.626  -9.385  1.00  0.00    -0.387 OA
ATOM     13  H   UNL     1      -5.433   0.299  -9.205  1.00  0.00     0.211 HD
ENDBRANCH   3  12
BRANCH   5  14
ATOM     14  C   UNL     1      -3.411   1.432  -8.599  1.00  0.00     0.191 C 
BRANCH  14  15
ATOM     15  O   UNL     1      -3.692   1.085  -9.929  1.00  0.00    -0.394 OA
ATOM     16  H   UNL     1      -4.156   0.207  -9.914  1.00  0.00     0.210 HD
ENDBRANCH  14  15
ENDBRANCH   5  14
BRANCH   4  17
ATOM     17  O   UNL     1      -3.075  -1.131  -9.805  1.00  0.00    -0.387 OA
ATOM     18  H   UNL     1      -3.678  -1.700 -10.351  1.00  0.00     0.211 HD
ENDBRANCH   4  17
TORSDOF 7
ENDMDL
MODEL 8
REMARK VINA RESULT:    -4.113      1.665      4.135
REMARK INTER + INTRA:          -5.768
REMARK INTER:                  -5.331
REMARK INTRA:                  -0.437
REMARK UNBOUND:                -0.452
REMARK SMILES CCO[C@@H]1O[C@H](CO)[C@H](O)[C@H](O)[C@H]1O
REMARK SMILES IDX 4 1 13 2 11 3 9 4 6 5 5 6 3 7 2 8 1 9 14 10 12 12 7 14 8 15
REMARK SMILES IDX 10 17
REMARK H PARENT 14 11 12 13 8 16 10 18
REMARK Flexibility Score: inf
ROOT
ATOM      1  C   UNL     1      -4.724  -0.174  -8.265  1.00  0.00     0.281 C 
ATOM      2  C   UNL     1      -3.636   0.835  -8.693  1.00  0.00     0.202 C 
ATOM      3  C   UNL     1      -2.233   0.327  -8.302  1.00  0.00     0.179 C 
ATOM      4  C   UNL     1      -2.032  -1.110  -8.815  1.00  0.00     0.177 C 
ATOM      5  C   UNL     1      -3.228  -2.034  -8.465  1.00  0.00     0.178 C 
ATOM      6  O   UNL     1      -4.490  -1.466  -8.813  1.00  0.00    -0.341 OA
ENDROOT
BRANCH   1   7
ATOM      7  O   UNL     1      -4.833  -0.256  -6.855  1.00  0.00    -0.350 OA
BRANCH   7   8
ATOM      8  C   UNL     1      -5.978   0.407  -6.363  1.00  0.00     0.160 C 
ATOM      9  C   UNL     1      -7.205   0.018  -7.175  1.00  0.00     0.035 C 
ENDBRANCH   7   8
ENDBRANCH   1   7
BRANCH   2  10
ATOM     10  O   UNL     1      -3.707   1.018 -10.086  1.00  0.00    -0.385 OA
ATOM     11  H   UNL     1      -4.229   1.847 -10.243  1.00  0.00     0.211 HD
ENDBRANCH   2  10
BRANCH   3  12
ATOM     12  O   UNL     1      -2.040   0.382  -6.910  1.00  0.00    -0.387 OA
ATOM     13  H   UNL     1      -2.605   1.123  -6.571  1.00  0.00     0.211 HD
ENDBRANCH   3  12
BRANCH   5  14
ATOM     14  C   UNL     1      -3.198  -2.606  -7.028  1.00  0.00     0.191 C 
BRANCH  14  15
ATOM     15  O   UNL     1      -4.377  -3.321  -6.773  1.00  0.00    -0.394 OA
ATOM     16  H   UNL     1      -4.947  -2.755  -6.188  1.00  0.00     0.210 HD
ENDBRANCH  14  15
ENDBRANCH   5  14
BRANCH   4  17
ATOM     17  O   UNL     1      -0.836  -1.650  -8.312  1.00  0.00    -0.387 OA
ATOM     18  H   UNL     1      -1.087  -2.406  -7.718  1.00  0.00     0.211 HD
ENDBRANCH   4  17
TORSDOF 7
ENDMDL
MODEL 9
REMARK VINA RESULT:    -4.010      1.635      3.018
REMARK INTER + INTRA:          -5.635
REMARK INTER:                  -5.253
REMARK INTRA:                  -0.382
REMARK UNBOUND:                -0.452
REMARK SMILES CCO[C@@H]1O[C@H](CO)[C@H](O)[C@H](O)[C@H]1O
REMARK SMILES IDX 4 1 13 2 11 3 9 4 6 5 5 6 3 7 2 8 1 9 14 10 12 12 7 14 8 15
REMARK SMILES IDX 10 17
REMARK H PARENT 14 11 12 13 8 16 10 18
REMARK Flexibility Score: inf
ROOT
ATOM      1  C   UNL     1      -3.422  -2.074  -8.628  1.00  0.00     0.281 C 
ATOM      2  C   UNL     1      -3.285  -2.440  -7.133  1.00  0.00     0.202 C 
ATOM      3  C   UNL     1      -3.195  -1.169  -6.264  1.00  0.00     0.179 C 
ATOM      4  C   UNL     1      -4.357  -0.217  -6.602  1.00  0.00     0.177 C 
ATOM      5  C   UNL     1      -4.519  -0.004  -8.129  1.00  0.00     0.178 C 
ATOM      6  O   UNL     1      -4.542  -1.228  -8.863  1.00  0.00    -0.341 OA
ENDROOT
BRANCH   1   7
ATOM      7  O   UNL     1      -2.242  -1.471  -9.126  1.00  0.00    -0.350 OA
BRANCH   7   8
ATOM      8  C   UNL     1      -1.528  -2.320 -10.000  1.00  0.00     0.160 C 
ATOM      9  C   UNL     1      -0.653  -1.500 -10.936  1.00  0.00     0.035 C 
ENDBRANCH   7   8
ENDBRANCH   1   7
BRANCH   2  10
ATOM     10  O   UNL     1      -4.401  -3.205  -6.748  1.00  0.00    -0.385 OA
ATOM     11  H   UNL     1      -4.059  -3.968  -6.214  1.00  0.00     0.211 HD
ENDBRANCH   2  10
BRANCH   3  12
ATOM     12  O   UNL     1      -1.961  -0.518  -6.438  1.00  0.00    -0.387 OA
ATOM     13  H   UNL     1      -1.730  -0.593  -7.399  1.00  0.00     0.211 HD
ENDBRANCH   3  12
BRANCH   5  14
ATOM     14  C   UNL     1      -3.560   1.047  -8.736  1.00  0.00     0.191 C 
BRANCH  14  15
ATOM     15  O   UNL     1      -3.750   1.124 -10.124  1.00  0.00    -0.394 OA
ATOM     16  H   UNL     1      -3.969   2.069 -10.341  1.00  0.00     0.210 HD
ENDBRANCH  14  15
ENDBRANCH   5  14
BRANCH   4  17
ATOM     17  O   UNL     1      -4.186   1.017  -5.953  1.00  0.00    -0.387 OA
ATOM     18  H   UNL     1      -5.089   1.414  -5.843  1.00  0.00     0.211 HD
ENDBRANCH   4  17
TORSDOF 7
ENDMDL
