MODEL 1
REMARK VINA RESULT:    -3.431      0.000      0.000
REMARK INTER + INTRA:          -4.995
REMARK INTER:                  -4.635
REMARK INTRA:                  -0.360
REMARK UNBOUND:                -0.360
REMARK SMILES CCCCCCCC(=O)[O-]
REMARK SMILES IDX 5 1 6 2 7 3 8 4 9 5 10 6 4 7 3 8 2 9 1 10
REMARK H PARENT
REMARK Flexibility Score: inf
ROOT
ATOM      1  C   UNL     1     -44.229 -50.063  35.662  1.00  0.00     0.000 C 
ENDROOT
BRANCH   1   2
ATOM      2  C   UNL     1     -44.527 -48.905  36.636  1.00  0.00     0.006 C 
BRANCH   2   3
ATOM      3  C   UNL     1     -45.409 -49.290  37.835  1.00  0.00     0.053 C 
BRANCH   3   4
ATOM      4  C   UNL     1     -46.812 -49.609  37.419  1.00  0.00     0.041 C 
ATOM      5  O   UNL     1     -47.191 -50.807  37.339  1.00  0.00    -0.550 OA
ATOM      6  O   UNL     1     -47.710 -48.583  37.153  1.00  0.00    -0.550 OA
ENDBRANCH   3   4
ENDBRANCH   2   3
ENDBRANCH   1   2
BRANCH   1   7
ATOM      7  C   UNL     1     -43.354 -49.688  34.452  1.00  0.00     0.000 C 
BRANCH   7   8
ATOM      8  C   UNL     1     -42.779 -48.267  34.547  1.00  0.00    -0.000 C 
BRANCH   8   9
ATOM      9  C   UNL     1     -41.259 -48.303  34.742  1.00  0.00    -0.003 C 
ATOM     10  C   UNL     1     -40.895 -48.372  36.223  1.00  0.00     0.004 C 
ENDBRANCH   8   9
ENDBRANCH   7   8
ENDBRANCH   1   7
TORSDOF 6
ENDMDL
MODEL 2
REMARK VINA RESULT:    -3.381      1.228      1.894
REMARK INTER + INTRA:          -4.927
REMARK INTER:                  -4.648
REMARK INTRA:                  -0.280
REMARK UNBOUND:                -0.360
REMARK SMILES CCCCCCCC(=O)[O-]
REMARK SMILES IDX 5 1 6 2 7 3 8 4 9 5 10 6 4 7 3 8 2 9 1 10
REMARK H PARENT
REMARK Flexibility Score: inf
ROOT
ATOM      1  C   UNL     1     -44.345 -48.794  36.654  1.00  0.00     0.000 C 
ENDROOT
BRANCH   1   2
ATOM      2  C   UNL     1     -45.596 -48.801  37.555  1.00  0.00     0.006 C 
BRANCH   2   3
ATOM      3  C   UNL     1     -46.697 -49.777  37.111  1.00  0.00     0.053 C 
BRANCH   3   4
ATOM      4  C   UNL     1     -46.861 -50.913  38.073  1.00  0.00     0.041 C 
ATOM      5  O   UNL     1     -46.680 -50.730  39.306  1.00  0.00    -0.550 OA
ATOM      6  O   UNL     1     -47.246 -52.166  37.613  1.00  0.00    -0.550 OA
ENDBRANCH   3   4
ENDBRANCH   2   3
ENDBRANCH   1   2
BRANCH   1   7
ATOM      7  C   UNL     1     -44.233 -49.984  35.684  1.00  0.00     0.000 C 
BRANCH   7   8
ATOM      8  C   UNL     1     -43.410 -49.658  34.429  1.00  0.00    -0.000 C 
BRANCH   8   9
ATOM      9  C   UNL     1     -42.757 -48.277  34.544  1.00  0.00    -0.003 C 
ATOM     10  C   UNL     1     -41.249 -48.394  34.750  1.00  0.00     0.004 C 
ENDBRANCH   8   9
ENDBRANCH   7   8
ENDBRANCH   1   7
TORSDOF 6
ENDMDL
MODEL 3
REMARK VINA RESULT:    -3.348      3.695      6.663
REMARK INTER + INTRA:          -4.882
REMARK INTER:                  -4.534
REMARK INTRA:                  -0.348
REMARK UNBOUND:                -0.360
REMARK SMILES CCCCCCCC(=O)[O-]
REMARK SMILES IDX 5 1 6 2 7 3 8 4 9 5 10 6 4 7 3 8 2 9 1 10
REMARK H PARENT
REMARK Flexibility Score: inf
ROOT
ATOM      1  C   UNL     1     -48.059 -53.558  38.393  1.00  0.00     0.000 C 
ENDROOT
BRANCH   1   2
ATOM      2  C   UNL     1     -47.444 -52.596  37.356  1.00  0.00     0.006 C 
BRANCH   2   3
ATOM      3  C   UNL     1     -46.532 -51.513  37.953  1.00  0.00     0.053 C 
BRANCH   3   4
ATOM      4  C   UNL     1     -46.485 -50.285  37.096  1.00  0.00     0.041 C 
ATOM      5  O   UNL     1     -47.465 -49.495  37.069  1.00  0.00    -0.550 OA
ATOM      6  O   UNL     1     -45.347 -49.996  36.354  1.00  0.00    -0.550 OA
ENDBRANCH   3   4
ENDBRANCH   2   3
ENDBRANCH   1   2
BRANCH   1   7
ATOM      7  C   UNL     1     -47.757 -53.213  39.862  1.00  0.00     0.000 C 
BRANCH   7   8
ATOM      8  C   UNL     1     -49.022 -53.118  40.727  1.00  0.00    -0.000 C 
BRANCH   8   9
ATOM      9  C   UNL     1     -48.808 -52.169  41.911  1.00  0.00    -0.003 C 
ATOM     10  C   UNL     1     -48.004 -50.940  41.494  1.00  0.00     0.004 C 
ENDBRANCH   8   9
ENDBRANCH   7   8
ENDBRANCH   1   7
TORSDOF 6
ENDMDL
MODEL 4
REMARK VINA RESULT:    -3.314      4.616      7.006
REMARK INTER + INTRA:          -4.836
REMARK INTER:                  -4.332
REMARK INTRA:                  -0.504
REMARK UNBOUND:                -0.360
REMARK SMILES CCCCCCCC(=O)[O-]
REMARK SMILES IDX 5 1 6 2 7 3 8 4 9 5 10 6 4 7 3 8 2 9 1 10
REMARK H PARENT
REMARK Flexibility Score: inf
ROOT
ATOM      1  C   UNL     1     -46.577 -51.034  41.221  1.00  0.00     0.000 C 
ENDROOT
BRANCH   1   2
ATOM      2  C   UNL     1     -46.265 -50.674  39.754  1.00  0.00     0.006 C 
BRANCH   2   3
ATOM      3  C   UNL     1     -46.132 -51.882  38.814  1.00  0.00     0.053 C 
BRANCH   3   4
ATOM      4  C   UNL     1     -47.037 -51.771  37.626  1.00  0.00     0.041 C 
ATOM      5  O   UNL     1     -47.664 -52.781  37.211  1.00  0.00    -0.550 OA
ATOM      6  O   UNL     1     -47.215 -50.545  36.998  1.00  0.00    -0.550 OA
ENDBRANCH   3   4
ENDBRANCH   2   3
ENDBRANCH   1   2
BRANCH   1   7
ATOM      7  C   UNL     1     -48.051 -50.868  41.633  1.00  0.00     0.000 C 
BRANCH   7   8
ATOM      8  C   UNL     1     -48.683 -52.175  42.134  1.00  0.00    -0.000 C 
BRANCH   8   9
ATOM      9  C   UNL     1     -49.215 -53.011  40.965  1.00  0.00    -0.003 C 
ATOM     10  C   UNL     1     -48.325 -54.224  40.704  1.00  0.00     0.004 C 
ENDBRANCH   8   9
ENDBRANCH   7   8
ENDBRANCH   1   7
TORSDOF 6
ENDMDL
MODEL 5
REMARK VINA RESULT:    -3.308      3.734      5.344
REMARK INTER + INTRA:          -4.829
REMARK INTER:                  -4.544
REMARK INTRA:                  -0.285
REMARK UNBOUND:                -0.360
REMARK SMILES CCCCCCCC(=O)[O-]
REMARK SMILES IDX 5 1 6 2 7 3 8 4 9 5 10 6 4 7 3 8 2 9 1 10
REMARK H PARENT
REMARK Flexibility Score: inf
ROOT
ATOM      1  C   UNL     1     -43.727 -48.587  38.087  1.00  0.00     0.000 C 
ENDROOT
BRANCH   1   2
ATOM      2  C   UNL     1     -44.205 -47.825  39.340  1.00  0.00     0.006 C 
BRANCH   2   3
ATOM      3  C   UNL     1     -43.079 -47.177  40.162  1.00  0.00     0.053 C 
BRANCH   3   4
ATOM      4  C   UNL     1     -43.474 -45.834  40.693  1.00  0.00     0.041 C 
ATOM      5  O   UNL     1     -44.634 -45.389  40.490  1.00  0.00    -0.550 OA
ATOM      6  O   UNL     1     -42.572 -45.087  41.440  1.00  0.00    -0.550 OA
ENDBRANCH   3   4
ENDBRANCH   2   3
ENDBRANCH   1   2
BRANCH   1   7
ATOM      7  C   UNL     1     -44.818 -48.862  37.036  1.00  0.00     0.000 C 
BRANCH   7   8
ATOM      8  C   UNL     1     -46.217 -48.430  37.498  1.00  0.00    -0.000 C 
BRANCH   8   9
ATOM      9  C   UNL     1     -47.264 -49.491  37.143  1.00  0.00    -0.003 C 
ATOM     10  C   UNL     1     -46.691 -50.899  37.280  1.00  0.00     0.004 C 
ENDBRANCH   8   9
ENDBRANCH   7   8
ENDBRANCH   1   7
TORSDOF 6
ENDMDL
MODEL 6
REMARK VINA RESULT:    -3.294      3.628      4.474
REMARK INTER + INTRA:          -4.809
REMARK INTER:                  -4.520
REMARK INTRA:                  -0.289
REMARK UNBOUND:                -0.360
REMARK SMILES CCCCCCCC(=O)[O-]
REMARK SMILES IDX 5 1 6 2 7 3 8 4 9 5 10 6 4 7 3 8 2 9 1 10
REMARK H PARENT
REMARK Flexibility Score: inf
ROOT
ATOM      1  C   UNL     1     -45.014 -48.236  38.342  1.00  0.00     0.000 C 
ENDROOT
BRANCH   1   2
ATOM      2  C   UNL     1     -44.292 -48.117  39.699  1.00  0.00     0.006 C 
BRANCH   2   3
ATOM      3  C   UNL     1     -43.213 -47.024  39.756  1.00  0.00     0.053 C 
BRANCH   3   4
ATOM      4  C   UNL     1     -43.630 -45.869  40.612  1.00  0.00     0.041 C 
ATOM      5  O   UNL     1     -44.743 -45.310  40.424  1.00  0.00    -0.550 OA
ATOM      6  O   UNL     1     -42.805 -45.429  41.640  1.00  0.00    -0.550 OA
ENDBRANCH   3   4
ENDBRANCH   2   3
ENDBRANCH   1   2
BRANCH   1   7
ATOM      7  C   UNL     1     -44.838 -49.586  37.625  1.00  0.00     0.000 C 
BRANCH   7   8
ATOM      8  C   UNL     1     -44.499 -49.434  36.135  1.00  0.00    -0.000 C 
BRANCH   8   9
ATOM      9  C   UNL     1     -43.152 -48.727  35.949  1.00  0.00    -0.003 C 
ATOM     10  C   UNL     1     -42.818 -48.558  34.469  1.00  0.00     0.004 C 
ENDBRANCH   8   9
ENDBRANCH   7   8
ENDBRANCH   1   7
TORSDOF 6
ENDMDL
MODEL 7
REMARK VINA RESULT:    -3.248      2.626      3.773
REMARK INTER + INTRA:          -4.747
REMARK INTER:                  -4.385
REMARK INTRA:                  -0.362
REMARK UNBOUND:                -0.360
REMARK SMILES CCCCCCCC(=O)[O-]
REMARK SMILES IDX 5 1 6 2 7 3 8 4 9 5 10 6 4 7 3 8 2 9 1 10
REMARK H PARENT
REMARK Flexibility Score: inf
ROOT
ATOM      1  C   UNL     1     -44.600 -48.725  37.201  1.00  0.00     0.000 C 
ENDROOT
BRANCH   1   2
ATOM      2  C   UNL     1     -46.077 -48.422  37.524  1.00  0.00     0.006 C 
BRANCH   2   3
ATOM      3  C   UNL     1     -47.042 -49.588  37.255  1.00  0.00     0.053 C 
BRANCH   3   4
ATOM      4  C   UNL     1     -46.667 -50.816  38.027  1.00  0.00     0.041 C 
ATOM      5  O   UNL     1     -46.563 -50.768  39.281  1.00  0.00    -0.550 OA
ATOM      6  O   UNL     1     -46.466 -52.021  37.365  1.00  0.00    -0.550 OA
ENDBRANCH   3   4
ENDBRANCH   2   3
ENDBRANCH   1   2
BRANCH   1   7
ATOM      7  C   UNL     1     -43.640 -48.646  38.401  1.00  0.00     0.000 C 
BRANCH   7   8
ATOM      8  C   UNL     1     -44.160 -47.737  39.524  1.00  0.00    -0.000 C 
BRANCH   8   9
ATOM      9  C   UNL     1     -43.051 -46.814  40.041  1.00  0.00    -0.003 C 
ATOM     10  C   UNL     1     -43.630 -45.524  40.617  1.00  0.00     0.004 C 
ENDBRANCH   8   9
ENDBRANCH   7   8
ENDBRANCH   1   7
TORSDOF 6
ENDMDL
MODEL 8
REMARK VINA RESULT:    -3.222      2.023      2.159
REMARK INTER + INTRA:          -4.712
REMARK INTER:                  -4.311
REMARK INTRA:                  -0.401
REMARK UNBOUND:                -0.360
REMARK SMILES CCCCCCCC(=O)[O-]
REMARK SMILES IDX 5 1 6 2 7 3 8 4 9 5 10 6 4 7 3 8 2 9 1 10
REMARK H PARENT
REMARK Flexibility Score: inf
ROOT
ATOM      1  C   UNL     1     -44.307 -49.918  35.737  1.00  0.00     0.000 C 
ENDROOT
BRANCH   1   2
ATOM      2  C   UNL     1     -44.381 -48.727  36.714  1.00  0.00     0.006 C 
BRANCH   2   3
ATOM      3  C   UNL     1     -43.666 -48.956  38.055  1.00  0.00     0.053 C 
BRANCH   3   4
ATOM      4  C   UNL     1     -44.512 -48.546  39.220  1.00  0.00     0.041 C 
ATOM      5  O   UNL     1     -45.059 -49.419  39.945  1.00  0.00    -0.550 OA
ATOM      6  O   UNL     1     -44.671 -47.200  39.526  1.00  0.00    -0.550 OA
ENDBRANCH   3   4
ENDBRANCH   2   3
ENDBRANCH   1   2
BRANCH   1   7
ATOM      7  C   UNL     1     -43.290 -49.759  34.593  1.00  0.00     0.000 C 
BRANCH   7   8
ATOM      8  C   UNL     1     -42.776 -48.320  34.444  1.00  0.00    -0.000 C 
BRANCH   8   9
ATOM      9  C   UNL     1     -41.289 -48.228  34.805  1.00  0.00    -0.003 C 
ATOM     10  C   UNL     1     -40.638 -49.609  34.819  1.00  0.00     0.004 C 
ENDBRANCH   8   9
ENDBRANCH   7   8
ENDBRANCH   1   7
TORSDOF 6
ENDMDL
MODEL 9
REMARK VINA RESULT:    -3.193      5.235      6.464
REMARK INTER + INTRA:          -4.672
REMARK INTER:                  -4.111
REMARK INTRA:                  -0.561
REMARK UNBOUND:                -0.360
REMARK SMILES CCCCCCCC(=O)[O-]
REMARK SMILES IDX 5 1 6 2 7 3 8 4 9 5 10 6 4 7 3 8 2 9 1 10
REMARK H PARENT
REMARK Flexibility Score: inf
ROOT
ATOM      1  C   UNL     1     -45.846 -51.196  39.796  1.00  0.00     0.000 C 
ENDROOT
BRANCH   1   2
ATOM      2  C   UNL     1     -46.395 -51.184  41.237  1.00  0.00     0.006 C 
BRANCH   2   3
ATOM      3  C   UNL     1     -47.920 -51.026  41.339  1.00  0.00     0.053 C 
BRANCH   3   4
ATOM      4  C   UNL     1     -48.580 -52.271  41.845  1.00  0.00     0.041 C 
ATOM      5  O   UNL     1     -48.272 -52.737  42.973  1.00  0.00    -0.550 OA
ATOM      6  O   UNL     1     -49.561 -52.898  41.086  1.00  0.00    -0.550 OA
ENDBRANCH   3   4
ENDBRANCH   2   3
ENDBRANCH   1   2
BRANCH   1   7
ATOM      7  C   UNL     1     -46.914 -51.098  38.691  1.00  0.00     0.000 C 
BRANCH   7   8
ATOM      8  C   UNL     1     -46.852 -52.263  37.693  1.00  0.00    -0.000 C 
BRANCH   8   9
ATOM      9  C   UNL     1     -47.957 -53.286  37.975  1.00  0.00    -0.003 C 
ATOM     10  C   UNL     1     -47.406 -54.508  38.705  1.00  0.00     0.004 C 
ENDBRANCH   8   9
ENDBRANCH   7   8
ENDBRANCH   1   7
TORSDOF 6
ENDMDL
