MODEL 1
REMARK VINA RESULT:    -4.528      0.000      0.000
REMARK INTER + INTRA:         -10.475
REMARK INTER:                  -8.499
REMARK INTRA:                  -1.976
REMARK UNBOUND:                -1.976
REMARK SMILES CCCCCC=CCC=CCCCCCCCC(=O)OC
REMARK SMILES IDX 11 1 10 2 9 3 8 4 7 5 6 6 5 7 4 8 3 9 2 10 1 11 12 12 13 13
REMARK SMILES IDX 14 14 15 15 16 16 17 17 18 18 19 19 20 20 21 21
REMARK H PARENT
REMARK Flexibility Score: inf
ROOT
ATOM      1  C   UNL     1      -1.993  -1.988 -35.053  1.00  0.00     0.027 C 
ENDROOT
BRANCH   1   2
ATOM      2  C   UNL     1      -1.450  -2.476 -36.375  1.00  0.00    -0.031 C 
ATOM      3  C   UNL     1      -1.152  -1.680 -37.420  1.00  0.00    -0.027 C 
BRANCH   3   4
ATOM      4  C   UNL     1      -1.362  -0.188 -37.442  1.00  0.00     0.054 C 
BRANCH   4   5
ATOM      5  C   UNL     1      -0.093   0.518 -37.848  1.00  0.00    -0.027 C 
ATOM      6  C   UNL     1       0.871   0.921 -36.998  1.00  0.00    -0.031 C 
BRANCH   6   7
ATOM      7  C   UNL     1       0.824   0.762 -35.496  1.00  0.00     0.027 C 
BRANCH   7   8
ATOM      8  C   UNL     1       2.007  -0.052 -34.952  1.00  0.00     0.004 C 
BRANCH   8   9
ATOM      9  C   UNL     1       1.547  -1.327 -34.229  1.00  0.00     0.000 C 
BRANCH   9  10
ATOM     10  C   UNL     1       2.121  -2.579 -34.903  1.00  0.00    -0.003 C 
ATOM     11  C   UNL     1       2.438  -2.319 -36.372  1.00  0.00     0.004 C 
ENDBRANCH   9  10
ENDBRANCH   8   9
ENDBRANCH   7   8
ENDBRANCH   6   7
ENDBRANCH   4   5
ENDBRANCH   3   4
ENDBRANCH   1   2
BRANCH   1  12
ATOM     12  C   UNL     1      -3.059  -2.935 -34.483  1.00  0.00     0.004 C 
BRANCH  12  13
ATOM     13  C   UNL     1      -3.694  -2.379 -33.197  1.00  0.00     0.000 C 
BRANCH  13  14
ATOM     14  C   UNL     1      -5.041  -3.047 -32.873  1.00  0.00     0.000 C 
BRANCH  14  15
ATOM     15  C   UNL     1      -4.976  -3.917 -31.604  1.00  0.00     0.001 C 
BRANCH  15  16
ATOM     16  C   UNL     1      -3.803  -3.528 -30.689  1.00  0.00     0.012 C 
BRANCH  16  17
ATOM     17  C   UNL     1      -2.897  -4.722 -30.363  1.00  0.00     0.123 C 
BRANCH  17  18
ATOM     18  C   UNL     1      -2.893  -4.990 -28.891  1.00  0.00     0.305 C 
ATOM     19  O   UNL     1      -1.797  -5.042 -28.266  1.00  0.00    -0.252 OA
BRANCH  18  20
ATOM     20  O   UNL     1      -4.105  -5.210 -28.228  1.00  0.00    -0.469 OA
ATOM     21  C   UNL     1      -4.349  -4.747 -26.906  1.00  0.00     0.282 C 
ENDBRANCH  18  20
ENDBRANCH  17  18
ENDBRANCH  16  17
ENDBRANCH  15  16
ENDBRANCH  14  15
ENDBRANCH  13  14
ENDBRANCH  12  13
ENDBRANCH   1  12
TORSDOF 15
ENDMDL
MODEL 2
REMARK VINA RESULT:    -4.311      1.815      3.472
REMARK INTER + INTRA:         -10.068
REMARK INTER:                  -8.835
REMARK INTRA:                  -1.233
REMARK UNBOUND:                -1.976
REMARK SMILES CCCCCC=CCC=CCCCCCCCC(=O)OC
REMARK SMILES IDX 11 1 10 2 9 3 8 4 7 5 6 6 5 7 4 8 3 9 2 10 1 11 12 12 13 13
REMARK SMILES IDX 14 14 15 15 16 16 17 17 18 18 19 19 20 20 21 21
REMARK H PARENT
REMARK Flexibility Score: inf
ROOT
ATOM      1  C   UNL     1      -3.155  -2.414 -31.619  1.00  0.00     0.027 C 
ENDROOT
BRANCH   1   2
ATOM      2  C   UNL     1      -3.928  -2.761 -32.869  1.00  0.00    -0.031 C 
ATOM      3  C   UNL     1      -3.492  -2.542 -34.124  1.00  0.00    -0.027 C 
BRANCH   3   4
ATOM      4  C   UNL     1      -2.187  -1.871 -34.467  1.00  0.00     0.054 C 
BRANCH   4   5
ATOM      5  C   UNL     1      -1.816  -2.141 -35.904  1.00  0.00    -0.027 C 
ATOM      6  C   UNL     1      -1.197  -1.265 -36.718  1.00  0.00    -0.031 C 
BRANCH   6   7
ATOM      7  C   UNL     1      -0.802   0.142 -36.337  1.00  0.00     0.027 C 
BRANCH   7   8
ATOM      8  C   UNL     1       0.669   0.247 -35.910  1.00  0.00     0.004 C 
BRANCH   8   9
ATOM      9  C   UNL     1       0.833   0.177 -34.384  1.00  0.00     0.000 C 
BRANCH   9  10
ATOM     10  C   UNL     1       1.580  -1.095 -33.968  1.00  0.00    -0.003 C 
ATOM     11  C   UNL     1       1.925  -1.954 -35.181  1.00  0.00     0.004 C 
ENDBRANCH   9  10
ENDBRANCH   8   9
ENDBRANCH   7   8
ENDBRANCH   6   7
ENDBRANCH   4   5
ENDBRANCH   3   4
ENDBRANCH   1   2
BRANCH   1  12
ATOM     12  C   UNL     1      -3.475  -3.369 -30.459  1.00  0.00     0.004 C 
BRANCH  12  13
ATOM     13  C   UNL     1      -3.489  -4.839 -30.911  1.00  0.00     0.000 C 
BRANCH  13  14
ATOM     14  C   UNL     1      -2.751  -5.761 -29.927  1.00  0.00     0.000 C 
BRANCH  14  15
ATOM     15  C   UNL     1      -2.147  -4.991 -28.739  1.00  0.00     0.001 C 
BRANCH  15  16
ATOM     16  C   UNL     1      -2.804  -5.369 -27.402  1.00  0.00     0.012 C 
BRANCH  16  17
ATOM     17  C   UNL     1      -1.788  -5.890 -26.378  1.00  0.00     0.123 C 
BRANCH  17  18
ATOM     18  C   UNL     1      -2.368  -5.854 -25.000  1.00  0.00     0.305 C 
ATOM     19  O   UNL     1      -1.640  -6.130 -24.005  1.00  0.00    -0.252 OA
BRANCH  18  20
ATOM     20  O   UNL     1      -3.721  -5.543 -24.830  1.00  0.00    -0.469 OA
ATOM     21  C   UNL     1      -4.161  -4.284 -24.339  1.00  0.00     0.282 C 
ENDBRANCH  18  20
ENDBRANCH  17  18
ENDBRANCH  16  17
ENDBRANCH  15  16
ENDBRANCH  14  15
ENDBRANCH  13  14
ENDBRANCH  12  13
ENDBRANCH   1  12
TORSDOF 15
ENDMDL
MODEL 3
REMARK VINA RESULT:    -4.217      3.181      4.691
REMARK INTER + INTRA:          -9.891
REMARK INTER:                  -7.725
REMARK INTRA:                  -2.166
REMARK UNBOUND:                -1.976
REMARK SMILES CCCCCC=CCC=CCCCCCCCC(=O)OC
REMARK SMILES IDX 11 1 10 2 9 3 8 4 7 5 6 6 5 7 4 8 3 9 2 10 1 11 12 12 13 13
REMARK SMILES IDX 14 14 15 15 16 16 17 17 18 18 19 19 20 20 21 21
REMARK H PARENT
REMARK Flexibility Score: inf
ROOT
ATOM      1  C   UNL     1      -3.267  -2.433 -31.469  1.00  0.00     0.027 C 
ENDROOT
BRANCH   1   2
ATOM      2  C   UNL     1      -4.014  -2.845 -32.715  1.00  0.00    -0.031 C 
ATOM      3  C   UNL     1      -3.558  -2.676 -33.971  1.00  0.00    -0.027 C 
BRANCH   3   4
ATOM      4  C   UNL     1      -2.254  -2.005 -34.321  1.00  0.00     0.054 C 
BRANCH   4   5
ATOM      5  C   UNL     1      -1.890  -2.278 -35.759  1.00  0.00    -0.027 C 
ATOM      6  C   UNL     1      -1.290  -1.397 -36.582  1.00  0.00    -0.031 C 
BRANCH   6   7
ATOM      7  C   UNL     1      -0.914   0.018 -36.211  1.00  0.00     0.027 C 
BRANCH   7   8
ATOM      8  C   UNL     1       0.606   0.220 -36.120  1.00  0.00     0.004 C 
BRANCH   8   9
ATOM      9  C   UNL     1       1.079   0.392 -34.668  1.00  0.00     0.000 C 
BRANCH   9  10
ATOM     10  C   UNL     1       1.362  -0.967 -34.018  1.00  0.00    -0.003 C 
ATOM     11  C   UNL     1       1.990  -1.936 -35.015  1.00  0.00     0.004 C 
ENDBRANCH   9  10
ENDBRANCH   8   9
ENDBRANCH   7   8
ENDBRANCH   6   7
ENDBRANCH   4   5
ENDBRANCH   3   4
ENDBRANCH   1   2
BRANCH   1  12
ATOM     12  C   UNL     1      -3.097  -3.602 -30.486  1.00  0.00     0.004 C 
BRANCH  12  13
ATOM     13  C   UNL     1      -4.408  -4.381 -30.286  1.00  0.00     0.000 C 
BRANCH  13  14
ATOM     14  C   UNL     1      -4.204  -5.902 -30.376  1.00  0.00     0.000 C 
BRANCH  14  15
ATOM     15  C   UNL     1      -3.166  -6.295 -31.442  1.00  0.00     0.001 C 
BRANCH  15  16
ATOM     16  C   UNL     1      -3.804  -6.525 -32.822  1.00  0.00     0.012 C 
BRANCH  16  17
ATOM     17  C   UNL     1      -2.802  -6.336 -33.968  1.00  0.00     0.123 C 
BRANCH  17  18
ATOM     18  C   UNL     1      -3.483  -6.497 -35.290  1.00  0.00     0.305 C 
ATOM     19  O   UNL     1      -4.409  -5.705 -35.619  1.00  0.00    -0.252 OA
BRANCH  18  20
ATOM     20  O   UNL     1      -3.105  -7.545 -36.136  1.00  0.00    -0.469 OA
ATOM     21  C   UNL     1      -2.573  -8.770 -35.646  1.00  0.00     0.282 C 
ENDBRANCH  18  20
ENDBRANCH  17  18
ENDBRANCH  16  17
ENDBRANCH  15  16
ENDBRANCH  14  15
ENDBRANCH  13  14
ENDBRANCH  12  13
ENDBRANCH   1  12
TORSDOF 15
ENDMDL
MODEL 4
REMARK VINA RESULT:    -4.190      3.412      7.788
REMARK INTER + INTRA:          -9.840
REMARK INTER:                  -7.704
REMARK INTRA:                  -2.136
REMARK UNBOUND:                -1.976
REMARK SMILES CCCCCC=CCC=CCCCCCCCC(=O)OC
REMARK SMILES IDX 11 1 10 2 9 3 8 4 7 5 6 6 5 7 4 8 3 9 2 10 1 11 12 12 13 13
REMARK SMILES IDX 14 14 15 15 16 16 17 17 18 18 19 19 20 20 21 21
REMARK H PARENT
REMARK Flexibility Score: inf
ROOT
ATOM      1  C   UNL     1      -3.497  -2.779 -31.399  1.00  0.00     0.027 C 
ENDROOT
BRANCH   1   2
ATOM      2  C   UNL     1      -4.277  -3.295 -30.214  1.00  0.00    -0.031 C 
ATOM      3  C   UNL     1      -3.857  -4.275 -29.391  1.00  0.00    -0.027 C 
BRANCH   3   4
ATOM      4  C   UNL     1      -2.568  -5.037 -29.561  1.00  0.00     0.054 C 
BRANCH   4   5
ATOM      5  C   UNL     1      -2.846  -6.502 -29.790  1.00  0.00    -0.027 C 
ATOM      6  C   UNL     1      -3.018  -7.074 -30.997  1.00  0.00    -0.031 C 
BRANCH   6   7
ATOM      7  C   UNL     1      -2.994  -6.338 -32.316  1.00  0.00     0.027 C 
BRANCH   7   8
ATOM      8  C   UNL     1      -4.351  -6.370 -33.034  1.00  0.00     0.004 C 
BRANCH   8   9
ATOM      9  C   UNL     1      -4.197  -6.564 -34.550  1.00  0.00     0.000 C 
BRANCH   9  10
ATOM     10  C   UNL     1      -2.723  -6.729 -34.937  1.00  0.00    -0.003 C 
ATOM     11  C   UNL     1      -2.304  -5.689 -35.972  1.00  0.00     0.004 C 
ENDBRANCH   9  10
ENDBRANCH   8   9
ENDBRANCH   7   8
ENDBRANCH   6   7
ENDBRANCH   4   5
ENDBRANCH   3   4
ENDBRANCH   1   2
BRANCH   1  12
ATOM     12  C   UNL     1      -4.370  -2.664 -32.658  1.00  0.00     0.004 C 
BRANCH  12  13
ATOM     13  C   UNL     1      -3.565  -2.924 -33.943  1.00  0.00     0.000 C 
BRANCH  13  14
ATOM     14  C   UNL     1      -2.411  -1.925 -34.124  1.00  0.00     0.000 C 
BRANCH  14  15
ATOM     15  C   UNL     1      -1.871  -1.906 -35.566  1.00  0.00     0.001 C 
BRANCH  15  16
ATOM     16  C   UNL     1      -0.712  -0.911 -35.741  1.00  0.00     0.012 C 
BRANCH  16  17
ATOM     17  C   UNL     1       0.148  -0.787 -34.477  1.00  0.00     0.123 C 
BRANCH  17  18
ATOM     18  C   UNL     1       1.575  -0.523 -34.838  1.00  0.00     0.305 C 
ATOM     19  O   UNL     1       2.102   0.586 -34.543  1.00  0.00    -0.252 OA
BRANCH  18  20
ATOM     20  O   UNL     1       2.303  -1.499 -35.527  1.00  0.00    -0.469 OA
ATOM     21  C   UNL     1       2.349  -2.857 -35.108  1.00  0.00     0.282 C 
ENDBRANCH  18  20
ENDBRANCH  17  18
ENDBRANCH  16  17
ENDBRANCH  15  16
ENDBRANCH  14  15
ENDBRANCH  13  14
ENDBRANCH  12  13
ENDBRANCH   1  12
TORSDOF 15
ENDMDL
MODEL 5
REMARK VINA RESULT:    -4.125      2.847      8.399
REMARK INTER + INTRA:          -9.718
REMARK INTER:                  -8.486
REMARK INTRA:                  -1.232
REMARK UNBOUND:                -1.976
REMARK SMILES CCCCCC=CCC=CCCCCCCCC(=O)OC
REMARK SMILES IDX 11 1 10 2 9 3 8 4 7 5 6 6 5 7 4 8 3 9 2 10 1 11 12 12 13 13
REMARK SMILES IDX 14 14 15 15 16 16 17 17 18 18 19 19 20 20 21 21
REMARK H PARENT
REMARK Flexibility Score: inf
ROOT
ATOM      1  C   UNL     1      -4.229  -3.372 -33.653  1.00  0.00     0.027 C 
ENDROOT
BRANCH   1   2
ATOM      2  C   UNL     1      -3.553  -2.405 -32.710  1.00  0.00    -0.031 C 
ATOM      3  C   UNL     1      -3.398  -2.608 -31.388  1.00  0.00    -0.027 C 
BRANCH   3   4
ATOM      4  C   UNL     1      -3.921  -3.810 -30.643  1.00  0.00     0.054 C 
BRANCH   4   5
ATOM      5  C   UNL     1      -2.779  -4.627 -30.093  1.00  0.00    -0.027 C 
ATOM      6  C   UNL     1      -2.750  -5.184 -28.867  1.00  0.00    -0.031 C 
BRANCH   6   7
ATOM      7  C   UNL     1      -3.841  -5.054 -27.831  1.00  0.00     0.027 C 
BRANCH   7   8
ATOM      8  C   UNL     1      -3.349  -5.385 -26.413  1.00  0.00     0.004 C 
BRANCH   8   9
ATOM      9  C   UNL     1      -1.846  -5.697 -26.382  1.00  0.00     0.000 C 
BRANCH   9  10
ATOM     10  C   UNL     1      -1.521  -6.731 -25.297  1.00  0.00    -0.003 C 
ATOM     11  C   UNL     1      -0.702  -6.110 -24.171  1.00  0.00     0.004 C 
ENDBRANCH   9  10
ENDBRANCH   8   9
ENDBRANCH   7   8
ENDBRANCH   6   7
ENDBRANCH   4   5
ENDBRANCH   3   4
ENDBRANCH   1   2
BRANCH   1  12
ATOM     12  C   UNL     1      -3.289  -3.834 -34.775  1.00  0.00     0.004 C 
BRANCH  12  13
ATOM     13  C   UNL     1      -2.230  -2.771 -35.115  1.00  0.00     0.000 C 
BRANCH  13  14
ATOM     14  C   UNL     1      -1.648  -2.954 -36.526  1.00  0.00     0.000 C 
BRANCH  14  15
ATOM     15  C   UNL     1      -1.163  -1.626 -37.138  1.00  0.00     0.001 C 
BRANCH  15  16
ATOM     16  C   UNL     1      -1.235  -0.461 -36.138  1.00  0.00     0.012 C 
BRANCH  16  17
ATOM     17  C   UNL     1       0.155   0.022 -35.704  1.00  0.00     0.123 C 
BRANCH  17  18
ATOM     18  C   UNL     1       0.545  -0.607 -34.404  1.00  0.00     0.305 C 
ATOM     19  O   UNL     1      -0.156  -0.406 -33.374  1.00  0.00    -0.252 OA
BRANCH  18  20
ATOM     20  O   UNL     1       1.703  -1.390 -34.339  1.00  0.00    -0.469 OA
ATOM     21  C   UNL     1       2.056  -2.321 -35.355  1.00  0.00     0.282 C 
ENDBRANCH  18  20
ENDBRANCH  17  18
ENDBRANCH  16  17
ENDBRANCH  15  16
ENDBRANCH  14  15
ENDBRANCH  13  14
ENDBRANCH  12  13
ENDBRANCH   1  12
TORSDOF 15
ENDMDL
MODEL 6
REMARK VINA RESULT:    -4.047      1.553      2.805
REMARK INTER + INTRA:          -9.572
REMARK INTER:                  -8.154
REMARK INTRA:                  -1.418
REMARK UNBOUND:                -1.976
REMARK SMILES CCCCCC=CCC=CCCCCCCCC(=O)OC
REMARK SMILES IDX 11 1 10 2 9 3 8 4 7 5 6 6 5 7 4 8 3 9 2 10 1 11 12 12 13 13
REMARK SMILES IDX 14 14 15 15 16 16 17 17 18 18 19 19 20 20 21 21
REMARK H PARENT
REMARK Flexibility Score: inf
ROOT
ATOM      1  C   UNL     1      -3.746  -3.625 -34.206  1.00  0.00     0.027 C 
ENDROOT
BRANCH   1   2
ATOM      2  C   UNL     1      -3.030  -2.296 -34.228  1.00  0.00    -0.031 C 
ATOM      3  C   UNL     1      -2.094  -1.947 -35.131  1.00  0.00    -0.027 C 
BRANCH   3   4
ATOM      4  C   UNL     1      -1.586  -2.851 -36.225  1.00  0.00     0.054 C 
BRANCH   4   5
ATOM      5  C   UNL     1      -1.443  -2.087 -37.517  1.00  0.00    -0.027 C 
ATOM      6  C   UNL     1      -0.279  -1.626 -38.016  1.00  0.00    -0.031 C 
BRANCH   6   7
ATOM      7  C   UNL     1       1.067  -1.769 -37.346  1.00  0.00     0.027 C 
BRANCH   7   8
ATOM      8  C   UNL     1       1.649  -0.420 -36.898  1.00  0.00     0.004 C 
BRANCH   8   9
ATOM      9  C   UNL     1       2.349  -0.518 -35.534  1.00  0.00     0.000 C 
BRANCH   9  10
ATOM     10  C   UNL     1       1.380  -1.009 -34.452  1.00  0.00    -0.003 C 
ATOM     11  C   UNL     1       0.494   0.126 -33.949  1.00  0.00     0.004 C 
ENDBRANCH   9  10
ENDBRANCH   8   9
ENDBRANCH   7   8
ENDBRANCH   6   7
ENDBRANCH   4   5
ENDBRANCH   3   4
ENDBRANCH   1   2
BRANCH   1  12
ATOM     12  C   UNL     1      -4.095  -4.069 -32.778  1.00  0.00     0.004 C 
BRANCH  12  13
ATOM     13  C   UNL     1      -3.785  -2.973 -31.743  1.00  0.00     0.000 C 
BRANCH  13  14
ATOM     14  C   UNL     1      -3.692  -3.528 -30.312  1.00  0.00     0.000 C 
BRANCH  14  15
ATOM     15  C   UNL     1      -2.851  -4.816 -30.235  1.00  0.00     0.001 C 
BRANCH  15  16
ATOM     16  C   UNL     1      -2.261  -5.044 -28.834  1.00  0.00     0.012 C 
BRANCH  16  17
ATOM     17  C   UNL     1      -3.258  -5.718 -27.883  1.00  0.00     0.123 C 
BRANCH  17  18
ATOM     18  C   UNL     1      -2.861  -5.487 -26.459  1.00  0.00     0.305 C 
ATOM     19  O   UNL     1      -3.613  -4.815 -25.700  1.00  0.00    -0.252 OA
BRANCH  18  20
ATOM     20  O   UNL     1      -1.644  -5.994 -25.993  1.00  0.00    -0.469 OA
ATOM     21  C   UNL     1      -1.391  -7.389 -25.873  1.00  0.00     0.282 C 
ENDBRANCH  18  20
ENDBRANCH  17  18
ENDBRANCH  16  17
ENDBRANCH  15  16
ENDBRANCH  14  15
ENDBRANCH  13  14
ENDBRANCH  12  13
ENDBRANCH   1  12
TORSDOF 15
ENDMDL
MODEL 7
REMARK VINA RESULT:    -4.026      2.987      7.974
REMARK INTER + INTRA:          -9.532
REMARK INTER:                  -8.339
REMARK INTRA:                  -1.194
REMARK UNBOUND:                -1.976
REMARK SMILES CCCCCC=CCC=CCCCCCCCC(=O)OC
REMARK SMILES IDX 11 1 10 2 9 3 8 4 7 5 6 6 5 7 4 8 3 9 2 10 1 11 12 12 13 13
REMARK SMILES IDX 14 14 15 15 16 16 17 17 18 18 19 19 20 20 21 21
REMARK H PARENT
REMARK Flexibility Score: inf
ROOT
ATOM      1  C   UNL     1      -2.105  -1.787 -35.123  1.00  0.00     0.027 C 
ENDROOT
BRANCH   1   2
ATOM      2  C   UNL     1      -2.727  -3.149 -34.925  1.00  0.00    -0.031 C 
ATOM      3  C   UNL     1      -3.646  -3.441 -33.984  1.00  0.00    -0.027 C 
BRANCH   3   4
ATOM      4  C   UNL     1      -4.154  -2.462 -32.957  1.00  0.00     0.054 C 
BRANCH   4   5
ATOM      5  C   UNL     1      -3.194  -2.369 -31.796  1.00  0.00    -0.027 C 
ATOM      6  C   UNL     1      -3.235  -3.148 -30.699  1.00  0.00    -0.031 C 
BRANCH   6   7
ATOM      7  C   UNL     1      -4.267  -4.219 -30.434  1.00  0.00     0.027 C 
BRANCH   7   8
ATOM      8  C   UNL     1      -3.694  -5.409 -29.649  1.00  0.00     0.004 C 
BRANCH   8   9
ATOM      9  C   UNL     1      -2.317  -5.093 -29.047  1.00  0.00     0.000 C 
BRANCH   9  10
ATOM     10  C   UNL     1      -2.314  -5.320 -27.531  1.00  0.00    -0.003 C 
ATOM     11  C   UNL     1      -3.686  -5.035 -26.928  1.00  0.00     0.004 C 
ENDBRANCH   9  10
ENDBRANCH   8   9
ENDBRANCH   7   8
ENDBRANCH   6   7
ENDBRANCH   4   5
ENDBRANCH   3   4
ENDBRANCH   1   2
BRANCH   1  12
ATOM     12  C   UNL     1      -1.714  -1.540 -36.588  1.00  0.00     0.004 C 
BRANCH  12  13
ATOM     13  C   UNL     1      -1.408  -0.057 -36.860  1.00  0.00     0.000 C 
BRANCH  13  14
ATOM     14  C   UNL     1      -0.364   0.131 -37.972  1.00  0.00     0.000 C 
BRANCH  14  15
ATOM     15  C   UNL     1       0.826   0.998 -37.522  1.00  0.00     0.001 C 
BRANCH  15  16
ATOM     16  C   UNL     1       2.129   0.189 -37.414  1.00  0.00     0.012 C 
BRANCH  16  17
ATOM     17  C   UNL     1       1.877  -1.281 -37.058  1.00  0.00     0.123 C 
BRANCH  17  18
ATOM     18  C   UNL     1       2.131  -1.519 -35.603  1.00  0.00     0.305 C 
ATOM     19  O   UNL     1       2.372  -2.688 -35.191  1.00  0.00    -0.252 OA
BRANCH  18  20
ATOM     20  O   UNL     1       2.071  -0.444 -34.709  1.00  0.00    -0.469 OA
ATOM     21  C   UNL     1       0.886  -0.106 -33.999  1.00  0.00     0.282 C 
ENDBRANCH  18  20
ENDBRANCH  17  18
ENDBRANCH  16  17
ENDBRANCH  15  16
ENDBRANCH  14  15
ENDBRANCH  13  14
ENDBRANCH  12  13
ENDBRANCH   1  12
TORSDOF 15
ENDMDL
MODEL 8
REMARK VINA RESULT:    -4.014      3.164      7.674
REMARK INTER + INTRA:          -9.509
REMARK INTER:                  -7.618
REMARK INTRA:                  -1.891
REMARK UNBOUND:                -1.976
REMARK SMILES CCCCCC=CCC=CCCCCCCCC(=O)OC
REMARK SMILES IDX 11 1 10 2 9 3 8 4 7 5 6 6 5 7 4 8 3 9 2 10 1 11 12 12 13 13
REMARK SMILES IDX 14 14 15 15 16 16 17 17 18 18 19 19 20 20 21 21
REMARK H PARENT
REMARK Flexibility Score: inf
ROOT
ATOM      1  C   UNL     1      -2.103  -2.160 -34.766  1.00  0.00     0.027 C 
ENDROOT
BRANCH   1   2
ATOM      2  C   UNL     1      -3.517  -2.504 -34.363  1.00  0.00    -0.031 C 
ATOM      3  C   UNL     1      -3.950  -2.594 -33.091  1.00  0.00    -0.027 C 
BRANCH   3   4
ATOM      4  C   UNL     1      -3.073  -2.412 -31.878  1.00  0.00     0.054 C 
BRANCH   4   5
ATOM      5  C   UNL     1      -3.799  -2.851 -30.632  1.00  0.00    -0.027 C 
ATOM      6  C   UNL     1      -3.773  -4.098 -30.123  1.00  0.00    -0.031 C 
BRANCH   6   7
ATOM      7  C   UNL     1      -3.040  -5.268 -30.735  1.00  0.00     0.027 C 
BRANCH   7   8
ATOM      8  C   UNL     1      -3.882  -6.007 -31.786  1.00  0.00     0.004 C 
BRANCH   8   9
ATOM      9  C   UNL     1      -3.017  -6.872 -32.715  1.00  0.00     0.000 C 
BRANCH   9  10
ATOM     10  C   UNL     1      -3.396  -6.652 -34.183  1.00  0.00    -0.003 C 
ATOM     11  C   UNL     1      -4.750  -5.961 -34.306  1.00  0.00     0.004 C 
ENDBRANCH   9  10
ENDBRANCH   8   9
ENDBRANCH   7   8
ENDBRANCH   6   7
ENDBRANCH   4   5
ENDBRANCH   3   4
ENDBRANCH   1   2
BRANCH   1  12
ATOM     12  C   UNL     1      -1.659  -2.924 -36.022  1.00  0.00     0.004 C 
BRANCH  12  13
ATOM     13  C   UNL     1      -1.358  -1.977 -37.197  1.00  0.00     0.000 C 
BRANCH  13  14
ATOM     14  C   UNL     1      -1.523  -0.498 -36.814  1.00  0.00     0.000 C 
BRANCH  14  15
ATOM     15  C   UNL     1      -0.610   0.429 -37.637  1.00  0.00     0.001 C 
BRANCH  15  16
ATOM     16  C   UNL     1       0.648   0.849 -36.860  1.00  0.00     0.012 C 
BRANCH  16  17
ATOM     17  C   UNL     1       0.575   0.463 -35.377  1.00  0.00     0.123 C 
BRANCH  17  18
ATOM     18  C   UNL     1       1.844  -0.200 -34.946  1.00  0.00     0.305 C 
ATOM     19  O   UNL     1       2.464   0.230 -33.933  1.00  0.00    -0.252 OA
BRANCH  18  20
ATOM     20  O   UNL     1       2.348  -1.273 -35.689  1.00  0.00    -0.469 OA
ATOM     21  C   UNL     1       2.104  -2.629 -35.337  1.00  0.00     0.282 C 
ENDBRANCH  18  20
ENDBRANCH  17  18
ENDBRANCH  16  17
ENDBRANCH  15  16
ENDBRANCH  14  15
ENDBRANCH  13  14
ENDBRANCH  12  13
ENDBRANCH   1  12
TORSDOF 15
ENDMDL
MODEL 9
REMARK VINA RESULT:    -3.902      3.618      9.688
REMARK INTER + INTRA:          -9.300
REMARK INTER:                  -8.166
REMARK INTRA:                  -1.133
REMARK UNBOUND:                -1.976
REMARK SMILES CCCCCC=CCC=CCCCCCCCC(=O)OC
REMARK SMILES IDX 11 1 10 2 9 3 8 4 7 5 6 6 5 7 4 8 3 9 2 10 1 11 12 12 13 13
REMARK SMILES IDX 14 14 15 15 16 16 17 17 18 18 19 19 20 20 21 21
REMARK H PARENT
REMARK Flexibility Score: inf
ROOT
ATOM      1  C   UNL     1      -3.162  -4.891 -30.102  1.00  0.00     0.027 C 
ENDROOT
BRANCH   1   2
ATOM      2  C   UNL     1      -2.165  -4.949 -28.969  1.00  0.00    -0.031 C 
ATOM      3  C   UNL     1      -2.462  -5.310 -27.706  1.00  0.00    -0.027 C 
BRANCH   3   4
ATOM      4  C   UNL     1      -3.846  -5.662 -27.224  1.00  0.00     0.054 C 
BRANCH   4   5
ATOM      5  C   UNL     1      -4.460  -4.498 -26.488  1.00  0.00    -0.027 C 
ATOM      6  C   UNL     1      -4.528  -4.382 -25.147  1.00  0.00    -0.031 C 
BRANCH   6   7
ATOM      7  C   UNL     1      -4.030  -5.414 -24.163  1.00  0.00     0.027 C 
BRANCH   7   8
ATOM      8  C   UNL     1      -2.738  -4.980 -23.455  1.00  0.00     0.004 C 
BRANCH   8   9
ATOM      9  C   UNL     1      -1.536  -5.842 -23.868  1.00  0.00     0.000 C 
BRANCH   9  10
ATOM     10  C   UNL     1      -0.368  -5.662 -22.892  1.00  0.00    -0.003 C 
ATOM     11  C   UNL     1       0.800  -4.941 -23.556  1.00  0.00     0.004 C 
ENDBRANCH   9  10
ENDBRANCH   8   9
ENDBRANCH   7   8
ENDBRANCH   6   7
ENDBRANCH   4   5
ENDBRANCH   3   4
ENDBRANCH   1   2
BRANCH   1  12
ATOM     12  C   UNL     1      -3.875  -3.532 -30.173  1.00  0.00     0.004 C 
BRANCH  12  13
ATOM     13  C   UNL     1      -3.516  -2.760 -31.454  1.00  0.00     0.000 C 
BRANCH  13  14
ATOM     14  C   UNL     1      -4.417  -3.141 -32.639  1.00  0.00     0.000 C 
BRANCH  14  15
ATOM     15  C   UNL     1      -3.649  -3.181 -33.973  1.00  0.00     0.001 C 
BRANCH  15  16
ATOM     16  C   UNL     1      -2.599  -2.064 -34.076  1.00  0.00     0.012 C 
BRANCH  16  17
ATOM     17  C   UNL     1      -1.959  -1.990 -35.469  1.00  0.00     0.123 C 
BRANCH  17  18
ATOM     18  C   UNL     1      -0.811  -1.031 -35.467  1.00  0.00     0.305 C 
ATOM     19  O   UNL     1      -0.988   0.160 -35.847  1.00  0.00    -0.252 OA
BRANCH  18  20
ATOM     20  O   UNL     1       0.456  -1.474 -35.071  1.00  0.00    -0.469 OA
ATOM     21  C   UNL     1       1.341  -0.671 -34.300  1.00  0.00     0.282 C 
ENDBRANCH  18  20
ENDBRANCH  17  18
ENDBRANCH  16  17
ENDBRANCH  15  16
ENDBRANCH  14  15
ENDBRANCH  13  14
ENDBRANCH  12  13
ENDBRANCH   1  12
TORSDOF 15
ENDMDL
