MODEL 1
REMARK VINA RESULT:    -7.473      0.000      0.000
REMARK INTER + INTRA:         -12.181
REMARK INTER:                 -11.406
REMARK INTRA:                  -0.775
REMARK UNBOUND:                -0.775
REMARK SMILES CC(=O)CCC=C(C)CCC=C(C)CCC=C(C)C
REMARK SMILES IDX 10 1 11 2 12 3 13 4 14 5 15 6 16 7 18 8 17 9 19 10 9 11 7 12
REMARK SMILES IDX 6 13 8 14 5 15 4 16 2 17 3 18 1 19
REMARK H PARENT
REMARK Flexibility Score: inf
ROOT
ATOM      1  C   UNL     1      32.204   9.484  26.149  1.00  0.00     0.032 C 
ENDROOT
BRANCH   1   2
ATOM      2  C   UNL     1      32.526  10.366  27.332  1.00  0.00    -0.028 C 
ATOM      3  C   UNL     1      33.760  10.452  27.874  1.00  0.00    -0.077 C 
ATOM      4  C   UNL     1      34.918   9.653  27.325  1.00  0.00     0.039 C 
BRANCH   3   5
ATOM      5  C   UNL     1      33.986  11.365  29.059  1.00  0.00     0.034 C 
BRANCH   5   6
ATOM      6  C   UNL     1      35.176  12.298  28.807  1.00  0.00     0.032 C 
BRANCH   6   7
ATOM      7  C   UNL     1      34.728  13.738  28.772  1.00  0.00    -0.028 C 
ATOM      8  C   UNL     1      34.967  16.183  28.804  1.00  0.00     0.039 C 
ATOM      9  C   UNL     1      35.563  14.799  28.805  1.00  0.00    -0.080 C 
ATOM     10  C   UNL     1      37.065  14.635  28.826  1.00  0.00     0.039 C 
ENDBRANCH   6   7
ENDBRANCH   5   6
ENDBRANCH   3   5
ENDBRANCH   1   2
BRANCH   1  11
ATOM     11  C   UNL     1      30.831   9.821  25.561  1.00  0.00     0.034 C 
BRANCH  11  12
ATOM     12  C   UNL     1      29.791   8.820  26.023  1.00  0.00    -0.077 C 
ATOM     13  C   UNL     1      28.642   9.183  26.636  1.00  0.00    -0.028 C 
ATOM     14  C   UNL     1      30.076   7.350  25.853  1.00  0.00     0.039 C 
BRANCH  13  15
ATOM     15  C   UNL     1      28.191  10.607  26.858  1.00  0.00     0.035 C 
BRANCH  15  16
ATOM     16  C   UNL     1      26.696  10.681  27.193  1.00  0.00     0.079 C 
BRANCH  16  17
ATOM     17  C   UNL     1      26.152  12.073  26.997  1.00  0.00     0.130 C 
ATOM     18  O   UNL     1      26.795  12.885  26.349  1.00  0.00    -0.300 OA
ATOM     19  C   UNL     1      24.833  12.484  27.580  1.00  0.00     0.087 C 
ENDBRANCH  16  17
ENDBRANCH  15  16
ENDBRANCH  13  15
ENDBRANCH  11  12
ENDBRANCH   1  11
TORSDOF 9
ENDMDL
MODEL 2
REMARK VINA RESULT:    -7.043      2.738      7.425
REMARK INTER + INTRA:         -11.524
REMARK INTER:                 -10.794
REMARK INTRA:                  -0.730
REMARK UNBOUND:                -0.775
REMARK SMILES CC(=O)CCC=C(C)CCC=C(C)CCC=C(C)C
REMARK SMILES IDX 10 1 11 2 12 3 13 4 14 5 15 6 16 7 18 8 17 9 19 10 9 11 7 12
REMARK SMILES IDX 6 13 8 14 5 15 4 16 2 17 3 18 1 19
REMARK H PARENT
REMARK Flexibility Score: inf
ROOT
ATOM      1  C   UNL     1      32.060   9.613  26.511  1.00  0.00     0.032 C 
ENDROOT
BRANCH   1   2
ATOM      2  C   UNL     1      30.637  10.039  26.241  1.00  0.00    -0.028 C 
ATOM      3  C   UNL     1      29.578   9.218  26.403  1.00  0.00    -0.077 C 
ATOM      4  C   UNL     1      29.752   7.792  26.868  1.00  0.00     0.039 C 
BRANCH   3   5
ATOM      5  C   UNL     1      28.187   9.735  26.108  1.00  0.00     0.034 C 
BRANCH   5   6
ATOM      6  C   UNL     1      28.175  11.268  26.065  1.00  0.00     0.032 C 
BRANCH   6   7
ATOM      7  C   UNL     1      28.005  11.760  24.649  1.00  0.00    -0.028 C 
ATOM      8  C   UNL     1      27.355  13.309  22.855  1.00  0.00     0.039 C 
ATOM      9  C   UNL     1      27.504  12.970  24.316  1.00  0.00    -0.080 C 
ATOM     10  C   UNL     1      27.106  13.987  25.360  1.00  0.00     0.039 C 
ENDBRANCH   6   7
ENDBRANCH   5   6
ENDBRANCH   3   5
ENDBRANCH   1   2
BRANCH   1  11
ATOM     11  C   UNL     1      32.708  10.488  27.589  1.00  0.00     0.034 C 
BRANCH  11  12
ATOM     12  C   UNL     1      34.213  10.307  27.591  1.00  0.00    -0.077 C 
ATOM     13  C   UNL     1      35.061  11.205  28.140  1.00  0.00    -0.028 C 
ATOM     14  C   UNL     1      34.798   9.107  26.891  1.00  0.00     0.039 C 
BRANCH  13  15
ATOM     15  C   UNL     1      34.641  12.441  28.900  1.00  0.00     0.035 C 
BRANCH  15  16
ATOM     16  C   UNL     1      35.682  13.560  28.779  1.00  0.00     0.079 C 
BRANCH  16  17
ATOM     17  C   UNL     1      35.051  14.922  28.916  1.00  0.00     0.130 C 
ATOM     18  O   UNL     1      35.459  15.846  28.228  1.00  0.00    -0.300 OA
ATOM     19  C   UNL     1      33.930  15.169  29.881  1.00  0.00     0.087 C 
ENDBRANCH  16  17
ENDBRANCH  15  16
ENDBRANCH  13  15
ENDBRANCH  11  12
ENDBRANCH   1  11
TORSDOF 9
ENDMDL
MODEL 3
REMARK VINA RESULT:    -7.011      2.413      7.769
REMARK INTER + INTRA:         -11.475
REMARK INTER:                 -10.770
REMARK INTRA:                  -0.704
REMARK UNBOUND:                -0.775
REMARK SMILES CC(=O)CCC=C(C)CCC=C(C)CCC=C(C)C
REMARK SMILES IDX 10 1 11 2 12 3 13 4 14 5 15 6 16 7 18 8 17 9 19 10 9 11 7 12
REMARK SMILES IDX 6 13 8 14 5 15 4 16 2 17 3 18 1 19
REMARK H PARENT
REMARK Flexibility Score: inf
ROOT
ATOM      1  C   UNL     1      33.271  10.419  27.444  1.00  0.00     0.032 C 
ENDROOT
BRANCH   1   2
ATOM      2  C   UNL     1      31.780  10.225  27.583  1.00  0.00    -0.028 C 
ATOM      3  C   UNL     1      31.012   9.691  26.609  1.00  0.00    -0.077 C 
ATOM      4  C   UNL     1      31.605   9.252  25.292  1.00  0.00     0.039 C 
BRANCH   3   5
ATOM      5  C   UNL     1      29.525   9.535  26.840  1.00  0.00     0.034 C 
BRANCH   5   6
ATOM      6  C   UNL     1      28.727  10.338  25.806  1.00  0.00     0.032 C 
BRANCH   6   7
ATOM      7  C   UNL     1      27.714  11.225  26.486  1.00  0.00    -0.028 C 
ATOM      8  C   UNL     1      25.547  11.845  27.465  1.00  0.00     0.039 C 
ATOM      9  C   UNL     1      26.465  10.836  26.826  1.00  0.00    -0.080 C 
ATOM     10  C   UNL     1      25.976   9.424  26.599  1.00  0.00     0.039 C 
ENDBRANCH   6   7
ENDBRANCH   5   6
ENDBRANCH   3   5
ENDBRANCH   1   2
BRANCH   1  11
ATOM     11  C   UNL     1      33.924  10.698  28.802  1.00  0.00     0.034 C 
BRANCH  11  12
ATOM     12  C   UNL     1      35.354  11.169  28.621  1.00  0.00    -0.077 C 
ATOM     13  C   UNL     1      35.721  12.465  28.730  1.00  0.00    -0.028 C 
ATOM     14  C   UNL     1      36.404  10.159  28.235  1.00  0.00     0.039 C 
BRANCH  13  15
ATOM     15  C   UNL     1      34.803  13.594  29.136  1.00  0.00     0.035 C 
BRANCH  15  16
ATOM     16  C   UNL     1      35.357  14.957  28.704  1.00  0.00     0.079 C 
BRANCH  16  17
ATOM     17  C   UNL     1      34.516  16.091  29.231  1.00  0.00     0.130 C 
ATOM     18  O   UNL     1      34.766  17.236  28.887  1.00  0.00    -0.300 OA
ATOM     19  C   UNL     1      33.374  15.843  30.171  1.00  0.00     0.087 C 
ENDBRANCH  16  17
ENDBRANCH  15  16
ENDBRANCH  13  15
ENDBRANCH  11  12
ENDBRANCH   1  11
TORSDOF 9
ENDMDL
MODEL 4
REMARK VINA RESULT:    -6.893      2.542      5.054
REMARK INTER + INTRA:         -11.295
REMARK INTER:                 -10.412
REMARK INTRA:                  -0.883
REMARK UNBOUND:                -0.775
REMARK SMILES CC(=O)CCC=C(C)CCC=C(C)CCC=C(C)C
REMARK SMILES IDX 10 1 11 2 12 3 13 4 14 5 15 6 16 7 18 8 17 9 19 10 9 11 7 12
REMARK SMILES IDX 6 13 8 14 5 15 4 16 2 17 3 18 1 19
REMARK H PARENT
REMARK Flexibility Score: inf
ROOT
ATOM      1  C   UNL     1      35.594  12.117  28.751  1.00  0.00     0.032 C 
ENDROOT
BRANCH   1   2
ATOM      2  C   UNL     1      34.906  13.426  29.055  1.00  0.00    -0.028 C 
ATOM      3  C   UNL     1      35.549  14.613  29.059  1.00  0.00    -0.077 C 
ATOM      4  C   UNL     1      37.026  14.709  28.761  1.00  0.00     0.039 C 
BRANCH   3   5
ATOM      5  C   UNL     1      34.775  15.874  29.375  1.00  0.00     0.034 C 
BRANCH   5   6
ATOM      6  C   UNL     1      33.368  15.536  29.883  1.00  0.00     0.032 C 
BRANCH   6   7
ATOM      7  C   UNL     1      32.867  16.605  30.822  1.00  0.00    -0.028 C 
ATOM      8  C   UNL     1      32.169  17.589  32.963  1.00  0.00     0.039 C 
ATOM      9  C   UNL     1      32.720  16.442  32.155  1.00  0.00    -0.080 C 
ATOM     10  C   UNL     1      33.104  15.158  32.852  1.00  0.00     0.039 C 
ENDBRANCH   6   7
ENDBRANCH   5   6
ENDBRANCH   3   5
ENDBRANCH   1   2
BRANCH   1  11
ATOM     11  C   UNL     1      34.591  10.961  28.699  1.00  0.00     0.034 C 
BRANCH  11  12
ATOM     12  C   UNL     1      34.703  10.214  27.384  1.00  0.00    -0.077 C 
ATOM     13  C   UNL     1      33.627   9.806  26.675  1.00  0.00    -0.028 C 
ATOM     14  C   UNL     1      36.074   9.848  26.875  1.00  0.00     0.039 C 
BRANCH  13  15
ATOM     15  C   UNL     1      32.191  10.113  27.028  1.00  0.00     0.035 C 
BRANCH  15  16
ATOM     16  C   UNL     1      31.263   9.945  25.818  1.00  0.00     0.079 C 
BRANCH  16  17
ATOM     17  C   UNL     1      30.188   8.922  26.081  1.00  0.00     0.130 C 
ATOM     18  O   UNL     1      30.368   7.760  25.748  1.00  0.00    -0.300 OA
ATOM     19  C   UNL     1      28.898   9.299  26.747  1.00  0.00     0.087 C 
ENDBRANCH  16  17
ENDBRANCH  15  16
ENDBRANCH  13  15
ENDBRANCH  11  12
ENDBRANCH   1  11
TORSDOF 9
ENDMDL
MODEL 5
REMARK VINA RESULT:    -6.765      1.287      2.383
REMARK INTER + INTRA:         -11.099
REMARK INTER:                 -10.139
REMARK INTRA:                  -0.961
REMARK UNBOUND:                -0.775
REMARK SMILES CC(=O)CCC=C(C)CCC=C(C)CCC=C(C)C
REMARK SMILES IDX 10 1 11 2 12 3 13 4 14 5 15 6 16 7 18 8 17 9 19 10 9 11 7 12
REMARK SMILES IDX 6 13 8 14 5 15 4 16 2 17 3 18 1 19
REMARK H PARENT
REMARK Flexibility Score: inf
ROOT
ATOM      1  C   UNL     1      33.238  10.066  28.278  1.00  0.00     0.032 C 
ENDROOT
BRANCH   1   2
ATOM      2  C   UNL     1      34.013  11.308  28.650  1.00  0.00    -0.028 C 
ATOM      3  C   UNL     1      35.337  11.446  28.422  1.00  0.00    -0.077 C 
ATOM      4  C   UNL     1      36.143  10.345  27.775  1.00  0.00     0.039 C 
BRANCH   3   5
ATOM      5  C   UNL     1      36.029  12.729  28.829  1.00  0.00     0.034 C 
BRANCH   5   6
ATOM      6  C   UNL     1      35.039  13.694  29.490  1.00  0.00     0.032 C 
BRANCH   6   7
ATOM      7  C   UNL     1      35.313  15.115  29.064  1.00  0.00    -0.028 C 
ATOM      8  C   UNL     1      34.889  17.522  28.808  1.00  0.00     0.039 C 
ATOM      9  C   UNL     1      34.505  16.163  29.334  1.00  0.00    -0.080 C 
ATOM     10  C   UNL     1      33.246  16.012  30.156  1.00  0.00     0.039 C 
ENDBRANCH   6   7
ENDBRANCH   5   6
ENDBRANCH   3   5
ENDBRANCH   1   2
BRANCH   1  11
ATOM     11  C   UNL     1      31.985  10.415  27.468  1.00  0.00     0.034 C 
BRANCH  11  12
ATOM     12  C   UNL     1      31.901   9.559  26.220  1.00  0.00    -0.077 C 
ATOM     13  C   UNL     1      30.746   9.008  25.782  1.00  0.00    -0.028 C 
ATOM     14  C   UNL     1      33.170   9.252  25.467  1.00  0.00     0.039 C 
BRANCH  13  15
ATOM     15  C   UNL     1      29.388   9.238  26.401  1.00  0.00     0.035 C 
BRANCH  15  16
ATOM     16  C   UNL     1      28.663  10.422  25.750  1.00  0.00     0.079 C 
BRANCH  16  17
ATOM     17  C   UNL     1      27.366  10.733  26.453  1.00  0.00     0.130 C 
ATOM     18  O   UNL     1      26.696   9.820  26.912  1.00  0.00    -0.300 OA
ATOM     19  C   UNL     1      26.879  12.144  26.603  1.00  0.00     0.087 C 
ENDBRANCH  16  17
ENDBRANCH  15  16
ENDBRANCH  13  15
ENDBRANCH  11  12
ENDBRANCH   1  11
TORSDOF 9
ENDMDL
MODEL 6
REMARK VINA RESULT:    -6.742      4.452      7.237
REMARK INTER + INTRA:         -11.064
REMARK INTER:                  -9.610
REMARK INTRA:                  -1.454
REMARK UNBOUND:                -0.775
REMARK SMILES CC(=O)CCC=C(C)CCC=C(C)CCC=C(C)C
REMARK SMILES IDX 10 1 11 2 12 3 13 4 14 5 15 6 16 7 18 8 17 9 19 10 9 11 7 12
REMARK SMILES IDX 6 13 8 14 5 15 4 16 2 17 3 18 1 19
REMARK H PARENT
REMARK Flexibility Score: inf
ROOT
ATOM      1  C   UNL     1      35.337  12.151  28.511  1.00  0.00     0.032 C 
ENDROOT
BRANCH   1   2
ATOM      2  C   UNL     1      34.635  13.443  28.851  1.00  0.00    -0.028 C 
ATOM      3  C   UNL     1      35.286  14.616  29.012  1.00  0.00    -0.077 C 
ATOM      4  C   UNL     1      36.786  14.709  28.865  1.00  0.00     0.039 C 
BRANCH   3   5
ATOM      5  C   UNL     1      34.497  15.861  29.352  1.00  0.00     0.034 C 
BRANCH   5   6
ATOM      6  C   UNL     1      33.141  15.494  29.967  1.00  0.00     0.032 C 
BRANCH   6   7
ATOM      7  C   UNL     1      33.108  15.845  31.434  1.00  0.00    -0.028 C 
ATOM      8  C   UNL     1      33.143  15.442  33.858  1.00  0.00     0.039 C 
ATOM      9  C   UNL     1      33.238  14.949  32.437  1.00  0.00    -0.080 C 
ATOM     10  C   UNL     1      33.489  13.483  32.173  1.00  0.00     0.039 C 
ENDBRANCH   6   7
ENDBRANCH   5   6
ENDBRANCH   3   5
ENDBRANCH   1   2
BRANCH   1  11
ATOM     11  C   UNL     1      34.512  10.938  28.952  1.00  0.00     0.034 C 
BRANCH  11  12
ATOM     12  C   UNL     1      33.910  10.235  27.751  1.00  0.00    -0.077 C 
ATOM     13  C   UNL     1      34.626   9.430  26.934  1.00  0.00    -0.028 C 
ATOM     14  C   UNL     1      32.465  10.496  27.411  1.00  0.00     0.039 C 
BRANCH  13  15
ATOM     15  C   UNL     1      36.070   9.044  27.147  1.00  0.00     0.035 C 
BRANCH  15  16
ATOM     16  C   UNL     1      36.999   9.765  26.162  1.00  0.00     0.079 C 
BRANCH  16  17
ATOM     17  C   UNL     1      38.313  10.130  26.805  1.00  0.00     0.130 C 
ATOM     18  O   UNL     1      39.270  10.413  26.100  1.00  0.00    -0.300 OA
ATOM     19  C   UNL     1      38.471  10.156  28.296  1.00  0.00     0.087 C 
ENDBRANCH  16  17
ENDBRANCH  15  16
ENDBRANCH  13  15
ENDBRANCH  11  12
ENDBRANCH   1  11
TORSDOF 9
ENDMDL
MODEL 7
REMARK VINA RESULT:    -6.676      4.835      7.378
REMARK INTER + INTRA:         -10.963
REMARK INTER:                  -9.509
REMARK INTRA:                  -1.454
REMARK UNBOUND:                -0.775
REMARK SMILES CC(=O)CCC=C(C)CCC=C(C)CCC=C(C)C
REMARK SMILES IDX 10 1 11 2 12 3 13 4 14 5 15 6 16 7 18 8 17 9 19 10 9 11 7 12
REMARK SMILES IDX 6 13 8 14 5 15 4 16 2 17 3 18 1 19
REMARK H PARENT
REMARK Flexibility Score: inf
ROOT
ATOM      1  C   UNL     1      34.712   9.264  26.046  1.00  0.00     0.032 C 
ENDROOT
BRANCH   1   2
ATOM      2  C   UNL     1      35.375  10.125  27.094  1.00  0.00    -0.028 C 
ATOM      3  C   UNL     1      34.693  10.733  28.089  1.00  0.00    -0.077 C 
ATOM      4  C   UNL     1      33.195  10.592  28.215  1.00  0.00     0.039 C 
BRANCH   3   5
ATOM      5  C   UNL     1      35.444  11.577  29.095  1.00  0.00     0.034 C 
BRANCH   5   6
ATOM      6  C   UNL     1      34.598  12.776  29.538  1.00  0.00     0.032 C 
BRANCH   6   7
ATOM      7  C   UNL     1      35.085  14.045  28.884  1.00  0.00    -0.028 C 
ATOM      8  C   UNL     1      35.170  16.453  28.404  1.00  0.00     0.039 C 
ATOM      9  C   UNL     1      34.615  15.279  29.168  1.00  0.00    -0.080 C 
ATOM     10  C   UNL     1      33.570  15.512  30.235  1.00  0.00     0.039 C 
ENDBRANCH   6   7
ENDBRANCH   5   6
ENDBRANCH   3   5
ENDBRANCH   1   2
BRANCH   1  11
ATOM     11  C   UNL     1      35.682   8.928  24.908  1.00  0.00     0.034 C 
BRANCH  11  12
ATOM     12  C   UNL     1      36.647   7.838  25.333  1.00  0.00    -0.077 C 
ATOM     13  C   UNL     1      37.964   8.061  25.539  1.00  0.00    -0.028 C 
ATOM     14  C   UNL     1      36.131   6.428  25.468  1.00  0.00     0.039 C 
BRANCH  13  15
ATOM     15  C   UNL     1      38.634   9.413  25.473  1.00  0.00     0.035 C 
BRANCH  15  16
ATOM     16  C   UNL     1      39.615   9.615  26.636  1.00  0.00     0.079 C 
BRANCH  16  17
ATOM     17  C   UNL     1      38.915  10.127  27.869  1.00  0.00     0.130 C 
ATOM     18  O   UNL     1      38.708  11.325  27.990  1.00  0.00    -0.300 OA
ATOM     19  C   UNL     1      38.466   9.194  28.954  1.00  0.00     0.087 C 
ENDBRANCH  16  17
ENDBRANCH  15  16
ENDBRANCH  13  15
ENDBRANCH  11  12
ENDBRANCH   1  11
TORSDOF 9
ENDMDL
MODEL 8
REMARK VINA RESULT:    -6.607      2.920      8.158
REMARK INTER + INTRA:         -10.859
REMARK INTER:                  -9.625
REMARK INTRA:                  -1.233
REMARK UNBOUND:                -0.775
REMARK SMILES CC(=O)CCC=C(C)CCC=C(C)CCC=C(C)C
REMARK SMILES IDX 10 1 11 2 12 3 13 4 14 5 15 6 16 7 18 8 17 9 19 10 9 11 7 12
REMARK SMILES IDX 6 13 8 14 5 15 4 16 2 17 3 18 1 19
REMARK H PARENT
REMARK Flexibility Score: inf
ROOT
ATOM      1  C   UNL     1      33.080  10.597  27.483  1.00  0.00     0.032 C 
ENDROOT
BRANCH   1   2
ATOM      2  C   UNL     1      31.807   9.806  27.669  1.00  0.00    -0.028 C 
ATOM      3  C   UNL     1      30.897   9.630  26.687  1.00  0.00    -0.077 C 
ATOM      4  C   UNL     1      31.095  10.231  25.315  1.00  0.00     0.039 C 
BRANCH   3   5
ATOM      5  C   UNL     1      29.651   8.820  26.967  1.00  0.00     0.034 C 
BRANCH   5   6
ATOM      6  C   UNL     1      28.507   9.242  26.037  1.00  0.00     0.032 C 
BRANCH   6   7
ATOM      7  C   UNL     1      27.411   9.927  26.814  1.00  0.00    -0.028 C 
ATOM      8  C   UNL     1      25.906  11.756  27.469  1.00  0.00     0.039 C 
ATOM      9  C   UNL     1      26.984  11.188  26.583  1.00  0.00    -0.080 C 
ATOM     10  C   UNL     1      27.544  12.029  25.459  1.00  0.00     0.039 C 
ENDBRANCH   6   7
ENDBRANCH   5   6
ENDBRANCH   3   5
ENDBRANCH   1   2
BRANCH   1  11
ATOM     11  C   UNL     1      33.898  10.646  28.777  1.00  0.00     0.034 C 
BRANCH  11  12
ATOM     12  C   UNL     1      35.108  11.544  28.610  1.00  0.00    -0.077 C 
ATOM     13  C   UNL     1      36.323  11.081  28.241  1.00  0.00    -0.028 C 
ATOM     14  C   UNL     1      34.971  13.010  28.935  1.00  0.00     0.039 C 
BRANCH  13  15
ATOM     15  C   UNL     1      36.623   9.652  27.854  1.00  0.00     0.035 C 
BRANCH  15  16
ATOM     16  C   UNL     1      37.570   9.580  26.650  1.00  0.00     0.079 C 
BRANCH  16  17
ATOM     17  C   UNL     1      36.809   9.489  25.351  1.00  0.00     0.130 C 
ATOM     18  O   UNL     1      37.304   9.943  24.331  1.00  0.00    -0.300 OA
ATOM     19  C   UNL     1      35.454   8.849  25.285  1.00  0.00     0.087 C 
ENDBRANCH  16  17
ENDBRANCH  15  16
ENDBRANCH  13  15
ENDBRANCH  11  12
ENDBRANCH   1  11
TORSDOF 9
ENDMDL
MODEL 9
REMARK VINA RESULT:    -6.569      4.916      7.748
REMARK INTER + INTRA:         -10.801
REMARK INTER:                  -9.346
REMARK INTRA:                  -1.455
REMARK UNBOUND:                -0.775
REMARK SMILES CC(=O)CCC=C(C)CCC=C(C)CCC=C(C)C
REMARK SMILES IDX 10 1 11 2 12 3 13 4 14 5 15 6 16 7 18 8 17 9 19 10 9 11 7 12
REMARK SMILES IDX 6 13 8 14 5 15 4 16 2 17 3 18 1 19
REMARK H PARENT
REMARK Flexibility Score: inf
ROOT
ATOM      1  C   UNL     1      35.374   9.638  26.119  1.00  0.00     0.032 C 
ENDROOT
BRANCH   1   2
ATOM      2  C   UNL     1      35.272  10.465  27.378  1.00  0.00    -0.028 C 
ATOM      3  C   UNL     1      34.097  10.749  27.981  1.00  0.00    -0.077 C 
ATOM      4  C   UNL     1      32.785  10.253  27.420  1.00  0.00     0.039 C 
BRANCH   3   5
ATOM      5  C   UNL     1      34.094  11.586  29.241  1.00  0.00     0.034 C 
BRANCH   5   6
ATOM      6  C   UNL     1      35.267  12.574  29.240  1.00  0.00     0.032 C 
BRANCH   6   7
ATOM      7  C   UNL     1      34.775  13.985  29.030  1.00  0.00    -0.028 C 
ATOM      8  C   UNL     1      34.946  16.409  28.668  1.00  0.00     0.039 C 
ATOM      9  C   UNL     1      35.579  15.050  28.821  1.00  0.00    -0.080 C 
ATOM     10  C   UNL     1      37.081  14.913  28.722  1.00  0.00     0.039 C 
ENDBRANCH   6   7
ENDBRANCH   5   6
ENDBRANCH   3   5
ENDBRANCH   1   2
BRANCH   1  11
ATOM     11  C   UNL     1      36.763   9.009  25.978  1.00  0.00     0.034 C 
BRANCH  11  12
ATOM     12  C   UNL     1      36.787   7.621  26.589  1.00  0.00    -0.077 C 
ATOM     13  C   UNL     1      37.326   7.360  27.800  1.00  0.00    -0.028 C 
ATOM     14  C   UNL     1      36.245   6.468  25.783  1.00  0.00     0.039 C 
BRANCH  13  15
ATOM     15  C   UNL     1      37.883   8.400  28.743  1.00  0.00     0.035 C 
BRANCH  15  16
ATOM     16  C   UNL     1      39.411   8.317  28.838  1.00  0.00     0.079 C 
BRANCH  16  17
ATOM     17  C   UNL     1      40.077   9.434  28.075  1.00  0.00     0.130 C 
ATOM     18  O   UNL     1      41.217   9.286  27.663  1.00  0.00    -0.300 OA
ATOM     19  C   UNL     1      39.366  10.729  27.811  1.00  0.00     0.087 C 
ENDBRANCH  16  17
ENDBRANCH  15  16
ENDBRANCH  13  15
ENDBRANCH  11  12
ENDBRANCH   1  11
TORSDOF 9
ENDMDL
