MODEL 1
REMARK VINA RESULT:    -5.450      0.000      0.000
REMARK INTER + INTRA:          -9.972
REMARK INTER:                  -8.636
REMARK INTRA:                  -1.336
REMARK UNBOUND:                -1.336
REMARK SMILES C[C@@H]1O[C@H](O[C@@H]2[C@@H](Oc3cc(O)c4c(c3)O[C@@H](c3ccc(O)cc3)CC4=O)O[C@@H](CO)[C@@H](O)[C@@H]2O)[C@@H](O)[C@@H](O)[C@@H]1O
REMARK SMILES IDX 6 1 34 2 32 3 29 4 28 5 7 6 5 7 4 8 1 9 2 10 40 11 3 12
REMARK SMILES IDX 38 13 36 14 41 15 39 17 37 19 35 21 8 23 9 24 10 25 15 26
REMARK SMILES IDX 11 27 14 28 13 29 16 30 26 31 17 32 27 33 25 34 12 35 18 37
REMARK SMILES IDX 19 38 24 39 20 40 23 41 21 42 22 43 33 45 30 47 31 48
REMARK H PARENT 41 16 39 18 37 20 35 22 12 36 22 44 33 46 31 49
REMARK Flexibility Score: inf
ROOT
ATOM      1  C   UNL     1     132.197 -40.575  28.256  1.00  0.00     0.221 C 
ATOM      2  C   UNL     1     133.503 -40.487  27.396  1.00  0.00     0.181 C 
ATOM      3  C   UNL     1     134.144 -41.854  27.105  1.00  0.00     0.177 C 
ATOM      4  C   UNL     1     133.107 -42.981  27.059  1.00  0.00     0.179 C 
ATOM      5  O   UNL     1     132.496 -43.125  28.324  1.00  0.00    -0.332 OA
ATOM      6  C   UNL     1     131.755 -42.001  28.791  1.00  0.00     0.339 C 
ENDROOT
BRANCH   1   7
ATOM      7  O   UNL     1     131.980 -39.420  29.079  1.00  0.00    -0.337 OA
BRANCH   7   8
ATOM      8  C   UNL     1     131.339 -39.543  30.356  1.00  0.00     0.282 C 
ATOM      9  C   UNL     1     132.574 -40.914  33.545  1.00  0.00     0.041 C 
ATOM     10  C   UNL     1     131.609 -40.226  32.583  1.00  0.00     0.150 C 
ATOM     11  C   UNL     1     131.123 -38.879  33.152  1.00  0.00     0.174 C 
ATOM     12  O   UNL     1     132.249 -40.022  31.335  1.00  0.00    -0.344 OA
ATOM     13  C   UNL     1     130.017 -38.348  32.233  1.00  0.00     0.179 C 
ATOM     14  C   UNL     1     130.523 -38.270  30.772  1.00  0.00     0.202 C 
BRANCH  11  15
ATOM     15  O   UNL     1     132.191 -37.963  33.190  1.00  0.00    -0.388 OA
ATOM     16  H   UNL     1     132.670 -38.038  32.327  1.00  0.00     0.211 HD
ENDBRANCH  11  15
BRANCH  13  17
ATOM     17  O   UNL     1     128.892 -39.193  32.325  1.00  0.00    -0.387 OA
ATOM     18  H   UNL     1     128.509 -39.263  31.409  1.00  0.00     0.211 HD
ENDBRANCH  13  17
BRANCH  14  19
ATOM     19  O   UNL     1     129.390 -38.074  29.954  1.00  0.00    -0.385 OA
ATOM     20  H   UNL     1     128.806 -37.364  30.342  1.00  0.00     0.211 HD
ENDBRANCH  14  19
ENDBRANCH   7   8
ENDBRANCH   1   7
BRANCH   2  21
ATOM     21  O   UNL     1     134.478 -39.671  27.995  1.00  0.00    -0.387 OA
ATOM     22  H   UNL     1     135.034 -39.266  27.276  1.00  0.00     0.211 HD
ENDBRANCH   2  21
BRANCH   6  23
ATOM     23  O   UNL     1     130.366 -42.202  28.485  1.00  0.00    -0.462 OA
BRANCH  23  24
ATOM     24  C   UNL     1     129.349 -42.234  29.445  1.00  0.00     0.130 A 
ATOM     25  C   UNL     1     128.055 -41.786  29.153  1.00  0.00     0.093 A 
ATOM     26  C   UNL     1     129.633 -42.744  30.719  1.00  0.00     0.094 A 
ATOM     27  C   UNL     1     127.052 -41.821  30.131  1.00  0.00     0.133 A 
ATOM     28  C   UNL     1     128.669 -42.715  31.730  1.00  0.00     0.138 A 
ATOM     29  C   UNL     1     127.363 -42.283  31.443  1.00  0.00     0.102 A 
ATOM     30  O   UNL     1     129.038 -43.098  33.027  1.00  0.00    -0.484 OA
ATOM     31  C   UNL     1     126.412 -42.321  32.569  1.00  0.00     0.174 C 
ATOM     32  C   UNL     1     128.156 -43.122  34.156  1.00  0.00     0.211 C 
ATOM     33  O   UNL     1     125.183 -42.516  32.388  1.00  0.00    -0.294 OA
ATOM     34  C   UNL     1     126.950 -42.186  33.964  1.00  0.00     0.131 C 
BRANCH  27  35
ATOM     35  O   UNL     1     125.787 -41.364  29.763  1.00  0.00    -0.507 OA
ATOM     36  H   UNL     1     124.945 -41.924  29.829  1.00  0.00     0.293 HD
ENDBRANCH  27  35
BRANCH  32  37
ATOM     37  C   UNL     1     128.933 -42.732  35.394  1.00  0.00    -0.007 A 
ATOM     38  C   UNL     1     128.454 -43.059  36.677  1.00  0.00     0.011 A 
ATOM     39  C   UNL     1     130.115 -41.981  35.284  1.00  0.00     0.011 A 
ATOM     40  C   UNL     1     129.150 -42.647  37.820  1.00  0.00     0.046 A 
ATOM     41  C   UNL     1     130.810 -41.578  36.430  1.00  0.00     0.046 A 
ATOM     42  C   UNL     1     130.327 -41.901  37.700  1.00  0.00     0.115 A 
BRANCH  42  43
ATOM     43  O   UNL     1     131.022 -41.479  38.832  1.00  0.00    -0.508 OA
ATOM     44  H   UNL     1     131.697 -42.074  39.297  1.00  0.00     0.293 HD
ENDBRANCH  42  43
ENDBRANCH  32  37
ENDBRANCH  23  24
ENDBRANCH   6  23
BRANCH   3  45
ATOM     45  O   UNL     1     134.871 -41.799  25.909  1.00  0.00    -0.387 OA
ATOM     46  H   UNL     1     134.525 -41.026  25.395  1.00  0.00     0.211 HD
ENDBRANCH   3  45
BRANCH   4  47
ATOM     47  C   UNL     1     132.106 -43.019  25.875  1.00  0.00     0.191 C 
BRANCH  47  48
ATOM     48  O   UNL     1     131.169 -41.975  25.894  1.00  0.00    -0.394 OA
ATOM     49  H   UNL     1     131.510 -41.312  26.550  1.00  0.00     0.210 HD
ENDBRANCH  47  48
ENDBRANCH   4  47
TORSDOF 14
ENDMDL
MODEL 2
REMARK VINA RESULT:    -3.569      2.141      7.780
REMARK INTER + INTRA:          -6.992
REMARK INTER:                  -7.658
REMARK INTRA:                   0.666
REMARK UNBOUND:                -1.336
REMARK SMILES C[C@@H]1O[C@H](O[C@@H]2[C@@H](Oc3cc(O)c4c(c3)O[C@@H](c3ccc(O)cc3)CC4=O)O[C@@H](CO)[C@@H](O)[C@@H]2O)[C@@H](O)[C@@H](O)[C@@H]1O
REMARK SMILES IDX 6 1 34 2 32 3 29 4 28 5 7 6 5 7 4 8 1 9 2 10 40 11 3 12
REMARK SMILES IDX 38 13 36 14 41 15 39 17 37 19 35 21 8 23 9 24 10 25 15 26
REMARK SMILES IDX 11 27 14 28 13 29 16 30 26 31 17 32 27 33 25 34 12 35 18 37
REMARK SMILES IDX 19 38 24 39 20 40 23 41 21 42 22 43 33 45 30 47 31 48
REMARK H PARENT 41 16 39 18 37 20 35 22 12 36 22 44 33 46 31 49
REMARK Flexibility Score: inf
ROOT
ATOM      1  C   UNL     1     128.404 -41.328  31.947  1.00  0.00     0.221 C 
ATOM      2  C   UNL     1     127.018 -40.951  31.323  1.00  0.00     0.181 C 
ATOM      3  C   UNL     1     126.773 -39.435  31.235  1.00  0.00     0.177 C 
ATOM      4  C   UNL     1     128.077 -38.646  31.083  1.00  0.00     0.179 C 
ATOM      5  O   UNL     1     128.883 -38.821  32.228  1.00  0.00    -0.332 OA
ATOM      6  C   UNL     1     129.321 -40.153  32.487  1.00  0.00     0.339 C 
ENDROOT
BRANCH   1   7
ATOM      7  O   UNL     1     128.390 -42.582  32.645  1.00  0.00    -0.337 OA
BRANCH   7   8
ATOM      8  C   UNL     1     129.177 -42.769  33.828  1.00  0.00     0.282 C 
ATOM      9  C   UNL     1     132.819 -43.118  34.263  1.00  0.00     0.041 C 
ATOM     10  C   UNL     1     131.354 -42.990  34.672  1.00  0.00     0.150 C 
ATOM     11  C   UNL     1     131.164 -41.869  35.712  1.00  0.00     0.174 C 
ATOM     12  O   UNL     1     130.564 -42.725  33.526  1.00  0.00    -0.344 OA
ATOM     13  C   UNL     1     129.718 -41.932  36.217  1.00  0.00     0.179 C 
ATOM     14  C   UNL     1     128.730 -41.864  35.027  1.00  0.00     0.202 C 
BRANCH  11  15
ATOM     15  O   UNL     1     131.406 -40.618  35.116  1.00  0.00    -0.388 OA
ATOM     16  H   UNL     1     131.873 -40.787  34.261  1.00  0.00     0.211 HD
ENDBRANCH  11  15
BRANCH  13  17
ATOM     17  O   UNL     1     129.534 -43.125  36.948  1.00  0.00    -0.387 OA
ATOM     18  H   UNL     1     128.623 -43.080  37.346  1.00  0.00     0.211 HD
ENDBRANCH  13  17
BRANCH  14  19
ATOM     19  O   UNL     1     127.461 -42.230  35.525  1.00  0.00    -0.385 OA
ATOM     20  H   UNL     1     127.233 -41.676  36.323  1.00  0.00     0.211 HD
ENDBRANCH  14  19
ENDBRANCH   7   8
ENDBRANCH   1   7
BRANCH   2  21
ATOM     21  O   UNL     1     125.946 -41.522  32.029  1.00  0.00    -0.387 OA
ATOM     22  H   UNL     1     125.166 -40.908  31.967  1.00  0.00     0.211 HD
ENDBRANCH   2  21
BRANCH   6  23
ATOM     23  O   UNL     1     130.646 -40.316  31.958  1.00  0.00    -0.462 OA
BRANCH  23  24
ATOM     24  C   UNL     1     130.923 -40.789  30.671  1.00  0.00     0.130 A 
ATOM     25  C   UNL     1     130.096 -41.729  30.045  1.00  0.00     0.093 A 
ATOM     26  C   UNL     1     132.045 -40.294  29.993  1.00  0.00     0.094 A 
ATOM     27  C   UNL     1     130.396 -42.194  28.757  1.00  0.00     0.133 A 
ATOM     28  C   UNL     1     132.404 -40.802  28.742  1.00  0.00     0.138 A 
ATOM     29  C   UNL     1     131.572 -41.734  28.098  1.00  0.00     0.102 A 
ATOM     30  O   UNL     1     133.612 -40.386  28.164  1.00  0.00    -0.484 OA
ATOM     31  C   UNL     1     132.022 -42.184  26.767  1.00  0.00     0.174 C 
ATOM     32  C   UNL     1     134.102 -40.820  26.890  1.00  0.00     0.211 C 
ATOM     33  O   UNL     1     131.204 -42.524  25.875  1.00  0.00    -0.294 OA
ATOM     34  C   UNL     1     133.492 -42.169  26.467  1.00  0.00     0.131 C 
BRANCH  27  35
ATOM     35  O   UNL     1     129.521 -43.125  28.196  1.00  0.00    -0.507 OA
ATOM     36  H   UNL     1     128.932 -42.932  27.395  1.00  0.00     0.293 HD
ENDBRANCH  27  35
BRANCH  32  37
ATOM     37  C   UNL     1     135.610 -40.921  26.952  1.00  0.00    -0.007 A 
ATOM     38  C   UNL     1     136.367 -39.970  27.662  1.00  0.00     0.011 A 
ATOM     39  C   UNL     1     136.284 -41.934  26.249  1.00  0.00     0.011 A 
ATOM     40  C   UNL     1     137.765 -40.038  27.670  1.00  0.00     0.046 A 
ATOM     41  C   UNL     1     137.682 -42.001  26.268  1.00  0.00     0.046 A 
ATOM     42  C   UNL     1     138.426 -41.052  26.968  1.00  0.00     0.115 A 
BRANCH  42  43
ATOM     43  O   UNL     1     139.818 -41.123  26.964  1.00  0.00    -0.508 OA
ATOM     44  H   UNL     1     140.374 -40.756  27.728  1.00  0.00     0.293 HD
ENDBRANCH  42  43
ENDBRANCH  32  37
ENDBRANCH  23  24
ENDBRANCH   6  23
BRANCH   3  45
ATOM     45  O   UNL     1     125.893 -39.151  30.183  1.00  0.00    -0.387 OA
ATOM     46  H   UNL     1     125.130 -39.777  30.267  1.00  0.00     0.211 HD
ENDBRANCH   3  45
BRANCH   4  47
ATOM     47  C   UNL     1     128.858 -38.758  29.747  1.00  0.00     0.191 C 
BRANCH  47  48
ATOM     48  O   UNL     1     128.067 -38.538  28.610  1.00  0.00    -0.394 OA
ATOM     49  H   UNL     1     128.671 -38.654  27.829  1.00  0.00     0.210 HD
ENDBRANCH  47  48
ENDBRANCH   4  47
TORSDOF 14
ENDMDL
MODEL 3
REMARK VINA RESULT:    -3.462      2.185      4.152
REMARK INTER + INTRA:          -6.822
REMARK INTER:                  -7.576
REMARK INTRA:                   0.754
REMARK UNBOUND:                -1.336
REMARK SMILES C[C@@H]1O[C@H](O[C@@H]2[C@@H](Oc3cc(O)c4c(c3)O[C@@H](c3ccc(O)cc3)CC4=O)O[C@@H](CO)[C@@H](O)[C@@H]2O)[C@@H](O)[C@@H](O)[C@@H]1O
REMARK SMILES IDX 6 1 34 2 32 3 29 4 28 5 7 6 5 7 4 8 1 9 2 10 40 11 3 12
REMARK SMILES IDX 38 13 36 14 41 15 39 17 37 19 35 21 8 23 9 24 10 25 15 26
REMARK SMILES IDX 11 27 14 28 13 29 16 30 26 31 17 32 27 33 25 34 12 35 18 37
REMARK SMILES IDX 19 38 24 39 20 40 23 41 21 42 22 43 33 45 30 47 31 48
REMARK H PARENT 41 16 39 18 37 20 35 22 12 36 22 44 33 46 31 49
REMARK Flexibility Score: inf
ROOT
ATOM      1  C   UNL     1     130.725 -41.944  29.193  1.00  0.00     0.221 C 
ATOM      2  C   UNL     1     131.109 -42.057  27.678  1.00  0.00     0.181 C 
ATOM      3  C   UNL     1     132.103 -40.980  27.212  1.00  0.00     0.177 C 
ATOM      4  C   UNL     1     133.022 -40.512  28.345  1.00  0.00     0.179 C 
ATOM      5  O   UNL     1     132.260 -39.893  29.359  1.00  0.00    -0.332 OA
ATOM      6  C   UNL     1     131.306 -40.721  30.018  1.00  0.00     0.339 C 
ENDROOT
BRANCH   1   7
ATOM      7  O   UNL     1     129.400 -42.416  29.479  1.00  0.00    -0.337 OA
BRANCH   7   8
ATOM      8  C   UNL     1     128.288 -41.511  29.490  1.00  0.00     0.282 C 
ATOM      9  C   UNL     1     125.249 -41.461  31.572  1.00  0.00     0.041 C 
ATOM     10  C   UNL     1     126.255 -40.979  30.530  1.00  0.00     0.150 C 
ATOM     11  C   UNL     1     126.664 -39.516  30.788  1.00  0.00     0.174 C 
ATOM     12  O   UNL     1     127.400 -41.813  30.556  1.00  0.00    -0.344 OA
ATOM     13  C   UNL     1     127.512 -39.045  29.600  1.00  0.00     0.179 C 
ATOM     14  C   UNL     1     128.706 -40.004  29.379  1.00  0.00     0.202 C 
BRANCH  11  15
ATOM     15  O   UNL     1     127.417 -39.431  31.973  1.00  0.00    -0.388 OA
ATOM     16  H   UNL     1     128.341 -39.188  31.715  1.00  0.00     0.211 HD
ENDBRANCH  11  15
BRANCH  13  17
ATOM     17  O   UNL     1     126.701 -38.985  28.447  1.00  0.00    -0.387 OA
ATOM     18  H   UNL     1     125.838 -38.574  28.724  1.00  0.00     0.211 HD
ENDBRANCH  13  17
BRANCH  14  19
ATOM     19  O   UNL     1     129.252 -39.696  28.115  1.00  0.00    -0.385 OA
ATOM     20  H   UNL     1     128.575 -39.223  27.555  1.00  0.00     0.211 HD
ENDBRANCH  14  19
ENDBRANCH   7   8
ENDBRANCH   1   7
BRANCH   2  21
ATOM     21  O   UNL     1     129.983 -41.998  26.840  1.00  0.00    -0.387 OA
ATOM     22  H   UNL     1     130.291 -41.823  25.911  1.00  0.00     0.211 HD
ENDBRANCH   2  21
BRANCH   6  23
ATOM     23  O   UNL     1     131.883 -41.215  31.236  1.00  0.00    -0.462 OA
BRANCH  23  24
ATOM     24  C   UNL     1     131.141 -41.564  32.370  1.00  0.00     0.130 A 
ATOM     25  C   UNL     1     129.746 -41.449  32.393  1.00  0.00     0.093 A 
ATOM     26  C   UNL     1     131.814 -42.056  33.497  1.00  0.00     0.094 A 
ATOM     27  C   UNL     1     129.023 -41.799  33.542  1.00  0.00     0.133 A 
ATOM     28  C   UNL     1     131.119 -42.336  34.676  1.00  0.00     0.138 A 
ATOM     29  C   UNL     1     129.717 -42.239  34.705  1.00  0.00     0.102 A 
ATOM     30  O   UNL     1     131.846 -42.685  35.823  1.00  0.00    -0.484 OA
ATOM     31  C   UNL     1     129.076 -42.587  35.987  1.00  0.00     0.174 C 
ATOM     32  C   UNL     1     131.268 -43.001  37.095  1.00  0.00     0.211 C 
ATOM     33  O   UNL     1     127.921 -43.082  36.033  1.00  0.00    -0.294 OA
ATOM     34  C   UNL     1     129.860 -42.398  37.253  1.00  0.00     0.131 C 
BRANCH  27  35
ATOM     35  O   UNL     1     127.635 -41.663  33.487  1.00  0.00    -0.507 OA
ATOM     36  H   UNL     1     127.094 -41.754  32.635  1.00  0.00     0.293 HD
ENDBRANCH  27  35
BRANCH  32  37
ATOM     37  C   UNL     1     132.182 -42.496  38.189  1.00  0.00    -0.007 A 
ATOM     38  C   UNL     1     133.415 -43.125  38.445  1.00  0.00     0.011 A 
ATOM     39  C   UNL     1     131.784 -41.426  39.009  1.00  0.00     0.011 A 
ATOM     40  C   UNL     1     134.231 -42.686  39.495  1.00  0.00     0.046 A 
ATOM     41  C   UNL     1     132.608 -40.988  40.052  1.00  0.00     0.046 A 
ATOM     42  C   UNL     1     133.827 -41.619  40.305  1.00  0.00     0.115 A 
BRANCH  42  43
ATOM     43  O   UNL     1     134.629 -41.182  41.357  1.00  0.00    -0.508 OA
ATOM     44  H   UNL     1     135.349 -41.770  41.761  1.00  0.00     0.293 HD
ENDBRANCH  42  43
ENDBRANCH  32  37
ENDBRANCH  23  24
ENDBRANCH   6  23
BRANCH   3  45
ATOM     45  O   UNL     1     132.851 -41.455  26.128  1.00  0.00    -0.387 OA
ATOM     46  H   UNL     1     132.264 -41.414  25.332  1.00  0.00     0.211 HD
ENDBRANCH   3  45
BRANCH   4  47
ATOM     47  C   UNL     1     134.094 -41.496  28.882  1.00  0.00     0.191 C 
BRANCH  47  48
ATOM     48  O   UNL     1     134.793 -42.175  27.874  1.00  0.00    -0.394 OA
ATOM     49  H   UNL     1     135.734 -41.860  27.932  1.00  0.00     0.210 HD
ENDBRANCH  47  48
ENDBRANCH   4  47
TORSDOF 14
ENDMDL
MODEL 4
REMARK VINA RESULT:    -2.841      2.598      8.729
REMARK INTER + INTRA:          -5.838
REMARK INTER:                  -4.358
REMARK INTRA:                  -1.480
REMARK UNBOUND:                -1.336
REMARK SMILES C[C@@H]1O[C@H](O[C@@H]2[C@@H](Oc3cc(O)c4c(c3)O[C@@H](c3ccc(O)cc3)CC4=O)O[C@@H](CO)[C@@H](O)[C@@H]2O)[C@@H](O)[C@@H](O)[C@@H]1O
REMARK SMILES IDX 6 1 34 2 32 3 29 4 28 5 7 6 5 7 4 8 1 9 2 10 40 11 3 12
REMARK SMILES IDX 38 13 36 14 41 15 39 17 37 19 35 21 8 23 9 24 10 25 15 26
REMARK SMILES IDX 11 27 14 28 13 29 16 30 26 31 17 32 27 33 25 34 12 35 18 37
REMARK SMILES IDX 19 38 24 39 20 40 23 41 21 42 22 43 33 45 30 47 31 48
REMARK H PARENT 41 16 39 18 37 20 35 22 12 36 22 44 33 46 31 49
REMARK Flexibility Score: inf
ROOT
ATOM      1  C   UNL     1     126.196 -42.407  35.383  1.00  0.00     0.221 C 
ATOM      2  C   UNL     1     124.639 -42.235  35.338  1.00  0.00     0.181 C 
ATOM      3  C   UNL     1     123.944 -42.552  36.673  1.00  0.00     0.177 C 
ATOM      4  C   UNL     1     124.850 -42.273  37.877  1.00  0.00     0.179 C 
ATOM      5  O   UNL     1     125.977 -43.123  37.840  1.00  0.00    -0.332 OA
ATOM      6  C   UNL     1     126.843 -42.962  36.720  1.00  0.00     0.339 C 
ENDROOT
BRANCH   1   7
ATOM      7  O   UNL     1     126.762 -42.786  34.120  1.00  0.00    -0.337 OA
BRANCH   7   8
ATOM      8  C   UNL     1     126.770 -41.869  33.019  1.00  0.00     0.282 C 
ATOM      9  C   UNL     1     129.172 -39.229  32.105  1.00  0.00     0.041 C 
ATOM     10  C   UNL     1     127.955 -40.140  31.967  1.00  0.00     0.150 C 
ATOM     11  C   UNL     1     127.938 -40.839  30.594  1.00  0.00     0.174 C 
ATOM     12  O   UNL     1     127.969 -41.108  33.002  1.00  0.00    -0.344 OA
ATOM     13  C   UNL     1     126.599 -41.573  30.453  1.00  0.00     0.179 C 
ATOM     14  C   UNL     1     126.382 -42.530  31.650  1.00  0.00     0.202 C 
BRANCH  11  15
ATOM     15  O   UNL     1     128.997 -41.761  30.513  1.00  0.00    -0.388 OA
ATOM     16  H   UNL     1     128.633 -42.646  30.764  1.00  0.00     0.211 HD
ENDBRANCH  11  15
BRANCH  13  17
ATOM     17  O   UNL     1     125.556 -40.625  30.378  1.00  0.00    -0.387 OA
ATOM     18  H   UNL     1     125.177 -40.688  29.460  1.00  0.00     0.211 HD
ENDBRANCH  13  17
BRANCH  14  19
ATOM     19  O   UNL     1     125.029 -42.929  31.618  1.00  0.00    -0.385 OA
ATOM     20  H   UNL     1     124.567 -42.510  30.839  1.00  0.00     0.211 HD
ENDBRANCH  14  19
ENDBRANCH   7   8
ENDBRANCH   1   7
BRANCH   2  21
ATOM     21  O   UNL     1     124.047 -43.029  34.343  1.00  0.00    -0.387 OA
ATOM     22  H   UNL     1     124.261 -43.982  34.532  1.00  0.00     0.211 HD
ENDBRANCH   2  21
BRANCH   6  23
ATOM     23  O   UNL     1     127.935 -42.109  37.097  1.00  0.00    -0.462 OA
BRANCH  23  24
ATOM     24  C   UNL     1     129.245 -42.260  36.632  1.00  0.00     0.130 A 
ATOM     25  C   UNL     1     130.344 -42.129  37.490  1.00  0.00     0.093 A 
ATOM     26  C   UNL     1     129.455 -42.567  35.281  1.00  0.00     0.094 A 
ATOM     27  C   UNL     1     131.650 -42.279  37.001  1.00  0.00     0.133 A 
ATOM     28  C   UNL     1     130.749 -42.643  34.760  1.00  0.00     0.138 A 
ATOM     29  C   UNL     1     131.859 -42.529  35.615  1.00  0.00     0.102 A 
ATOM     30  O   UNL     1     130.913 -42.807  33.377  1.00  0.00    -0.484 OA
ATOM     31  C   UNL     1     133.180 -42.656  34.972  1.00  0.00     0.174 C 
ATOM     32  C   UNL     1     132.175 -42.905  32.708  1.00  0.00     0.211 C 
ATOM     33  O   UNL     1     134.171 -43.125  35.589  1.00  0.00    -0.294 OA
ATOM     34  C   UNL     1     133.313 -42.271  33.528  1.00  0.00     0.131 C 
BRANCH  27  35
ATOM     35  O   UNL     1     132.693 -42.140  37.918  1.00  0.00    -0.507 OA
ATOM     36  H   UNL     1     133.113 -41.251  38.161  1.00  0.00     0.293 HD
ENDBRANCH  27  35
BRANCH  32  37
ATOM     37  C   UNL     1     132.067 -42.237  31.355  1.00  0.00    -0.007 A 
ATOM     38  C   UNL     1     132.131 -42.995  30.170  1.00  0.00     0.011 A 
ATOM     39  C   UNL     1     131.962 -40.839  31.259  1.00  0.00     0.011 A 
ATOM     40  C   UNL     1     132.085 -42.364  28.921  1.00  0.00     0.046 A 
ATOM     41  C   UNL     1     131.909 -40.215  30.007  1.00  0.00     0.046 A 
ATOM     42  C   UNL     1     131.979 -40.971  28.837  1.00  0.00     0.115 A 
BRANCH  42  43
ATOM     43  O   UNL     1     131.941 -40.334  27.598  1.00  0.00    -0.508 OA
ATOM     44  H   UNL     1     131.180 -39.719  27.336  1.00  0.00     0.293 HD
ENDBRANCH  42  43
ENDBRANCH  32  37
ENDBRANCH  23  24
ENDBRANCH   6  23
BRANCH   3  45
ATOM     45  O   UNL     1     122.747 -41.833  36.773  1.00  0.00    -0.387 OA
ATOM     46  H   UNL     1     122.740 -41.406  37.667  1.00  0.00     0.211 HD
ENDBRANCH   3  45
BRANCH   4  47
ATOM     47  C   UNL     1     125.191 -40.800  38.222  1.00  0.00     0.191 C 
BRANCH  47  48
ATOM     48  O   UNL     1     124.081 -40.044  38.629  1.00  0.00    -0.394 OA
ATOM     49  H   UNL     1     123.984 -40.202  39.605  1.00  0.00     0.210 HD
ENDBRANCH  47  48
ENDBRANCH   4  47
TORSDOF 14
ENDMDL
MODEL 5
REMARK VINA RESULT:    -2.806      1.710      2.440
REMARK INTER + INTRA:          -5.782
REMARK INTER:                  -6.255
REMARK INTRA:                   0.473
REMARK UNBOUND:                -1.336
REMARK SMILES C[C@@H]1O[C@H](O[C@@H]2[C@@H](Oc3cc(O)c4c(c3)O[C@@H](c3ccc(O)cc3)CC4=O)O[C@@H](CO)[C@@H](O)[C@@H]2O)[C@@H](O)[C@@H](O)[C@@H]1O
REMARK SMILES IDX 6 1 34 2 32 3 29 4 28 5 7 6 5 7 4 8 1 9 2 10 40 11 3 12
REMARK SMILES IDX 38 13 36 14 41 15 39 17 37 19 35 21 8 23 9 24 10 25 15 26
REMARK SMILES IDX 11 27 14 28 13 29 16 30 26 31 17 32 27 33 25 34 12 35 18 37
REMARK SMILES IDX 19 38 24 39 20 40 23 41 21 42 22 43 33 45 30 47 31 48
REMARK H PARENT 41 16 39 18 37 20 35 22 12 36 22 44 33 46 31 49
REMARK Flexibility Score: inf
ROOT
ATOM      1  C   UNL     1     132.316 -40.475  28.658  1.00  0.00     0.221 C 
ATOM      2  C   UNL     1     133.650 -40.200  27.886  1.00  0.00     0.181 C 
ATOM      3  C   UNL     1     134.346 -41.476  27.381  1.00  0.00     0.177 C 
ATOM      4  C   UNL     1     133.348 -42.601  27.089  1.00  0.00     0.179 C 
ATOM      5  O   UNL     1     132.694 -42.987  28.279  1.00  0.00    -0.332 OA
ATOM      6  C   UNL     1     131.899 -41.985  28.908  1.00  0.00     0.339 C 
ENDROOT
BRANCH   1   7
ATOM      7  O   UNL     1     132.030 -39.494  29.665  1.00  0.00    -0.337 OA
BRANCH   7   8
ATOM      8  C   UNL     1     131.387 -39.870  30.890  1.00  0.00     0.282 C 
ATOM      9  C   UNL     1     131.446 -43.043  32.761  1.00  0.00     0.041 C 
ATOM     10  C   UNL     1     131.111 -41.583  32.467  1.00  0.00     0.150 C 
ATOM     11  C   UNL     1     131.487 -40.677  33.655  1.00  0.00     0.174 C 
ATOM     12  O   UNL     1     131.799 -41.164  31.302  1.00  0.00    -0.344 OA
ATOM     13  C   UNL     1     130.944 -39.272  33.369  1.00  0.00     0.179 C 
ATOM     14  C   UNL     1     131.459 -38.765  32.000  1.00  0.00     0.202 C 
BRANCH  11  15
ATOM     15  O   UNL     1     132.886 -40.627  33.793  1.00  0.00    -0.388 OA
ATOM     16  H   UNL     1     133.226 -40.004  33.104  1.00  0.00     0.211 HD
ENDBRANCH  11  15
BRANCH  13  17
ATOM     17  O   UNL     1     129.533 -39.307  33.388  1.00  0.00    -0.387 OA
ATOM     18  H   UNL     1     129.274 -40.055  33.991  1.00  0.00     0.211 HD
ENDBRANCH  13  17
BRANCH  14  19
ATOM     19  O   UNL     1     130.692 -37.627  31.668  1.00  0.00    -0.385 OA
ATOM     20  H   UNL     1     130.153 -37.335  32.456  1.00  0.00     0.211 HD
ENDBRANCH  14  19
ENDBRANCH   7   8
ENDBRANCH   1   7
BRANCH   2  21
ATOM     21  O   UNL     1     134.574 -39.482  28.663  1.00  0.00    -0.387 OA
ATOM     22  H   UNL     1     134.173 -39.322  29.559  1.00  0.00     0.211 HD
ENDBRANCH   2  21
BRANCH   6  23
ATOM     23  O   UNL     1     130.531 -42.162  28.511  1.00  0.00    -0.462 OA
BRANCH  23  24
ATOM     24  C   UNL     1     129.454 -41.477  29.084  1.00  0.00     0.130 A 
ATOM     25  C   UNL     1     129.133 -40.169  28.701  1.00  0.00     0.093 A 
ATOM     26  C   UNL     1     128.671 -42.127  30.048  1.00  0.00     0.094 A 
ATOM     27  C   UNL     1     128.054 -39.499  29.293  1.00  0.00     0.133 A 
ATOM     28  C   UNL     1     127.640 -41.450  30.704  1.00  0.00     0.138 A 
ATOM     29  C   UNL     1     127.300 -40.142  30.316  1.00  0.00     0.102 A 
ATOM     30  O   UNL     1     126.978 -42.088  31.763  1.00  0.00    -0.484 OA
ATOM     31  C   UNL     1     126.177 -39.528  31.047  1.00  0.00     0.174 C 
ATOM     32  C   UNL     1     125.904 -41.518  32.519  1.00  0.00     0.211 C 
ATOM     33  O   UNL     1     125.421 -38.682  30.505  1.00  0.00    -0.294 OA
ATOM     34  C   UNL     1     125.906 -39.980  32.453  1.00  0.00     0.131 C 
BRANCH  27  35
ATOM     35  O   UNL     1     127.793 -38.200  28.855  1.00  0.00    -0.507 OA
ATOM     36  H   UNL     1     126.915 -37.719  29.011  1.00  0.00     0.293 HD
ENDBRANCH  27  35
BRANCH  32  37
ATOM     37  C   UNL     1     126.014 -41.982  33.955  1.00  0.00    -0.007 A 
ATOM     38  C   UNL     1     124.935 -41.827  34.846  1.00  0.00     0.011 A 
ATOM     39  C   UNL     1     127.219 -42.519  34.437  1.00  0.00     0.011 A 
ATOM     40  C   UNL     1     125.062 -42.209  36.187  1.00  0.00     0.046 A 
ATOM     41  C   UNL     1     127.338 -42.905  35.777  1.00  0.00     0.046 A 
ATOM     42  C   UNL     1     126.267 -42.745  36.658  1.00  0.00     0.115 A 
BRANCH  42  43
ATOM     43  O   UNL     1     126.405 -43.119  37.993  1.00  0.00    -0.508 OA
ATOM     44  H   UNL     1     125.716 -42.870  38.692  1.00  0.00     0.293 HD
ENDBRANCH  42  43
ENDBRANCH  32  37
ENDBRANCH  23  24
ENDBRANCH   6  23
BRANCH   3  45
ATOM     45  O   UNL     1     135.116 -41.187  26.248  1.00  0.00    -0.387 OA
ATOM     46  H   UNL     1     134.518 -41.270  25.463  1.00  0.00     0.211 HD
ENDBRANCH   3  45
BRANCH   4  47
ATOM     47  C   UNL     1     132.395 -42.450  25.875  1.00  0.00     0.191 C 
BRANCH  47  48
ATOM     48  O   UNL     1     131.589 -41.303  25.930  1.00  0.00    -0.394 OA
ATOM     49  H   UNL     1     131.234 -41.261  26.856  1.00  0.00     0.210 HD
ENDBRANCH  47  48
ENDBRANCH   4  47
TORSDOF 14
ENDMDL
MODEL 6
REMARK VINA RESULT:    -2.604      2.063      4.375
REMARK INTER + INTRA:          -5.463
REMARK INTER:                  -5.325
REMARK INTRA:                  -0.138
REMARK UNBOUND:                -1.336
REMARK SMILES C[C@@H]1O[C@H](O[C@@H]2[C@@H](Oc3cc(O)c4c(c3)O[C@@H](c3ccc(O)cc3)CC4=O)O[C@@H](CO)[C@@H](O)[C@@H]2O)[C@@H](O)[C@@H](O)[C@@H]1O
REMARK SMILES IDX 6 1 34 2 32 3 29 4 28 5 7 6 5 7 4 8 1 9 2 10 40 11 3 12
REMARK SMILES IDX 38 13 36 14 41 15 39 17 37 19 35 21 8 23 9 24 10 25 15 26
REMARK SMILES IDX 11 27 14 28 13 29 16 30 26 31 17 32 27 33 25 34 12 35 18 37
REMARK SMILES IDX 19 38 24 39 20 40 23 41 21 42 22 43 33 45 30 47 31 48
REMARK H PARENT 41 16 39 18 37 20 35 22 12 36 22 44 33 46 31 49
REMARK Flexibility Score: inf
ROOT
ATOM      1  C   UNL     1     132.020 -41.592  29.745  1.00  0.00     0.221 C 
ATOM      2  C   UNL     1     133.079 -41.762  28.603  1.00  0.00     0.181 C 
ATOM      3  C   UNL     1     133.367 -40.464  27.831  1.00  0.00     0.177 C 
ATOM      4  C   UNL     1     133.167 -39.218  28.700  1.00  0.00     0.179 C 
ATOM      5  O   UNL     1     131.815 -39.117  29.094  1.00  0.00    -0.332 OA
ATOM      6  C   UNL     1     131.320 -40.179  29.905  1.00  0.00     0.339 C 
ENDROOT
BRANCH   1   7
ATOM      7  O   UNL     1     131.259 -42.783  29.995  1.00  0.00    -0.337 OA
BRANCH   7   8
ATOM      8  C   UNL     1     129.908 -42.899  29.529  1.00  0.00     0.282 C 
ATOM      9  C   UNL     1     126.733 -43.115  31.386  1.00  0.00     0.041 C 
ATOM     10  C   UNL     1     127.657 -43.017  30.174  1.00  0.00     0.150 C 
ATOM     11  C   UNL     1     127.234 -41.864  29.244  1.00  0.00     0.174 C 
ATOM     12  O   UNL     1     128.991 -42.823  30.610  1.00  0.00    -0.344 OA
ATOM     13  C   UNL     1     128.075 -41.954  27.965  1.00  0.00     0.179 C 
ATOM     14  C   UNL     1     129.583 -41.963  28.314  1.00  0.00     0.202 C 
BRANCH  11  15
ATOM     15  O   UNL     1     127.463 -40.629  29.879  1.00  0.00    -0.388 OA
ATOM     16  H   UNL     1     128.025 -40.088  29.270  1.00  0.00     0.211 HD
ENDBRANCH  11  15
BRANCH  13  17
ATOM     17  O   UNL     1     127.720 -43.122  27.259  1.00  0.00    -0.387 OA
ATOM     18  H   UNL     1     128.140 -43.051  26.359  1.00  0.00     0.211 HD
ENDBRANCH  13  17
BRANCH  14  19
ATOM     19  O   UNL     1     130.273 -42.350  27.145  1.00  0.00    -0.385 OA
ATOM     20  H   UNL     1     130.513 -41.545  26.606  1.00  0.00     0.211 HD
ENDBRANCH  14  19
ENDBRANCH   7   8
ENDBRANCH   1   7
BRANCH   2  21
ATOM     21  O   UNL     1     132.701 -42.744  27.672  1.00  0.00    -0.387 OA
ATOM     22  H   UNL     1     131.804 -42.508  27.313  1.00  0.00     0.211 HD
ENDBRANCH   2  21
BRANCH   6  23
ATOM     23  O   UNL     1     131.388 -39.780  31.283  1.00  0.00    -0.462 OA
BRANCH  23  24
ATOM     24  C   UNL     1     130.715 -40.431  32.322  1.00  0.00     0.130 A 
ATOM     25  C   UNL     1     129.316 -40.473  32.372  1.00  0.00     0.093 A 
ATOM     26  C   UNL     1     131.462 -41.068  33.322  1.00  0.00     0.094 A 
ATOM     27  C   UNL     1     128.661 -41.126  33.426  1.00  0.00     0.133 A 
ATOM     28  C   UNL     1     130.829 -41.656  34.420  1.00  0.00     0.138 A 
ATOM     29  C   UNL     1     129.426 -41.718  34.471  1.00  0.00     0.102 A 
ATOM     30  O   UNL     1     131.617 -42.153  35.468  1.00  0.00    -0.484 OA
ATOM     31  C   UNL     1     128.857 -42.388  35.656  1.00  0.00     0.174 C 
ATOM     32  C   UNL     1     131.106 -42.783  36.649  1.00  0.00     0.211 C 
ATOM     33  O   UNL     1     127.761 -43.002  35.602  1.00  0.00    -0.294 OA
ATOM     34  C   UNL     1     129.648 -42.380  36.931  1.00  0.00     0.131 C 
BRANCH  27  35
ATOM     35  O   UNL     1     127.266 -41.131  33.403  1.00  0.00    -0.507 OA
ATOM     36  H   UNL     1     126.701 -40.291  33.384  1.00  0.00     0.293 HD
ENDBRANCH  27  35
BRANCH  32  37
ATOM     37  C   UNL     1     131.989 -42.418  37.821  1.00  0.00    -0.007 A 
ATOM     38  C   UNL     1     133.181 -43.124  38.073  1.00  0.00     0.011 A 
ATOM     39  C   UNL     1     131.600 -41.406  38.715  1.00  0.00     0.011 A 
ATOM     40  C   UNL     1     133.965 -42.817  39.191  1.00  0.00     0.046 A 
ATOM     41  C   UNL     1     132.393 -41.099  39.827  1.00  0.00     0.046 A 
ATOM     42  C   UNL     1     133.570 -41.806  40.075  1.00  0.00     0.115 A 
BRANCH  42  43
ATOM     43  O   UNL     1     134.340 -41.499  41.195  1.00  0.00    -0.508 OA
ATOM     44  H   UNL     1     134.112 -41.858  42.115  1.00  0.00     0.293 HD
ENDBRANCH  42  43
ENDBRANCH  32  37
ENDBRANCH  23  24
ENDBRANCH   6  23
BRANCH   3  45
ATOM     45  O   UNL     1     134.663 -40.498  27.301  1.00  0.00    -0.387 OA
ATOM     46  H   UNL     1     135.259 -40.075  27.969  1.00  0.00     0.211 HD
ENDBRANCH   3  45
BRANCH   4  47
ATOM     47  C   UNL     1     134.173 -38.946  29.849  1.00  0.00     0.191 C 
BRANCH  47  48
ATOM     48  O   UNL     1     134.959 -37.801  29.652  1.00  0.00    -0.394 OA
ATOM     49  H   UNL     1     134.810 -37.524  28.709  1.00  0.00     0.210 HD
ENDBRANCH  47  48
ENDBRANCH   4  47
TORSDOF 14
ENDMDL
MODEL 7
REMARK VINA RESULT:    -2.483      1.072      2.063
REMARK INTER + INTRA:          -5.271
REMARK INTER:                  -4.194
REMARK INTRA:                  -1.077
REMARK UNBOUND:                -1.336
REMARK SMILES C[C@@H]1O[C@H](O[C@@H]2[C@@H](Oc3cc(O)c4c(c3)O[C@@H](c3ccc(O)cc3)CC4=O)O[C@@H](CO)[C@@H](O)[C@@H]2O)[C@@H](O)[C@@H](O)[C@@H]1O
REMARK SMILES IDX 6 1 34 2 32 3 29 4 28 5 7 6 5 7 4 8 1 9 2 10 40 11 3 12
REMARK SMILES IDX 38 13 36 14 41 15 39 17 37 19 35 21 8 23 9 24 10 25 15 26
REMARK SMILES IDX 11 27 14 28 13 29 16 30 26 31 17 32 27 33 25 34 12 35 18 37
REMARK SMILES IDX 19 38 24 39 20 40 23 41 21 42 22 43 33 45 30 47 31 48
REMARK H PARENT 41 16 39 18 37 20 35 22 12 36 22 44 33 46 31 49
REMARK Flexibility Score: inf
ROOT
ATOM      1  C   UNL     1     132.438 -40.971  29.119  1.00  0.00     0.221 C 
ATOM      2  C   UNL     1     133.436 -40.120  28.262  1.00  0.00     0.181 C 
ATOM      3  C   UNL     1     134.258 -40.953  27.264  1.00  0.00     0.177 C 
ATOM      4  C   UNL     1     133.506 -42.204  26.798  1.00  0.00     0.179 C 
ATOM      5  O   UNL     1     133.277 -43.065  27.893  1.00  0.00    -0.332 OA
ATOM      6  C   UNL     1     132.457 -42.545  28.936  1.00  0.00     0.339 C 
ENDROOT
BRANCH   1   7
ATOM      7  O   UNL     1     132.194 -40.419  30.421  1.00  0.00    -0.337 OA
BRANCH   7   8
ATOM      8  C   UNL     1     131.309 -39.304  30.589  1.00  0.00     0.282 C 
ATOM      9  C   UNL     1     128.105 -38.511  28.953  1.00  0.00     0.041 C 
ATOM     10  C   UNL     1     129.272 -38.352  29.924  1.00  0.00     0.150 C 
ATOM     11  C   UNL     1     128.772 -38.184  31.371  1.00  0.00     0.174 C 
ATOM     12  O   UNL     1     130.120 -39.483  29.833  1.00  0.00    -0.344 OA
ATOM     13  C   UNL     1     129.978 -37.834  32.251  1.00  0.00     0.179 C 
ATOM     14  C   UNL     1     131.090 -38.898  32.087  1.00  0.00     0.202 C 
BRANCH  11  15
ATOM     15  O   UNL     1     128.190 -39.384  31.818  1.00  0.00    -0.388 OA
ATOM     16  H   UNL     1     128.573 -40.115  31.273  1.00  0.00     0.211 HD
ENDBRANCH  11  15
BRANCH  13  17
ATOM     17  O   UNL     1     130.456 -36.555  31.894  1.00  0.00    -0.387 OA
ATOM     18  H   UNL     1     130.153 -35.927  32.605  1.00  0.00     0.211 HD
ENDBRANCH  13  17
BRANCH  14  19
ATOM     19  O   UNL     1     132.259 -38.364  32.669  1.00  0.00    -0.385 OA
ATOM     20  H   UNL     1     133.054 -38.904  32.400  1.00  0.00     0.211 HD
ENDBRANCH  14  19
ENDBRANCH   7   8
ENDBRANCH   1   7
BRANCH   2  21
ATOM     21  O   UNL     1     134.334 -39.393  29.062  1.00  0.00    -0.387 OA
ATOM     22  H   UNL     1     135.175 -39.259  28.548  1.00  0.00     0.211 HD
ENDBRANCH   2  21
BRANCH   6  23
ATOM     23  O   UNL     1     131.111 -43.007  28.740  1.00  0.00    -0.462 OA
BRANCH  23  24
ATOM     24  C   UNL     1     130.058 -42.751  29.624  1.00  0.00     0.130 A 
ATOM     25  C   UNL     1     128.870 -42.150  29.191  1.00  0.00     0.093 A 
ATOM     26  C   UNL     1     130.194 -43.123  30.969  1.00  0.00     0.094 A 
ATOM     27  C   UNL     1     127.830 -41.897  30.095  1.00  0.00     0.133 A 
ATOM     28  C   UNL     1     129.201 -42.809  31.900  1.00  0.00     0.138 A 
ATOM     29  C   UNL     1     127.999 -42.221  31.472  1.00  0.00     0.102 A 
ATOM     30  O   UNL     1     129.441 -43.067  33.257  1.00  0.00    -0.484 OA
ATOM     31  C   UNL     1     127.001 -41.959  32.527  1.00  0.00     0.174 C 
ATOM     32  C   UNL     1     128.514 -42.801  34.317  1.00  0.00     0.211 C 
ATOM     33  O   UNL     1     125.767 -41.982  32.287  1.00  0.00    -0.294 OA
ATOM     34  C   UNL     1     127.487 -41.722  33.927  1.00  0.00     0.131 C 
BRANCH  27  35
ATOM     35  O   UNL     1     126.675 -41.301  29.587  1.00  0.00    -0.507 OA
ATOM     36  H   UNL     1     126.191 -41.628  28.759  1.00  0.00     0.293 HD
ENDBRANCH  27  35
BRANCH  32  37
ATOM     37  C   UNL     1     129.284 -42.374  35.547  1.00  0.00    -0.007 A 
ATOM     38  C   UNL     1     130.474 -41.631  35.429  1.00  0.00     0.011 A 
ATOM     39  C   UNL     1     128.855 -42.767  36.826  1.00  0.00     0.011 A 
ATOM     40  C   UNL     1     131.211 -41.286  36.568  1.00  0.00     0.046 A 
ATOM     41  C   UNL     1     129.592 -42.412  37.961  1.00  0.00     0.046 A 
ATOM     42  C   UNL     1     130.774 -41.681  37.838  1.00  0.00     0.115 A 
BRANCH  42  43
ATOM     43  O   UNL     1     131.506 -41.349  38.977  1.00  0.00    -0.508 OA
ATOM     44  H   UNL     1     131.426 -40.440  39.417  1.00  0.00     0.293 HD
ENDBRANCH  42  43
ENDBRANCH  32  37
ENDBRANCH  23  24
ENDBRANCH   6  23
BRANCH   3  45
ATOM     45  O   UNL     1     134.632 -40.161  26.172  1.00  0.00    -0.387 OA
ATOM     46  H   UNL     1     135.155 -39.401  26.531  1.00  0.00     0.211 HD
ENDBRANCH   3  45
BRANCH   4  47
ATOM     47  C   UNL     1     132.271 -42.025  25.877  1.00  0.00     0.191 C 
BRANCH  47  48
ATOM     48  O   UNL     1     131.391 -43.117  25.895  1.00  0.00    -0.394 OA
ATOM     49  H   UNL     1     131.905 -43.891  25.543  1.00  0.00     0.210 HD
ENDBRANCH  47  48
ENDBRANCH   4  47
TORSDOF 14
ENDMDL
