MODEL 1
REMARK VINA RESULT:    -7.496      0.000      0.000
REMARK INTER + INTRA:          -9.099
REMARK INTER:                  -8.810
REMARK INTRA:                  -0.289
REMARK UNBOUND:                -0.289
REMARK SMILES O=c1c(O)c(-c2ccc(O)cc2)oc2cc(O)cc(O)c12
REMARK SMILES IDX 5 1 3 2 2 3 1 4 21 5 19 6 18 7 16 8 15 9 14 10 13 11 6 12
REMARK SMILES IDX 7 13 8 14 9 15 12 16 11 17 10 18 4 20 20 22 17 24
REMARK H PARENT 10 19 4 21 20 23 17 25
REMARK Flexibility Score: inf
ROOT
ATOM      1  C   UNL     1     -28.135 -26.452 104.646  1.00  0.00     0.180 A 
ATOM      2  C   UNL     1     -29.113 -25.896 105.488  1.00  0.00     0.208 A 
ATOM      3  C   UNL     1     -29.064 -26.170 106.865  1.00  0.00     0.238 A 
ATOM      4  O   UNL     1     -29.985 -25.730 107.600  1.00  0.00    -0.285 OA
ATOM      5  C   UNL     1     -28.005 -26.949 107.391  1.00  0.00     0.111 A 
ATOM      6  C   UNL     1     -27.829 -27.253 108.776  1.00  0.00     0.134 A 
ATOM      7  C   UNL     1     -26.803 -28.121 109.166  1.00  0.00     0.093 A 
ATOM      8  C   UNL     1     -25.908 -28.648 108.233  1.00  0.00     0.123 A 
ATOM      9  C   UNL     1     -26.038 -28.314 106.887  1.00  0.00     0.094 A 
ATOM     10  C   UNL     1     -27.074 -27.480 106.460  1.00  0.00     0.146 A 
ATOM     11  O   UNL     1     -27.172 -27.206 105.165  1.00  0.00    -0.452 OA
ENDROOT
BRANCH   1  12
ATOM     12  C   UNL     1     -28.129 -26.222 103.184  1.00  0.00     0.021 A 
ATOM     13  C   UNL     1     -28.830 -27.102 102.344  1.00  0.00     0.016 A 
ATOM     14  C   UNL     1     -28.858 -26.890 100.962  1.00  0.00     0.047 A 
ATOM     15  C   UNL     1     -28.200 -25.790 100.405  1.00  0.00     0.115 A 
ATOM     16  C   UNL     1     -27.486 -25.104 102.620  1.00  0.00     0.016 A 
ATOM     17  C   UNL     1     -27.516 -24.895 101.238  1.00  0.00     0.047 A 
BRANCH  15  18
ATOM     18  O   UNL     1     -28.235 -25.592  99.027  1.00  0.00    -0.508 OA
ATOM     19  H   UNL     1     -28.730 -26.227  98.411  1.00  0.00     0.293 HD
ENDBRANCH  15  18
ENDBRANCH   1  12
BRANCH   2  20
ATOM     20  O   UNL     1     -30.106 -25.067 104.960  1.00  0.00    -0.502 OA
ATOM     21  H   UNL     1     -30.045 -24.056 104.993  1.00  0.00     0.293 HD
ENDBRANCH   2  20
BRANCH   6  22
ATOM     22  O   UNL     1     -28.610 -26.711 109.801  1.00  0.00    -0.507 OA
ATOM     23  H   UNL     1     -28.451 -25.816 110.238  1.00  0.00     0.293 HD
ENDBRANCH   6  22
BRANCH   8  24
ATOM     24  O   UNL     1     -24.879 -29.498 108.634  1.00  0.00    -0.508 OA
ATOM     25  H   UNL     1     -23.909 -29.212 108.591  1.00  0.00     0.293 HD
ENDBRANCH   8  24
TORSDOF 5
ENDMDL
MODEL 2
REMARK VINA RESULT:    -7.122      3.079      6.388
REMARK INTER + INTRA:          -8.660
REMARK INTER:                  -8.432
REMARK INTRA:                  -0.228
REMARK UNBOUND:                -0.289
REMARK SMILES O=c1c(O)c(-c2ccc(O)cc2)oc2cc(O)cc(O)c12
REMARK SMILES IDX 5 1 3 2 2 3 1 4 21 5 19 6 18 7 16 8 15 9 14 10 13 11 6 12
REMARK SMILES IDX 7 13 8 14 9 15 12 16 11 17 10 18 4 20 20 22 17 24
REMARK H PARENT 10 19 4 21 20 23 17 25
REMARK Flexibility Score: inf
ROOT
ATOM      1  C   UNL     1     -27.987 -25.319 105.183  1.00  0.00     0.180 A 
ATOM      2  C   UNL     1     -29.017 -25.528 104.249  1.00  0.00     0.208 A 
ATOM      3  C   UNL     1     -29.773 -24.428 103.811  1.00  0.00     0.238 A 
ATOM      4  O   UNL     1     -30.740 -24.633 103.033  1.00  0.00    -0.285 OA
ATOM      5  C   UNL     1     -29.454 -23.126 104.268  1.00  0.00     0.111 A 
ATOM      6  C   UNL     1     -30.124 -21.934 103.857  1.00  0.00     0.134 A 
ATOM      7  C   UNL     1     -29.791 -20.713 104.457  1.00  0.00     0.093 A 
ATOM      8  C   UNL     1     -28.772 -20.631 105.408  1.00  0.00     0.123 A 
ATOM      9  C   UNL     1     -28.076 -21.780 105.776  1.00  0.00     0.094 A 
ATOM     10  C   UNL     1     -28.409 -23.019 105.222  1.00  0.00     0.146 A 
ATOM     11  O   UNL     1     -27.734 -24.090 105.619  1.00  0.00    -0.452 OA
ENDROOT
BRANCH   1  12
ATOM     12  C   UNL     1     -27.157 -26.429 105.703  1.00  0.00     0.021 A 
ATOM     13  C   UNL     1     -25.810 -26.522 105.318  1.00  0.00     0.016 A 
ATOM     14  C   UNL     1     -25.001 -27.549 105.815  1.00  0.00     0.047 A 
ATOM     15  C   UNL     1     -25.523 -28.485 106.712  1.00  0.00     0.115 A 
ATOM     16  C   UNL     1     -27.672 -27.362 106.623  1.00  0.00     0.016 A 
ATOM     17  C   UNL     1     -26.861 -28.386 107.118  1.00  0.00     0.047 A 
BRANCH  15  18
ATOM     18  O   UNL     1     -24.707 -29.503 107.198  1.00  0.00    -0.508 OA
ATOM     19  H   UNL     1     -24.582 -29.654 108.193  1.00  0.00     0.293 HD
ENDBRANCH  15  18
ENDBRANCH   1  12
BRANCH   2  20
ATOM     20  O   UNL     1     -29.266 -26.809 103.751  1.00  0.00    -0.502 OA
ATOM     21  H   UNL     1     -28.767 -27.628 104.081  1.00  0.00     0.293 HD
ENDBRANCH   2  20
BRANCH   6  22
ATOM     22  O   UNL     1     -31.096 -21.888 102.853  1.00  0.00    -0.507 OA
ATOM     23  H   UNL     1     -31.580 -22.692 102.480  1.00  0.00     0.293 HD
ENDBRANCH   6  22
BRANCH   8  24
ATOM     24  O   UNL     1     -28.437 -19.409 105.987  1.00  0.00    -0.508 OA
ATOM     25  H   UNL     1     -27.641 -19.318 106.608  1.00  0.00     0.293 HD
ENDBRANCH   8  24
TORSDOF 5
ENDMDL
MODEL 3
REMARK VINA RESULT:    -7.055      2.026      6.801
REMARK INTER + INTRA:          -8.581
REMARK INTER:                  -8.326
REMARK INTRA:                  -0.255
REMARK UNBOUND:                -0.289
REMARK SMILES O=c1c(O)c(-c2ccc(O)cc2)oc2cc(O)cc(O)c12
REMARK SMILES IDX 5 1 3 2 2 3 1 4 21 5 19 6 18 7 16 8 15 9 14 10 13 11 6 12
REMARK SMILES IDX 7 13 8 14 9 15 12 16 11 17 10 18 4 20 20 22 17 24
REMARK H PARENT 10 19 4 21 20 23 17 25
REMARK Flexibility Score: inf
ROOT
ATOM      1  C   UNL     1     -27.112 -25.686 105.001  1.00  0.00     0.180 A 
ATOM      2  C   UNL     1     -26.982 -24.305 105.226  1.00  0.00     0.208 A 
ATOM      3  C   UNL     1     -27.164 -23.420 104.150  1.00  0.00     0.238 A 
ATOM      4  O   UNL     1     -26.973 -22.191 104.341  1.00  0.00    -0.285 OA
ATOM      5  C   UNL     1     -27.530 -23.923 102.878  1.00  0.00     0.111 A 
ATOM      6  C   UNL     1     -27.785 -23.115 101.727  1.00  0.00     0.134 A 
ATOM      7  C   UNL     1     -28.035 -23.730 100.495  1.00  0.00     0.093 A 
ATOM      8  C   UNL     1     -28.103 -25.120 100.382  1.00  0.00     0.123 A 
ATOM      9  C   UNL     1     -27.911 -25.915 101.510  1.00  0.00     0.094 A 
ATOM     10  C   UNL     1     -27.621 -25.333 102.746  1.00  0.00     0.146 A 
ATOM     11  O   UNL     1     -27.423 -26.130 103.789  1.00  0.00    -0.452 OA
ENDROOT
BRANCH   1  12
ATOM     12  C   UNL     1     -26.920 -26.681 106.081  1.00  0.00     0.021 A 
ATOM     13  C   UNL     1     -25.692 -27.354 106.189  1.00  0.00     0.016 A 
ATOM     14  C   UNL     1     -25.480 -28.281 107.214  1.00  0.00     0.047 A 
ATOM     15  C   UNL     1     -26.485 -28.536 108.152  1.00  0.00     0.115 A 
ATOM     16  C   UNL     1     -27.921 -26.926 107.039  1.00  0.00     0.016 A 
ATOM     17  C   UNL     1     -27.706 -27.853 108.064  1.00  0.00     0.047 A 
BRANCH  15  18
ATOM     18  O   UNL     1     -26.261 -29.462 109.167  1.00  0.00    -0.508 OA
ATOM     19  H   UNL     1     -27.026 -29.858 109.702  1.00  0.00     0.293 HD
ENDBRANCH  15  18
ENDBRANCH   1  12
BRANCH   2  20
ATOM     20  O   UNL     1     -26.696 -23.824 106.505  1.00  0.00    -0.502 OA
ATOM     21  H   UNL     1     -25.919 -23.200 106.692  1.00  0.00     0.293 HD
ENDBRANCH   2  20
BRANCH   6  22
ATOM     22  O   UNL     1     -27.829 -21.718 101.746  1.00  0.00    -0.507 OA
ATOM     23  H   UNL     1     -28.499 -21.154 101.245  1.00  0.00     0.293 HD
ENDBRANCH   6  22
BRANCH   8  24
ATOM     24  O   UNL     1     -28.371 -25.723  99.154  1.00  0.00    -0.508 OA
ATOM     25  H   UNL     1     -28.115 -25.279  98.280  1.00  0.00     0.293 HD
ENDBRANCH   8  24
TORSDOF 5
ENDMDL
MODEL 4
REMARK VINA RESULT:    -7.028      4.396      6.894
REMARK INTER + INTRA:          -8.550
REMARK INTER:                  -8.486
REMARK INTRA:                  -0.064
REMARK UNBOUND:                -0.289
REMARK SMILES O=c1c(O)c(-c2ccc(O)cc2)oc2cc(O)cc(O)c12
REMARK SMILES IDX 5 1 3 2 2 3 1 4 21 5 19 6 18 7 16 8 15 9 14 10 13 11 6 12
REMARK SMILES IDX 7 13 8 14 9 15 12 16 11 17 10 18 4 20 20 22 17 24
REMARK H PARENT 10 19 4 21 20 23 17 25
REMARK Flexibility Score: inf
ROOT
ATOM      1  C   UNL     1     -29.416 -22.009 103.787  1.00  0.00     0.180 A 
ATOM      2  C   UNL     1     -29.526 -22.906 104.863  1.00  0.00     0.208 A 
ATOM      3  C   UNL     1     -29.370 -24.281 104.623  1.00  0.00     0.238 A 
ATOM      4  O   UNL     1     -29.544 -25.083 105.576  1.00  0.00    -0.285 OA
ATOM      5  C   UNL     1     -29.047 -24.737 103.321  1.00  0.00     0.111 A 
ATOM      6  C   UNL     1     -28.821 -26.103 102.971  1.00  0.00     0.134 A 
ATOM      7  C   UNL     1     -28.613 -26.446 101.630  1.00  0.00     0.093 A 
ATOM      8  C   UNL     1     -28.561 -25.469 100.634  1.00  0.00     0.123 A 
ATOM      9  C   UNL     1     -28.726 -24.128 100.973  1.00  0.00     0.094 A 
ATOM     10  C   UNL     1     -28.972 -23.756 102.297  1.00  0.00     0.146 A 
ATOM     11  O   UNL     1     -29.145 -22.469 102.571  1.00  0.00    -0.452 OA
ENDROOT
BRANCH   1  12
ATOM     12  C   UNL     1     -29.583 -20.548 103.959  1.00  0.00     0.021 A 
ATOM     13  C   UNL     1     -28.578 -19.679 103.504  1.00  0.00     0.016 A 
ATOM     14  C   UNL     1     -28.725 -18.295 103.634  1.00  0.00     0.047 A 
ATOM     15  C   UNL     1     -29.883 -17.761 104.206  1.00  0.00     0.115 A 
ATOM     16  C   UNL     1     -30.756 -20.004 104.515  1.00  0.00     0.016 A 
ATOM     17  C   UNL     1     -30.901 -18.620 104.644  1.00  0.00     0.047 A 
BRANCH  15  18
ATOM     18  O   UNL     1     -30.016 -16.381 104.332  1.00  0.00    -0.508 OA
ATOM     19  H   UNL     1     -29.210 -15.767 104.325  1.00  0.00     0.293 HD
ENDBRANCH  15  18
ENDBRANCH   1  12
BRANCH   2  20
ATOM     20  O   UNL     1     -29.769 -22.430 106.154  1.00  0.00    -0.502 OA
ATOM     21  H   UNL     1     -29.674 -21.452 106.401  1.00  0.00     0.293 HD
ENDBRANCH   2  20
BRANCH   6  22
ATOM     22  O   UNL     1     -28.764 -27.149 103.897  1.00  0.00    -0.507 OA
ATOM     23  H   UNL     1     -29.270 -27.177 104.769  1.00  0.00     0.293 HD
ENDBRANCH   6  22
BRANCH   8  24
ATOM     24  O   UNL     1     -28.337 -25.819  99.304  1.00  0.00    -0.508 OA
ATOM     25  H   UNL     1     -27.511 -25.507  98.807  1.00  0.00     0.293 HD
ENDBRANCH   8  24
TORSDOF 5
ENDMDL
MODEL 5
REMARK VINA RESULT:    -6.954      4.869      7.654
REMARK INTER + INTRA:          -8.463
REMARK INTER:                  -8.303
REMARK INTRA:                  -0.159
REMARK UNBOUND:                -0.289
REMARK SMILES O=c1c(O)c(-c2ccc(O)cc2)oc2cc(O)cc(O)c12
REMARK SMILES IDX 5 1 3 2 2 3 1 4 21 5 19 6 18 7 16 8 15 9 14 10 13 11 6 12
REMARK SMILES IDX 7 13 8 14 9 15 12 16 11 17 10 18 4 20 20 22 17 24
REMARK H PARENT 10 19 4 21 20 23 17 25
REMARK Flexibility Score: inf
ROOT
ATOM      1  C   UNL     1     -28.624 -21.265 103.427  1.00  0.00     0.180 A 
ATOM      2  C   UNL     1     -27.682 -21.416 102.395  1.00  0.00     0.208 A 
ATOM      3  C   UNL     1     -27.575 -22.657 101.746  1.00  0.00     0.238 A 
ATOM      4  O   UNL     1     -26.679 -22.807 100.876  1.00  0.00    -0.285 OA
ATOM      5  C   UNL     1     -28.451 -23.713 102.096  1.00  0.00     0.111 A 
ATOM      6  C   UNL     1     -28.463 -24.999 101.474  1.00  0.00     0.134 A 
ATOM      7  C   UNL     1     -29.303 -26.000 101.976  1.00  0.00     0.093 A 
ATOM      8  C   UNL     1     -30.176 -25.746 103.036  1.00  0.00     0.123 A 
ATOM      9  C   UNL     1     -30.210 -24.479 103.614  1.00  0.00     0.094 A 
ATOM     10  C   UNL     1     -29.358 -23.469 103.160  1.00  0.00     0.146 A 
ATOM     11  O   UNL     1     -29.410 -22.284 103.755  1.00  0.00    -0.452 OA
ENDROOT
BRANCH   1  12
ATOM     12  C   UNL     1     -28.785 -19.993 104.168  1.00  0.00     0.021 A 
ATOM     13  C   UNL     1     -29.324 -18.875 103.511  1.00  0.00     0.016 A 
ATOM     14  C   UNL     1     -29.507 -17.671 104.197  1.00  0.00     0.047 A 
ATOM     15  C   UNL     1     -29.168 -17.572 105.549  1.00  0.00     0.115 A 
ATOM     16  C   UNL     1     -28.465 -19.895 105.535  1.00  0.00     0.016 A 
ATOM     17  C   UNL     1     -28.649 -18.690 106.218  1.00  0.00     0.047 A 
BRANCH  15  18
ATOM     18  O   UNL     1     -29.354 -16.366 106.221  1.00  0.00    -0.508 OA
ATOM     19  H   UNL     1     -29.829 -15.584 105.785  1.00  0.00     0.293 HD
ENDBRANCH  15  18
ENDBRANCH   1  12
BRANCH   2  20
ATOM     20  O   UNL     1     -26.879 -20.339 102.013  1.00  0.00    -0.502 OA
ATOM     21  H   UNL     1     -26.358 -19.783 102.681  1.00  0.00     0.293 HD
ENDBRANCH   2  20
BRANCH   6  22
ATOM     22  O   UNL     1     -27.697 -25.333 100.353  1.00  0.00    -0.507 OA
ATOM     23  H   UNL     1     -27.516 -26.274 100.036  1.00  0.00     0.293 HD
ENDBRANCH   6  22
BRANCH   8  24
ATOM     24  O   UNL     1     -31.020 -26.745 103.517  1.00  0.00    -0.508 OA
ATOM     25  H   UNL     1     -30.983 -27.049 104.483  1.00  0.00     0.293 HD
ENDBRANCH   8  24
TORSDOF 5
ENDMDL
MODEL 6
REMARK VINA RESULT:    -6.952      3.740      6.036
REMARK INTER + INTRA:          -8.459
REMARK INTER:                  -8.451
REMARK INTRA:                  -0.008
REMARK UNBOUND:                -0.289
REMARK SMILES O=c1c(O)c(-c2ccc(O)cc2)oc2cc(O)cc(O)c12
REMARK SMILES IDX 5 1 3 2 2 3 1 4 21 5 19 6 18 7 16 8 15 9 14 10 13 11 6 12
REMARK SMILES IDX 7 13 8 14 9 15 12 16 11 17 10 18 4 20 20 22 17 24
REMARK H PARENT 10 19 4 21 20 23 17 25
REMARK Flexibility Score: inf
ROOT
ATOM      1  C   UNL     1     -25.547 -23.862 102.655  1.00  0.00     0.180 A 
ATOM      2  C   UNL     1     -25.183 -24.691 103.731  1.00  0.00     0.208 A 
ATOM      3  C   UNL     1     -26.148 -25.547 104.288  1.00  0.00     0.238 A 
ATOM      4  O   UNL     1     -25.837 -26.230 105.297  1.00  0.00    -0.285 OA
ATOM      5  C   UNL     1     -27.447 -25.605 103.726  1.00  0.00     0.111 A 
ATOM      6  C   UNL     1     -28.491 -26.468 104.180  1.00  0.00     0.134 A 
ATOM      7  C   UNL     1     -29.768 -26.361 103.616  1.00  0.00     0.093 A 
ATOM      8  C   UNL     1     -30.025 -25.470 102.573  1.00  0.00     0.123 A 
ATOM      9  C   UNL     1     -28.999 -24.663 102.086  1.00  0.00     0.094 A 
ATOM     10  C   UNL     1     -27.723 -24.718 102.653  1.00  0.00     0.146 A 
ATOM     11  O   UNL     1     -26.782 -23.915 102.172  1.00  0.00    -0.452 OA
ENDROOT
BRANCH   1  12
ATOM     12  C   UNL     1     -24.590 -22.924 102.026  1.00  0.00     0.021 A 
ATOM     13  C   UNL     1     -23.380 -23.414 101.509  1.00  0.00     0.016 A 
ATOM     14  C   UNL     1     -22.473 -22.550 100.889  1.00  0.00     0.047 A 
ATOM     15  C   UNL     1     -22.768 -21.190 100.765  1.00  0.00     0.115 A 
ATOM     16  C   UNL     1     -24.892 -21.557 101.879  1.00  0.00     0.016 A 
ATOM     17  C   UNL     1     -23.983 -20.696 101.258  1.00  0.00     0.047 A 
BRANCH  15  18
ATOM     18  O   UNL     1     -21.855 -20.340 100.146  1.00  0.00    -0.508 OA
ATOM     19  H   UNL     1     -22.158 -19.583  99.544  1.00  0.00     0.293 HD
ENDBRANCH  15  18
ENDBRANCH   1  12
BRANCH   2  20
ATOM     20  O   UNL     1     -23.876 -24.675 104.221  1.00  0.00    -0.502 OA
ATOM     21  H   UNL     1     -23.580 -24.052 104.963  1.00  0.00     0.293 HD
ENDBRANCH   2  20
BRANCH   6  22
ATOM     22  O   UNL     1     -28.322 -27.455 105.155  1.00  0.00    -0.507 OA
ATOM     23  H   UNL     1     -28.850 -28.313 105.207  1.00  0.00     0.293 HD
ENDBRANCH   6  22
BRANCH   8  24
ATOM     24  O   UNL     1     -31.295 -25.384 102.006  1.00  0.00    -0.508 OA
ATOM     25  H   UNL     1     -31.422 -25.240 101.011  1.00  0.00     0.293 HD
ENDBRANCH   8  24
TORSDOF 5
ENDMDL
MODEL 7
REMARK VINA RESULT:    -6.936      2.354      6.759
REMARK INTER + INTRA:          -8.441
REMARK INTER:                  -8.419
REMARK INTRA:                  -0.022
REMARK UNBOUND:                -0.289
REMARK SMILES O=c1c(O)c(-c2ccc(O)cc2)oc2cc(O)cc(O)c12
REMARK SMILES IDX 5 1 3 2 2 3 1 4 21 5 19 6 18 7 16 8 15 9 14 10 13 11 6 12
REMARK SMILES IDX 7 13 8 14 9 15 12 16 11 17 10 18 4 20 20 22 17 24
REMARK H PARENT 10 19 4 21 20 23 17 25
REMARK Flexibility Score: inf
ROOT
ATOM      1  C   UNL     1     -26.902 -26.109 104.643  1.00  0.00     0.180 A 
ATOM      2  C   UNL     1     -28.026 -26.160 103.799  1.00  0.00     0.208 A 
ATOM      3  C   UNL     1     -28.094 -25.286 102.702  1.00  0.00     0.238 A 
ATOM      4  O   UNL     1     -29.135 -25.285 101.996  1.00  0.00    -0.285 OA
ATOM      5  C   UNL     1     -27.013 -24.413 102.428  1.00  0.00     0.111 A 
ATOM      6  C   UNL     1     -26.954 -23.516 101.317  1.00  0.00     0.134 A 
ATOM      7  C   UNL     1     -25.880 -22.624 101.208  1.00  0.00     0.093 A 
ATOM      8  C   UNL     1     -24.833 -22.637 102.132  1.00  0.00     0.123 A 
ATOM      9  C   UNL     1     -24.855 -23.546 103.187  1.00  0.00     0.094 A 
ATOM     10  C   UNL     1     -25.930 -24.424 103.346  1.00  0.00     0.146 A 
ATOM     11  O   UNL     1     -25.919 -25.257 104.379  1.00  0.00    -0.452 OA
ENDROOT
BRANCH   1  12
ATOM     12  C   UNL     1     -26.766 -26.988 105.827  1.00  0.00     0.021 A 
ATOM     13  C   UNL     1     -25.581 -27.719 106.010  1.00  0.00     0.016 A 
ATOM     14  C   UNL     1     -25.421 -28.537 107.133  1.00  0.00     0.047 A 
ATOM     15  C   UNL     1     -26.433 -28.622 108.092  1.00  0.00     0.115 A 
ATOM     16  C   UNL     1     -27.773 -27.061 106.806  1.00  0.00     0.016 A 
ATOM     17  C   UNL     1     -27.610 -27.878 107.928  1.00  0.00     0.047 A 
BRANCH  15  18
ATOM     18  O   UNL     1     -26.261 -29.441 109.205  1.00  0.00    -0.508 OA
ATOM     19  H   UNL     1     -25.602 -30.211 109.201  1.00  0.00     0.293 HD
ENDBRANCH  15  18
ENDBRANCH   1  12
BRANCH   2  20
ATOM     20  O   UNL     1     -29.047 -27.082 104.042  1.00  0.00    -0.502 OA
ATOM     21  H   UNL     1     -28.873 -28.077 104.129  1.00  0.00     0.293 HD
ENDBRANCH   2  20
BRANCH   6  22
ATOM     22  O   UNL     1     -27.901 -23.479 100.290  1.00  0.00    -0.507 OA
ATOM     23  H   UNL     1     -28.517 -22.704 100.099  1.00  0.00     0.293 HD
ENDBRANCH   6  22
BRANCH   8  24
ATOM     24  O   UNL     1     -23.760 -21.757 102.004  1.00  0.00    -0.508 OA
ATOM     25  H   UNL     1     -22.850 -22.073 101.691  1.00  0.00     0.293 HD
ENDBRANCH   8  24
TORSDOF 5
ENDMDL
MODEL 8
REMARK VINA RESULT:    -6.804      3.861      6.468
REMARK INTER + INTRA:          -8.286
REMARK INTER:                  -8.033
REMARK INTRA:                  -0.254
REMARK UNBOUND:                -0.289
REMARK SMILES O=c1c(O)c(-c2ccc(O)cc2)oc2cc(O)cc(O)c12
REMARK SMILES IDX 5 1 3 2 2 3 1 4 21 5 19 6 18 7 16 8 15 9 14 10 13 11 6 12
REMARK SMILES IDX 7 13 8 14 9 15 12 16 11 17 10 18 4 20 20 22 17 24
REMARK H PARENT 10 19 4 21 20 23 17 25
REMARK Flexibility Score: inf
ROOT
ATOM      1  C   UNL     1     -25.966 -23.258 102.152  1.00  0.00     0.180 A 
ATOM      2  C   UNL     1     -26.418 -23.419 103.474  1.00  0.00     0.208 A 
ATOM      3  C   UNL     1     -27.376 -24.408 103.751  1.00  0.00     0.238 A 
ATOM      4  O   UNL     1     -27.831 -24.496 104.920  1.00  0.00    -0.285 OA
ATOM      5  C   UNL     1     -27.828 -25.262 102.715  1.00  0.00     0.111 A 
ATOM      6  C   UNL     1     -28.762 -26.327 102.889  1.00  0.00     0.134 A 
ATOM      7  C   UNL     1     -29.216 -27.038 101.771  1.00  0.00     0.093 A 
ATOM      8  C   UNL     1     -28.723 -26.764 100.494  1.00  0.00     0.123 A 
ATOM      9  C   UNL     1     -27.769 -25.763 100.321  1.00  0.00     0.094 A 
ATOM     10  C   UNL     1     -27.325 -25.011 101.411  1.00  0.00     0.146 A 
ATOM     11  O   UNL     1     -26.432 -24.053 101.196  1.00  0.00    -0.452 OA
ENDROOT
BRANCH   1  12
ATOM     12  C   UNL     1     -24.969 -22.229 101.780  1.00  0.00     0.021 A 
ATOM     13  C   UNL     1     -25.379 -20.894 101.628  1.00  0.00     0.016 A 
ATOM     14  C   UNL     1     -24.451 -19.901 101.300  1.00  0.00     0.047 A 
ATOM     15  C   UNL     1     -23.102 -20.226 101.134  1.00  0.00     0.115 A 
ATOM     16  C   UNL     1     -23.606 -22.546 101.632  1.00  0.00     0.016 A 
ATOM     17  C   UNL     1     -22.681 -21.552 101.305  1.00  0.00     0.047 A 
BRANCH  15  18
ATOM     18  O   UNL     1     -22.188 -19.227 100.806  1.00  0.00    -0.508 OA
ATOM     19  H   UNL     1     -21.492 -19.362 100.082  1.00  0.00     0.293 HD
ENDBRANCH  15  18
ENDBRANCH   1  12
BRANCH   2  20
ATOM     20  O   UNL     1     -25.903 -22.617 104.496  1.00  0.00    -0.502 OA
ATOM     21  H   UNL     1     -25.754 -21.621 104.384  1.00  0.00     0.293 HD
ENDBRANCH   2  20
BRANCH   6  22
ATOM     22  O   UNL     1     -29.253 -26.743 104.131  1.00  0.00    -0.507 OA
ATOM     23  H   UNL     1     -29.656 -26.133 104.827  1.00  0.00     0.293 HD
ENDBRANCH   6  22
BRANCH   8  24
ATOM     24  O   UNL     1     -29.167 -27.488  99.389  1.00  0.00    -0.508 OA
ATOM     25  H   UNL     1     -29.994 -27.211  98.873  1.00  0.00     0.293 HD
ENDBRANCH   8  24
TORSDOF 5
ENDMDL
MODEL 9
REMARK VINA RESULT:    -6.779      5.108      7.428
REMARK INTER + INTRA:          -8.257
REMARK INTER:                  -7.971
REMARK INTRA:                  -0.285
REMARK UNBOUND:                -0.289
REMARK SMILES O=c1c(O)c(-c2ccc(O)cc2)oc2cc(O)cc(O)c12
REMARK SMILES IDX 5 1 3 2 2 3 1 4 21 5 19 6 18 7 16 8 15 9 14 10 13 11 6 12
REMARK SMILES IDX 7 13 8 14 9 15 12 16 11 17 10 18 4 20 20 22 17 24
REMARK H PARENT 10 19 4 21 20 23 17 25
REMARK Flexibility Score: inf
ROOT
ATOM      1  C   UNL     1     -29.121 -21.184 103.720  1.00  0.00     0.180 A 
ATOM      2  C   UNL     1     -29.959 -22.096 103.055  1.00  0.00     0.208 A 
ATOM      3  C   UNL     1     -29.391 -23.232 102.456  1.00  0.00     0.238 A 
ATOM      4  O   UNL     1     -30.137 -24.003 101.799  1.00  0.00    -0.285 OA
ATOM      5  C   UNL     1     -28.001 -23.473 102.577  1.00  0.00     0.111 A 
ATOM      6  C   UNL     1     -27.324 -24.614 102.049  1.00  0.00     0.134 A 
ATOM      7  C   UNL     1     -25.929 -24.692 102.139  1.00  0.00     0.093 A 
ATOM      8  C   UNL     1     -25.191 -23.703 102.792  1.00  0.00     0.123 A 
ATOM      9  C   UNL     1     -25.848 -22.613 103.359  1.00  0.00     0.094 A 
ATOM     10  C   UNL     1     -27.235 -22.487 103.253  1.00  0.00     0.146 A 
ATOM     11  O   UNL     1     -27.816 -21.420 103.789  1.00  0.00    -0.452 OA
ENDROOT
BRANCH   1  12
ATOM     12  C   UNL     1     -29.643 -19.958 104.363  1.00  0.00     0.021 A 
ATOM     13  C   UNL     1     -29.696 -18.762 103.628  1.00  0.00     0.016 A 
ATOM     14  C   UNL     1     -30.208 -17.597 104.207  1.00  0.00     0.047 A 
ATOM     15  C   UNL     1     -30.684 -17.614 105.521  1.00  0.00     0.115 A 
ATOM     16  C   UNL     1     -30.144 -19.975 105.678  1.00  0.00     0.016 A 
ATOM     17  C   UNL     1     -30.655 -18.808 106.254  1.00  0.00     0.047 A 
BRANCH  15  18
ATOM     18  O   UNL     1     -31.190 -16.446 106.086  1.00  0.00    -0.508 OA
ATOM     19  H   UNL     1     -30.778 -16.037 106.917  1.00  0.00     0.293 HD
ENDBRANCH  15  18
ENDBRANCH   1  12
BRANCH   2  20
ATOM     20  O   UNL     1     -31.339 -21.880 103.012  1.00  0.00    -0.502 OA
ATOM     21  H   UNL     1     -31.754 -21.113 102.497  1.00  0.00     0.293 HD
ENDBRANCH   2  20
BRANCH   6  22
ATOM     22  O   UNL     1     -27.971 -25.702 101.454  1.00  0.00    -0.507 OA
ATOM     23  H   UNL     1     -27.509 -26.526 101.100  1.00  0.00     0.293 HD
ENDBRANCH   6  22
BRANCH   8  24
ATOM     24  O   UNL     1     -23.805 -23.798 102.892  1.00  0.00    -0.508 OA
ATOM     25  H   UNL     1     -23.250 -24.224 102.158  1.00  0.00     0.293 HD
ENDBRANCH   8  24
TORSDOF 5
ENDMDL
