MODEL 1
REMARK VINA RESULT:    -6.846      0.000      0.000
REMARK INTER + INTRA:          -8.537
REMARK INTER:                  -8.247
REMARK INTRA:                  -0.290
REMARK UNBOUND:                -0.290
REMARK SMILES Oc1cc(O)c2cc(O)c(-c3ccc(O)c(O)c3)[o+]c2c1
REMARK SMILES IDX 10 1 19 2 20 3 21 4 2 5 3 6 4 7 6 8 7 9 8 10 11 11 12 12
REMARK SMILES IDX 13 13 14 14 18 15 16 16 15 17 17 19 9 21 1 23 5 25
REMARK H PARENT 15 18 17 20 9 22 1 24 5 26
REMARK Flexibility Score: inf
ROOT
ATOM      1  C   UNL     1     -20.740 -47.921 104.379  1.00  0.00     0.402 A 
ATOM      2  O   UNL     1     -19.817 -47.766 105.325  1.00  0.00    -0.202 OA
ATOM      3  C   UNL     1     -19.843 -48.417 106.484  1.00  0.00     0.368 A 
ATOM      4  C   UNL     1     -18.830 -48.184 107.417  1.00  0.00     0.162 A 
ATOM      5  C   UNL     1     -18.835 -48.853 108.645  1.00  0.00     0.128 A 
ATOM      6  C   UNL     1     -19.858 -49.756 108.941  1.00  0.00     0.093 A 
ATOM      7  C   UNL     1     -20.885 -50.007 108.023  1.00  0.00     0.136 A 
ATOM      8  C   UNL     1     -20.884 -49.332 106.773  1.00  0.00     0.125 A 
ATOM      9  C   UNL     1     -21.864 -49.531 105.788  1.00  0.00     0.078 A 
ATOM     10  C   UNL     1     -21.793 -48.833 104.579  1.00  0.00     0.223 A 
ENDROOT
BRANCH   1  11
ATOM     11  C   UNL     1     -20.606 -47.132 103.134  1.00  0.00     0.087 A 
ATOM     12  C   UNL     1     -19.564 -47.423 102.240  1.00  0.00     0.022 A 
ATOM     13  C   UNL     1     -19.406 -46.678 101.069  1.00  0.00     0.051 A 
ATOM     14  C   UNL     1     -20.278 -45.619 100.781  1.00  0.00     0.157 A 
ATOM     15  C   UNL     1     -21.467 -46.055 102.852  1.00  0.00     0.068 A 
ATOM     16  C   UNL     1     -21.311 -45.305 101.681  1.00  0.00     0.158 A 
BRANCH  14  17
ATOM     17  O   UNL     1     -20.119 -44.879  99.611  1.00  0.00    -0.504 OA
ATOM     18  H   UNL     1     -19.243 -44.872  99.103  1.00  0.00     0.293 HD
ENDBRANCH  14  17
BRANCH  16  19
ATOM     19  O   UNL     1     -22.186 -44.249 101.432  1.00  0.00    -0.504 OA
ATOM     20  H   UNL     1     -22.206 -43.419 102.014  1.00  0.00     0.293 HD
ENDBRANCH  16  19
ENDBRANCH   1  11
BRANCH  10  21
ATOM     21  O   UNL     1     -22.738 -49.067 103.579  1.00  0.00    -0.500 OA
ATOM     22  H   UNL     1     -23.361 -49.866 103.611  1.00  0.00     0.294 HD
ENDBRANCH  10  21
BRANCH   5  23
ATOM     23  O   UNL     1     -17.827 -48.626 109.580  1.00  0.00    -0.507 OA
ATOM     24  H   UNL     1     -17.003 -49.214 109.625  1.00  0.00     0.293 HD
ENDBRANCH   5  23
BRANCH   7  25
ATOM     25  O   UNL     1     -21.873 -50.923 108.396  1.00  0.00    -0.507 OA
ATOM     26  H   UNL     1     -21.917 -51.878 108.073  1.00  0.00     0.293 HD
ENDBRANCH   7  25
TORSDOF 6
ENDMDL
MODEL 2
REMARK VINA RESULT:    -6.787      1.052      2.633
REMARK INTER + INTRA:          -8.466
REMARK INTER:                  -8.139
REMARK INTRA:                  -0.327
REMARK UNBOUND:                -0.290
REMARK SMILES Oc1cc(O)c2cc(O)c(-c3ccc(O)c(O)c3)[o+]c2c1
REMARK SMILES IDX 10 1 19 2 20 3 21 4 2 5 3 6 4 7 6 8 7 9 8 10 11 11 12 12
REMARK SMILES IDX 13 13 14 14 18 15 16 16 15 17 17 19 9 21 1 23 5 25
REMARK H PARENT 15 18 17 20 9 22 1 24 5 26
REMARK Flexibility Score: inf
ROOT
ATOM      1  C   UNL     1     -19.679 -47.214 104.422  1.00  0.00     0.402 A 
ATOM      2  O   UNL     1     -20.492 -48.122 104.956  1.00  0.00    -0.202 OA
ATOM      3  C   UNL     1     -20.304 -48.651 106.161  1.00  0.00     0.368 A 
ATOM      4  C   UNL     1     -21.212 -49.601 106.635  1.00  0.00     0.162 A 
ATOM      5  C   UNL     1     -21.037 -50.176 107.897  1.00  0.00     0.128 A 
ATOM      6  C   UNL     1     -19.948 -49.801 108.687  1.00  0.00     0.093 A 
ATOM      7  C   UNL     1     -19.024 -48.850 108.235  1.00  0.00     0.136 A 
ATOM      8  C   UNL     1     -19.198 -48.262 106.955  1.00  0.00     0.125 A 
ATOM      9  C   UNL     1     -18.331 -47.293 106.426  1.00  0.00     0.078 A 
ATOM     10  C   UNL     1     -18.571 -46.755 105.158  1.00  0.00     0.223 A 
ENDROOT
BRANCH   1  11
ATOM     11  C   UNL     1     -19.990 -46.707 103.066  1.00  0.00     0.087 A 
ATOM     12  C   UNL     1     -19.289 -47.215 101.961  1.00  0.00     0.022 A 
ATOM     13  C   UNL     1     -19.552 -46.738 100.675  1.00  0.00     0.051 A 
ATOM     14  C   UNL     1     -20.508 -45.732 100.475  1.00  0.00     0.157 A 
ATOM     15  C   UNL     1     -20.934 -45.684 102.865  1.00  0.00     0.068 A 
ATOM     16  C   UNL     1     -21.198 -45.201 101.578  1.00  0.00     0.158 A 
BRANCH  14  17
ATOM     17  O   UNL     1     -20.770 -45.259  99.191  1.00  0.00    -0.504 OA
ATOM     18  H   UNL     1     -20.021 -45.008  98.556  1.00  0.00     0.293 HD
ENDBRANCH  14  17
BRANCH  16  19
ATOM     19  O   UNL     1     -22.145 -44.190 101.416  1.00  0.00    -0.504 OA
ATOM     20  H   UNL     1     -22.878 -44.246 100.719  1.00  0.00     0.293 HD
ENDBRANCH  16  19
ENDBRANCH   1  11
BRANCH  10  21
ATOM     21  O   UNL     1     -17.738 -45.756 104.652  1.00  0.00    -0.500 OA
ATOM     22  H   UNL     1     -17.008 -45.962 103.980  1.00  0.00     0.294 HD
ENDBRANCH  10  21
BRANCH   5  23
ATOM     23  O   UNL     1     -21.938 -51.124 108.376  1.00  0.00    -0.507 OA
ATOM     24  H   UNL     1     -22.272 -51.102 109.333  1.00  0.00     0.293 HD
ENDBRANCH   5  23
BRANCH   7  25
ATOM     25  O   UNL     1     -17.960 -48.532 109.084  1.00  0.00    -0.507 OA
ATOM     26  H   UNL     1     -17.713 -47.593 109.361  1.00  0.00     0.293 HD
ENDBRANCH   7  25
TORSDOF 6
ENDMDL
MODEL 3
REMARK VINA RESULT:    -6.624      1.473      7.063
REMARK INTER + INTRA:          -8.269
REMARK INTER:                  -8.105
REMARK INTRA:                  -0.164
REMARK UNBOUND:                -0.290
REMARK SMILES Oc1cc(O)c2cc(O)c(-c3ccc(O)c(O)c3)[o+]c2c1
REMARK SMILES IDX 10 1 19 2 20 3 21 4 2 5 3 6 4 7 6 8 7 9 8 10 11 11 12 12
REMARK SMILES IDX 13 13 14 14 18 15 16 16 15 17 17 19 9 21 1 23 5 25
REMARK H PARENT 15 18 17 20 9 22 1 24 5 26
REMARK Flexibility Score: inf
ROOT
ATOM      1  C   UNL     1     -20.968 -47.686 103.946  1.00  0.00     0.402 A 
ATOM      2  O   UNL     1     -20.069 -47.835 102.976  1.00  0.00    -0.202 OA
ATOM      3  C   UNL     1     -20.160 -47.228 101.797  1.00  0.00     0.368 A 
ATOM      4  C   UNL     1     -19.166 -47.450 100.840  1.00  0.00     0.162 A 
ATOM      5  C   UNL     1     -19.239 -46.827  99.591  1.00  0.00     0.128 A 
ATOM      6  C   UNL     1     -20.310 -45.981  99.297  1.00  0.00     0.093 A 
ATOM      7  C   UNL     1     -21.318 -45.742 100.239  1.00  0.00     0.136 A 
ATOM      8  C   UNL     1     -21.248 -46.370 101.510  1.00  0.00     0.125 A 
ATOM      9  C   UNL     1     -22.205 -46.179 102.519  1.00  0.00     0.078 A 
ATOM     10  C   UNL     1     -22.066 -46.829 103.749  1.00  0.00     0.223 A 
ENDROOT
BRANCH   1  11
ATOM     11  C   UNL     1     -20.761 -48.423 105.212  1.00  0.00     0.087 A 
ATOM     12  C   UNL     1     -21.729 -49.345 105.641  1.00  0.00     0.022 A 
ATOM     13  C   UNL     1     -21.563 -50.038 106.843  1.00  0.00     0.051 A 
ATOM     14  C   UNL     1     -20.436 -49.809 107.643  1.00  0.00     0.157 A 
ATOM     15  C   UNL     1     -19.640 -48.180 106.027  1.00  0.00     0.068 A 
ATOM     16  C   UNL     1     -19.472 -48.871 107.233  1.00  0.00     0.158 A 
BRANCH  14  17
ATOM     17  O   UNL     1     -20.272 -50.503 108.841  1.00  0.00    -0.504 OA
ATOM     18  H   UNL     1     -20.578 -51.463 108.942  1.00  0.00     0.293 HD
ENDBRANCH  14  17
BRANCH  16  19
ATOM     19  O   UNL     1     -18.346 -48.608 108.013  1.00  0.00    -0.504 OA
ATOM     20  H   UNL     1     -18.003 -47.666 108.161  1.00  0.00     0.293 HD
ENDBRANCH  16  19
ENDBRANCH   1  11
BRANCH  10  21
ATOM     21  O   UNL     1     -22.990 -46.601 104.770  1.00  0.00    -0.500 OA
ATOM     22  H   UNL     1     -23.844 -47.142 104.846  1.00  0.00     0.294 HD
ENDBRANCH  10  21
BRANCH   5  23
ATOM     23  O   UNL     1     -18.252 -47.044  98.632  1.00  0.00    -0.507 OA
ATOM     24  H   UNL     1     -17.497 -47.702  98.787  1.00  0.00     0.293 HD
ENDBRANCH   5  23
BRANCH   7  25
ATOM     25  O   UNL     1     -22.358 -44.884  99.865  1.00  0.00    -0.507 OA
ATOM     26  H   UNL     1     -22.881 -44.309 100.509  1.00  0.00     0.293 HD
ENDBRANCH   7  25
TORSDOF 6
ENDMDL
MODEL 4
REMARK VINA RESULT:    -6.605      3.506      6.948
REMARK INTER + INTRA:          -8.246
REMARK INTER:                  -8.198
REMARK INTRA:                  -0.048
REMARK UNBOUND:                -0.290
REMARK SMILES Oc1cc(O)c2cc(O)c(-c3ccc(O)c(O)c3)[o+]c2c1
REMARK SMILES IDX 10 1 19 2 20 3 21 4 2 5 3 6 4 7 6 8 7 9 8 10 11 11 12 12
REMARK SMILES IDX 13 13 14 14 18 15 16 16 15 17 17 19 9 21 1 23 5 25
REMARK H PARENT 15 18 17 20 9 22 1 24 5 26
REMARK Flexibility Score: inf
ROOT
ATOM      1  C   UNL     1     -23.063 -50.000 103.321  1.00  0.00     0.402 A 
ATOM      2  O   UNL     1     -23.094 -48.985 102.461  1.00  0.00    -0.202 OA
ATOM      3  C   UNL     1     -22.389 -47.869 102.623  1.00  0.00     0.368 A 
ATOM      4  C   UNL     1     -22.491 -46.856 101.667  1.00  0.00     0.162 A 
ATOM      5  C   UNL     1     -21.764 -45.670 101.815  1.00  0.00     0.128 A 
ATOM      6  C   UNL     1     -20.934 -45.498 102.925  1.00  0.00     0.093 A 
ATOM      7  C   UNL     1     -20.815 -46.498 103.897  1.00  0.00     0.136 A 
ATOM      8  C   UNL     1     -21.550 -47.705 103.751  1.00  0.00     0.125 A 
ATOM      9  C   UNL     1     -21.482 -48.766 104.668  1.00  0.00     0.078 A 
ATOM     10  C   UNL     1     -22.231 -49.926 104.453  1.00  0.00     0.223 A 
ENDROOT
BRANCH   1  11
ATOM     11  C   UNL     1     -23.901 -51.186 103.033  1.00  0.00     0.087 A 
ATOM     12  C   UNL     1     -24.752 -51.688 104.030  1.00  0.00     0.022 A 
ATOM     13  C   UNL     1     -25.538 -52.817 103.787  1.00  0.00     0.051 A 
ATOM     14  C   UNL     1     -25.471 -53.473 102.551  1.00  0.00     0.157 A 
ATOM     15  C   UNL     1     -23.821 -51.859 101.800  1.00  0.00     0.068 A 
ATOM     16  C   UNL     1     -24.604 -52.992 101.555  1.00  0.00     0.158 A 
BRANCH  14  17
ATOM     17  O   UNL     1     -26.257 -54.599 102.311  1.00  0.00    -0.504 OA
ATOM     18  H   UNL     1     -27.205 -54.668 102.661  1.00  0.00     0.293 HD
ENDBRANCH  14  17
BRANCH  16  19
ATOM     19  O   UNL     1     -24.503 -53.630 100.319  1.00  0.00    -0.504 OA
ATOM     20  H   UNL     1     -23.625 -53.693  99.816  1.00  0.00     0.293 HD
ENDBRANCH  16  19
ENDBRANCH   1  11
BRANCH  10  21
ATOM     21  O   UNL     1     -22.127 -51.000 105.337  1.00  0.00    -0.500 OA
ATOM     22  H   UNL     1     -21.367 -51.668 105.277  1.00  0.00     0.294 HD
ENDBRANCH  10  21
BRANCH   5  23
ATOM     23  O   UNL     1     -21.860 -44.656 100.865  1.00  0.00    -0.507 OA
ATOM     24  H   UNL     1     -22.347 -43.790 101.062  1.00  0.00     0.293 HD
ENDBRANCH   5  23
BRANCH   7  25
ATOM     25  O   UNL     1     -19.966 -46.246 104.979  1.00  0.00    -0.507 OA
ATOM     26  H   UNL     1     -18.960 -46.310 104.941  1.00  0.00     0.293 HD
ENDBRANCH   7  25
TORSDOF 6
ENDMDL
MODEL 5
REMARK VINA RESULT:    -6.578      1.397      6.822
REMARK INTER + INTRA:          -8.215
REMARK INTER:                  -8.355
REMARK INTRA:                   0.140
REMARK UNBOUND:                -0.290
REMARK SMILES Oc1cc(O)c2cc(O)c(-c3ccc(O)c(O)c3)[o+]c2c1
REMARK SMILES IDX 10 1 19 2 20 3 21 4 2 5 3 6 4 7 6 8 7 9 8 10 11 11 12 12
REMARK SMILES IDX 13 13 14 14 18 15 16 16 15 17 17 19 9 21 1 23 5 25
REMARK H PARENT 15 18 17 20 9 22 1 24 5 26
REMARK Flexibility Score: inf
ROOT
ATOM      1  C   UNL     1     -20.739 -47.862 104.857  1.00  0.00     0.402 A 
ATOM      2  O   UNL     1     -20.403 -46.579 104.738  1.00  0.00    -0.202 OA
ATOM      3  C   UNL     1     -20.587 -45.877 103.624  1.00  0.00     0.368 A 
ATOM      4  C   UNL     1     -20.197 -44.536 103.595  1.00  0.00     0.162 A 
ATOM      5  C   UNL     1     -20.377 -43.774 102.436  1.00  0.00     0.128 A 
ATOM      6  C   UNL     1     -20.947 -44.358 101.302  1.00  0.00     0.093 A 
ATOM      7  C   UNL     1     -21.347 -45.700 101.307  1.00  0.00     0.136 A 
ATOM      8  C   UNL     1     -21.168 -46.477 102.482  1.00  0.00     0.125 A 
ATOM      9  C   UNL     1     -21.550 -47.824 102.581  1.00  0.00     0.078 A 
ATOM     10  C   UNL     1     -21.347 -48.523 103.775  1.00  0.00     0.223 A 
ENDROOT
BRANCH   1  11
ATOM     11  C   UNL     1     -20.474 -48.538 106.147  1.00  0.00     0.087 A 
ATOM     12  C   UNL     1     -19.268 -48.290 106.821  1.00  0.00     0.022 A 
ATOM     13  C   UNL     1     -18.987 -48.932 108.029  1.00  0.00     0.051 A 
ATOM     14  C   UNL     1     -19.900 -49.844 108.575  1.00  0.00     0.157 A 
ATOM     15  C   UNL     1     -21.379 -49.469 106.687  1.00  0.00     0.068 A 
ATOM     16  C   UNL     1     -21.101 -50.116 107.896  1.00  0.00     0.158 A 
BRANCH  14  17
ATOM     17  O   UNL     1     -19.619 -50.482 109.782  1.00  0.00    -0.504 OA
ATOM     18  H   UNL     1     -19.085 -51.343 109.815  1.00  0.00     0.293 HD
ENDBRANCH  14  17
BRANCH  16  19
ATOM     19  O   UNL     1     -22.024 -51.029 108.404  1.00  0.00    -0.504 OA
ATOM     20  H   UNL     1     -22.024 -51.309 109.378  1.00  0.00     0.293 HD
ENDBRANCH  16  19
ENDBRANCH   1  11
BRANCH  10  21
ATOM     21  O   UNL     1     -21.771 -49.848 103.891  1.00  0.00    -0.500 OA
ATOM     22  H   UNL     1     -21.155 -50.625 103.683  1.00  0.00     0.294 HD
ENDBRANCH  10  21
BRANCH   5  23
ATOM     23  O   UNL     1     -19.991 -42.437 102.399  1.00  0.00    -0.507 OA
ATOM     24  H   UNL     1     -19.119 -42.125 102.810  1.00  0.00     0.293 HD
ENDBRANCH   5  23
BRANCH   7  25
ATOM     25  O   UNL     1     -21.906 -46.209 100.131  1.00  0.00    -0.507 OA
ATOM     26  H   UNL     1     -22.661 -45.772  99.624  1.00  0.00     0.293 HD
ENDBRANCH   7  25
TORSDOF 6
ENDMDL
MODEL 6
REMARK VINA RESULT:    -6.499      1.469      6.888
REMARK INTER + INTRA:          -8.119
REMARK INTER:                  -8.198
REMARK INTRA:                   0.078
REMARK UNBOUND:                -0.290
REMARK SMILES Oc1cc(O)c2cc(O)c(-c3ccc(O)c(O)c3)[o+]c2c1
REMARK SMILES IDX 10 1 19 2 20 3 21 4 2 5 3 6 4 7 6 8 7 9 8 10 11 11 12 12
REMARK SMILES IDX 13 13 14 14 18 15 16 16 15 17 17 19 9 21 1 23 5 25
REMARK H PARENT 15 18 17 20 9 22 1 24 5 26
REMARK Flexibility Score: inf
ROOT
ATOM      1  C   UNL     1     -20.796 -47.654 104.424  1.00  0.00     0.402 A 
ATOM      2  O   UNL     1     -20.474 -46.364 104.365  1.00  0.00    -0.202 OA
ATOM      3  C   UNL     1     -20.617 -45.625 103.268  1.00  0.00     0.368 A 
ATOM      4  C   UNL     1     -20.248 -44.279 103.303  1.00  0.00     0.162 A 
ATOM      5  C   UNL     1     -20.384 -43.480 102.163  1.00  0.00     0.128 A 
ATOM      6  C   UNL     1     -20.890 -44.032 100.984  1.00  0.00     0.093 A 
ATOM      7  C   UNL     1     -21.267 -45.379 100.924  1.00  0.00     0.136 A 
ATOM      8  C   UNL     1     -21.132 -46.194 102.079  1.00  0.00     0.125 A 
ATOM      9  C   UNL     1     -21.496 -47.549 102.114  1.00  0.00     0.078 A 
ATOM     10  C   UNL     1     -21.340 -48.287 103.291  1.00  0.00     0.223 A 
ENDROOT
BRANCH   1  11
ATOM     11  C   UNL     1     -20.581 -48.371 105.701  1.00  0.00     0.087 A 
ATOM     12  C   UNL     1     -21.594 -49.202 106.205  1.00  0.00     0.022 A 
ATOM     13  C   UNL     1     -21.421 -49.873 107.418  1.00  0.00     0.051 A 
ATOM     14  C   UNL     1     -20.241 -49.710 108.155  1.00  0.00     0.157 A 
ATOM     15  C   UNL     1     -19.406 -48.193 106.453  1.00  0.00     0.068 A 
ATOM     16  C   UNL     1     -19.230 -48.861 107.671  1.00  0.00     0.158 A 
BRANCH  14  17
ATOM     17  O   UNL     1     -20.070 -50.381 109.365  1.00  0.00    -0.504 OA
ATOM     18  H   UNL     1     -19.630 -49.936 110.161  1.00  0.00     0.293 HD
ENDBRANCH  14  17
BRANCH  16  19
ATOM     19  O   UNL     1     -18.050 -48.665 108.386  1.00  0.00    -0.504 OA
ATOM     20  H   UNL     1     -17.880 -47.822 108.923  1.00  0.00     0.293 HD
ENDBRANCH  16  19
ENDBRANCH   1  11
BRANCH  10  21
ATOM     21  O   UNL     1     -21.748 -49.620 103.342  1.00  0.00    -0.500 OA
ATOM     22  H   UNL     1     -22.653 -49.914 102.994  1.00  0.00     0.294 HD
ENDBRANCH  10  21
BRANCH   5  23
ATOM     23  O   UNL     1     -20.018 -42.137 102.191  1.00  0.00    -0.507 OA
ATOM     24  H   UNL     1     -20.185 -41.525 101.400  1.00  0.00     0.293 HD
ENDBRANCH   5  23
BRANCH   7  25
ATOM     25  O   UNL     1     -21.760 -45.855  99.705  1.00  0.00    -0.507 OA
ATOM     26  H   UNL     1     -21.545 -45.450  98.806  1.00  0.00     0.293 HD
ENDBRANCH   7  25
TORSDOF 6
ENDMDL
MODEL 7
REMARK VINA RESULT:    -6.239      1.662      2.402
REMARK INTER + INTRA:          -7.806
REMARK INTER:                  -7.507
REMARK INTRA:                  -0.299
REMARK UNBOUND:                -0.290
REMARK SMILES Oc1cc(O)c2cc(O)c(-c3ccc(O)c(O)c3)[o+]c2c1
REMARK SMILES IDX 10 1 19 2 20 3 21 4 2 5 3 6 4 7 6 8 7 9 8 10 11 11 12 12
REMARK SMILES IDX 13 13 14 14 18 15 16 16 15 17 17 19 9 21 1 23 5 25
REMARK H PARENT 15 18 17 20 9 22 1 24 5 26
REMARK Flexibility Score: inf
ROOT
ATOM      1  C   UNL     1     -20.326 -48.670 106.195  1.00  0.00     0.402 A 
ATOM      2  O   UNL     1     -19.450 -48.008 106.947  1.00  0.00    -0.202 OA
ATOM      3  C   UNL     1     -19.014 -48.452 108.121  1.00  0.00     0.368 A 
ATOM      4  C   UNL     1     -18.096 -47.683 108.840  1.00  0.00     0.162 A 
ATOM      5  C   UNL     1     -17.622 -48.125 110.079  1.00  0.00     0.128 A 
ATOM      6  C   UNL     1     -18.070 -49.340 110.602  1.00  0.00     0.093 A 
ATOM      7  C   UNL     1     -18.990 -50.130 109.900  1.00  0.00     0.136 A 
ATOM      8  C   UNL     1     -19.472 -49.686 108.641  1.00  0.00     0.125 A 
ATOM      9  C   UNL     1     -20.384 -50.417 107.863  1.00  0.00     0.078 A 
ATOM     10  C   UNL     1     -20.810 -49.918 106.628  1.00  0.00     0.223 A 
ENDROOT
BRANCH   1  11
ATOM     11  C   UNL     1     -20.743 -48.066 104.910  1.00  0.00     0.087 A 
ATOM     12  C   UNL     1     -19.828 -48.003 103.847  1.00  0.00     0.022 A 
ATOM     13  C   UNL     1     -20.194 -47.419 102.632  1.00  0.00     0.051 A 
ATOM     14  C   UNL     1     -21.474 -46.874 102.465  1.00  0.00     0.157 A 
ATOM     15  C   UNL     1     -22.021 -47.499 104.746  1.00  0.00     0.068 A 
ATOM     16  C   UNL     1     -22.389 -46.911 103.531  1.00  0.00     0.158 A 
BRANCH  14  17
ATOM     17  O   UNL     1     -21.837 -46.294 101.251  1.00  0.00    -0.504 OA
ATOM     18  H   UNL     1     -22.808 -46.157 100.998  1.00  0.00     0.293 HD
ENDBRANCH  14  17
BRANCH  16  19
ATOM     19  O   UNL     1     -23.666 -46.365 103.403  1.00  0.00    -0.504 OA
ATOM     20  H   UNL     1     -24.504 -46.920 103.530  1.00  0.00     0.293 HD
ENDBRANCH  16  19
ENDBRANCH   1  11
BRANCH  10  21
ATOM     21  O   UNL     1     -21.677 -50.667 105.832  1.00  0.00    -0.500 OA
ATOM     22  H   UNL     1     -22.583 -50.309 105.550  1.00  0.00     0.294 HD
ENDBRANCH  10  21
BRANCH   5  23
ATOM     23  O   UNL     1     -16.707 -47.363 110.801  1.00  0.00    -0.507 OA
ATOM     24  H   UNL     1     -16.959 -46.922 111.678  1.00  0.00     0.293 HD
ENDBRANCH   5  23
BRANCH   7  25
ATOM     25  O   UNL     1     -19.390 -51.331 110.493  1.00  0.00    -0.507 OA
ATOM     26  H   UNL     1     -18.868 -52.193 110.444  1.00  0.00     0.293 HD
ENDBRANCH   7  25
TORSDOF 6
ENDMDL
MODEL 8
REMARK VINA RESULT:    -6.208      3.612      6.201
REMARK INTER + INTRA:          -7.769
REMARK INTER:                  -7.519
REMARK INTRA:                  -0.250
REMARK UNBOUND:                -0.290
REMARK SMILES Oc1cc(O)c2cc(O)c(-c3ccc(O)c(O)c3)[o+]c2c1
REMARK SMILES IDX 10 1 19 2 20 3 21 4 2 5 3 6 4 7 6 8 7 9 8 10 11 11 12 12
REMARK SMILES IDX 13 13 14 14 18 15 16 16 15 17 17 19 9 21 1 23 5 25
REMARK H PARENT 15 18 17 20 9 22 1 24 5 26
REMARK Flexibility Score: inf
ROOT
ATOM      1  C   UNL     1     -21.504 -46.352 103.352  1.00  0.00     0.402 A 
ATOM      2  O   UNL     1     -21.237 -45.664 104.459  1.00  0.00    -0.202 OA
ATOM      3  C   UNL     1     -20.520 -44.544 104.469  1.00  0.00     0.368 A 
ATOM      4  C   UNL     1     -20.291 -43.894 105.684  1.00  0.00     0.162 A 
ATOM      5  C   UNL     1     -19.537 -42.717 105.723  1.00  0.00     0.128 A 
ATOM      6  C   UNL     1     -19.011 -42.189 104.542  1.00  0.00     0.093 A 
ATOM      7  C   UNL     1     -19.227 -42.822 103.311  1.00  0.00     0.136 A 
ATOM      8  C   UNL     1     -19.993 -44.016 103.266  1.00  0.00     0.125 A 
ATOM      9  C   UNL     1     -20.271 -44.710 102.078  1.00  0.00     0.078 A 
ATOM     10  C   UNL     1     -21.038 -45.878 102.111  1.00  0.00     0.223 A 
ENDROOT
BRANCH   1  11
ATOM     11  C   UNL     1     -22.306 -47.590 103.473  1.00  0.00     0.087 A 
ATOM     12  C   UNL     1     -23.635 -47.511 103.917  1.00  0.00     0.022 A 
ATOM     13  C   UNL     1     -24.404 -48.669 104.058  1.00  0.00     0.051 A 
ATOM     14  C   UNL     1     -23.852 -49.924 103.773  1.00  0.00     0.157 A 
ATOM     15  C   UNL     1     -21.748 -48.854 103.207  1.00  0.00     0.068 A 
ATOM     16  C   UNL     1     -22.515 -50.016 103.349  1.00  0.00     0.158 A 
BRANCH  14  17
ATOM     17  O   UNL     1     -24.622 -51.078 103.912  1.00  0.00    -0.504 OA
ATOM     18  H   UNL     1     -24.228 -52.000 103.766  1.00  0.00     0.293 HD
ENDBRANCH  14  17
BRANCH  16  19
ATOM     19  O   UNL     1     -21.930 -51.251 103.072  1.00  0.00    -0.504 OA
ATOM     20  H   UNL     1     -21.750 -51.936 103.797  1.00  0.00     0.293 HD
ENDBRANCH  16  19
ENDBRANCH   1  11
BRANCH  10  21
ATOM     21  O   UNL     1     -21.357 -46.541 100.926  1.00  0.00    -0.500 OA
ATOM     22  H   UNL     1     -21.711 -47.491 100.925  1.00  0.00     0.294 HD
ENDBRANCH  10  21
BRANCH   5  23
ATOM     23  O   UNL     1     -19.305 -42.064 106.930  1.00  0.00    -0.507 OA
ATOM     24  H   UNL     1     -19.959 -41.384 107.300  1.00  0.00     0.293 HD
ENDBRANCH   5  23
BRANCH   7  25
ATOM     25  O   UNL     1     -18.663 -42.232 102.176  1.00  0.00    -0.507 OA
ATOM     26  H   UNL     1     -19.175 -41.673 101.510  1.00  0.00     0.293 HD
ENDBRANCH   7  25
TORSDOF 6
ENDMDL
MODEL 9
REMARK VINA RESULT:    -6.098      1.862      2.770
REMARK INTER + INTRA:          -7.636
REMARK INTER:                  -7.287
REMARK INTRA:                  -0.348
REMARK UNBOUND:                -0.290
REMARK SMILES Oc1cc(O)c2cc(O)c(-c3ccc(O)c(O)c3)[o+]c2c1
REMARK SMILES IDX 10 1 19 2 20 3 21 4 2 5 3 6 4 7 6 8 7 9 8 10 11 11 12 12
REMARK SMILES IDX 13 13 14 14 18 15 16 16 15 17 17 19 9 21 1 23 5 25
REMARK H PARENT 15 18 17 20 9 22 1 24 5 26
REMARK Flexibility Score: inf
ROOT
ATOM      1  C   UNL     1     -19.739 -46.914 103.698  1.00  0.00     0.402 A 
ATOM      2  O   UNL     1     -18.914 -46.151 104.412  1.00  0.00    -0.202 OA
ATOM      3  C   UNL     1     -18.496 -46.471 105.633  1.00  0.00     0.368 A 
ATOM      4  C   UNL     1     -17.633 -45.602 106.305  1.00  0.00     0.162 A 
ATOM      5  C   UNL     1     -17.180 -45.913 107.591  1.00  0.00     0.128 A 
ATOM      6  C   UNL     1     -17.594 -47.096 108.207  1.00  0.00     0.093 A 
ATOM      7  C   UNL     1     -18.459 -47.984 107.554  1.00  0.00     0.136 A 
ATOM      8  C   UNL     1     -18.920 -47.674 106.247  1.00  0.00     0.125 A 
ATOM      9  C   UNL     1     -19.776 -48.509 105.513  1.00  0.00     0.078 A 
ATOM     10  C   UNL     1     -20.184 -48.139 104.228  1.00  0.00     0.223 A 
ENDROOT
BRANCH   1  11
ATOM     11  C   UNL     1     -20.140 -46.444 102.354  1.00  0.00     0.087 A 
ATOM     12  C   UNL     1     -21.329 -45.712 102.205  1.00  0.00     0.022 A 
ATOM     13  C   UNL     1     -21.737 -45.274 100.943  1.00  0.00     0.051 A 
ATOM     14  C   UNL     1     -20.973 -45.576  99.807  1.00  0.00     0.157 A 
ATOM     15  C   UNL     1     -19.386 -46.762 101.210  1.00  0.00     0.068 A 
ATOM     16  C   UNL     1     -19.793 -46.328  99.943  1.00  0.00     0.158 A 
BRANCH  14  17
ATOM     17  O   UNL     1     -21.382 -45.137  98.549  1.00  0.00    -0.504 OA
ATOM     18  H   UNL     1     -20.868 -45.379  97.710  1.00  0.00     0.293 HD
ENDBRANCH  14  17
BRANCH  16  19
ATOM     19  O   UNL     1     -19.018 -46.658  98.832  1.00  0.00    -0.504 OA
ATOM     20  H   UNL     1     -18.235 -47.299  98.894  1.00  0.00     0.293 HD
ENDBRANCH  16  19
ENDBRANCH   1  11
BRANCH  10  21
ATOM     21  O   UNL     1     -20.995 -48.992 103.478  1.00  0.00    -0.500 OA
ATOM     22  H   UNL     1     -21.990 -49.070 103.653  1.00  0.00     0.294 HD
ENDBRANCH  10  21
BRANCH   5  23
ATOM     23  O   UNL     1     -16.320 -45.052 108.267  1.00  0.00    -0.507 OA
ATOM     24  H   UNL     1     -16.004 -44.183 107.851  1.00  0.00     0.293 HD
ENDBRANCH   5  23
BRANCH   7  25
ATOM     25  O   UNL     1     -18.828 -49.144 108.240  1.00  0.00    -0.507 OA
ATOM     26  H   UNL     1     -18.449 -50.061 108.055  1.00  0.00     0.293 HD
ENDBRANCH   7  25
TORSDOF 6
ENDMDL
