MODEL 1
REMARK VINA RESULT:    -7.298      0.000      0.000
REMARK INTER + INTRA:         -11.593
REMARK INTER:                  -9.645
REMARK INTRA:                  -1.948
REMARK UNBOUND:                -1.948
REMARK SMILES CC[C@@H](C=C[C@@H](C)[C@H]1CC[C@H]2[C@@H]3CC=C4C[C@@H](O)CC[C@]4(C)[C@H]3CC[C@@]12C)C(C)C
REMARK SMILES IDX 6 1 7 2 5 3 4 4 3 5 2 6 1 7 28 8 29 9 30 10 8 11 9 12 26 13
REMARK SMILES IDX 10 14 11 15 25 16 27 17 12 18 24 19 23 20 13 21 21 22 14 23
REMARK SMILES IDX 15 24 20 25 22 26 16 27 19 28 17 29 18 30
REMARK H PARENT 18 31
REMARK Flexibility Score: inf
ROOT
ATOM      1  C   UNL     1     123.502 122.196 129.805  1.00  0.00     0.012 C 
ATOM      2  C   UNL     1     123.127 123.343 128.837  1.00  0.00     0.012 C 
ENDROOT
BRANCH   1   3
ATOM      3  C   UNL     1     123.137 122.639 131.212  1.00  0.00    -0.028 C 
ATOM      4  C   UNL     1     122.784 123.904 131.500  1.00  0.00    -0.027 C 
BRANCH   4   5
ATOM      5  C   UNL     1     122.429 124.333 132.909  1.00  0.00     0.014 C 
BRANCH   5   6
ATOM      6  C   UNL     1     121.706 125.711 132.838  1.00  0.00     0.004 C 
ATOM      7  C   UNL     1     121.637 126.264 131.412  1.00  0.00     0.004 C 
ENDBRANCH   5   6
BRANCH   5   8
ATOM      8  C   UNL     1     123.715 124.378 133.792  1.00  0.00    -0.011 C 
ATOM      9  C   UNL     1     124.695 125.470 133.332  1.00  0.00     0.008 C 
ATOM     10  C   UNL     1     123.373 124.609 135.278  1.00  0.00     0.008 C 
ENDBRANCH   5   8
ENDBRANCH   4   5
ENDBRANCH   1   3
BRANCH   1  11
ATOM     11  C   UNL     1     125.016 121.765 129.703  1.00  0.00     0.002 C 
ATOM     12  C   UNL     1     125.957 122.982 129.626  1.00  0.00     0.005 C 
ATOM     13  C   UNL     1     125.632 120.906 130.878  1.00  0.00    -0.026 C 
ATOM     14  C   UNL     1     126.368 123.267 131.048  1.00  0.00     0.005 C 
ATOM     15  C   UNL     1     126.520 121.895 131.708  1.00  0.00    -0.001 C 
ATOM     16  C   UNL     1     124.598 120.193 131.794  1.00  0.00     0.007 C 
ATOM     17  C   UNL     1     126.543 119.820 130.238  1.00  0.00     0.012 C 
ATOM     18  C   UNL     1     126.204 121.953 133.233  1.00  0.00     0.000 C 
ATOM     19  C   UNL     1     125.240 119.555 133.035  1.00  0.00     0.005 C 
ATOM     20  C   UNL     1     126.155 120.528 133.844  1.00  0.00     0.003 C 
ATOM     21  C   UNL     1     127.267 122.804 133.957  1.00  0.00     0.031 C 
ATOM     22  C   UNL     1     125.845 120.565 135.391  1.00  0.00    -0.008 C 
ATOM     23  C   UNL     1     127.271 122.643 135.452  1.00  0.00    -0.027 C 
ATOM     24  C   UNL     1     126.778 121.563 136.092  1.00  0.00    -0.065 C 
ATOM     25  C   UNL     1     126.081 119.137 135.979  1.00  0.00     0.014 C 
ATOM     26  C   UNL     1     124.385 121.017 135.680  1.00  0.00     0.016 C 
ATOM     27  C   UNL     1     126.959 121.476 137.597  1.00  0.00     0.063 C 
ATOM     28  C   UNL     1     126.152 119.096 137.513  1.00  0.00     0.033 C 
ATOM     29  C   UNL     1     127.244 120.034 138.033  1.00  0.00     0.118 C 
BRANCH  29  30
ATOM     30  O   UNL     1     127.284 119.956 139.434  1.00  0.00    -0.393 OA
ATOM     31  H   UNL     1     127.801 119.139 139.662  1.00  0.00     0.210 HD
ENDBRANCH  29  30
ENDBRANCH   1  11
TORSDOF 6
ENDMDL
MODEL 2
REMARK VINA RESULT:    -7.257      3.153      6.092
REMARK INTER + INTRA:         -11.539
REMARK INTER:                  -9.522
REMARK INTRA:                  -2.017
REMARK UNBOUND:                -1.948
REMARK SMILES CC[C@@H](C=C[C@@H](C)[C@H]1CC[C@H]2[C@@H]3CC=C4C[C@@H](O)CC[C@]4(C)[C@H]3CC[C@@]12C)C(C)C
REMARK SMILES IDX 6 1 7 2 5 3 4 4 3 5 2 6 1 7 28 8 29 9 30 10 8 11 9 12 26 13
REMARK SMILES IDX 10 14 11 15 25 16 27 17 12 18 24 19 23 20 13 21 21 22 14 23
REMARK SMILES IDX 15 24 20 25 22 26 16 27 19 28 17 29 18 30
REMARK H PARENT 18 31
REMARK Flexibility Score: inf
ROOT
ATOM      1  C   UNL     1     123.514 121.179 134.660  1.00  0.00     0.012 C 
ATOM      2  C   UNL     1     122.695 119.885 134.883  1.00  0.00     0.012 C 
ENDROOT
BRANCH   1   3
ATOM      3  C   UNL     1     123.714 121.349 133.164  1.00  0.00    -0.028 C 
ATOM      4  C   UNL     1     123.120 122.331 132.464  1.00  0.00    -0.027 C 
BRANCH   4   5
ATOM      5  C   UNL     1     123.323 122.485 130.971  1.00  0.00     0.014 C 
BRANCH   5   6
ATOM      6  C   UNL     1     124.732 121.933 130.604  1.00  0.00     0.004 C 
ATOM      7  C   UNL     1     125.778 123.041 130.464  1.00  0.00     0.004 C 
ENDBRANCH   5   6
BRANCH   5   8
ATOM      8  C   UNL     1     123.142 123.980 130.561  1.00  0.00    -0.011 C 
ATOM      9  C   UNL     1     122.436 124.127 129.203  1.00  0.00     0.008 C 
ATOM     10  C   UNL     1     122.347 124.766 131.624  1.00  0.00     0.008 C 
ENDBRANCH   5   8
ENDBRANCH   4   5
ENDBRANCH   1   3
BRANCH   1  11
ATOM     11  C   UNL     1     124.886 121.189 135.439  1.00  0.00     0.002 C 
ATOM     12  C   UNL     1     125.997 120.463 134.657  1.00  0.00     0.005 C 
ATOM     13  C   UNL     1     125.541 122.586 135.784  1.00  0.00    -0.026 C 
ATOM     14  C   UNL     1     126.698 121.534 133.860  1.00  0.00     0.005 C 
ATOM     15  C   UNL     1     126.722 122.763 134.770  1.00  0.00    -0.001 C 
ATOM     16  C   UNL     1     124.579 123.805 135.728  1.00  0.00     0.007 C 
ATOM     17  C   UNL     1     126.119 122.489 137.225  1.00  0.00     0.012 C 
ATOM     18  C   UNL     1     126.699 124.087 133.948  1.00  0.00     0.000 C 
ATOM     19  C   UNL     1     125.310 125.149 135.860  1.00  0.00     0.005 C 
ATOM     20  C   UNL     1     126.511 125.315 134.877  1.00  0.00     0.003 C 
ATOM     21  C   UNL     1     128.007 124.227 133.141  1.00  0.00     0.031 C 
ATOM     22  C   UNL     1     126.493 126.667 134.063  1.00  0.00    -0.008 C 
ATOM     23  C   UNL     1     128.249 125.607 132.597  1.00  0.00    -0.027 C 
ATOM     24  C   UNL     1     127.697 126.725 133.111  1.00  0.00    -0.065 C 
ATOM     25  C   UNL     1     126.576 127.855 135.073  1.00  0.00     0.014 C 
ATOM     26  C   UNL     1     125.210 126.805 133.194  1.00  0.00     0.016 C 
ATOM     27  C   UNL     1     128.125 128.066 132.541  1.00  0.00     0.063 C 
ATOM     28  C   UNL     1     126.912 129.206 134.424  1.00  0.00     0.033 C 
ATOM     29  C   UNL     1     128.226 129.125 133.644  1.00  0.00     0.118 C 
BRANCH  29  30
ATOM     30  O   UNL     1     128.501 130.380 133.079  1.00  0.00    -0.393 OA
ATOM     31  H   UNL     1     128.997 130.212 132.234  1.00  0.00     0.210 HD
ENDBRANCH  29  30
ENDBRANCH   1  11
TORSDOF 6
ENDMDL
MODEL 3
REMARK VINA RESULT:    -6.820      2.936      6.069
REMARK INTER + INTRA:         -10.961
REMARK INTER:                  -9.982
REMARK INTRA:                  -0.979
REMARK UNBOUND:                -1.948
REMARK SMILES CC[C@@H](C=C[C@@H](C)[C@H]1CC[C@H]2[C@@H]3CC=C4C[C@@H](O)CC[C@]4(C)[C@H]3CC[C@@]12C)C(C)C
REMARK SMILES IDX 6 1 7 2 5 3 4 4 3 5 2 6 1 7 28 8 29 9 30 10 8 11 9 12 26 13
REMARK SMILES IDX 10 14 11 15 25 16 27 17 12 18 24 19 23 20 13 21 21 22 14 23
REMARK SMILES IDX 15 24 20 25 22 26 16 27 19 28 17 29 18 30
REMARK H PARENT 18 31
REMARK Flexibility Score: inf
ROOT
ATOM      1  C   UNL     1     123.030 124.930 135.186  1.00  0.00     0.012 C 
ATOM      2  C   UNL     1     122.646 126.332 135.717  1.00  0.00     0.012 C 
ENDROOT
BRANCH   1   3
ATOM      3  C   UNL     1     124.318 125.072 134.393  1.00  0.00    -0.028 C 
ATOM      4  C   UNL     1     125.528 125.078 134.979  1.00  0.00    -0.027 C 
BRANCH   4   5
ATOM      5  C   UNL     1     126.805 125.226 134.178  1.00  0.00     0.014 C 
BRANCH   5   6
ATOM      6  C   UNL     1     127.856 124.220 134.731  1.00  0.00     0.004 C 
ATOM      7  C   UNL     1     127.361 123.480 135.976  1.00  0.00     0.004 C 
ENDBRANCH   5   6
BRANCH   5   8
ATOM      8  C   UNL     1     127.302 126.704 134.239  1.00  0.00    -0.011 C 
ATOM      9  C   UNL     1     127.237 127.395 132.866  1.00  0.00     0.008 C 
ATOM     10  C   UNL     1     126.488 127.534 135.254  1.00  0.00     0.008 C 
ENDBRANCH   5   8
ENDBRANCH   4   5
ENDBRANCH   1   3
BRANCH   1  11
ATOM     11  C   UNL     1     121.889 124.254 134.331  1.00  0.00     0.002 C 
ATOM     12  C   UNL     1     121.339 125.204 133.251  1.00  0.00     0.005 C 
ATOM     13  C   UNL     1     122.239 122.945 133.517  1.00  0.00    -0.026 C 
ATOM     14  C   UNL     1     122.137 124.908 132.007  1.00  0.00     0.005 C 
ATOM     15  C   UNL     1     122.362 123.395 132.021  1.00  0.00    -0.001 C 
ATOM     16  C   UNL     1     123.523 122.199 133.975  1.00  0.00     0.007 C 
ATOM     17  C   UNL     1     121.035 121.970 133.656  1.00  0.00     0.012 C 
ATOM     18  C   UNL     1     123.697 123.006 131.318  1.00  0.00     0.000 C 
ATOM     19  C   UNL     1     123.928 121.066 133.021  1.00  0.00     0.005 C 
ATOM     20  C   UNL     1     124.016 121.502 131.524  1.00  0.00     0.003 C 
ATOM     21  C   UNL     1     123.610 123.328 129.811  1.00  0.00     0.031 C 
ATOM     22  C   UNL     1     125.361 121.086 130.811  1.00  0.00    -0.008 C 
ATOM     23  C   UNL     1     124.683 122.682 128.981  1.00  0.00    -0.027 C 
ATOM     24  C   UNL     1     125.360 121.577 129.356  1.00  0.00    -0.065 C 
ATOM     25  C   UNL     1     125.471 119.527 130.829  1.00  0.00     0.014 C 
ATOM     26  C   UNL     1     126.605 121.708 131.508  1.00  0.00     0.016 C 
ATOM     27  C   UNL     1     126.331 120.959 128.365  1.00  0.00     0.063 C 
ATOM     28  C   UNL     1     126.541 118.965 129.883  1.00  0.00     0.033 C 
ATOM     29  C   UNL     1     126.295 119.428 128.445  1.00  0.00     0.118 C 
BRANCH  29  30
ATOM     30  O   UNL     1     127.285 118.883 127.612  1.00  0.00    -0.393 OA
ATOM     31  H   UNL     1     127.249 117.897 127.731  1.00  0.00     0.210 HD
ENDBRANCH  29  30
ENDBRANCH   1  11
TORSDOF 6
ENDMDL
MODEL 4
REMARK VINA RESULT:    -6.596      3.023      6.258
REMARK INTER + INTRA:         -10.665
REMARK INTER:                  -9.275
REMARK INTRA:                  -1.391
REMARK UNBOUND:                -1.948
REMARK SMILES CC[C@@H](C=C[C@@H](C)[C@H]1CC[C@H]2[C@@H]3CC=C4C[C@@H](O)CC[C@]4(C)[C@H]3CC[C@@]12C)C(C)C
REMARK SMILES IDX 6 1 7 2 5 3 4 4 3 5 2 6 1 7 28 8 29 9 30 10 8 11 9 12 26 13
REMARK SMILES IDX 10 14 11 15 25 16 27 17 12 18 24 19 23 20 13 21 21 22 14 23
REMARK SMILES IDX 15 24 20 25 22 26 16 27 19 28 17 29 18 30
REMARK H PARENT 18 31
REMARK Flexibility Score: inf
ROOT
ATOM      1  C   UNL     1     123.559 120.727 133.756  1.00  0.00     0.012 C 
ATOM      2  C   UNL     1     122.547 119.831 134.509  1.00  0.00     0.012 C 
ENDROOT
BRANCH   1   3
ATOM      3  C   UNL     1     124.393 121.459 134.794  1.00  0.00    -0.028 C 
ATOM      4  C   UNL     1     124.790 120.877 135.939  1.00  0.00    -0.027 C 
BRANCH   4   5
ATOM      5  C   UNL     1     125.616 121.620 136.969  1.00  0.00     0.014 C 
BRANCH   5   6
ATOM      6  C   UNL     1     126.016 123.004 136.377  1.00  0.00     0.004 C 
ATOM      7  C   UNL     1     125.331 124.169 137.094  1.00  0.00     0.004 C 
ENDBRANCH   5   6
BRANCH   5   8
ATOM      8  C   UNL     1     126.855 120.763 137.376  1.00  0.00    -0.011 C 
ATOM      9  C   UNL     1     127.110 119.610 136.392  1.00  0.00     0.008 C 
ATOM     10  C   UNL     1     128.131 121.625 137.477  1.00  0.00     0.008 C 
ENDBRANCH   5   8
ENDBRANCH   4   5
ENDBRANCH   1   3
BRANCH   1  11
ATOM     11  C   UNL     1     122.874 121.727 132.746  1.00  0.00     0.002 C 
ATOM     12  C   UNL     1     121.650 122.425 133.368  1.00  0.00     0.005 C 
ATOM     13  C   UNL     1     123.731 122.932 132.186  1.00  0.00    -0.026 C 
ATOM     14  C   UNL     1     122.170 123.717 133.945  1.00  0.00     0.005 C 
ATOM     15  C   UNL     1     123.233 124.202 132.957  1.00  0.00    -0.001 C 
ATOM     16  C   UNL     1     125.271 122.773 132.323  1.00  0.00     0.007 C 
ATOM     17  C   UNL     1     123.391 123.088 130.676  1.00  0.00     0.012 C 
ATOM     18  C   UNL     1     124.347 125.026 133.670  1.00  0.00     0.000 C 
ATOM     19  C   UNL     1     126.038 124.055 131.963  1.00  0.00     0.005 C 
ATOM     20  C   UNL     1     125.520 125.330 132.701  1.00  0.00     0.003 C 
ATOM     21  C   UNL     1     123.756 126.343 134.217  1.00  0.00     0.031 C 
ATOM     22  C   UNL     1     126.655 126.172 133.402  1.00  0.00    -0.008 C 
ATOM     23  C   UNL     1     124.788 127.365 134.606  1.00  0.00    -0.027 C 
ATOM     24  C   UNL     1     126.045 127.387 134.117  1.00  0.00    -0.065 C 
ATOM     25  C   UNL     1     127.655 126.665 132.308  1.00  0.00     0.014 C 
ATOM     26  C   UNL     1     127.417 125.341 134.474  1.00  0.00     0.016 C 
ATOM     27  C   UNL     1     126.944 128.549 134.500  1.00  0.00     0.063 C 
ATOM     28  C   UNL     1     128.609 127.770 132.785  1.00  0.00     0.033 C 
ATOM     29  C   UNL     1     127.828 128.971 133.321  1.00  0.00     0.118 C 
BRANCH  29  30
ATOM     30  O   UNL     1     128.735 129.960 133.733  1.00  0.00    -0.393 OA
ATOM     31  H   UNL     1     128.500 130.790 133.240  1.00  0.00     0.210 HD
ENDBRANCH  29  30
ENDBRANCH   1  11
TORSDOF 6
ENDMDL
MODEL 5
REMARK VINA RESULT:    -6.563      2.935      6.011
REMARK INTER + INTRA:         -10.622
REMARK INTER:                  -8.356
REMARK INTRA:                  -2.266
REMARK UNBOUND:                -1.948
REMARK SMILES CC[C@@H](C=C[C@@H](C)[C@H]1CC[C@H]2[C@@H]3CC=C4C[C@@H](O)CC[C@]4(C)[C@H]3CC[C@@]12C)C(C)C
REMARK SMILES IDX 6 1 7 2 5 3 4 4 3 5 2 6 1 7 28 8 29 9 30 10 8 11 9 12 26 13
REMARK SMILES IDX 10 14 11 15 25 16 27 17 12 18 24 19 23 20 13 21 21 22 14 23
REMARK SMILES IDX 15 24 20 25 22 26 16 27 19 28 17 29 18 30
REMARK H PARENT 18 31
REMARK Flexibility Score: inf
ROOT
ATOM      1  C   UNL     1     125.373 120.237 131.888  1.00  0.00     0.012 C 
ATOM      2  C   UNL     1     126.067 118.992 131.287  1.00  0.00     0.012 C 
ENDROOT
BRANCH   1   3
ATOM      3  C   UNL     1     126.413 121.339 132.002  1.00  0.00    -0.028 C 
ATOM      4  C   UNL     1     126.150 122.615 131.670  1.00  0.00    -0.027 C 
BRANCH   4   5
ATOM      5  C   UNL     1     127.199 123.703 131.782  1.00  0.00     0.014 C 
BRANCH   5   6
ATOM      6  C   UNL     1     128.606 123.047 131.662  1.00  0.00     0.004 C 
ATOM      7  C   UNL     1     129.120 123.022 130.220  1.00  0.00     0.004 C 
ENDBRANCH   5   6
BRANCH   5   8
ATOM      8  C   UNL     1     127.015 124.482 133.121  1.00  0.00    -0.011 C 
ATOM      9  C   UNL     1     128.286 124.454 133.987  1.00  0.00     0.008 C 
ATOM     10  C   UNL     1     126.614 125.951 132.871  1.00  0.00     0.008 C 
ENDBRANCH   5   8
ENDBRANCH   4   5
ENDBRANCH   1   3
BRANCH   1  11
ATOM     11  C   UNL     1     124.671 119.951 133.272  1.00  0.00     0.002 C 
ATOM     12  C   UNL     1     125.663 120.025 134.447  1.00  0.00     0.005 C 
ATOM     13  C   UNL     1     123.498 120.908 133.729  1.00  0.00    -0.026 C 
ATOM     14  C   UNL     1     125.585 121.442 134.956  1.00  0.00     0.005 C 
ATOM     15  C   UNL     1     124.111 121.834 134.834  1.00  0.00    -0.001 C 
ATOM     16  C   UNL     1     122.850 121.754 132.598  1.00  0.00     0.007 C 
ATOM     17  C   UNL     1     122.391 120.020 134.367  1.00  0.00     0.012 C 
ATOM     18  C   UNL     1     123.942 123.363 134.588  1.00  0.00     0.000 C 
ATOM     19  C   UNL     1     121.871 122.812 133.130  1.00  0.00     0.005 C 
ATOM     20  C   UNL     1     122.467 123.713 134.258  1.00  0.00     0.003 C 
ATOM     21  C   UNL     1     124.408 124.149 135.832  1.00  0.00     0.031 C 
ATOM     22  C   UNL     1     122.274 125.260 134.014  1.00  0.00    -0.008 C 
ATOM     23  C   UNL     1     123.969 125.587 135.851  1.00  0.00    -0.027 C 
ATOM     24  C   UNL     1     122.910 126.059 135.161  1.00  0.00    -0.065 C 
ATOM     25  C   UNL     1     120.742 125.566 133.960  1.00  0.00     0.014 C 
ATOM     26  C   UNL     1     122.949 125.730 132.694  1.00  0.00     0.016 C 
ATOM     27  C   UNL     1     122.505 127.507 135.369  1.00  0.00     0.063 C 
ATOM     28  C   UNL     1     120.398 127.058 134.072  1.00  0.00     0.033 C 
ATOM     29  C   UNL     1     120.979 127.657 135.355  1.00  0.00     0.118 C 
BRANCH  29  30
ATOM     30  O   UNL     1     120.632 129.016 135.424  1.00  0.00    -0.393 OA
ATOM     31  H   UNL     1     120.803 129.309 136.358  1.00  0.00     0.210 HD
ENDBRANCH  29  30
ENDBRANCH   1  11
TORSDOF 6
ENDMDL
MODEL 6
REMARK VINA RESULT:    -6.533      2.783      5.425
REMARK INTER + INTRA:         -10.581
REMARK INTER:                  -9.543
REMARK INTRA:                  -1.038
REMARK UNBOUND:                -1.948
REMARK SMILES CC[C@@H](C=C[C@@H](C)[C@H]1CC[C@H]2[C@@H]3CC=C4C[C@@H](O)CC[C@]4(C)[C@H]3CC[C@@]12C)C(C)C
REMARK SMILES IDX 6 1 7 2 5 3 4 4 3 5 2 6 1 7 28 8 29 9 30 10 8 11 9 12 26 13
REMARK SMILES IDX 10 14 11 15 25 16 27 17 12 18 24 19 23 20 13 21 21 22 14 23
REMARK SMILES IDX 15 24 20 25 22 26 16 27 19 28 17 29 18 30
REMARK H PARENT 18 31
REMARK Flexibility Score: inf
ROOT
ATOM      1  C   UNL     1     122.541 126.826 132.064  1.00  0.00     0.012 C 
ATOM      2  C   UNL     1     122.498 128.341 131.752  1.00  0.00     0.012 C 
ENDROOT
BRANCH   1   3
ATOM      3  C   UNL     1     121.888 126.094 130.903  1.00  0.00    -0.028 C 
ATOM      4  C   UNL     1     121.268 126.741 129.901  1.00  0.00    -0.027 C 
BRANCH   4   5
ATOM      5  C   UNL     1     120.616 125.999 128.753  1.00  0.00     0.014 C 
BRANCH   5   6
ATOM      6  C   UNL     1     121.735 125.367 127.874  1.00  0.00     0.004 C 
ATOM      7  C   UNL     1     121.246 124.146 127.090  1.00  0.00     0.004 C 
ENDBRANCH   5   6
BRANCH   5   8
ATOM      8  C   UNL     1     119.699 126.970 127.945  1.00  0.00    -0.011 C 
ATOM      9  C   UNL     1     118.235 126.498 127.922  1.00  0.00     0.008 C 
ATOM     10  C   UNL     1     119.752 128.403 128.513  1.00  0.00     0.008 C 
ENDBRANCH   5   8
ENDBRANCH   4   5
ENDBRANCH   1   3
BRANCH   1  11
ATOM     11  C   UNL     1     121.866 126.455 133.442  1.00  0.00     0.002 C 
ATOM     12  C   UNL     1     120.896 125.267 133.306  1.00  0.00     0.005 C 
ATOM     13  C   UNL     1     122.800 126.023 134.641  1.00  0.00    -0.026 C 
ATOM     14  C   UNL     1     121.709 124.040 133.631  1.00  0.00     0.005 C 
ATOM     15  C   UNL     1     122.653 124.468 134.756  1.00  0.00    -0.001 C 
ATOM     16  C   UNL     1     124.295 126.427 134.500  1.00  0.00     0.007 C 
ATOM     17  C   UNL     1     122.239 126.683 135.934  1.00  0.00     0.012 C 
ATOM     18  C   UNL     1     123.991 123.669 134.717  1.00  0.00     0.000 C 
ATOM     19  C   UNL     1     125.187 125.800 135.582  1.00  0.00     0.005 C 
ATOM     20  C   UNL     1     125.016 124.254 135.724  1.00  0.00     0.003 C 
ATOM     21  C   UNL     1     123.724 122.183 135.036  1.00  0.00     0.031 C 
ATOM     22  C   UNL     1     126.376 123.453 135.707  1.00  0.00    -0.008 C 
ATOM     23  C   UNL     1     124.959 121.394 135.372  1.00  0.00    -0.027 C 
ATOM     24  C   UNL     1     126.102 121.947 135.829  1.00  0.00    -0.065 C 
ATOM     25  C   UNL     1     127.242 123.920 136.920  1.00  0.00     0.014 C 
ATOM     26  C   UNL     1     127.163 123.673 134.383  1.00  0.00     0.016 C 
ATOM     27  C   UNL     1     127.230 121.021 136.247  1.00  0.00     0.063 C 
ATOM     28  C   UNL     1     128.431 122.998 137.231  1.00  0.00     0.033 C 
ATOM     29  C   UNL     1     127.957 121.564 137.482  1.00  0.00     0.118 C 
BRANCH  29  30
ATOM     30  O   UNL     1     129.070 120.760 137.774  1.00  0.00    -0.393 OA
ATOM     31  H   UNL     1     129.442 121.086 138.636  1.00  0.00     0.210 HD
ENDBRANCH  29  30
ENDBRANCH   1  11
TORSDOF 6
ENDMDL
MODEL 7
REMARK VINA RESULT:    -6.483      2.686      6.196
REMARK INTER + INTRA:         -10.516
REMARK INTER:                  -8.830
REMARK INTRA:                  -1.686
REMARK UNBOUND:                -1.948
REMARK SMILES CC[C@@H](C=C[C@@H](C)[C@H]1CC[C@H]2[C@@H]3CC=C4C[C@@H](O)CC[C@]4(C)[C@H]3CC[C@@]12C)C(C)C
REMARK SMILES IDX 6 1 7 2 5 3 4 4 3 5 2 6 1 7 28 8 29 9 30 10 8 11 9 12 26 13
REMARK SMILES IDX 10 14 11 15 25 16 27 17 12 18 24 19 23 20 13 21 21 22 14 23
REMARK SMILES IDX 15 24 20 25 22 26 16 27 19 28 17 29 18 30
REMARK H PARENT 18 31
REMARK Flexibility Score: inf
ROOT
ATOM      1  C   UNL     1     125.531 120.039 131.802  1.00  0.00     0.012 C 
ATOM      2  C   UNL     1     126.326 118.875 131.164  1.00  0.00     0.012 C 
ENDROOT
BRANCH   1   3
ATOM      3  C   UNL     1     125.063 119.583 133.174  1.00  0.00    -0.028 C 
ATOM      4  C   UNL     1     125.336 120.275 134.295  1.00  0.00    -0.027 C 
BRANCH   4   5
ATOM      5  C   UNL     1     124.869 119.806 135.657  1.00  0.00     0.014 C 
BRANCH   5   6
ATOM      6  C   UNL     1     123.343 119.508 135.581  1.00  0.00     0.004 C 
ATOM      7  C   UNL     1     122.787 118.953 136.895  1.00  0.00     0.004 C 
ENDBRANCH   5   6
BRANCH   5   8
ATOM      8  C   UNL     1     125.216 120.879 136.736  1.00  0.00    -0.011 C 
ATOM      9  C   UNL     1     126.646 120.715 137.277  1.00  0.00     0.008 C 
ATOM     10  C   UNL     1     125.051 122.310 136.185  1.00  0.00     0.008 C 
ENDBRANCH   5   8
ENDBRANCH   4   5
ENDBRANCH   1   3
BRANCH   1  11
ATOM     11  C   UNL     1     124.328 120.534 130.909  1.00  0.00     0.002 C 
ATOM     12  C   UNL     1     122.992 119.904 131.343  1.00  0.00     0.005 C 
ATOM     13  C   UNL     1     124.005 122.081 130.878  1.00  0.00    -0.026 C 
ATOM     14  C   UNL     1     122.379 120.881 132.314  1.00  0.00     0.005 C 
ATOM     15  C   UNL     1     122.728 122.266 131.767  1.00  0.00    -0.001 C 
ATOM     16  C   UNL     1     125.153 123.011 131.362  1.00  0.00     0.007 C 
ATOM     17  C   UNL     1     123.660 122.459 129.409  1.00  0.00     0.012 C 
ATOM     18  C   UNL     1     122.861 123.318 132.910  1.00  0.00     0.000 C 
ATOM     19  C   UNL     1     124.712 124.475 131.513  1.00  0.00     0.005 C 
ATOM     20  C   UNL     1     123.418 124.660 132.367  1.00  0.00     0.003 C 
ATOM     21  C   UNL     1     121.487 123.545 133.576  1.00  0.00     0.031 C 
ATOM     22  C   UNL     1     123.552 125.742 133.508  1.00  0.00    -0.008 C 
ATOM     23  C   UNL     1     121.417 124.774 134.438  1.00  0.00    -0.027 C 
ATOM     24  C   UNL     1     122.241 125.834 134.304  1.00  0.00    -0.065 C 
ATOM     25  C   UNL     1     123.853 127.125 132.848  1.00  0.00     0.014 C 
ATOM     26  C   UNL     1     124.680 125.386 134.518  1.00  0.00     0.016 C 
ATOM     27  C   UNL     1     121.979 127.060 135.160  1.00  0.00     0.063 C 
ATOM     28  C   UNL     1     123.670 128.323 133.793  1.00  0.00     0.033 C 
ATOM     29  C   UNL     1     122.254 128.347 134.373  1.00  0.00     0.118 C 
BRANCH  29  30
ATOM     30  O   UNL     1     122.126 129.461 135.219  1.00  0.00    -0.393 OA
ATOM     31  H   UNL     1     121.163 129.535 135.453  1.00  0.00     0.210 HD
ENDBRANCH  29  30
ENDBRANCH   1  11
TORSDOF 6
ENDMDL
MODEL 8
REMARK VINA RESULT:    -6.409      3.255      6.178
REMARK INTER + INTRA:         -10.418
REMARK INTER:                  -8.480
REMARK INTRA:                  -1.938
REMARK UNBOUND:                -1.948
REMARK SMILES CC[C@@H](C=C[C@@H](C)[C@H]1CC[C@H]2[C@@H]3CC=C4C[C@@H](O)CC[C@]4(C)[C@H]3CC[C@@]12C)C(C)C
REMARK SMILES IDX 6 1 7 2 5 3 4 4 3 5 2 6 1 7 28 8 29 9 30 10 8 11 9 12 26 13
REMARK SMILES IDX 10 14 11 15 25 16 27 17 12 18 24 19 23 20 13 21 21 22 14 23
REMARK SMILES IDX 15 24 20 25 22 26 16 27 19 28 17 29 18 30
REMARK H PARENT 18 31
REMARK Flexibility Score: inf
ROOT
ATOM      1  C   UNL     1     121.822 129.437 134.089  1.00  0.00     0.012 C 
ATOM      2  C   UNL     1     120.985 130.708 133.808  1.00  0.00     0.012 C 
ENDROOT
BRANCH   1   3
ATOM      3  C   UNL     1     123.211 129.660 133.517  1.00  0.00    -0.028 C 
ATOM      4  C   UNL     1     124.326 129.521 134.257  1.00  0.00    -0.027 C 
BRANCH   4   5
ATOM      5  C   UNL     1     125.705 129.753 133.676  1.00  0.00     0.014 C 
BRANCH   5   6
ATOM      6  C   UNL     1     126.657 128.637 134.200  1.00  0.00     0.004 C 
ATOM      7  C   UNL     1     127.239 127.784 133.070  1.00  0.00     0.004 C 
ENDBRANCH   5   6
BRANCH   5   8
ATOM      8  C   UNL     1     126.204 131.185 134.044  1.00  0.00    -0.011 C 
ATOM      9  C   UNL     1     125.925 132.201 132.924  1.00  0.00     0.008 C 
ATOM     10  C   UNL     1     125.556 131.691 135.350  1.00  0.00     0.008 C 
ENDBRANCH   5   8
ENDBRANCH   4   5
ENDBRANCH   1   3
BRANCH   1  11
ATOM     11  C   UNL     1     121.162 128.119 133.525  1.00  0.00     0.002 C 
ATOM     12  C   UNL     1     121.428 127.942 132.018  1.00  0.00     0.005 C 
ATOM     13  C   UNL     1     121.613 126.733 134.137  1.00  0.00    -0.026 C 
ATOM     14  C   UNL     1     122.670 127.093 131.923  1.00  0.00     0.005 C 
ATOM     15  C   UNL     1     122.559 126.085 133.069  1.00  0.00    -0.001 C 
ATOM     16  C   UNL     1     122.318 126.814 135.520  1.00  0.00     0.007 C 
ATOM     17  C   UNL     1     120.341 125.852 134.291  1.00  0.00     0.012 C 
ATOM     18  C   UNL     1     123.961 125.657 133.595  1.00  0.00     0.000 C 
ATOM     19  C   UNL     1     122.921 125.472 135.962  1.00  0.00     0.005 C 
ATOM     20  C   UNL     1     123.835 124.805 134.885  1.00  0.00     0.003 C 
ATOM     21  C   UNL     1     124.711 124.861 132.506  1.00  0.00     0.031 C 
ATOM     22  C   UNL     1     125.245 124.354 135.430  1.00  0.00    -0.008 C 
ATOM     23  C   UNL     1     125.908 124.105 133.009  1.00  0.00    -0.027 C 
ATOM     24  C   UNL     1     126.074 123.733 134.296  1.00  0.00    -0.065 C 
ATOM     25  C   UNL     1     125.027 123.289 136.552  1.00  0.00     0.014 C 
ATOM     26  C   UNL     1     126.061 125.552 135.994  1.00  0.00     0.016 C 
ATOM     27  C   UNL     1     127.271 122.865 134.643  1.00  0.00     0.063 C 
ATOM     28  C   UNL     1     126.296 122.513 136.934  1.00  0.00     0.033 C 
ATOM     29  C   UNL     1     126.904 121.826 135.709  1.00  0.00     0.118 C 
BRANCH  29  30
ATOM     30  O   UNL     1     128.052 121.120 136.103  1.00  0.00    -0.393 OA
ATOM     31  H   UNL     1     128.200 120.410 135.424  1.00  0.00     0.210 HD
ENDBRANCH  29  30
ENDBRANCH   1  11
TORSDOF 6
ENDMDL
MODEL 9
REMARK VINA RESULT:    -6.391      3.243      6.728
REMARK INTER + INTRA:         -10.394
REMARK INTER:                  -9.148
REMARK INTRA:                  -1.245
REMARK UNBOUND:                -1.948
REMARK SMILES CC[C@@H](C=C[C@@H](C)[C@H]1CC[C@H]2[C@@H]3CC=C4C[C@@H](O)CC[C@]4(C)[C@H]3CC[C@@]12C)C(C)C
REMARK SMILES IDX 6 1 7 2 5 3 4 4 3 5 2 6 1 7 28 8 29 9 30 10 8 11 9 12 26 13
REMARK SMILES IDX 10 14 11 15 25 16 27 17 12 18 24 19 23 20 13 21 21 22 14 23
REMARK SMILES IDX 15 24 20 25 22 26 16 27 19 28 17 29 18 30
REMARK H PARENT 18 31
REMARK Flexibility Score: inf
ROOT
ATOM      1  C   UNL     1     124.485 120.286 131.208  1.00  0.00     0.012 C 
ATOM      2  C   UNL     1     123.880 118.875 131.019  1.00  0.00     0.012 C 
ENDROOT
BRANCH   1   3
ATOM      3  C   UNL     1     125.706 120.391 130.309  1.00  0.00    -0.028 C 
ATOM      4  C   UNL     1     125.777 121.264 129.289  1.00  0.00    -0.027 C 
BRANCH   4   5
ATOM      5  C   UNL     1     126.998 121.353 128.396  1.00  0.00     0.014 C 
BRANCH   5   6
ATOM      6  C   UNL     1     127.497 119.910 128.096  1.00  0.00     0.004 C 
ATOM      7  C   UNL     1     126.494 119.102 127.268  1.00  0.00     0.004 C 
ENDBRANCH   5   6
BRANCH   5   8
ATOM      8  C   UNL     1     128.091 122.234 129.078  1.00  0.00    -0.011 C 
ATOM      9  C   UNL     1     127.485 123.427 129.836  1.00  0.00     0.008 C 
ATOM     10  C   UNL     1     128.955 121.410 130.055  1.00  0.00     0.008 C 
ENDBRANCH   5   8
ENDBRANCH   4   5
ENDBRANCH   1   3
BRANCH   1  11
ATOM     11  C   UNL     1     124.835 120.618 132.710  1.00  0.00     0.002 C 
ATOM     12  C   UNL     1     126.294 121.085 132.872  1.00  0.00     0.005 C 
ATOM     13  C   UNL     1     124.010 121.752 133.439  1.00  0.00    -0.026 C 
ATOM     14  C   UNL     1     126.250 122.589 132.785  1.00  0.00     0.005 C 
ATOM     15  C   UNL     1     124.959 122.997 133.498  1.00  0.00    -0.001 C 
ATOM     16  C   UNL     1     122.656 122.123 132.773  1.00  0.00     0.007 C 
ATOM     17  C   UNL     1     123.721 121.264 134.888  1.00  0.00     0.012 C 
ATOM     18  C   UNL     1     124.368 124.312 132.907  1.00  0.00     0.000 C 
ATOM     19  C   UNL     1     122.005 123.367 133.396  1.00  0.00     0.005 C 
ATOM     20  C   UNL     1     122.959 124.599 133.490  1.00  0.00     0.003 C 
ATOM     21  C   UNL     1     125.315 125.494 133.204  1.00  0.00     0.031 C 
ATOM     22  C   UNL     1     122.347 125.932 132.910  1.00  0.00    -0.008 C 
ATOM     23  C   UNL     1     124.695 126.847 132.999  1.00  0.00    -0.027 C 
ATOM     24  C   UNL     1     123.365 127.076 133.028  1.00  0.00    -0.065 C 
ATOM     25  C   UNL     1     121.070 126.292 133.736  1.00  0.00     0.014 C 
ATOM     26  C   UNL     1     121.977 125.796 131.405  1.00  0.00     0.016 C 
ATOM     27  C   UNL     1     122.881 128.512 132.929  1.00  0.00     0.063 C 
ATOM     28  C   UNL     1     120.566 127.726 133.516  1.00  0.00     0.033 C 
ATOM     29  C   UNL     1     121.665 128.744 133.832  1.00  0.00     0.118 C 
BRANCH  29  30
ATOM     30  O   UNL     1     121.160 130.039 133.631  1.00  0.00    -0.393 OA
ATOM     31  H   UNL     1     121.224 130.511 134.503  1.00  0.00     0.210 HD
ENDBRANCH  29  30
ENDBRANCH   1  11
TORSDOF 6
ENDMDL
