MODEL 1
REMARK VINA RESULT:    -4.032      0.000      0.000
REMARK INTER + INTRA:          -6.820
REMARK INTER:                  -6.154
REMARK INTRA:                  -0.665
REMARK UNBOUND:                -0.665
REMARK SMILES CCCCCCCCCC=CC(=O)[O-]
REMARK SMILES IDX 7 1 8 2 9 3 10 4 11 5 12 6 13 7 14 8 6 9 5 10 4 11 3 12 2 13
REMARK SMILES IDX 1 14
REMARK H PARENT
REMARK Flexibility Score: inf
ROOT
ATOM      1  C   UNL     1      50.836 -43.428 -30.646  1.00  0.00     0.000 C 
ENDROOT
BRANCH   1   2
ATOM      2  C   UNL     1      51.870 -42.437 -30.085  1.00  0.00     0.004 C 
BRANCH   2   3
ATOM      3  C   UNL     1      51.948 -41.150 -30.922  1.00  0.00     0.027 C 
BRANCH   3   4
ATOM      4  C   UNL     1      53.327 -40.900 -31.463  1.00  0.00    -0.025 C 
ATOM      5  C   UNL     1      53.540 -40.693 -32.766  1.00  0.00     0.020 C 
BRANCH   5   6
ATOM      6  C   UNL     1      54.886 -40.456 -33.310  1.00  0.00     0.064 C 
ATOM      7  O   UNL     1      55.712 -39.776 -32.647  1.00  0.00    -0.545 OA
ATOM      8  O   UNL     1      55.261 -40.973 -34.545  1.00  0.00    -0.545 OA
ENDBRANCH   5   6
ENDBRANCH   3   4
ENDBRANCH   2   3
ENDBRANCH   1   2
BRANCH   1   9
ATOM      9  C   UNL     1      49.390 -43.035 -30.302  1.00  0.00     0.000 C 
BRANCH   9  10
ATOM     10  C   UNL     1      48.924 -43.614 -28.954  1.00  0.00     0.000 C 
BRANCH  10  11
ATOM     11  C   UNL     1      48.873 -42.554 -27.843  1.00  0.00    -0.000 C 
BRANCH  11  12
ATOM     12  C   UNL     1      48.696 -41.128 -28.388  1.00  0.00    -0.000 C 
BRANCH  12  13
ATOM     13  C   UNL     1      47.820 -40.288 -27.450  1.00  0.00    -0.003 C 
ATOM     14  C   UNL     1      46.775 -41.152 -26.752  1.00  0.00     0.004 C 
ENDBRANCH  12  13
ENDBRANCH  11  12
ENDBRANCH  10  11
ENDBRANCH   9  10
ENDBRANCH   1   9
TORSDOF 9
ENDMDL
MODEL 2
REMARK VINA RESULT:    -3.968     10.888     12.164
REMARK INTER + INTRA:          -6.721
REMARK INTER:                  -6.288
REMARK INTRA:                  -0.433
REMARK UNBOUND:                -0.665
REMARK SMILES CCCCCCCCCC=CC(=O)[O-]
REMARK SMILES IDX 7 1 8 2 9 3 10 4 11 5 12 6 13 7 14 8 6 9 5 10 4 11 3 12 2 13
REMARK SMILES IDX 1 14
REMARK H PARENT
REMARK Flexibility Score: inf
ROOT
ATOM      1  C   UNL     1      46.237 -28.947 -31.156  1.00  0.00     0.000 C 
ENDROOT
BRANCH   1   2
ATOM      2  C   UNL     1      47.277 -28.911 -32.290  1.00  0.00     0.004 C 
BRANCH   2   3
ATOM      3  C   UNL     1      48.314 -27.794 -32.087  1.00  0.00     0.027 C 
BRANCH   3   4
ATOM      4  C   UNL     1      49.671 -28.330 -31.727  1.00  0.00    -0.025 C 
ATOM      5  C   UNL     1      50.767 -27.968 -32.401  1.00  0.00     0.020 C 
BRANCH   5   6
ATOM      6  C   UNL     1      52.100 -28.492 -32.064  1.00  0.00     0.064 C 
ATOM      7  O   UNL     1      52.223 -29.691 -31.704  1.00  0.00    -0.545 OA
ATOM      8  O   UNL     1      53.227 -27.681 -32.140  1.00  0.00    -0.545 OA
ENDBRANCH   5   6
ENDBRANCH   3   4
ENDBRANCH   2   3
ENDBRANCH   1   2
BRANCH   1   9
ATOM      9  C   UNL     1      46.641 -29.888 -30.010  1.00  0.00     0.000 C 
BRANCH   9  10
ATOM     10  C   UNL     1      45.442 -30.657 -29.427  1.00  0.00     0.000 C 
BRANCH  10  11
ATOM     11  C   UNL     1      45.869 -31.909 -28.644  1.00  0.00    -0.000 C 
BRANCH  11  12
ATOM     12  C   UNL     1      47.011 -32.677 -29.327  1.00  0.00    -0.000 C 
BRANCH  12  13
ATOM     13  C   UNL     1      46.633 -34.148 -29.540  1.00  0.00    -0.003 C 
ATOM     14  C   UNL     1      46.608 -34.907 -28.217  1.00  0.00     0.004 C 
ENDBRANCH  12  13
ENDBRANCH  11  12
ENDBRANCH  10  11
ENDBRANCH   9  10
ENDBRANCH   1   9
TORSDOF 9
ENDMDL
MODEL 3
REMARK VINA RESULT:    -3.943     13.031     14.000
REMARK INTER + INTRA:          -6.682
REMARK INTER:                  -5.923
REMARK INTRA:                  -0.760
REMARK UNBOUND:                -0.665
REMARK SMILES CCCCCCCCCC=CC(=O)[O-]
REMARK SMILES IDX 7 1 8 2 9 3 10 4 11 5 12 6 13 7 14 8 6 9 5 10 4 11 3 12 2 13
REMARK SMILES IDX 1 14
REMARK H PARENT
REMARK Flexibility Score: inf
ROOT
ATOM      1  C   UNL     1      45.702 -29.481 -30.218  1.00  0.00     0.000 C 
ENDROOT
BRANCH   1   2
ATOM      2  C   UNL     1      46.115 -28.286 -31.095  1.00  0.00     0.004 C 
BRANCH   2   3
ATOM      3  C   UNL     1      47.126 -28.689 -32.180  1.00  0.00     0.027 C 
BRANCH   3   4
ATOM      4  C   UNL     1      48.546 -28.623 -31.693  1.00  0.00    -0.025 C 
ATOM      5  C   UNL     1      49.539 -28.209 -32.487  1.00  0.00     0.020 C 
BRANCH   5   6
ATOM      6  C   UNL     1      50.934 -28.148 -32.025  1.00  0.00     0.064 C 
ATOM      7  O   UNL     1      51.449 -29.153 -31.469  1.00  0.00    -0.545 OA
ATOM      8  O   UNL     1      51.694 -26.995 -32.194  1.00  0.00    -0.545 OA
ENDBRANCH   5   6
ENDBRANCH   3   4
ENDBRANCH   2   3
ENDBRANCH   1   2
BRANCH   1   9
ATOM      9  C   UNL     1      44.418 -29.213 -29.416  1.00  0.00     0.000 C 
BRANCH   9  10
ATOM     10  C   UNL     1      43.416 -30.379 -29.497  1.00  0.00     0.000 C 
BRANCH  10  11
ATOM     11  C   UNL     1      41.982 -29.905 -29.779  1.00  0.00    -0.000 C 
BRANCH  11  12
ATOM     12  C   UNL     1      41.935 -28.563 -30.527  1.00  0.00    -0.000 C 
BRANCH  12  13
ATOM     13  C   UNL     1      41.691 -28.780 -32.025  1.00  0.00    -0.003 C 
ATOM     14  C   UNL     1      42.911 -28.374 -32.846  1.00  0.00     0.004 C 
ENDBRANCH  12  13
ENDBRANCH  11  12
ENDBRANCH  10  11
ENDBRANCH   9  10
ENDBRANCH   1   9
TORSDOF 9
ENDMDL
MODEL 4
REMARK VINA RESULT:    -3.937     10.960     12.364
REMARK INTER + INTRA:          -6.673
REMARK INTER:                  -5.902
REMARK INTRA:                  -0.771
REMARK UNBOUND:                -0.665
REMARK SMILES CCCCCCCCCC=CC(=O)[O-]
REMARK SMILES IDX 7 1 8 2 9 3 10 4 11 5 12 6 13 7 14 8 6 9 5 10 4 11 3 12 2 13
REMARK SMILES IDX 1 14
REMARK H PARENT
REMARK Flexibility Score: inf
ROOT
ATOM      1  C   UNL     1      46.556 -28.737 -29.670  1.00  0.00     0.000 C 
ENDROOT
BRANCH   1   2
ATOM      2  C   UNL     1      45.931 -28.535 -31.061  1.00  0.00     0.004 C 
BRANCH   2   3
ATOM      3  C   UNL     1      46.951 -28.761 -32.190  1.00  0.00     0.027 C 
BRANCH   3   4
ATOM      4  C   UNL     1      48.369 -28.598 -31.722  1.00  0.00    -0.025 C 
ATOM      5  C   UNL     1      49.322 -28.120 -32.528  1.00  0.00     0.020 C 
BRANCH   5   6
ATOM      6  C   UNL     1      50.716 -27.964 -32.084  1.00  0.00     0.064 C 
ATOM      7  O   UNL     1      51.164 -26.815 -31.838  1.00  0.00    -0.545 OA
ATOM      8  O   UNL     1      51.546 -29.069 -31.931  1.00  0.00    -0.545 OA
ENDBRANCH   5   6
ENDBRANCH   3   4
ENDBRANCH   2   3
ENDBRANCH   1   2
BRANCH   1   9
ATOM      9  C   UNL     1      45.954 -29.935 -28.918  1.00  0.00     0.000 C 
BRANCH   9  10
ATOM     10  C   UNL     1      46.435 -31.286 -29.475  1.00  0.00     0.000 C 
BRANCH  10  11
ATOM     11  C   UNL     1      47.896 -31.588 -29.108  1.00  0.00    -0.000 C 
BRANCH  11  12
ATOM     12  C   UNL     1      48.148 -33.082 -28.847  1.00  0.00    -0.000 C 
BRANCH  12  13
ATOM     13  C   UNL     1      46.938 -33.923 -29.271  1.00  0.00    -0.003 C 
ATOM     14  C   UNL     1      46.588 -34.960 -28.209  1.00  0.00     0.004 C 
ENDBRANCH  12  13
ENDBRANCH  11  12
ENDBRANCH  10  11
ENDBRANCH   9  10
ENDBRANCH   1   9
TORSDOF 9
ENDMDL
MODEL 5
REMARK VINA RESULT:    -3.795     12.715     13.859
REMARK INTER + INTRA:          -6.457
REMARK INTER:                  -4.723
REMARK INTRA:                  -1.735
REMARK UNBOUND:                -0.665
REMARK SMILES CCCCCCCCCC=CC(=O)[O-]
REMARK SMILES IDX 7 1 8 2 9 3 10 4 11 5 12 6 13 7 14 8 6 9 5 10 4 11 3 12 2 13
REMARK SMILES IDX 1 14
REMARK H PARENT
REMARK Flexibility Score: inf
ROOT
ATOM      1  C   UNL     1      47.303 -28.958 -31.829  1.00  0.00     0.000 C 
ENDROOT
BRANCH   1   2
ATOM      2  C   UNL     1      47.985 -27.688 -32.367  1.00  0.00     0.004 C 
BRANCH   2   3
ATOM      3  C   UNL     1      49.221 -28.015 -33.221  1.00  0.00     0.027 C 
BRANCH   3   4
ATOM      4  C   UNL     1      50.506 -27.657 -32.529  1.00  0.00    -0.025 C 
ATOM      5  C   UNL     1      51.431 -28.580 -32.251  1.00  0.00     0.020 C 
BRANCH   5   6
ATOM      6  C   UNL     1      52.690 -28.244 -31.567  1.00  0.00     0.064 C 
ATOM      7  O   UNL     1      53.581 -27.607 -32.186  1.00  0.00    -0.545 OA
ATOM      8  O   UNL     1      52.908 -28.619 -30.246  1.00  0.00    -0.545 OA
ENDBRANCH   5   6
ENDBRANCH   3   4
ENDBRANCH   2   3
ENDBRANCH   1   2
BRANCH   1   9
ATOM      9  C   UNL     1      47.433 -29.100 -30.304  1.00  0.00     0.000 C 
BRANCH   9  10
ATOM     10  C   UNL     1      48.711 -29.848 -29.886  1.00  0.00     0.000 C 
BRANCH  10  11
ATOM     11  C   UNL     1      49.603 -29.015 -28.952  1.00  0.00    -0.000 C 
BRANCH  11  12
ATOM     12  C   UNL     1      49.073 -27.589 -28.738  1.00  0.00    -0.000 C 
BRANCH  12  13
ATOM     13  C   UNL     1      50.154 -26.549 -29.057  1.00  0.00    -0.003 C 
ATOM     14  C   UNL     1      49.570 -25.363 -29.818  1.00  0.00     0.004 C 
ENDBRANCH  12  13
ENDBRANCH  11  12
ENDBRANCH  10  11
ENDBRANCH   9  10
ENDBRANCH   1   9
TORSDOF 9
ENDMDL
MODEL 6
REMARK VINA RESULT:    -3.764     11.417     13.499
REMARK INTER + INTRA:          -6.410
REMARK INTER:                  -5.796
REMARK INTRA:                  -0.614
REMARK UNBOUND:                -0.665
REMARK SMILES CCCCCCCCCC=CC(=O)[O-]
REMARK SMILES IDX 7 1 8 2 9 3 10 4 11 5 12 6 13 7 14 8 6 9 5 10 4 11 3 12 2 13
REMARK SMILES IDX 1 14
REMARK H PARENT
REMARK Flexibility Score: inf
ROOT
ATOM      1  C   UNL     1      46.984 -27.910 -30.413  1.00  0.00     0.000 C 
ENDROOT
BRANCH   1   2
ATOM      2  C   UNL     1      46.470 -29.313 -30.783  1.00  0.00     0.004 C 
BRANCH   2   3
ATOM      3  C   UNL     1      46.000 -30.099 -29.548  1.00  0.00     0.027 C 
BRANCH   3   4
ATOM      4  C   UNL     1      46.853 -31.306 -29.278  1.00  0.00    -0.025 C 
ATOM      5  C   UNL     1      46.397 -32.545 -29.485  1.00  0.00     0.020 C 
BRANCH   5   6
ATOM      6  C   UNL     1      47.219 -33.735 -29.217  1.00  0.00     0.064 C 
ATOM      7  O   UNL     1      46.662 -34.811 -28.879  1.00  0.00    -0.545 OA
ATOM      8  O   UNL     1      48.604 -33.689 -29.333  1.00  0.00    -0.545 OA
ENDBRANCH   5   6
ENDBRANCH   3   4
ENDBRANCH   2   3
ENDBRANCH   1   2
BRANCH   1   9
ATOM      9  C   UNL     1      47.769 -27.246 -31.556  1.00  0.00     0.000 C 
BRANCH   9  10
ATOM     10  C   UNL     1      48.257 -28.260 -32.606  1.00  0.00     0.000 C 
BRANCH  10  11
ATOM     11  C   UNL     1      49.651 -27.917 -33.153  1.00  0.00    -0.000 C 
BRANCH  11  12
ATOM     12  C   UNL     1      50.643 -27.520 -32.049  1.00  0.00    -0.000 C 
BRANCH  12  13
ATOM     13  C   UNL     1      51.073 -28.744 -31.232  1.00  0.00    -0.003 C 
ATOM     14  C   UNL     1      52.313 -29.398 -31.831  1.00  0.00     0.004 C 
ENDBRANCH  12  13
ENDBRANCH  11  12
ENDBRANCH  10  11
ENDBRANCH   9  10
ENDBRANCH   1   9
TORSDOF 9
ENDMDL
MODEL 7
REMARK VINA RESULT:    -3.762      6.515      8.414
REMARK INTER + INTRA:          -6.406
REMARK INTER:                  -4.709
REMARK INTRA:                  -1.697
REMARK UNBOUND:                -0.665
REMARK SMILES CCCCCCCCCC=CC(=O)[O-]
REMARK SMILES IDX 7 1 8 2 9 3 10 4 11 5 12 6 13 7 14 8 6 9 5 10 4 11 3 12 2 13
REMARK SMILES IDX 1 14
REMARK H PARENT
REMARK Flexibility Score: inf
ROOT
ATOM      1  C   UNL     1      53.702 -41.344 -26.335  1.00  0.00     0.000 C 
ENDROOT
BRANCH   1   2
ATOM      2  C   UNL     1      54.767 -42.454 -26.325  1.00  0.00     0.004 C 
BRANCH   2   3
ATOM      3  C   UNL     1      55.840 -42.214 -25.251  1.00  0.00     0.027 C 
BRANCH   3   4
ATOM      4  C   UNL     1      55.596 -40.955 -24.468  1.00  0.00    -0.025 C 
ATOM      5  C   UNL     1      56.586 -40.099 -24.193  1.00  0.00     0.020 C 
BRANCH   5   6
ATOM      6  C   UNL     1      56.362 -38.867 -23.421  1.00  0.00     0.064 C 
ATOM      7  O   UNL     1      55.720 -38.920 -22.341  1.00  0.00    -0.545 OA
ATOM      8  O   UNL     1      56.850 -37.644 -23.868  1.00  0.00    -0.545 OA
ENDBRANCH   5   6
ENDBRANCH   3   4
ENDBRANCH   2   3
ENDBRANCH   1   2
BRANCH   1   9
ATOM      9  C   UNL     1      53.761 -40.478 -27.604  1.00  0.00     0.000 C 
BRANCH   9  10
ATOM     10  C   UNL     1      54.007 -38.991 -27.294  1.00  0.00     0.000 C 
BRANCH  10  11
ATOM     11  C   UNL     1      55.485 -38.594 -27.442  1.00  0.00    -0.000 C 
BRANCH  11  12
ATOM     12  C   UNL     1      56.209 -39.395 -28.535  1.00  0.00    -0.000 C 
BRANCH  12  13
ATOM     13  C   UNL     1      57.425 -40.131 -27.960  1.00  0.00    -0.003 C 
ATOM     14  C   UNL     1      57.582 -41.512 -28.590  1.00  0.00     0.004 C 
ENDBRANCH  12  13
ENDBRANCH  11  12
ENDBRANCH  10  11
ENDBRANCH   9  10
ENDBRANCH   1   9
TORSDOF 9
ENDMDL
MODEL 8
REMARK VINA RESULT:    -3.718      1.862      3.292
REMARK INTER + INTRA:          -6.339
REMARK INTER:                  -5.029
REMARK INTRA:                  -1.310
REMARK UNBOUND:                -0.665
REMARK SMILES CCCCCCCCCC=CC(=O)[O-]
REMARK SMILES IDX 7 1 8 2 9 3 10 4 11 5 12 6 13 7 14 8 6 9 5 10 4 11 3 12 2 13
REMARK SMILES IDX 1 14
REMARK H PARENT
REMARK Flexibility Score: inf
ROOT
ATOM      1  C   UNL     1      52.802 -42.466 -27.777  1.00  0.00     0.000 C 
ENDROOT
BRANCH   1   2
ATOM      2  C   UNL     1      54.244 -42.209 -28.247  1.00  0.00     0.004 C 
BRANCH   2   3
ATOM      3  C   UNL     1      54.535 -42.870 -29.604  1.00  0.00     0.027 C 
BRANCH   3   4
ATOM      4  C   UNL     1      55.114 -41.905 -30.599  1.00  0.00    -0.025 C 
ATOM      5  C   UNL     1      54.428 -41.518 -31.679  1.00  0.00     0.020 C 
BRANCH   5   6
ATOM      6  C   UNL     1      54.987 -40.579 -32.665  1.00  0.00     0.064 C 
ATOM      7  O   UNL     1      55.803 -39.699 -32.290  1.00  0.00    -0.545 OA
ATOM      8  O   UNL     1      54.626 -40.652 -34.006  1.00  0.00    -0.545 OA
ENDBRANCH   5   6
ENDBRANCH   3   4
ENDBRANCH   2   3
ENDBRANCH   1   2
BRANCH   1   9
ATOM      9  C   UNL     1      51.957 -41.183 -27.727  1.00  0.00     0.000 C 
BRANCH   9  10
ATOM     10  C   UNL     1      52.120 -40.318 -28.990  1.00  0.00     0.000 C 
BRANCH  10  11
ATOM     11  C   UNL     1      51.213 -40.779 -30.141  1.00  0.00    -0.000 C 
BRANCH  11  12
ATOM     12  C   UNL     1      49.861 -41.322 -29.653  1.00  0.00    -0.000 C 
BRANCH  12  13
ATOM     13  C   UNL     1      49.603 -42.728 -30.207  1.00  0.00    -0.003 C 
ATOM     14  C   UNL     1      50.877 -43.334 -30.788  1.00  0.00     0.004 C 
ENDBRANCH  12  13
ENDBRANCH  11  12
ENDBRANCH  10  11
ENDBRANCH   9  10
ENDBRANCH   1   9
TORSDOF 9
ENDMDL
MODEL 9
REMARK VINA RESULT:    -3.670      6.585      7.684
REMARK INTER + INTRA:          -6.266
REMARK INTER:                  -4.797
REMARK INTRA:                  -1.468
REMARK UNBOUND:                -0.665
REMARK SMILES CCCCCCCCCC=CC(=O)[O-]
REMARK SMILES IDX 7 1 8 2 9 3 10 4 11 5 12 6 13 7 14 8 6 9 5 10 4 11 3 12 2 13
REMARK SMILES IDX 1 14
REMARK H PARENT
REMARK Flexibility Score: inf
ROOT
ATOM      1  C   UNL     1      57.683 -38.295 -24.491  1.00  0.00     0.000 C 
ENDROOT
BRANCH   1   2
ATOM      2  C   UNL     1      57.604 -38.403 -26.023  1.00  0.00     0.004 C 
BRANCH   2   3
ATOM      3  C   UNL     1      56.259 -37.896 -26.568  1.00  0.00     0.027 C 
BRANCH   3   4
ATOM      4  C   UNL     1      55.758 -38.723 -27.718  1.00  0.00    -0.025 C 
ATOM      5  C   UNL     1      56.597 -39.281 -28.597  1.00  0.00     0.020 C 
BRANCH   5   6
ATOM      6  C   UNL     1      56.118 -40.085 -29.732  1.00  0.00     0.064 C 
ATOM      7  O   UNL     1      56.564 -39.858 -30.886  1.00  0.00    -0.545 OA
ATOM      8  O   UNL     1      55.181 -41.096 -29.547  1.00  0.00    -0.545 OA
ENDBRANCH   5   6
ENDBRANCH   3   4
ENDBRANCH   2   3
ENDBRANCH   1   2
BRANCH   1   9
ATOM      9  C   UNL     1      56.558 -37.432 -23.897  1.00  0.00     0.000 C 
BRANCH   9  10
ATOM     10  C   UNL     1      55.730 -38.184 -22.840  1.00  0.00     0.000 C 
BRANCH  10  11
ATOM     11  C   UNL     1      55.591 -39.681 -23.156  1.00  0.00    -0.000 C 
BRANCH  11  12
ATOM     12  C   UNL     1      54.297 -40.011 -23.916  1.00  0.00    -0.000 C 
BRANCH  12  13
ATOM     13  C   UNL     1      54.550 -41.074 -24.993  1.00  0.00    -0.003 C 
ATOM     14  C   UNL     1      55.957 -41.650 -24.878  1.00  0.00     0.004 C 
ENDBRANCH  12  13
ENDBRANCH  11  12
ENDBRANCH  10  11
ENDBRANCH   9  10
ENDBRANCH   1   9
TORSDOF 9
ENDMDL
