MODEL 1
REMARK VINA RESULT:    -6.546      0.000      0.000
REMARK INTER + INTRA:          -6.546
REMARK INTER:                  -6.546
REMARK INTRA:                   0.000
REMARK UNBOUND:                 0.000
REMARK SMILES C[C@@H]1C(=O)CC[C@H]2[C@]1(C)CC[C@H]1[C@@]2(C)CC[C@]2(C)[C@H]3CC(C)(C)CC[C@]3(C)CC[C@@]12C
REMARK SMILES IDX 1 1 2 2 3 3 4 4 5 5 6 6 7 7 8 8 10 9 11 10 12 11 13 12 15 13
REMARK SMILES IDX 16 14 17 15 30 16 29 17 28 18 26 19 19 20 20 21 21 22 24 23
REMARK SMILES IDX 25 24 22 25 23 26 27 27 31 28 18 29 14 30 9 31
REMARK H PARENT
REMARK Flexibility Score: inf
ROOT
ATOM      1  C   UNL     1     138.080 140.480 129.576  1.00  0.00     0.016 C 
ATOM      2  C   UNL     1     137.034 139.709 128.753  1.00  0.00     0.059 C 
ATOM      3  C   UNL     1     135.759 140.517 128.697  1.00  0.00     0.136 C 
ATOM      4  O   UNL     1     135.643 141.412 127.875  1.00  0.00    -0.299 OA
ATOM      5  C   UNL     1     134.625 140.231 129.631  1.00  0.00     0.076 C 
ATOM      6  C   UNL     1     135.075 139.379 130.819  1.00  0.00     0.012 C 
ATOM      7  C   UNL     1     135.720 138.030 130.380  1.00  0.00     0.002 C 
ATOM      8  C   UNL     1     136.747 138.199 129.152  1.00  0.00    -0.020 C 
ATOM      9  C   UNL     1     138.103 137.410 129.344  1.00  0.00     0.008 C 
ATOM     10  C   UNL     1     138.747 137.405 130.757  1.00  0.00     0.005 C 
ATOM     11  C   UNL     1     137.747 137.731 131.887  1.00  0.00     0.002 C 
ATOM     12  C   UNL     1     136.312 137.158 131.579  1.00  0.00    -0.026 C 
ATOM     13  C   UNL     1     135.437 137.230 132.873  1.00  0.00     0.008 C 
ATOM     14  C   UNL     1     136.056 136.586 134.152  1.00  0.00     0.008 C 
ATOM     15  C   UNL     1     137.624 136.434 134.193  1.00  0.00    -0.024 C 
ATOM     16  C   UNL     1     138.265 137.665 133.406  1.00  0.00    -0.024 C 
ATOM     17  C   UNL     1     139.824 137.590 133.513  1.00  0.00     0.008 C 
ATOM     18  C   UNL     1     140.345 137.599 134.969  1.00  0.00     0.007 C 
ATOM     19  C   UNL     1     139.715 136.501 135.876  1.00  0.00    -0.029 C 
ATOM     20  C   UNL     1     138.142 136.454 135.697  1.00  0.00     0.002 C 
ATOM     21  C   UNL     1     137.493 135.405 136.647  1.00  0.00     0.011 C 
ATOM     22  C   UNL     1     137.836 135.649 138.149  1.00  0.00    -0.035 C 
ATOM     23  C   UNL     1     139.364 135.868 138.353  1.00  0.00     0.007 C 
ATOM     24  C   UNL     1     139.992 136.870 137.363  1.00  0.00     0.007 C 
ATOM     25  C   UNL     1     137.405 134.405 138.956  1.00  0.00     0.011 C 
ATOM     26  C   UNL     1     137.045 136.858 138.708  1.00  0.00     0.011 C 
ATOM     27  C   UNL     1     140.462 135.168 135.569  1.00  0.00     0.011 C 
ATOM     28  C   UNL     1     137.877 139.054 134.061  1.00  0.00     0.012 C 
ATOM     29  C   UNL     1     138.002 135.042 133.569  1.00  0.00     0.012 C 
ATOM     30  C   UNL     1     136.293 135.659 131.094  1.00  0.00     0.012 C 
ATOM     31  C   UNL     1     136.069 137.566 127.896  1.00  0.00     0.012 C 
ENDROOT
TORSDOF 0
ENDMDL
MODEL 2
REMARK VINA RESULT:    -6.520      1.935      3.294
REMARK INTER + INTRA:          -6.520
REMARK INTER:                  -6.520
REMARK INTRA:                   0.000
REMARK UNBOUND:                 0.000
REMARK SMILES C[C@@H]1C(=O)CC[C@H]2[C@]1(C)CC[C@H]1[C@@]2(C)CC[C@]2(C)[C@H]3CC(C)(C)CC[C@]3(C)CC[C@@]12C
REMARK SMILES IDX 1 1 2 2 3 3 4 4 5 5 6 6 7 7 8 8 10 9 11 10 12 11 13 12 15 13
REMARK SMILES IDX 16 14 17 15 30 16 29 17 28 18 26 19 19 20 20 21 21 22 24 23
REMARK SMILES IDX 25 24 22 25 23 26 27 27 31 28 18 29 14 30 9 31
REMARK H PARENT
REMARK Flexibility Score: inf
ROOT
ATOM      1  C   UNL     1     134.728 138.079 129.615  1.00  0.00     0.016 C 
ATOM      2  C   UNL     1     135.506 137.055 128.771  1.00  0.00     0.059 C 
ATOM      3  C   UNL     1     134.709 135.774 128.697  1.00  0.00     0.136 C 
ATOM      4  O   UNL     1     133.812 135.664 127.876  1.00  0.00    -0.299 OA
ATOM      5  C   UNL     1     135.010 134.627 129.609  1.00  0.00     0.076 C 
ATOM      6  C   UNL     1     135.862 135.064 130.802  1.00  0.00     0.012 C 
ATOM      7  C   UNL     1     137.203 135.729 130.369  1.00  0.00     0.002 C 
ATOM      8  C   UNL     1     137.019 136.775 129.159  1.00  0.00    -0.020 C 
ATOM      9  C   UNL     1     137.797 138.134 129.372  1.00  0.00     0.008 C 
ATOM     10  C   UNL     1     137.802 138.755 130.795  1.00  0.00     0.005 C 
ATOM     11  C   UNL     1     137.490 137.733 131.909  1.00  0.00     0.002 C 
ATOM     12  C   UNL     1     138.075 136.308 131.574  1.00  0.00    -0.026 C 
ATOM     13  C   UNL     1     138.016 135.410 132.853  1.00  0.00     0.008 C 
ATOM     14  C   UNL     1     138.659 136.013 134.141  1.00  0.00     0.008 C 
ATOM     15  C   UNL     1     138.796 137.582 134.208  1.00  0.00    -0.024 C 
ATOM     16  C   UNL     1     137.556 138.225 133.437  1.00  0.00    -0.024 C 
ATOM     17  C   UNL     1     137.618 139.782 133.570  1.00  0.00     0.008 C 
ATOM     18  C   UNL     1     137.609 140.278 135.035  1.00  0.00     0.007 C 
ATOM     19  C   UNL     1     138.716 139.643 135.926  1.00  0.00    -0.029 C 
ATOM     20  C   UNL     1     138.777 138.074 135.721  1.00  0.00     0.002 C 
ATOM     21  C   UNL     1     139.836 137.418 136.655  1.00  0.00     0.011 C 
ATOM     22  C   UNL     1     139.595 137.733 138.164  1.00  0.00    -0.035 C 
ATOM     23  C   UNL     1     139.363 139.256 138.395  1.00  0.00     0.007 C 
ATOM     24  C   UNL     1     138.351 139.891 137.419  1.00  0.00     0.007 C 
ATOM     25  C   UNL     1     140.846 137.301 138.959  1.00  0.00     0.011 C 
ATOM     26  C   UNL     1     138.395 136.922 138.714  1.00  0.00     0.011 C 
ATOM     27  C   UNL     1     140.042 140.408 135.628  1.00  0.00     0.011 C 
ATOM     28  C   UNL     1     136.173 137.813 134.090  1.00  0.00     0.012 C 
ATOM     29  C   UNL     1     140.182 137.983 133.586  1.00  0.00     0.012 C 
ATOM     30  C   UNL     1     139.571 136.312 131.083  1.00  0.00     0.012 C 
ATOM     31  C   UNL     1     137.654 136.124 127.890  1.00  0.00     0.012 C 
ENDROOT
TORSDOF 0
ENDMDL
MODEL 3
REMARK VINA RESULT:    -6.513      2.536      4.663
REMARK INTER + INTRA:          -6.513
REMARK INTER:                  -6.513
REMARK INTRA:                   0.000
REMARK UNBOUND:                 0.000
REMARK SMILES C[C@@H]1C(=O)CC[C@H]2[C@]1(C)CC[C@H]1[C@@]2(C)CC[C@]2(C)[C@H]3CC(C)(C)CC[C@]3(C)CC[C@@]12C
REMARK SMILES IDX 1 1 2 2 3 3 4 4 5 5 6 6 7 7 8 8 10 9 11 10 12 11 13 12 15 13
REMARK SMILES IDX 16 14 17 15 30 16 29 17 28 18 26 19 19 20 20 21 21 22 24 23
REMARK SMILES IDX 25 24 22 25 23 26 27 27 31 28 18 29 14 30 9 31
REMARK H PARENT
REMARK Flexibility Score: inf
ROOT
ATOM      1  C   UNL     1     137.115 134.674 129.617  1.00  0.00     0.016 C 
ATOM      2  C   UNL     1     138.126 135.471 128.775  1.00  0.00     0.059 C 
ATOM      3  C   UNL     1     139.420 134.696 128.698  1.00  0.00     0.136 C 
ATOM      4  O   UNL     1     139.545 133.803 127.875  1.00  0.00    -0.299 OA
ATOM      5  C   UNL     1     140.562 135.014 129.611  1.00  0.00     0.076 C 
ATOM      6  C   UNL     1     140.111 135.856 130.806  1.00  0.00     0.012 C 
ATOM      7  C   UNL     1     139.423 137.187 130.377  1.00  0.00     0.002 C 
ATOM      8  C   UNL     1     138.379 136.988 129.166  1.00  0.00    -0.020 C 
ATOM      9  C   UNL     1     137.007 137.742 129.381  1.00  0.00     0.008 C 
ATOM     10  C   UNL     1     136.387 137.733 130.805  1.00  0.00     0.005 C 
ATOM     11  C   UNL     1     137.415 137.436 131.918  1.00  0.00     0.002 C 
ATOM     12  C   UNL     1     138.830 138.045 131.584  1.00  0.00    -0.026 C 
ATOM     13  C   UNL     1     139.729 137.999 132.862  1.00  0.00     0.008 C 
ATOM     14  C   UNL     1     139.115 138.629 134.152  1.00  0.00     0.008 C 
ATOM     15  C   UNL     1     137.545 138.739 134.220  1.00  0.00    -0.024 C 
ATOM     16  C   UNL     1     136.923 137.490 133.446  1.00  0.00    -0.024 C 
ATOM     17  C   UNL     1     135.364 137.525 133.580  1.00  0.00     0.008 C 
ATOM     18  C   UNL     1     134.869 137.504 135.045  1.00  0.00     0.007 C 
ATOM     19  C   UNL     1     135.486 138.620 135.939  1.00  0.00    -0.029 C 
ATOM     20  C   UNL     1     137.053 138.708 135.733  1.00  0.00     0.002 C 
ATOM     21  C   UNL     1     137.691 139.776 136.670  1.00  0.00     0.011 C 
ATOM     22  C   UNL     1     137.381 139.525 138.178  1.00  0.00    -0.035 C 
ATOM     23  C   UNL     1     135.863 139.267 138.409  1.00  0.00     0.007 C 
ATOM     24  C   UNL     1     135.245 138.247 137.431  1.00  0.00     0.007 C 
ATOM     25  C   UNL     1     137.793 140.782 138.975  1.00  0.00     0.011 C 
ATOM     26  C   UNL     1     138.213 138.338 138.725  1.00  0.00     0.011 C 
ATOM     27  C   UNL     1     134.699 139.933 135.644  1.00  0.00     0.011 C 
ATOM     28  C   UNL     1     137.358 136.113 134.096  1.00  0.00     0.012 C 
ATOM     29  C   UNL     1     137.120 140.119 133.601  1.00  0.00     0.012 C 
ATOM     30  C   UNL     1     138.800 139.543 131.096  1.00  0.00     0.012 C 
ATOM     31  C   UNL     1     139.019 137.636 127.898  1.00  0.00     0.012 C 
ENDROOT
TORSDOF 0
ENDMDL
MODEL 4
REMARK VINA RESULT:    -6.491      1.903      3.249
REMARK INTER + INTRA:          -6.491
REMARK INTER:                  -6.491
REMARK INTRA:                   0.000
REMARK UNBOUND:                 0.000
REMARK SMILES C[C@@H]1C(=O)CC[C@H]2[C@]1(C)CC[C@H]1[C@@]2(C)CC[C@]2(C)[C@H]3CC(C)(C)CC[C@]3(C)CC[C@@]12C
REMARK SMILES IDX 1 1 2 2 3 3 4 4 5 5 6 6 7 7 8 8 10 9 11 10 12 11 13 12 15 13
REMARK SMILES IDX 16 14 17 15 30 16 29 17 28 18 26 19 19 20 20 21 21 22 24 23
REMARK SMILES IDX 25 24 22 25 23 26 27 27 31 28 18 29 14 30 9 31
REMARK H PARENT
REMARK Flexibility Score: inf
ROOT
ATOM      1  C   UNL     1     140.390 137.082 129.581  1.00  0.00     0.016 C 
ATOM      2  C   UNL     1     139.604 138.153 128.805  1.00  0.00     0.059 C 
ATOM      3  C   UNL     1     140.433 139.414 128.732  1.00  0.00     0.136 C 
ATOM      4  O   UNL     1     141.295 139.526 127.875  1.00  0.00    -0.299 OA
ATOM      5  C   UNL     1     140.206 140.540 129.692  1.00  0.00     0.076 C 
ATOM      6  C   UNL     1     139.396 140.088 130.908  1.00  0.00     0.012 C 
ATOM      7  C   UNL     1     138.018 139.474 130.518  1.00  0.00     0.002 C 
ATOM      8  C   UNL     1     138.118 138.461 129.270  1.00  0.00    -0.020 C 
ATOM      9  C   UNL     1     137.313 137.117 129.477  1.00  0.00     0.008 C 
ATOM     10  C   UNL     1     137.354 136.453 130.880  1.00  0.00     0.005 C 
ATOM     11  C   UNL     1     137.745 137.431 132.008  1.00  0.00     0.002 C 
ATOM     12  C   UNL     1     137.186 138.881 131.744  1.00  0.00    -0.026 C 
ATOM     13  C   UNL     1     137.328 139.736 133.045  1.00  0.00     0.008 C 
ATOM     14  C   UNL     1     136.726 139.110 134.342  1.00  0.00     0.008 C 
ATOM     15  C   UNL     1     136.548 137.545 134.368  1.00  0.00    -0.024 C 
ATOM     16  C   UNL     1     137.733 136.893 133.522  1.00  0.00    -0.024 C 
ATOM     17  C   UNL     1     137.634 135.334 133.611  1.00  0.00     0.008 C 
ATOM     18  C   UNL     1     137.694 134.793 135.058  1.00  0.00     0.007 C 
ATOM     19  C   UNL     1     136.646 135.429 136.018  1.00  0.00    -0.029 C 
ATOM     20  C   UNL     1     136.621 137.005 135.863  1.00  0.00     0.002 C 
ATOM     21  C   UNL     1     135.624 137.659 136.864  1.00  0.00     0.011 C 
ATOM     22  C   UNL     1     135.924 137.291 138.351  1.00  0.00    -0.035 C 
ATOM     23  C   UNL     1     136.122 135.756 138.524  1.00  0.00     0.007 C 
ATOM     24  C   UNL     1     137.071 135.125 137.485  1.00  0.00     0.007 C 
ATOM     25  C   UNL     1     134.722 137.732 139.214  1.00  0.00     0.011 C 
ATOM     26  C   UNL     1     137.169 138.051 138.869  1.00  0.00     0.011 C 
ATOM     27  C   UNL     1     135.288 134.710 135.758  1.00  0.00     0.011 C 
ATOM     28  C   UNL     1     139.155 137.247 134.123  1.00  0.00     0.012 C 
ATOM     29  C   UNL     1     135.125 137.200 133.798  1.00  0.00     0.012 C 
ATOM     30  C   UNL     1     135.669 138.933 131.322  1.00  0.00     0.012 C 
ATOM     31  C   UNL     1     137.446 139.168 128.051  1.00  0.00     0.012 C 
ENDROOT
TORSDOF 0
ENDMDL
MODEL 5
REMARK VINA RESULT:    -6.277      2.870      7.196
REMARK INTER + INTRA:          -6.277
REMARK INTER:                  -6.277
REMARK INTRA:                   0.000
REMARK UNBOUND:                 0.000
REMARK SMILES C[C@@H]1C(=O)CC[C@H]2[C@]1(C)CC[C@H]1[C@@]2(C)CC[C@]2(C)[C@H]3CC(C)(C)CC[C@]3(C)CC[C@@]12C
REMARK SMILES IDX 1 1 2 2 3 3 4 4 5 5 6 6 7 7 8 8 10 9 11 10 12 11 13 12 15 13
REMARK SMILES IDX 16 14 17 15 30 16 29 17 28 18 26 19 19 20 20 21 21 22 24 23
REMARK SMILES IDX 25 24 22 25 23 26 27 27 31 28 18 29 14 30 9 31
REMARK H PARENT
REMARK Flexibility Score: inf
ROOT
ATOM      1  C   UNL     1     133.770 136.155 135.735  1.00  0.00     0.016 C 
ATOM      2  C   UNL     1     134.437 136.783 136.972  1.00  0.00     0.059 C 
ATOM      3  C   UNL     1     133.715 138.063 137.322  1.00  0.00     0.136 C 
ATOM      4  O   UNL     1     132.690 138.021 137.983  1.00  0.00    -0.299 OA
ATOM      5  C   UNL     1     134.245 139.391 136.879  1.00  0.00     0.076 C 
ATOM      6  C   UNL     1     135.276 139.240 135.760  1.00  0.00     0.012 C 
ATOM      7  C   UNL     1     136.474 138.329 136.165  1.00  0.00     0.002 C 
ATOM      8  C   UNL     1     136.009 136.994 136.936  1.00  0.00    -0.020 C 
ATOM      9  C   UNL     1     136.733 135.684 136.430  1.00  0.00     0.008 C 
ATOM     10  C   UNL     1     136.966 135.525 134.902  1.00  0.00     0.005 C 
ATOM     11  C   UNL     1     136.924 136.864 134.135  1.00  0.00     0.002 C 
ATOM     12  C   UNL     1     137.518 138.046 134.992  1.00  0.00    -0.026 C 
ATOM     13  C   UNL     1     137.749 139.289 134.071  1.00  0.00     0.008 C 
ATOM     14  C   UNL     1     138.584 139.034 132.777  1.00  0.00     0.008 C 
ATOM     15  C   UNL     1     138.640 137.554 132.239  1.00  0.00    -0.024 C 
ATOM     16  C   UNL     1     137.244 136.852 132.561  1.00  0.00    -0.024 C 
ATOM     17  C   UNL     1     137.239 135.411 131.953  1.00  0.00     0.008 C 
ATOM     18  C   UNL     1     137.473 135.384 130.424  1.00  0.00     0.007 C 
ATOM     19  C   UNL     1     138.761 136.130 129.966  1.00  0.00    -0.029 C 
ATOM     20  C   UNL     1     138.873 137.546 130.665  1.00  0.00     0.002 C 
ATOM     21  C   UNL     1     140.123 138.330 130.166  1.00  0.00     0.011 C 
ATOM     22  C   UNL     1     140.147 138.514 128.617  1.00  0.00    -0.035 C 
ATOM     23  C   UNL     1     139.875 137.168 127.882  1.00  0.00     0.007 C 
ATOM     24  C   UNL     1     138.664 136.386 128.434  1.00  0.00     0.007 C 
ATOM     25  C   UNL     1     141.547 139.022 128.208  1.00  0.00     0.011 C 
ATOM     26  C   UNL     1     139.119 139.583 128.170  1.00  0.00     0.011 C 
ATOM     27  C   UNL     1     139.962 135.166 130.212  1.00  0.00     0.011 C 
ATOM     28  C   UNL     1     136.032 137.595 131.863  1.00  0.00     0.012 C 
ATOM     29  C   UNL     1     139.861 136.830 132.913  1.00  0.00     0.012 C 
ATOM     30  C   UNL     1     138.896 137.726 135.686  1.00  0.00     0.012 C 
ATOM     31  C   UNL     1     136.434 137.156 138.430  1.00  0.00     0.012 C 
ENDROOT
TORSDOF 0
ENDMDL
MODEL 6
REMARK VINA RESULT:    -6.224      2.788      7.646
REMARK INTER + INTRA:          -6.224
REMARK INTER:                  -6.224
REMARK INTRA:                   0.000
REMARK UNBOUND:                 0.000
REMARK SMILES C[C@@H]1C(=O)CC[C@H]2[C@]1(C)CC[C@H]1[C@@]2(C)CC[C@]2(C)[C@H]3CC(C)(C)CC[C@]3(C)CC[C@@]12C
REMARK SMILES IDX 1 1 2 2 3 3 4 4 5 5 6 6 7 7 8 8 10 9 11 10 12 11 13 12 15 13
REMARK SMILES IDX 16 14 17 15 30 16 29 17 28 18 26 19 19 20 20 21 21 22 24 23
REMARK SMILES IDX 25 24 22 25 23 26 27 27 31 28 18 29 14 30 9 31
REMARK H PARENT
REMARK Flexibility Score: inf
ROOT
ATOM      1  C   UNL     1     141.436 139.172 135.726  1.00  0.00     0.016 C 
ATOM      2  C   UNL     1     140.782 138.535 136.964  1.00  0.00     0.059 C 
ATOM      3  C   UNL     1     141.528 137.269 137.316  1.00  0.00     0.136 C 
ATOM      4  O   UNL     1     142.552 137.332 137.978  1.00  0.00    -0.299 OA
ATOM      5  C   UNL     1     141.022 135.931 136.876  1.00  0.00     0.076 C 
ATOM      6  C   UNL     1     139.989 136.059 135.757  1.00  0.00     0.012 C 
ATOM      7  C   UNL     1     138.774 136.949 136.160  1.00  0.00     0.002 C 
ATOM      8  C   UNL     1     139.214 138.294 136.929  1.00  0.00    -0.020 C 
ATOM      9  C   UNL     1     138.466 139.589 136.419  1.00  0.00     0.008 C 
ATOM     10  C   UNL     1     138.230 139.740 134.892  1.00  0.00     0.005 C 
ATOM     11  C   UNL     1     138.296 138.401 134.127  1.00  0.00     0.002 C 
ATOM     12  C   UNL     1     137.725 137.210 134.987  1.00  0.00    -0.026 C 
ATOM     13  C   UNL     1     137.517 135.961 134.068  1.00  0.00     0.008 C 
ATOM     14  C   UNL     1     136.678 136.197 132.774  1.00  0.00     0.008 C 
ATOM     15  C   UNL     1     136.594 137.675 132.233  1.00  0.00    -0.024 C 
ATOM     16  C   UNL     1     137.977 138.404 132.553  1.00  0.00    -0.024 C 
ATOM     17  C   UNL     1     137.955 139.843 131.942  1.00  0.00     0.008 C 
ATOM     18  C   UNL     1     137.720 139.862 130.413  1.00  0.00     0.007 C 
ATOM     19  C   UNL     1     136.447 139.092 129.957  1.00  0.00    -0.029 C 
ATOM     20  C   UNL     1     136.361 137.675 130.659  1.00  0.00     0.002 C 
ATOM     21  C   UNL     1     135.126 136.867 130.161  1.00  0.00     0.011 C 
ATOM     22  C   UNL     1     135.106 136.679 128.613  1.00  0.00    -0.035 C 
ATOM     23  C   UNL     1     135.353 138.028 127.875  1.00  0.00     0.007 C 
ATOM     24  C   UNL     1     136.548 138.834 128.425  1.00  0.00     0.007 C 
ATOM     25  C   UNL     1     133.716 136.144 128.205  1.00  0.00     0.011 C 
ATOM     26  C   UNL     1     136.154 135.629 128.168  1.00  0.00     0.011 C 
ATOM     27  C   UNL     1     135.228 140.033 130.201  1.00  0.00     0.011 C 
ATOM     28  C   UNL     1     139.203 137.682 131.856  1.00  0.00     0.012 C 
ATOM     29  C   UNL     1     135.359 138.377 132.905  1.00  0.00     0.012 C 
ATOM     30  C   UNL     1     136.342 137.505 135.680  1.00  0.00     0.012 C 
ATOM     31  C   UNL     1     138.792 138.127 138.423  1.00  0.00     0.012 C 
ENDROOT
TORSDOF 0
ENDMDL
MODEL 7
REMARK VINA RESULT:    -6.139      2.771      7.539
REMARK INTER + INTRA:          -6.139
REMARK INTER:                  -6.139
REMARK INTRA:                   0.000
REMARK UNBOUND:                 0.000
REMARK SMILES C[C@@H]1C(=O)CC[C@H]2[C@]1(C)CC[C@H]1[C@@]2(C)CC[C@]2(C)[C@H]3CC(C)(C)CC[C@]3(C)CC[C@@]12C
REMARK SMILES IDX 1 1 2 2 3 3 4 4 5 5 6 6 7 7 8 8 10 9 11 10 12 11 13 12 15 13
REMARK SMILES IDX 16 14 17 15 30 16 29 17 28 18 26 19 19 20 20 21 21 22 24 23
REMARK SMILES IDX 25 24 22 25 23 26 27 27 31 28 18 29 14 30 9 31
REMARK H PARENT
REMARK Flexibility Score: inf
ROOT
ATOM      1  C   UNL     1     134.076 137.131 136.608  1.00  0.00     0.016 C 
ATOM      2  C   UNL     1     134.931 136.108 137.377  1.00  0.00     0.059 C 
ATOM      3  C   UNL     1     135.530 136.782 138.589  1.00  0.00     0.136 C 
ATOM      4  O   UNL     1     134.870 136.892 139.610  1.00  0.00    -0.299 OA
ATOM      5  C   UNL     1     136.931 137.310 138.563  1.00  0.00     0.076 C 
ATOM      6  C   UNL     1     137.454 137.447 137.133  1.00  0.00     0.012 C 
ATOM      7  C   UNL     1     137.407 136.103 136.345  1.00  0.00     0.002 C 
ATOM      8  C   UNL     1     136.027 135.301 136.561  1.00  0.00    -0.020 C 
ATOM      9  C   UNL     1     135.411 134.726 135.224  1.00  0.00     0.008 C 
ATOM     10  C   UNL     1     135.473 135.616 133.953  1.00  0.00     0.005 C 
ATOM     11  C   UNL     1     136.558 136.711 134.025  1.00  0.00     0.002 C 
ATOM     12  C   UNL     1     137.833 136.219 134.811  1.00  0.00    -0.026 C 
ATOM     13  C   UNL     1     139.005 137.228 134.580  1.00  0.00     0.008 C 
ATOM     14  C   UNL     1     139.335 137.563 133.092  1.00  0.00     0.008 C 
ATOM     15  C   UNL     1     138.190 137.333 132.034  1.00  0.00    -0.024 C 
ATOM     16  C   UNL     1     136.791 137.641 132.736  1.00  0.00    -0.024 C 
ATOM     17  C   UNL     1     135.645 137.511 131.680  1.00  0.00     0.008 C 
ATOM     18  C   UNL     1     135.814 138.453 130.465  1.00  0.00     0.007 C 
ATOM     19  C   UNL     1     137.190 138.321 129.747  1.00  0.00    -0.029 C 
ATOM     20  C   UNL     1     138.376 138.314 130.796  1.00  0.00     0.002 C 
ATOM     21  C   UNL     1     139.761 138.249 130.087  1.00  0.00     0.011 C 
ATOM     22  C   UNL     1     139.979 139.410 129.068  1.00  0.00    -0.035 C 
ATOM     23  C   UNL     1     138.757 139.564 128.115  1.00  0.00     0.007 C 
ATOM     24  C   UNL     1     137.394 139.569 128.839  1.00  0.00     0.007 C 
ATOM     25  C   UNL     1     141.227 139.085 128.218  1.00  0.00     0.011 C 
ATOM     26  C   UNL     1     140.254 140.746 129.801  1.00  0.00     0.011 C 
ATOM     27  C   UNL     1     137.108 137.069 128.823  1.00  0.00     0.011 C 
ATOM     28  C   UNL     1     136.704 139.136 133.253  1.00  0.00     0.012 C 
ATOM     29  C   UNL     1     138.299 135.858 131.503  1.00  0.00     0.012 C 
ATOM     30  C   UNL     1     138.359 134.797 134.384  1.00  0.00     0.012 C 
ATOM     31  C   UNL     1     136.356 134.054 137.441  1.00  0.00     0.012 C 
ENDROOT
TORSDOF 0
ENDMDL
MODEL 8
REMARK VINA RESULT:    -6.113      2.633      7.824
REMARK INTER + INTRA:          -6.113
REMARK INTER:                  -6.113
REMARK INTRA:                   0.000
REMARK UNBOUND:                 0.000
REMARK SMILES C[C@@H]1C(=O)CC[C@H]2[C@]1(C)CC[C@H]1[C@@]2(C)CC[C@]2(C)[C@H]3CC(C)(C)CC[C@]3(C)CC[C@@]12C
REMARK SMILES IDX 1 1 2 2 3 3 4 4 5 5 6 6 7 7 8 8 10 9 11 10 12 11 13 12 15 13
REMARK SMILES IDX 16 14 17 15 30 16 29 17 28 18 26 19 19 20 20 21 21 22 24 23
REMARK SMILES IDX 25 24 22 25 23 26 27 27 31 28 18 29 14 30 9 31
REMARK H PARENT
REMARK Flexibility Score: inf
ROOT
ATOM      1  C   UNL     1     137.790 134.266 136.512  1.00  0.00     0.016 C 
ATOM      2  C   UNL     1     138.836 135.088 137.285  1.00  0.00     0.059 C 
ATOM      3  C   UNL     1     138.166 135.743 138.470  1.00  0.00     0.136 C 
ATOM      4  O   UNL     1     138.004 135.111 139.502  1.00  0.00    -0.299 OA
ATOM      5  C   UNL     1     137.706 137.166 138.404  1.00  0.00     0.076 C 
ATOM      6  C   UNL     1     137.624 137.665 136.961  1.00  0.00     0.012 C 
ATOM      7  C   UNL     1     138.980 137.538 136.204  1.00  0.00     0.002 C 
ATOM      8  C   UNL     1     139.711 136.128 136.465  1.00  0.00    -0.020 C 
ATOM      9  C   UNL     1     140.284 135.457 135.154  1.00  0.00     0.008 C 
ATOM     10  C   UNL     1     139.425 135.534 133.862  1.00  0.00     0.005 C 
ATOM     11  C   UNL     1     138.381 136.671 133.889  1.00  0.00     0.002 C 
ATOM     12  C   UNL     1     138.916 137.937 134.660  1.00  0.00    -0.026 C 
ATOM     13  C   UNL     1     137.969 139.150 134.384  1.00  0.00     0.008 C 
ATOM     14  C   UNL     1     137.681 139.464 132.882  1.00  0.00     0.008 C 
ATOM     15  C   UNL     1     137.879 138.287 131.852  1.00  0.00    -0.024 C 
ATOM     16  C   UNL     1     137.490 136.920 132.576  1.00  0.00    -0.024 C 
ATOM     17  C   UNL     1     137.587 135.746 131.546  1.00  0.00     0.008 C 
ATOM     18  C   UNL     1     136.680 135.934 130.307  1.00  0.00     0.007 C 
ATOM     19  C   UNL     1     136.892 137.286 129.565  1.00  0.00    -0.029 C 
ATOM     20  C   UNL     1     136.933 138.493 130.589  1.00  0.00     0.002 C 
ATOM     21  C   UNL     1     137.079 139.858 129.855  1.00  0.00     0.011 C 
ATOM     22  C   UNL     1     135.950 140.109 128.807  1.00  0.00    -0.035 C 
ATOM     23  C   UNL     1     135.759 138.875 127.876  1.00  0.00     0.007 C 
ATOM     24  C   UNL     1     135.674 137.530 128.626  1.00  0.00     0.007 C 
ATOM     25  C   UNL     1     136.352 141.321 127.939  1.00  0.00     0.011 C 
ATOM     26  C   UNL     1     134.614 140.462 129.505  1.00  0.00     0.011 C 
ATOM     27  C   UNL     1     138.158 137.126 128.670  1.00  0.00     0.011 C 
ATOM     28  C   UNL     1     135.983 136.914 133.061  1.00  0.00     0.012 C 
ATOM     29  C   UNL     1     139.368 138.315 131.351  1.00  0.00     0.012 C 
ATOM     30  C   UNL     1     140.370 138.387 134.253  1.00  0.00     0.012 C 
ATOM     31  C   UNL     1     140.954 136.416 137.365  1.00  0.00     0.012 C 
ENDROOT
TORSDOF 0
ENDMDL
