MODEL 1
REMARK VINA RESULT:    -2.419      0.000      0.000
REMARK INTER + INTRA:          -3.069
REMARK INTER:                  -2.844
REMARK INTRA:                  -0.226
REMARK UNBOUND:                -0.226
REMARK SMILES [NH3+][C@H](CO)C(=O)[O-]
REMARK SMILES IDX 3 1 2 2 1 3 5 7 6 8 7 9 4 10
REMARK H PARENT 1 4 1 5 1 6 4 11
REMARK Flexibility Score: inf
ROOT
ATOM      1  C   UNL     1     111.403 114.273 104.175  1.00  0.00     0.227 C 
ENDROOT
BRANCH   1   2
ATOM      2  C   UNL     1     112.390 114.813 103.128  1.00  0.00     0.253 C 
BRANCH   2   3
ATOM      3  N   UNL     1     112.566 113.850 102.036  1.00  0.00    -0.348 N 
ATOM      4  H   UNL     1     111.848 114.000 101.290  1.00  0.00     0.345 HD
ATOM      5  H   UNL     1     112.477 112.875 102.404  1.00  0.00     0.345 HD
ATOM      6  H   UNL     1     113.520 113.956 101.620  1.00  0.00     0.345 HD
ENDBRANCH   2   3
BRANCH   2   7
ATOM      7  C   UNL     1     111.922 116.139 102.591  1.00  0.00     0.102 C 
ATOM      8  O   UNL     1     111.505 117.035 103.372  1.00  0.00    -0.544 OA
ATOM      9  O   UNL     1     111.960 116.387 101.223  1.00  0.00    -0.544 OA
ENDBRANCH   2   7
ENDBRANCH   1   2
BRANCH   1  10
ATOM     10  O   UNL     1     111.577 114.946 105.392  1.00  0.00    -0.390 OA
ATOM     11  H   UNL     1     110.955 115.719 105.371  1.00  0.00     0.210 HD
ENDBRANCH   1  10
TORSDOF 4
ENDMDL
MODEL 2
REMARK VINA RESULT:    -2.404     12.510     13.178
REMARK INTER + INTRA:          -3.051
REMARK INTER:                  -2.825
REMARK INTRA:                  -0.226
REMARK UNBOUND:                -0.226
REMARK SMILES [NH3+][C@H](CO)C(=O)[O-]
REMARK SMILES IDX 3 1 2 2 1 3 5 7 6 8 7 9 4 10
REMARK H PARENT 1 4 1 5 1 6 4 11
REMARK Flexibility Score: inf
ROOT
ATOM      1  C   UNL     1     112.006 103.365 104.117  1.00  0.00     0.227 C 
ENDROOT
BRANCH   1   2
ATOM      2  C   UNL     1     112.047 102.182 103.137  1.00  0.00     0.253 C 
BRANCH   2   3
ATOM      3  N   UNL     1     111.154 102.419 101.998  1.00  0.00    -0.348 N 
ATOM      4  H   UNL     1     110.376 103.066 102.266  1.00  0.00     0.345 HD
ATOM      5  H   UNL     1     110.746 101.513 101.672  1.00  0.00     0.345 HD
ATOM      6  H   UNL     1     111.693 102.839 101.206  1.00  0.00     0.345 HD
ENDBRANCH   2   3
BRANCH   2   7
ATOM      7  C   UNL     1     113.454 101.935 102.660  1.00  0.00     0.102 C 
ATOM      8  O   UNL     1     114.408 101.883 103.481  1.00  0.00    -0.544 OA
ATOM      9  O   UNL     1     113.705 101.750 101.306  1.00  0.00    -0.544 OA
ENDBRANCH   2   7
ENDBRANCH   1   2
BRANCH   1  10
ATOM     10  O   UNL     1     112.431 102.953 105.387  1.00  0.00    -0.390 OA
ATOM     11  H   UNL     1     113.070 102.208 105.235  1.00  0.00     0.210 HD
ENDBRANCH   1  10
TORSDOF 4
ENDMDL
MODEL 3
REMARK VINA RESULT:    -2.403     13.087     13.510
REMARK INTER + INTRA:          -3.050
REMARK INTER:                  -2.662
REMARK INTRA:                  -0.388
REMARK UNBOUND:                -0.226
REMARK SMILES [NH3+][C@H](CO)C(=O)[O-]
REMARK SMILES IDX 3 1 2 2 1 3 5 7 6 8 7 9 4 10
REMARK H PARENT 1 4 1 5 1 6 4 11
REMARK Flexibility Score: inf
ROOT
ATOM      1  C   UNL     1     101.720 109.657  98.855  1.00  0.00     0.227 C 
ENDROOT
BRANCH   1   2
ATOM      2  C   UNL     1     101.459 108.220  99.333  1.00  0.00     0.253 C 
BRANCH   2   3
ATOM      3  N   UNL     1     102.669 107.643  99.929  1.00  0.00    -0.348 N 
ATOM      4  H   UNL     1     102.719 106.615  99.745  1.00  0.00     0.345 HD
ATOM      5  H   UNL     1     102.666 107.804 100.963  1.00  0.00     0.345 HD
ATOM      6  H   UNL     1     103.517 108.106  99.528  1.00  0.00     0.345 HD
ENDBRANCH   2   3
BRANCH   2   7
ATOM      7  C   UNL     1     100.319 108.184 100.317  1.00  0.00     0.102 C 
ATOM      8  O   UNL     1     100.544 108.202 101.556  1.00  0.00    -0.544 OA
ATOM      9  O   UNL     1      99.008 108.145  99.859  1.00  0.00    -0.544 OA
ENDBRANCH   2   7
ENDBRANCH   1   2
BRANCH   1  10
ATOM     10  O   UNL     1     100.729 110.515  99.351  1.00  0.00    -0.390 OA
ATOM     11  H   UNL     1     100.719 110.386 100.335  1.00  0.00     0.210 HD
ENDBRANCH   1  10
TORSDOF 4
ENDMDL
MODEL 4
REMARK VINA RESULT:    -2.392     13.592     14.138
REMARK INTER + INTRA:          -3.037
REMARK INTER:                  -2.662
REMARK INTRA:                  -0.375
REMARK UNBOUND:                -0.226
REMARK SMILES [NH3+][C@H](CO)C(=O)[O-]
REMARK SMILES IDX 3 1 2 2 1 3 5 7 6 8 7 9 4 10
REMARK H PARENT 1 4 1 5 1 6 4 11
REMARK Flexibility Score: inf
ROOT
ATOM      1  C   UNL     1     111.200 102.064  98.921  1.00  0.00     0.227 C 
ENDROOT
BRANCH   1   2
ATOM      2  C   UNL     1     112.531 102.572  99.496  1.00  0.00     0.253 C 
BRANCH   2   3
ATOM      3  N   UNL     1     112.343 103.853 100.187  1.00  0.00    -0.348 N 
ATOM      4  H   UNL     1     112.367 104.648  99.507  1.00  0.00     0.345 HD
ATOM      5  H   UNL     1     113.099 103.988 100.896  1.00  0.00     0.345 HD
ATOM      6  H   UNL     1     111.423 103.855 100.685  1.00  0.00     0.345 HD
ENDBRANCH   2   3
BRANCH   2   7
ATOM      7  C   UNL     1     113.131 101.554 100.430  1.00  0.00     0.102 C 
ATOM      8  O   UNL     1     113.017 101.686 101.678  1.00  0.00    -0.544 OA
ATOM      9  O   UNL     1     113.805 100.453  99.916  1.00  0.00    -0.544 OA
ENDBRANCH   2   7
ENDBRANCH   1   2
BRANCH   1  10
ATOM     10  O   UNL     1     110.941 100.767  99.384  1.00  0.00    -0.390 OA
ATOM     11  H   UNL     1     110.228 100.856 100.069  1.00  0.00     0.210 HD
ENDBRANCH   1  10
TORSDOF 4
ENDMDL
MODEL 5
REMARK VINA RESULT:    -2.383     12.340     13.003
REMARK INTER + INTRA:          -3.026
REMARK INTER:                  -2.668
REMARK INTRA:                  -0.359
REMARK UNBOUND:                -0.226
REMARK SMILES [NH3+][C@H](CO)C(=O)[O-]
REMARK SMILES IDX 3 1 2 2 1 3 5 7 6 8 7 9 4 10
REMARK H PARENT 1 4 1 5 1 6 4 11
REMARK Flexibility Score: inf
ROOT
ATOM      1  C   UNL     1     102.623 109.257 103.075  1.00  0.00     0.227 C 
ENDROOT
BRANCH   1   2
ATOM      2  C   UNL     1     102.057 107.988 103.731  1.00  0.00     0.253 C 
BRANCH   2   3
ATOM      3  N   UNL     1     102.053 108.117 105.192  1.00  0.00    -0.348 N 
ATOM      4  H   UNL     1     102.792 108.787 105.508  1.00  0.00     0.345 HD
ATOM      5  H   UNL     1     102.229 107.184 105.631  1.00  0.00     0.345 HD
ATOM      6  H   UNL     1     101.118 108.459 105.515  1.00  0.00     0.345 HD
ENDBRANCH   2   3
BRANCH   2   7
ATOM      7  C   UNL     1     100.669 107.700 103.224  1.00  0.00     0.102 C 
ATOM      8  O   UNL     1      99.663 107.930 103.947  1.00  0.00    -0.544 OA
ATOM      9  O   UNL     1     100.489 107.188 101.944  1.00  0.00    -0.544 OA
ENDBRANCH   2   7
ENDBRANCH   1   2
BRANCH   1  10
ATOM     10  O   UNL     1     101.670 109.817 102.213  1.00  0.00    -0.390 OA
ATOM     11  H   UNL     1     101.960 110.754 102.054  1.00  0.00     0.210 HD
ENDBRANCH   1  10
TORSDOF 4
ENDMDL
MODEL 6
REMARK VINA RESULT:    -2.359     12.835     13.194
REMARK INTER + INTRA:          -2.999
REMARK INTER:                  -2.634
REMARK INTRA:                  -0.365
REMARK UNBOUND:                -0.226
REMARK SMILES [NH3+][C@H](CO)C(=O)[O-]
REMARK SMILES IDX 3 1 2 2 1 3 5 7 6 8 7 9 4 10
REMARK H PARENT 1 4 1 5 1 6 4 11
REMARK Flexibility Score: inf
ROOT
ATOM      1  C   UNL     1     111.077 103.232 103.269  1.00  0.00     0.227 C 
ENDROOT
BRANCH   1   2
ATOM      2  C   UNL     1     112.476 103.232 103.902  1.00  0.00     0.253 C 
BRANCH   2   3
ATOM      3  N   UNL     1     112.387 103.074 105.358  1.00  0.00    -0.348 N 
ATOM      4  H   UNL     1     113.174 103.572 105.834  1.00  0.00     0.345 HD
ATOM      5  H   UNL     1     112.426 102.058 105.608  1.00  0.00     0.345 HD
ATOM      6  H   UNL     1     111.478 103.460 105.702  1.00  0.00     0.345 HD
ENDBRANCH   2   3
BRANCH   2   7
ATOM      7  C   UNL     1     113.330 102.143 103.306  1.00  0.00     0.102 C 
ATOM      8  O   UNL     1     113.604 101.109 103.971  1.00  0.00    -0.544 OA
ATOM      9  O   UNL     1     113.811 102.271 102.009  1.00  0.00    -0.544 OA
ENDBRANCH   2   7
ENDBRANCH   1   2
BRANCH   1  10
ATOM     10  O   UNL     1     110.930 102.121 102.427  1.00  0.00    -0.390 OA
ATOM     11  H   UNL     1     111.848 101.856 102.157  1.00  0.00     0.210 HD
ENDBRANCH   1  10
TORSDOF 4
ENDMDL
MODEL 7
REMARK VINA RESULT:    -2.353     12.431     13.088
REMARK INTER + INTRA:          -2.991
REMARK INTER:                  -2.764
REMARK INTRA:                  -0.227
REMARK UNBOUND:                -0.226
REMARK SMILES [NH3+][C@H](CO)C(=O)[O-]
REMARK SMILES IDX 3 1 2 2 1 3 5 7 6 8 7 9 4 10
REMARK H PARENT 1 4 1 5 1 6 4 11
REMARK Flexibility Score: inf
ROOT
ATOM      1  C   UNL     1     102.380 108.034 104.220  1.00  0.00     0.227 C 
ENDROOT
BRANCH   1   2
ATOM      2  C   UNL     1     101.576 108.756 103.127  1.00  0.00     0.253 C 
BRANCH   2   3
ATOM      3  N   UNL     1     102.463 109.233 102.060  1.00  0.00    -0.348 N 
ATOM      4  H   UNL     1     102.860 108.429 101.521  1.00  0.00     0.345 HD
ATOM      5  H   UNL     1     103.249 109.787 102.473  1.00  0.00     0.345 HD
ATOM      6  H   UNL     1     101.931 109.855 101.408  1.00  0.00     0.345 HD
ENDBRANCH   2   3
BRANCH   2   7
ATOM      7  C   UNL     1     100.514 107.850 102.562  1.00  0.00     0.102 C 
ATOM      8  O   UNL     1     100.400 107.696 101.317  1.00  0.00    -0.544 OA
ATOM      9  O   UNL     1      99.657 107.167 103.418  1.00  0.00    -0.544 OA
ENDBRANCH   2   7
ENDBRANCH   1   2
BRANCH   1  10
ATOM     10  O   UNL     1     101.645 107.999 105.412  1.00  0.00    -0.390 OA
ATOM     11  H   UNL     1     101.880 107.143 105.856  1.00  0.00     0.210 HD
ENDBRANCH   1  10
TORSDOF 4
ENDMDL
MODEL 8
REMARK VINA RESULT:    -2.317      3.507      3.749
REMARK INTER + INTRA:          -2.949
REMARK INTER:                  -2.547
REMARK INTRA:                  -0.402
REMARK UNBOUND:                -0.226
REMARK SMILES [NH3+][C@H](CO)C(=O)[O-]
REMARK SMILES IDX 3 1 2 2 1 3 5 7 6 8 7 9 4 10
REMARK H PARENT 1 4 1 5 1 6 4 11
REMARK Flexibility Score: inf
ROOT
ATOM      1  C   UNL     1     113.844 113.592 100.688  1.00  0.00     0.227 C 
ENDROOT
BRANCH   1   2
ATOM      2  C   UNL     1     113.628 114.327  99.356  1.00  0.00     0.253 C 
BRANCH   2   3
ATOM      3  N   UNL     1     113.197 113.392  98.311  1.00  0.00    -0.348 N 
ATOM      4  H   UNL     1     112.457 112.747  98.673  1.00  0.00     0.345 HD
ATOM      5  H   UNL     1     114.014 112.826  97.983  1.00  0.00     0.345 HD
ATOM      6  H   UNL     1     112.819 113.924  97.493  1.00  0.00     0.345 HD
ENDBRANCH   2   3
BRANCH   2   7
ATOM      7  C   UNL     1     112.622 115.436  99.518  1.00  0.00     0.102 C 
ATOM      8  O   UNL     1     111.389 115.202  99.406  1.00  0.00    -0.544 OA
ATOM      9  O   UNL     1     113.051 116.727  99.804  1.00  0.00    -0.544 OA
ENDBRANCH   2   7
ENDBRANCH   1   2
BRANCH   1  10
ATOM     10  O   UNL     1     113.162 114.253 101.718  1.00  0.00    -0.390 OA
ATOM     11  H   UNL     1     112.442 114.778 101.280  1.00  0.00     0.210 HD
ENDBRANCH   1  10
TORSDOF 4
ENDMDL
MODEL 9
REMARK VINA RESULT:    -2.302      2.717      2.925
REMARK INTER + INTRA:          -2.931
REMARK INTER:                  -2.527
REMARK INTRA:                  -0.405
REMARK UNBOUND:                -0.226
REMARK SMILES [NH3+][C@H](CO)C(=O)[O-]
REMARK SMILES IDX 3 1 2 2 1 3 5 7 6 8 7 9 4 10
REMARK H PARENT 1 4 1 5 1 6 4 11
REMARK Flexibility Score: inf
ROOT
ATOM      1  C   UNL     1     112.739 114.343 102.315  1.00  0.00     0.227 C 
ENDROOT
BRANCH   1   2
ATOM      2  C   UNL     1     111.739 115.429 101.888  1.00  0.00     0.253 C 
BRANCH   2   3
ATOM      3  N   UNL     1     111.827 116.594 102.775  1.00  0.00    -0.348 N 
ATOM      4  H   UNL     1     111.939 117.475 102.221  1.00  0.00     0.345 HD
ATOM      5  H   UNL     1     112.646 116.489 103.418  1.00  0.00     0.345 HD
ATOM      6  H   UNL     1     110.961 116.662 103.358  1.00  0.00     0.345 HD
ENDBRANCH   2   3
BRANCH   2   7
ATOM      7  C   UNL     1     111.977 115.838 100.458  1.00  0.00     0.102 C 
ATOM      8  O   UNL     1     112.741 116.802 100.187  1.00  0.00    -0.544 OA
ATOM      9  O   UNL     1     111.360 115.142  99.425  1.00  0.00    -0.544 OA
ENDBRANCH   2   7
ENDBRANCH   1   2
BRANCH   1  10
ATOM     10  O   UNL     1     113.509 113.940 101.216  1.00  0.00    -0.390 OA
ATOM     11  H   UNL     1     113.240 114.525 100.461  1.00  0.00     0.210 HD
ENDBRANCH   1  10
TORSDOF 4
ENDMDL
