MODEL 1
REMARK VINA RESULT:    -3.989      0.000      0.000
REMARK INTER + INTRA:          -4.973
REMARK INTER:                  -4.922
REMARK INTRA:                  -0.051
REMARK UNBOUND:                -0.051
REMARK SMILES CCCCCC(=O)[O-]
REMARK SMILES IDX 4 1 5 2 6 3 7 4 8 5 3 6 2 7 1 8
REMARK H PARENT
REMARK Flexibility Score: inf
ROOT
ATOM      1  C   UNL     1       0.641  11.273  -7.840  1.00  0.00     0.006 C 
ENDROOT
BRANCH   1   2
ATOM      2  C   UNL     1      -0.860  11.045  -8.041  1.00  0.00     0.053 C 
BRANCH   2   3
ATOM      3  C   UNL     1      -1.587  12.352  -8.089  1.00  0.00     0.041 C 
ATOM      4  O   UNL     1      -2.597  12.488  -8.828  1.00  0.00    -0.550 OA
ATOM      5  O   UNL     1      -1.120  13.434  -7.353  1.00  0.00    -0.550 OA
ENDBRANCH   2   3
ENDBRANCH   1   2
BRANCH   1   6
ATOM      6  C   UNL     1       1.435   9.988  -8.119  1.00  0.00     0.000 C 
BRANCH   6   7
ATOM      7  C   UNL     1       2.934  10.252  -8.326  1.00  0.00    -0.003 C 
ATOM      8  C   UNL     1       3.480   9.597  -9.595  1.00  0.00     0.004 C 
ENDBRANCH   6   7
ENDBRANCH   1   6
TORSDOF 4
ENDMDL
MODEL 2
REMARK VINA RESULT:    -3.936      0.847      1.393
REMARK INTER + INTRA:          -4.907
REMARK INTER:                  -4.804
REMARK INTRA:                  -0.103
REMARK UNBOUND:                -0.051
REMARK SMILES CCCCCC(=O)[O-]
REMARK SMILES IDX 4 1 5 2 6 3 7 4 8 5 3 6 2 7 1 8
REMARK H PARENT
REMARK Flexibility Score: inf
ROOT
ATOM      1  C   UNL     1       0.872  10.804  -7.041  1.00  0.00     0.006 C 
ENDROOT
BRANCH   1   2
ATOM      2  C   UNL     1       0.660  12.217  -7.593  1.00  0.00     0.053 C 
BRANCH   2   3
ATOM      3  C   UNL     1      -0.794  12.472  -7.834  1.00  0.00     0.041 C 
ATOM      4  O   UNL     1      -1.372  13.433  -7.261  1.00  0.00    -0.550 OA
ATOM      5  O   UNL     1      -1.524  11.619  -8.653  1.00  0.00    -0.550 OA
ENDBRANCH   2   3
ENDBRANCH   1   2
BRANCH   1   6
ATOM      6  C   UNL     1       1.505   9.890  -8.101  1.00  0.00     0.000 C 
BRANCH   6   7
ATOM      7  C   UNL     1       2.993  10.194  -8.331  1.00  0.00    -0.003 C 
ATOM      8  C   UNL     1       3.525   9.598  -9.634  1.00  0.00     0.004 C 
ENDBRANCH   6   7
ENDBRANCH   1   6
TORSDOF 4
ENDMDL
MODEL 3
REMARK VINA RESULT:    -3.920      3.035      4.679
REMARK INTER + INTRA:          -4.888
REMARK INTER:                  -4.782
REMARK INTRA:                  -0.106
REMARK UNBOUND:                -0.051
REMARK SMILES CCCCCC(=O)[O-]
REMARK SMILES IDX 4 1 5 2 6 3 7 4 8 5 3 6 2 7 1 8
REMARK H PARENT
REMARK Flexibility Score: inf
ROOT
ATOM      1  C   UNL     1       0.721  11.749  -7.524  1.00  0.00     0.006 C 
ENDROOT
BRANCH   1   2
ATOM      2  C   UNL     1       1.037  10.343  -8.043  1.00  0.00     0.053 C 
BRANCH   2   3
ATOM      3  C   UNL     1       2.514  10.156  -8.187  1.00  0.00     0.041 C 
ATOM      4  O   UNL     1       3.294  10.545  -7.278  1.00  0.00    -0.550 OA
ATOM      5  O   UNL     1       3.034   9.598  -9.348  1.00  0.00    -0.550 OA
ENDBRANCH   2   3
ENDBRANCH   1   2
BRANCH   1   6
ATOM      6  C   UNL     1      -0.669  12.208  -7.990  1.00  0.00     0.000 C 
BRANCH   6   7
ATOM      7  C   UNL     1      -1.594  11.031  -8.334  1.00  0.00    -0.003 C 
ATOM      8  C   UNL     1      -2.712  11.421  -9.301  1.00  0.00     0.004 C 
ENDBRANCH   6   7
ENDBRANCH   1   6
TORSDOF 4
ENDMDL
MODEL 4
REMARK VINA RESULT:    -3.901      2.399      2.878
REMARK INTER + INTRA:          -4.864
REMARK INTER:                  -4.724
REMARK INTRA:                  -0.140
REMARK UNBOUND:                -0.051
REMARK SMILES CCCCCC(=O)[O-]
REMARK SMILES IDX 4 1 5 2 6 3 7 4 8 5 3 6 2 7 1 8
REMARK H PARENT
REMARK Flexibility Score: inf
ROOT
ATOM      1  C   UNL     1       0.863  11.609  -7.875  1.00  0.00     0.006 C 
ENDROOT
BRANCH   1   2
ATOM      2  C   UNL     1       0.431  11.790  -6.417  1.00  0.00     0.053 C 
BRANCH   2   3
ATOM      3  C   UNL     1       1.366  12.713  -5.703  1.00  0.00     0.041 C 
ATOM      4  O   UNL     1       2.542  12.346  -5.442  1.00  0.00    -0.550 OA
ATOM      5  O   UNL     1       0.925  13.961  -5.282  1.00  0.00    -0.550 OA
ENDBRANCH   2   3
ENDBRANCH   1   2
BRANCH   1   6
ATOM      6  C   UNL     1       1.377  10.183  -8.123  1.00  0.00     0.000 C 
BRANCH   6   7
ATOM      7  C   UNL     1       2.909  10.113  -8.207  1.00  0.00    -0.003 C 
ATOM      8  C   UNL     1       3.404   9.611  -9.564  1.00  0.00     0.004 C 
ENDBRANCH   6   7
ENDBRANCH   1   6
TORSDOF 4
ENDMDL
MODEL 5
REMARK VINA RESULT:    -3.845     13.596     14.508
REMARK INTER + INTRA:          -4.795
REMARK INTER:                  -4.679
REMARK INTRA:                  -0.117
REMARK UNBOUND:                -0.051
REMARK SMILES CCCCCC(=O)[O-]
REMARK SMILES IDX 4 1 5 2 6 3 7 4 8 5 3 6 2 7 1 8
REMARK H PARENT
REMARK Flexibility Score: inf
ROOT
ATOM      1  C   UNL     1       8.707  11.614 -20.085  1.00  0.00     0.006 C 
ENDROOT
BRANCH   1   2
ATOM      2  C   UNL     1       9.207  11.912 -18.668  1.00  0.00     0.053 C 
BRANCH   2   3
ATOM      3  C   UNL     1      10.527  11.251 -18.428  1.00  0.00     0.041 C 
ATOM      4  O   UNL     1      10.766  10.117 -18.921  1.00  0.00    -0.550 OA
ATOM      5  O   UNL     1      11.475  11.864 -17.619  1.00  0.00    -0.550 OA
ENDBRANCH   2   3
ENDBRANCH   1   2
BRANCH   1   6
ATOM      6  C   UNL     1       7.317  12.226 -20.317  1.00  0.00     0.000 C 
BRANCH   6   7
ATOM      7  C   UNL     1       6.731  12.861 -19.047  1.00  0.00    -0.003 C 
ATOM      8  C   UNL     1       5.987  14.166 -19.328  1.00  0.00     0.004 C 
ENDBRANCH   6   7
ENDBRANCH   1   6
TORSDOF 4
ENDMDL
MODEL 6
REMARK VINA RESULT:    -3.766      3.285      4.542
REMARK INTER + INTRA:          -4.698
REMARK INTER:                  -4.473
REMARK INTRA:                  -0.224
REMARK UNBOUND:                -0.051
REMARK SMILES CCCCCC(=O)[O-]
REMARK SMILES IDX 4 1 5 2 6 3 7 4 8 5 3 6 2 7 1 8
REMARK H PARENT
REMARK Flexibility Score: inf
ROOT
ATOM      1  C   UNL     1       0.624  11.852  -7.940  1.00  0.00     0.006 C 
ENDROOT
BRANCH   1   2
ATOM      2  C   UNL     1       1.005  10.372  -7.837  1.00  0.00     0.053 C 
BRANCH   2   3
ATOM      3  C   UNL     1       2.472  10.191  -8.068  1.00  0.00     0.041 C 
ATOM      4  O   UNL     1       3.302  10.584  -7.207  1.00  0.00    -0.550 OA
ATOM      5  O   UNL     1       2.925   9.633  -9.257  1.00  0.00    -0.550 OA
ENDBRANCH   2   3
ENDBRANCH   1   2
BRANCH   1   6
ATOM      6  C   UNL     1       0.051  12.366  -6.611  1.00  0.00     0.000 C 
BRANCH   6   7
ATOM      7  C   UNL     1       1.144  12.821  -5.633  1.00  0.00    -0.003 C 
ATOM      8  C   UNL     1       1.257  11.914  -4.408  1.00  0.00     0.004 C 
ENDBRANCH   6   7
ENDBRANCH   1   6
TORSDOF 4
ENDMDL
MODEL 7
REMARK VINA RESULT:    -3.528     14.315     15.587
REMARK INTER + INTRA:          -4.405
REMARK INTER:                  -4.301
REMARK INTRA:                  -0.104
REMARK UNBOUND:                -0.051
REMARK SMILES CCCCCC(=O)[O-]
REMARK SMILES IDX 4 1 5 2 6 3 7 4 8 5 3 6 2 7 1 8
REMARK H PARENT
REMARK Flexibility Score: inf
ROOT
ATOM      1  C   UNL     1       7.833  11.080 -20.780  1.00  0.00     0.006 C 
ENDROOT
BRANCH   1   2
ATOM      2  C   UNL     1       9.213  11.478 -20.248  1.00  0.00     0.053 C 
BRANCH   2   3
ATOM      3  C   UNL     1      10.215  11.503 -21.357  1.00  0.00     0.041 C 
ATOM      4  O   UNL     1      10.764  12.586 -21.691  1.00  0.00    -0.550 OA
ATOM      5  O   UNL     1      10.508  10.338 -22.056  1.00  0.00    -0.550 OA
ENDBRANCH   2   3
ENDBRANCH   1   2
BRANCH   1   6
ATOM      6  C   UNL     1       6.848  12.256 -20.691  1.00  0.00     0.000 C 
BRANCH   6   7
ATOM      7  C   UNL     1       6.720  12.811 -19.265  1.00  0.00    -0.003 C 
ATOM      8  C   UNL     1       6.001  14.159 -19.218  1.00  0.00     0.004 C 
ENDBRANCH   6   7
ENDBRANCH   1   6
TORSDOF 4
ENDMDL
MODEL 8
REMARK VINA RESULT:    -3.517     13.014     13.844
REMARK INTER + INTRA:          -4.391
REMARK INTER:                  -4.284
REMARK INTRA:                  -0.107
REMARK UNBOUND:                -0.051
REMARK SMILES CCCCCC(=O)[O-]
REMARK SMILES IDX 4 1 5 2 6 3 7 4 8 5 3 6 2 7 1 8
REMARK H PARENT
REMARK Flexibility Score: inf
ROOT
ATOM      1  C   UNL     1       8.791  11.890 -20.131  1.00  0.00     0.006 C 
ENDROOT
BRANCH   1   2
ATOM      2  C   UNL     1       7.996  12.564 -19.008  1.00  0.00     0.053 C 
BRANCH   2   3
ATOM      3  C   UNL     1       6.703  13.104 -19.532  1.00  0.00     0.041 C 
ATOM      4  O   UNL     1       6.318  12.810 -20.694  1.00  0.00    -0.550 OA
ATOM      5  O   UNL     1       5.947  13.972 -18.754  1.00  0.00    -0.550 OA
ENDBRANCH   2   3
ENDBRANCH   1   2
BRANCH   1   6
ATOM      6  C   UNL     1      10.273  11.756 -19.751  1.00  0.00     0.000 C 
BRANCH   6   7
ATOM      7  C   UNL     1      10.473  11.366 -18.278  1.00  0.00    -0.003 C 
ATOM      8  C   UNL     1      11.785  11.894 -17.700  1.00  0.00     0.004 C 
ENDBRANCH   6   7
ENDBRANCH   1   6
TORSDOF 4
ENDMDL
MODEL 9
REMARK VINA RESULT:    -3.517     12.409     13.319
REMARK INTER + INTRA:          -4.391
REMARK INTER:                  -4.311
REMARK INTRA:                  -0.080
REMARK UNBOUND:                -0.051
REMARK SMILES CCCCCC(=O)[O-]
REMARK SMILES IDX 4 1 5 2 6 3 7 4 8 5 3 6 2 7 1 8
REMARK H PARENT
REMARK Flexibility Score: inf
ROOT
ATOM      1  C   UNL     1       0.117   4.999 -19.307  1.00  0.00     0.006 C 
ENDROOT
BRANCH   1   2
ATOM      2  C   UNL     1      -1.150   5.187 -20.147  1.00  0.00     0.053 C 
BRANCH   2   3
ATOM      3  C   UNL     1      -1.995   6.284 -19.583  1.00  0.00     0.041 C 
ATOM      4  O   UNL     1      -2.230   6.332 -18.347  1.00  0.00    -0.550 OA
ATOM      5  O   UNL     1      -2.566   7.227 -20.430  1.00  0.00    -0.550 OA
ENDBRANCH   2   3
ENDBRANCH   1   2
BRANCH   1   6
ATOM      6  C   UNL     1       1.097   4.038 -19.996  1.00  0.00     0.000 C 
BRANCH   6   7
ATOM      7  C   UNL     1       0.451   2.691 -20.354  1.00  0.00    -0.003 C 
ATOM      8  C   UNL     1       1.164   1.503 -19.708  1.00  0.00     0.004 C 
ENDBRANCH   6   7
ENDBRANCH   1   6
TORSDOF 4
ENDMDL
