MODEL 1
REMARK VINA RESULT:    -5.090      0.000      0.000
REMARK INTER + INTRA:          -6.463
REMARK INTER:                  -6.280
REMARK INTRA:                  -0.183
REMARK UNBOUND:                -0.183
REMARK SMILES CCCCC=CC(C)=O
REMARK SMILES IDX 4 1 3 2 2 3 1 4 5 5 6 6 7 7 9 8 8 9
REMARK H PARENT
REMARK Flexibility Score: inf
ROOT
ATOM      1  C   UNL     1      -5.957 -14.403  28.465  1.00  0.00     0.027 C 
ENDROOT
BRANCH   1   2
ATOM      2  C   UNL     1      -6.185 -14.856  29.915  1.00  0.00     0.004 C 
BRANCH   2   3
ATOM      3  C   UNL     1      -5.066 -14.392  30.860  1.00  0.00    -0.003 C 
ATOM      4  C   UNL     1      -5.216 -14.952  32.275  1.00  0.00     0.004 C 
ENDBRANCH   2   3
ENDBRANCH   1   2
BRANCH   1   5
ATOM      5  C   UNL     1      -4.876 -13.364  28.385  1.00  0.00    -0.023 C 
ATOM      6  C   UNL     1      -3.968 -13.373  27.402  1.00  0.00     0.042 C 
BRANCH   6   7
ATOM      7  C   UNL     1      -2.907 -12.354  27.297  1.00  0.00     0.152 C 
ATOM      8  O   UNL     1      -2.021 -12.251  28.189  1.00  0.00    -0.295 OA
ATOM      9  C   UNL     1      -2.879 -11.435  26.120  1.00  0.00     0.093 C 
ENDBRANCH   6   7
ENDBRANCH   1   5
TORSDOF 4
ENDMDL
MODEL 2
REMARK VINA RESULT:    -4.688      2.927      3.847
REMARK INTER + INTRA:          -5.967
REMARK INTER:                  -5.753
REMARK INTRA:                  -0.213
REMARK UNBOUND:                -0.183
REMARK SMILES CCCCC=CC(C)=O
REMARK SMILES IDX 4 1 3 2 2 3 1 4 5 5 6 6 7 7 9 8 8 9
REMARK H PARENT
REMARK Flexibility Score: inf
ROOT
ATOM      1  C   UNL     1      -4.046 -13.483  31.923  1.00  0.00     0.027 C 
ENDROOT
BRANCH   1   2
ATOM      2  C   UNL     1      -4.954 -14.204  30.915  1.00  0.00     0.004 C 
BRANCH   2   3
ATOM      3  C   UNL     1      -4.878 -13.590  29.509  1.00  0.00    -0.003 C 
ATOM      4  C   UNL     1      -5.891 -14.203  28.541  1.00  0.00     0.004 C 
ENDBRANCH   2   3
ENDBRANCH   1   2
BRANCH   1   5
ATOM      5  C   UNL     1      -2.808 -12.956  31.256  1.00  0.00    -0.023 C 
ATOM      6  C   UNL     1      -1.588 -13.361  31.626  1.00  0.00     0.042 C 
BRANCH   6   7
ATOM      7  C   UNL     1      -0.360 -12.866  30.975  1.00  0.00     0.152 C 
ATOM      8  O   UNL     1       0.539 -12.289  31.647  1.00  0.00    -0.295 OA
ATOM      9  C   UNL     1      -0.175 -13.054  29.504  1.00  0.00     0.093 C 
ENDBRANCH   6   7
ENDBRANCH   1   5
TORSDOF 4
ENDMDL
MODEL 3
REMARK VINA RESULT:    -4.687      2.292      3.110
REMARK INTER + INTRA:          -5.966
REMARK INTER:                  -5.832
REMARK INTRA:                  -0.134
REMARK UNBOUND:                -0.183
REMARK SMILES CCCCC=CC(C)=O
REMARK SMILES IDX 4 1 3 2 2 3 1 4 5 5 6 6 7 7 9 8 8 9
REMARK H PARENT
REMARK Flexibility Score: inf
ROOT
ATOM      1  C   UNL     1      -4.571 -12.798  28.976  1.00  0.00     0.027 C 
ENDROOT
BRANCH   1   2
ATOM      2  C   UNL     1      -5.393 -13.893  28.280  1.00  0.00     0.004 C 
BRANCH   2   3
ATOM      3  C   UNL     1      -6.198 -14.746  29.272  1.00  0.00    -0.003 C 
ATOM      4  C   UNL     1      -7.509 -15.263  28.680  1.00  0.00     0.004 C 
ENDBRANCH   2   3
ENDBRANCH   1   2
BRANCH   1   5
ATOM      5  C   UNL     1      -3.238 -13.324  29.426  1.00  0.00    -0.023 C 
ATOM      6  C   UNL     1      -2.119 -13.077  28.735  1.00  0.00     0.042 C 
BRANCH   6   7
ATOM      7  C   UNL     1      -0.799 -13.573  29.167  1.00  0.00     0.152 C 
ATOM      8  O   UNL     1      -0.076 -14.249  28.384  1.00  0.00    -0.295 OA
ATOM      9  C   UNL     1      -0.308 -13.268  30.545  1.00  0.00     0.093 C 
ENDBRANCH   6   7
ENDBRANCH   1   5
TORSDOF 4
ENDMDL
MODEL 4
REMARK VINA RESULT:    -4.655      3.197      5.453
REMARK INTER + INTRA:          -5.926
REMARK INTER:                  -5.696
REMARK INTRA:                  -0.230
REMARK UNBOUND:                -0.183
REMARK SMILES CCCCC=CC(C)=O
REMARK SMILES IDX 4 1 3 2 2 3 1 4 5 5 6 6 7 7 9 8 8 9
REMARK H PARENT
REMARK Flexibility Score: inf
ROOT
ATOM      1  C   UNL     1      -1.783 -12.572  31.534  1.00  0.00     0.027 C 
ENDROOT
BRANCH   1   2
ATOM      2  C   UNL     1      -0.496 -13.229  31.015  1.00  0.00     0.004 C 
BRANCH   2   3
ATOM      3  C   UNL     1      -0.225 -12.911  29.537  1.00  0.00    -0.003 C 
ATOM      4  C   UNL     1      -0.269 -14.153  28.646  1.00  0.00     0.004 C 
ENDBRANCH   2   3
ENDBRANCH   1   2
BRANCH   1   5
ATOM      5  C   UNL     1      -2.888 -13.580  31.674  1.00  0.00    -0.023 C 
ATOM      6  C   UNL     1      -4.035 -13.459  30.997  1.00  0.00     0.042 C 
BRANCH   6   7
ATOM      7  C   UNL     1      -5.127 -14.445  31.110  1.00  0.00     0.152 C 
ATOM      8  O   UNL     1      -5.814 -14.764  30.101  1.00  0.00    -0.295 OA
ATOM      9  C   UNL     1      -5.420 -15.076  32.432  1.00  0.00     0.093 C 
ENDBRANCH   6   7
ENDBRANCH   1   5
TORSDOF 4
ENDMDL
MODEL 5
REMARK VINA RESULT:    -4.622      1.375      2.072
REMARK INTER + INTRA:          -5.885
REMARK INTER:                  -5.725
REMARK INTRA:                  -0.161
REMARK UNBOUND:                -0.183
REMARK SMILES CCCCC=CC(C)=O
REMARK SMILES IDX 4 1 3 2 2 3 1 4 5 5 6 6 7 7 9 8 8 9
REMARK H PARENT
REMARK Flexibility Score: inf
ROOT
ATOM      1  C   UNL     1      -5.334 -14.169  29.515  1.00  0.00     0.027 C 
ENDROOT
BRANCH   1   2
ATOM      2  C   UNL     1      -6.234 -14.464  28.306  1.00  0.00     0.004 C 
BRANCH   2   3
ATOM      3  C   UNL     1      -7.517 -15.215  28.696  1.00  0.00    -0.003 C 
ATOM      4  C   UNL     1      -7.261 -16.682  29.044  1.00  0.00     0.004 C 
ENDBRANCH   2   3
ENDBRANCH   1   2
BRANCH   1   5
ATOM      5  C   UNL     1      -4.279 -13.156  29.170  1.00  0.00    -0.023 C 
ATOM      6  C   UNL     1      -4.234 -12.575  27.966  1.00  0.00     0.042 C 
BRANCH   6   7
ATOM      7  C   UNL     1      -3.215 -11.569  27.612  1.00  0.00     0.152 C 
ATOM      8  O   UNL     1      -2.685 -10.847  28.501  1.00  0.00    -0.295 OA
ATOM      9  C   UNL     1      -2.804 -11.403  26.186  1.00  0.00     0.093 C 
ENDBRANCH   6   7
ENDBRANCH   1   5
TORSDOF 4
ENDMDL
MODEL 6
REMARK VINA RESULT:    -4.592      1.590      4.843
REMARK INTER + INTRA:          -5.848
REMARK INTER:                  -5.682
REMARK INTRA:                  -0.166
REMARK UNBOUND:                -0.183
REMARK SMILES CCCCC=CC(C)=O
REMARK SMILES IDX 4 1 3 2 2 3 1 4 5 5 6 6 7 7 9 8 8 9
REMARK H PARENT
REMARK Flexibility Score: inf
ROOT
ATOM      1  C   UNL     1      -4.927 -13.895  27.893  1.00  0.00     0.027 C 
ENDROOT
BRANCH   1   2
ATOM      2  C   UNL     1      -3.826 -13.607  26.863  1.00  0.00     0.004 C 
BRANCH   2   3
ATOM      3  C   UNL     1      -3.011 -12.351  27.207  1.00  0.00    -0.003 C 
ATOM      4  C   UNL     1      -2.898 -11.378  26.032  1.00  0.00     0.004 C 
ENDBRANCH   2   3
ENDBRANCH   1   2
BRANCH   1   5
ATOM      5  C   UNL     1      -4.469 -13.562  29.284  1.00  0.00    -0.023 C 
ATOM      6  C   UNL     1      -4.968 -14.189  30.355  1.00  0.00     0.042 C 
BRANCH   6   7
ATOM      7  C   UNL     1      -4.522 -13.886  31.728  1.00  0.00     0.152 C 
ATOM      8  O   UNL     1      -3.640 -13.009  31.941  1.00  0.00    -0.295 OA
ATOM      9  C   UNL     1      -5.122 -14.623  32.880  1.00  0.00     0.093 C 
ENDBRANCH   6   7
ENDBRANCH   1   5
TORSDOF 4
ENDMDL
MODEL 7
REMARK VINA RESULT:    -4.546      2.829      4.146
REMARK INTER + INTRA:          -5.791
REMARK INTER:                  -5.608
REMARK INTRA:                  -0.183
REMARK UNBOUND:                -0.183
REMARK SMILES CCCCC=CC(C)=O
REMARK SMILES IDX 4 1 3 2 2 3 1 4 5 5 6 6 7 7 9 8 8 9
REMARK H PARENT
REMARK Flexibility Score: inf
ROOT
ATOM      1  C   UNL     1      -3.778 -13.355  31.783  1.00  0.00     0.027 C 
ENDROOT
BRANCH   1   2
ATOM      2  C   UNL     1      -2.634 -12.555  31.143  1.00  0.00     0.004 C 
BRANCH   2   3
ATOM      3  C   UNL     1      -1.272 -13.249  31.297  1.00  0.00    -0.003 C 
ATOM      4  C   UNL     1      -0.138 -12.267  31.594  1.00  0.00     0.004 C 
ENDBRANCH   2   3
ENDBRANCH   1   2
BRANCH   1   5
ATOM      5  C   UNL     1      -4.642 -13.999  30.736  1.00  0.00    -0.023 C 
ATOM      6  C   UNL     1      -4.585 -13.622  29.454  1.00  0.00     0.042 C 
BRANCH   6   7
ATOM      7  C   UNL     1      -5.414 -14.251  28.408  1.00  0.00     0.152 C 
ATOM      8  O   UNL     1      -4.981 -14.375  27.230  1.00  0.00    -0.295 OA
ATOM      9  C   UNL     1      -6.780 -14.751  28.748  1.00  0.00     0.093 C 
ENDBRANCH   6   7
ENDBRANCH   1   5
TORSDOF 4
ENDMDL
MODEL 8
REMARK VINA RESULT:    -4.544      2.646      5.251
REMARK INTER + INTRA:          -5.789
REMARK INTER:                  -5.672
REMARK INTRA:                  -0.117
REMARK UNBOUND:                -0.183
REMARK SMILES CCCCC=CC(C)=O
REMARK SMILES IDX 4 1 3 2 2 3 1 4 5 5 6 6 7 7 9 8 8 9
REMARK H PARENT
REMARK Flexibility Score: inf
ROOT
ATOM      1  C   UNL     1      -4.631 -12.930  29.024  1.00  0.00     0.027 C 
ENDROOT
BRANCH   1   2
ATOM      2  C   UNL     1      -3.544 -12.785  27.948  1.00  0.00     0.004 C 
BRANCH   2   3
ATOM      3  C   UNL     1      -3.432 -11.349  27.413  1.00  0.00    -0.003 C 
ATOM      4  C   UNL     1      -2.812 -11.286  26.016  1.00  0.00     0.004 C 
ENDBRANCH   2   3
ENDBRANCH   1   2
BRANCH   1   5
ATOM      5  C   UNL     1      -5.649 -13.961  28.630  1.00  0.00    -0.023 C 
ATOM      6  C   UNL     1      -6.072 -14.892  29.492  1.00  0.00     0.042 C 
BRANCH   6   7
ATOM      7  C   UNL     1      -7.081 -15.905  29.130  1.00  0.00     0.152 C 
ATOM      8  O   UNL     1      -6.846 -17.135  29.287  1.00  0.00    -0.295 OA
ATOM      9  C   UNL     1      -8.398 -15.471  28.575  1.00  0.00     0.093 C 
ENDBRANCH   6   7
ENDBRANCH   1   5
TORSDOF 4
ENDMDL
MODEL 9
REMARK VINA RESULT:    -4.394      2.459      4.470
REMARK INTER + INTRA:          -5.604
REMARK INTER:                  -5.378
REMARK INTRA:                  -0.226
REMARK UNBOUND:                -0.183
REMARK SMILES CCCCC=CC(C)=O
REMARK SMILES IDX 4 1 3 2 2 3 1 4 5 5 6 6 7 7 9 8 8 9
REMARK H PARENT
REMARK Flexibility Score: inf
ROOT
ATOM      1  C   UNL     1      -3.826 -11.998  28.272  1.00  0.00     0.027 C 
ENDROOT
BRANCH   1   2
ATOM      2  C   UNL     1      -2.432 -11.776  28.878  1.00  0.00     0.004 C 
BRANCH   2   3
ATOM      3  C   UNL     1      -1.862 -13.047  29.525  1.00  0.00    -0.003 C 
ATOM      4  C   UNL     1      -1.053 -13.898  28.545  1.00  0.00     0.004 C 
ENDBRANCH   2   3
ENDBRANCH   1   2
BRANCH   1   5
ATOM      5  C   UNL     1      -4.631 -12.957  29.101  1.00  0.00    -0.023 C 
ATOM      6  C   UNL     1      -5.488 -13.817  28.541  1.00  0.00     0.042 C 
BRANCH   6   7
ATOM      7  C   UNL     1      -6.278 -14.777  29.335  1.00  0.00     0.152 C 
ATOM      8  O   UNL     1      -5.931 -15.082  30.509  1.00  0.00    -0.295 OA
ATOM      9  C   UNL     1      -7.505 -15.393  28.745  1.00  0.00     0.093 C 
ENDBRANCH   6   7
ENDBRANCH   1   5
TORSDOF 4
ENDMDL
