MODEL 1
REMARK VINA RESULT:    -4.667      0.000      0.000
REMARK INTER + INTRA:          -7.849
REMARK INTER:                  -7.396
REMARK INTRA:                  -0.454
REMARK UNBOUND:                -0.454
REMARK SMILES CCCCCCCCCCCC(=O)[O-]
REMARK SMILES IDX 7 1 8 2 9 3 10 4 11 5 12 6 13 7 14 8 6 9 5 10 4 11 3 12 2 13
REMARK SMILES IDX 1 14
REMARK H PARENT
REMARK Flexibility Score: inf
ROOT
ATOM      1  C   UNL     1      -7.556  -2.852 -14.218  1.00  0.00     0.000 C 
ENDROOT
BRANCH   1   2
ATOM      2  C   UNL     1      -8.836  -3.701 -14.310  1.00  0.00     0.000 C 
BRANCH   2   3
ATOM      3  C   UNL     1      -9.028  -4.332 -15.700  1.00  0.00     0.000 C 
BRANCH   3   4
ATOM      4  C   UNL     1     -10.324  -3.869 -16.383  1.00  0.00     0.006 C 
BRANCH   4   5
ATOM      5  C   UNL     1     -11.463  -4.889 -16.248  1.00  0.00     0.053 C 
BRANCH   5   6
ATOM      6  C   UNL     1     -12.491  -4.396 -15.278  1.00  0.00     0.041 C 
ATOM      7  O   UNL     1     -12.384  -4.664 -14.052  1.00  0.00    -0.550 OA
ATOM      8  O   UNL     1     -13.540  -3.601 -15.721  1.00  0.00    -0.550 OA
ENDBRANCH   5   6
ENDBRANCH   4   5
ENDBRANCH   3   4
ENDBRANCH   2   3
ENDBRANCH   1   2
BRANCH   1   9
ATOM      9  C   UNL     1      -6.361  -3.504 -14.935  1.00  0.00     0.000 C 
BRANCH   9  10
ATOM     10  C   UNL     1      -5.018  -3.184 -14.256  1.00  0.00    -0.000 C 
BRANCH  10  11
ATOM     11  C   UNL     1      -4.205  -2.126 -15.023  1.00  0.00    -0.000 C 
BRANCH  11  12
ATOM     12  C   UNL     1      -3.913  -2.544 -16.473  1.00  0.00    -0.000 C 
BRANCH  12  13
ATOM     13  C   UNL     1      -3.572  -1.351 -17.377  1.00  0.00    -0.003 C 
ATOM     14  C   UNL     1      -2.880  -1.812 -18.657  1.00  0.00     0.004 C 
ENDBRANCH  12  13
ENDBRANCH  11  12
ENDBRANCH  10  11
ENDBRANCH   9  10
ENDBRANCH   1   9
TORSDOF 10
ENDMDL
MODEL 2
REMARK VINA RESULT:    -4.608      5.269      7.961
REMARK INTER + INTRA:          -7.756
REMARK INTER:                  -7.429
REMARK INTRA:                  -0.327
REMARK UNBOUND:                -0.454
REMARK SMILES CCCCCCCCCCCC(=O)[O-]
REMARK SMILES IDX 7 1 8 2 9 3 10 4 11 5 12 6 13 7 14 8 6 9 5 10 4 11 3 12 2 13
REMARK SMILES IDX 1 14
REMARK H PARENT
REMARK Flexibility Score: inf
ROOT
ATOM      1  C   UNL     1      -8.196  -1.924 -12.547  1.00  0.00     0.000 C 
ENDROOT
BRANCH   1   2
ATOM      2  C   UNL     1      -7.363  -2.045 -11.259  1.00  0.00     0.000 C 
BRANCH   2   3
ATOM      3  C   UNL     1      -6.660  -0.728 -10.884  1.00  0.00     0.000 C 
BRANCH   3   4
ATOM      4  C   UNL     1      -6.493  -0.561  -9.365  1.00  0.00     0.006 C 
BRANCH   4   5
ATOM      5  C   UNL     1      -7.374   0.557  -8.791  1.00  0.00     0.053 C 
BRANCH   5   6
ATOM      6  C   UNL     1      -6.610   1.842  -8.731  1.00  0.00     0.041 C 
ATOM      7  O   UNL     1      -5.683   1.990  -7.892  1.00  0.00    -0.550 OA
ATOM      8  O   UNL     1      -6.889   2.859  -9.635  1.00  0.00    -0.550 OA
ENDBRANCH   5   6
ENDBRANCH   4   5
ENDBRANCH   3   4
ENDBRANCH   2   3
ENDBRANCH   1   2
BRANCH   1   9
ATOM      9  C   UNL     1      -7.740  -2.907 -13.640  1.00  0.00     0.000 C 
BRANCH   9  10
ATOM     10  C   UNL     1      -8.866  -3.858 -14.084  1.00  0.00    -0.000 C 
BRANCH  10  11
ATOM     11  C   UNL     1      -9.046  -3.886 -15.612  1.00  0.00    -0.000 C 
BRANCH  11  12
ATOM     12  C   UNL     1     -10.505  -3.656 -16.038  1.00  0.00    -0.000 C 
BRANCH  12  13
ATOM     13  C   UNL     1     -11.419  -4.839 -15.686  1.00  0.00    -0.003 C 
ATOM     14  C   UNL     1     -12.743  -4.354 -15.101  1.00  0.00     0.004 C 
ENDBRANCH  12  13
ENDBRANCH  11  12
ENDBRANCH  10  11
ENDBRANCH   9  10
ENDBRANCH   1   9
TORSDOF 10
ENDMDL
MODEL 3
REMARK VINA RESULT:    -4.604      4.421      5.727
REMARK INTER + INTRA:          -7.749
REMARK INTER:                  -7.326
REMARK INTRA:                  -0.424
REMARK UNBOUND:                -0.454
REMARK SMILES CCCCCCCCCCCC(=O)[O-]
REMARK SMILES IDX 7 1 8 2 9 3 10 4 11 5 12 6 13 7 14 8 6 9 5 10 4 11 3 12 2 13
REMARK SMILES IDX 1 14
REMARK H PARENT
REMARK Flexibility Score: inf
ROOT
ATOM      1  C   UNL     1      -7.308  -1.997 -11.344  1.00  0.00     0.000 C 
ENDROOT
BRANCH   1   2
ATOM      2  C   UNL     1      -8.250  -2.001 -12.561  1.00  0.00     0.000 C 
BRANCH   2   3
ATOM      3  C   UNL     1      -7.639  -2.716 -13.779  1.00  0.00     0.000 C 
BRANCH   3   4
ATOM      4  C   UNL     1      -8.304  -4.074 -14.060  1.00  0.00     0.006 C 
BRANCH   4   5
ATOM      5  C   UNL     1      -8.592  -4.295 -15.551  1.00  0.00     0.053 C 
BRANCH   5   6
ATOM      6  C   UNL     1      -9.979  -3.842 -15.886  1.00  0.00     0.041 C 
ATOM      7  O   UNL     1     -10.181  -3.116 -16.895  1.00  0.00    -0.550 OA
ATOM      8  O   UNL     1     -11.054  -4.260 -15.112  1.00  0.00    -0.550 OA
ENDBRANCH   5   6
ENDBRANCH   4   5
ENDBRANCH   3   4
ENDBRANCH   2   3
ENDBRANCH   1   2
BRANCH   1   9
ATOM      9  C   UNL     1      -6.950  -0.575 -10.879  1.00  0.00     0.000 C 
BRANCH   9  10
ATOM     10  C   UNL     1      -6.511  -0.530  -9.405  1.00  0.00    -0.000 C 
BRANCH  10  11
ATOM     11  C   UNL     1      -7.155   0.635  -8.632  1.00  0.00    -0.000 C 
BRANCH  11  12
ATOM     12  C   UNL     1      -6.411   1.964  -8.840  1.00  0.00    -0.000 C 
BRANCH  12  13
ATOM     13  C   UNL     1      -7.229   2.981  -9.649  1.00  0.00    -0.003 C 
ATOM     14  C   UNL     1      -6.755   3.036 -11.099  1.00  0.00     0.004 C 
ENDBRANCH  12  13
ENDBRANCH  11  12
ENDBRANCH  10  11
ENDBRANCH   9  10
ENDBRANCH   1   9
TORSDOF 10
ENDMDL
MODEL 4
REMARK VINA RESULT:    -4.535      4.547      7.488
REMARK INTER + INTRA:          -7.640
REMARK INTER:                  -7.153
REMARK INTRA:                  -0.488
REMARK UNBOUND:                -0.454
REMARK SMILES CCCCCCCCCCCC(=O)[O-]
REMARK SMILES IDX 7 1 8 2 9 3 10 4 11 5 12 6 13 7 14 8 6 9 5 10 4 11 3 12 2 13
REMARK SMILES IDX 1 14
REMARK H PARENT
REMARK Flexibility Score: inf
ROOT
ATOM      1  C   UNL     1      -7.318  -2.714 -14.043  1.00  0.00     0.000 C 
ENDROOT
BRANCH   1   2
ATOM      2  C   UNL     1      -8.174  -2.346 -12.819  1.00  0.00     0.000 C 
BRANCH   2   3
ATOM      3  C   UNL     1      -7.437  -2.583 -11.489  1.00  0.00     0.000 C 
BRANCH   3   4
ATOM      4  C   UNL     1      -6.349  -1.531 -11.223  1.00  0.00     0.006 C 
BRANCH   4   5
ATOM      5  C   UNL     1      -6.921  -0.207 -10.697  1.00  0.00     0.053 C 
BRANCH   5   6
ATOM      6  C   UNL     1      -6.727  -0.109  -9.216  1.00  0.00     0.041 C 
ATOM      7  O   UNL     1      -7.655   0.327  -8.484  1.00  0.00    -0.550 OA
ATOM      8  O   UNL     1      -5.541  -0.543  -8.639  1.00  0.00    -0.550 OA
ENDBRANCH   5   6
ENDBRANCH   4   5
ENDBRANCH   3   4
ENDBRANCH   2   3
ENDBRANCH   1   2
BRANCH   1   9
ATOM      9  C   UNL     1      -7.934  -3.854 -14.874  1.00  0.00     0.000 C 
BRANCH   9  10
ATOM     10  C   UNL     1      -9.440  -3.657 -15.120  1.00  0.00    -0.000 C 
BRANCH  10  11
ATOM     11  C   UNL     1      -9.969  -4.527 -16.275  1.00  0.00    -0.000 C 
BRANCH  11  12
ATOM     12  C   UNL     1     -11.400  -5.030 -16.027  1.00  0.00    -0.000 C 
BRANCH  12  13
ATOM     13  C   UNL     1     -11.930  -4.648 -14.636  1.00  0.00    -0.003 C 
ATOM     14  C   UNL     1     -13.380  -4.179 -14.712  1.00  0.00     0.004 C 
ENDBRANCH  12  13
ENDBRANCH  11  12
ENDBRANCH  10  11
ENDBRANCH   9  10
ENDBRANCH   1   9
TORSDOF 10
ENDMDL
MODEL 5
REMARK VINA RESULT:    -4.393      1.298      2.273
REMARK INTER + INTRA:          -7.414
REMARK INTER:                  -6.911
REMARK INTRA:                  -0.503
REMARK UNBOUND:                -0.454
REMARK SMILES CCCCCCCCCCCC(=O)[O-]
REMARK SMILES IDX 7 1 8 2 9 3 10 4 11 5 12 6 13 7 14 8 6 9 5 10 4 11 3 12 2 13
REMARK SMILES IDX 1 14
REMARK H PARENT
REMARK Flexibility Score: inf
ROOT
ATOM      1  C   UNL     1      -5.785  -3.162 -14.452  1.00  0.00     0.000 C 
ENDROOT
BRANCH   1   2
ATOM      2  C   UNL     1      -6.129  -4.280 -15.452  1.00  0.00     0.000 C 
BRANCH   2   3
ATOM      3  C   UNL     1      -7.478  -4.953 -15.145  1.00  0.00     0.000 C 
BRANCH   3   4
ATOM      4  C   UNL     1      -8.671  -4.164 -15.708  1.00  0.00     0.006 C 
BRANCH   4   5
ATOM      5  C   UNL     1      -9.766  -3.918 -14.662  1.00  0.00     0.053 C 
BRANCH   5   6
ATOM      6  C   UNL     1     -11.062  -4.515 -15.114  1.00  0.00     0.041 C 
ATOM      7  O   UNL     1     -11.215  -4.862 -16.315  1.00  0.00    -0.550 OA
ATOM      8  O   UNL     1     -12.084  -4.734 -14.199  1.00  0.00    -0.550 OA
ENDBRANCH   5   6
ENDBRANCH   4   5
ENDBRANCH   3   4
ENDBRANCH   2   3
ENDBRANCH   1   2
BRANCH   1   9
ATOM      9  C   UNL     1      -4.691  -2.216 -14.976  1.00  0.00     0.000 C 
BRANCH   9  10
ATOM     10  C   UNL     1      -4.054  -2.717 -16.284  1.00  0.00    -0.000 C 
BRANCH  10  11
ATOM     11  C   UNL     1      -3.658  -1.567 -17.227  1.00  0.00    -0.000 C 
BRANCH  11  12
ATOM     12  C   UNL     1      -2.766  -2.037 -18.387  1.00  0.00    -0.000 C 
BRANCH  12  13
ATOM     13  C   UNL     1      -1.437  -1.271 -18.460  1.00  0.00    -0.003 C 
ATOM     14  C   UNL     1      -1.157  -0.533 -17.154  1.00  0.00     0.004 C 
ENDBRANCH  12  13
ENDBRANCH  11  12
ENDBRANCH  10  11
ENDBRANCH   9  10
ENDBRANCH   1   9
TORSDOF 10
ENDMDL
MODEL 6
REMARK VINA RESULT:    -4.362      2.963      4.221
REMARK INTER + INTRA:          -7.365
REMARK INTER:                  -6.250
REMARK INTRA:                  -1.115
REMARK UNBOUND:                -0.454
REMARK SMILES CCCCCCCCCCCC(=O)[O-]
REMARK SMILES IDX 7 1 8 2 9 3 10 4 11 5 12 6 13 7 14 8 6 9 5 10 4 11 3 12 2 13
REMARK SMILES IDX 1 14
REMARK H PARENT
REMARK Flexibility Score: inf
ROOT
ATOM      1  C   UNL     1      -7.914  -3.733 -14.661  1.00  0.00     0.000 C 
ENDROOT
BRANCH   1   2
ATOM      2  C   UNL     1      -9.168  -4.311 -13.982  1.00  0.00     0.000 C 
BRANCH   2   3
ATOM      3  C   UNL     1      -9.337  -5.819 -14.239  1.00  0.00     0.000 C 
BRANCH   3   4
ATOM      4  C   UNL     1     -10.809  -6.225 -14.413  1.00  0.00     0.006 C 
BRANCH   4   5
ATOM      5  C   UNL     1     -11.776  -5.052 -14.205  1.00  0.00     0.053 C 
BRANCH   5   6
ATOM      6  C   UNL     1     -12.318  -4.585 -15.520  1.00  0.00     0.041 C 
ATOM      7  O   UNL     1     -11.787  -4.968 -16.596  1.00  0.00    -0.550 OA
ATOM      8  O   UNL     1     -13.439  -3.766 -15.559  1.00  0.00    -0.550 OA
ENDBRANCH   5   6
ENDBRANCH   4   5
ENDBRANCH   3   4
ENDBRANCH   2   3
ENDBRANCH   1   2
BRANCH   1   9
ATOM      9  C   UNL     1      -7.320  -2.541 -13.890  1.00  0.00     0.000 C 
BRANCH   9  10
ATOM     10  C   UNL     1      -8.165  -2.151 -12.665  1.00  0.00    -0.000 C 
BRANCH  10  11
ATOM     11  C   UNL     1      -7.360  -2.191 -11.354  1.00  0.00    -0.000 C 
BRANCH  11  12
ATOM     12  C   UNL     1      -6.405  -3.394 -11.286  1.00  0.00    -0.000 C 
BRANCH  12  13
ATOM     13  C   UNL     1      -7.087  -4.663 -10.752  1.00  0.00    -0.003 C 
ATOM     14  C   UNL     1      -6.683  -5.887 -11.568  1.00  0.00     0.004 C 
ENDBRANCH  12  13
ENDBRANCH  11  12
ENDBRANCH  10  11
ENDBRANCH   9  10
ENDBRANCH   1   9
TORSDOF 10
ENDMDL
MODEL 7
REMARK VINA RESULT:    -4.347      1.523      1.801
REMARK INTER + INTRA:          -7.342
REMARK INTER:                  -6.728
REMARK INTRA:                  -0.614
REMARK UNBOUND:                -0.454
REMARK SMILES CCCCCCCCCCCC(=O)[O-]
REMARK SMILES IDX 7 1 8 2 9 3 10 4 11 5 12 6 13 7 14 8 6 9 5 10 4 11 3 12 2 13
REMARK SMILES IDX 1 14
REMARK H PARENT
REMARK Flexibility Score: inf
ROOT
ATOM      1  C   UNL     1      -7.511  -4.560 -15.354  1.00  0.00     0.000 C 
ENDROOT
BRANCH   1   2
ATOM      2  C   UNL     1      -8.047  -4.573 -13.912  1.00  0.00     0.000 C 
BRANCH   2   3
ATOM      3  C   UNL     1      -8.532  -5.966 -13.474  1.00  0.00     0.000 C 
BRANCH   3   4
ATOM      4  C   UNL     1      -9.526  -6.584 -14.471  1.00  0.00     0.006 C 
BRANCH   4   5
ATOM      5  C   UNL     1     -10.986  -6.429 -14.025  1.00  0.00     0.053 C 
BRANCH   5   6
ATOM      6  C   UNL     1     -11.614  -5.249 -14.699  1.00  0.00     0.041 C 
ATOM      7  O   UNL     1     -11.265  -4.926 -15.865  1.00  0.00    -0.550 OA
ATOM      8  O   UNL     1     -12.619  -4.535 -14.059  1.00  0.00    -0.550 OA
ENDBRANCH   5   6
ENDBRANCH   4   5
ENDBRANCH   3   4
ENDBRANCH   2   3
ENDBRANCH   1   2
BRANCH   1   9
ATOM      9  C   UNL     1      -5.992  -4.324 -15.419  1.00  0.00     0.000 C 
BRANCH   9  10
ATOM     10  C   UNL     1      -5.517  -3.258 -14.416  1.00  0.00    -0.000 C 
BRANCH  10  11
ATOM     11  C   UNL     1      -4.679  -2.152 -15.081  1.00  0.00    -0.000 C 
BRANCH  11  12
ATOM     12  C   UNL     1      -3.965  -2.638 -16.353  1.00  0.00    -0.000 C 
BRANCH  12  13
ATOM     13  C   UNL     1      -3.585  -1.487 -17.296  1.00  0.00    -0.003 C 
ATOM     14  C   UNL     1      -3.019  -2.019 -18.610  1.00  0.00     0.004 C 
ENDBRANCH  12  13
ENDBRANCH  11  12
ENDBRANCH  10  11
ENDBRANCH   9  10
ENDBRANCH   1   9
TORSDOF 10
ENDMDL
MODEL 8
REMARK VINA RESULT:    -4.336      2.867      4.626
REMARK INTER + INTRA:          -7.325
REMARK INTER:                  -6.676
REMARK INTRA:                  -0.649
REMARK UNBOUND:                -0.454
REMARK SMILES CCCCCCCCCCCC(=O)[O-]
REMARK SMILES IDX 7 1 8 2 9 3 10 4 11 5 12 6 13 7 14 8 6 9 5 10 4 11 3 12 2 13
REMARK SMILES IDX 1 14
REMARK H PARENT
REMARK Flexibility Score: inf
ROOT
ATOM      1  C   UNL     1      -6.845  -2.865 -13.868  1.00  0.00     0.000 C 
ENDROOT
BRANCH   1   2
ATOM      2  C   UNL     1      -7.056  -3.869 -15.015  1.00  0.00     0.000 C 
BRANCH   2   3
ATOM      3  C   UNL     1      -8.396  -4.617 -14.906  1.00  0.00     0.000 C 
BRANCH   3   4
ATOM      4  C   UNL     1      -9.191  -4.596 -16.222  1.00  0.00     0.006 C 
BRANCH   4   5
ATOM      5  C   UNL     1     -10.456  -3.732 -16.137  1.00  0.00     0.053 C 
BRANCH   5   6
ATOM      6  C   UNL     1     -11.644  -4.581 -15.807  1.00  0.00     0.041 C 
ATOM      7  O   UNL     1     -11.512  -5.824 -15.655  1.00  0.00    -0.550 OA
ATOM      8  O   UNL     1     -12.888  -3.993 -15.620  1.00  0.00    -0.550 OA
ENDBRANCH   5   6
ENDBRANCH   4   5
ENDBRANCH   3   4
ENDBRANCH   2   3
ENDBRANCH   1   2
BRANCH   1   9
ATOM      9  C   UNL     1      -8.171  -2.375 -13.261  1.00  0.00     0.000 C 
BRANCH   9  10
ATOM     10  C   UNL     1      -7.975  -1.667 -11.908  1.00  0.00    -0.000 C 
BRANCH  10  11
ATOM     11  C   UNL     1      -6.889  -2.333 -11.045  1.00  0.00    -0.000 C 
BRANCH  11  12
ATOM     12  C   UNL     1      -6.176  -1.333 -10.120  1.00  0.00    -0.000 C 
BRANCH  12  13
ATOM     13  C   UNL     1      -6.855   0.044 -10.101  1.00  0.00    -0.003 C 
ATOM     14  C   UNL     1      -7.414   0.361  -8.717  1.00  0.00     0.004 C 
ENDBRANCH  12  13
ENDBRANCH  11  12
ENDBRANCH  10  11
ENDBRANCH   9  10
ENDBRANCH   1   9
TORSDOF 10
ENDMDL
MODEL 9
REMARK VINA RESULT:    -4.323      4.410      7.013
REMARK INTER + INTRA:          -7.304
REMARK INTER:                  -6.378
REMARK INTRA:                  -0.926
REMARK UNBOUND:                -0.454
REMARK SMILES CCCCCCCCCCCC(=O)[O-]
REMARK SMILES IDX 7 1 8 2 9 3 10 4 11 5 12 6 13 7 14 8 6 9 5 10 4 11 3 12 2 13
REMARK SMILES IDX 1 14
REMARK H PARENT
REMARK Flexibility Score: inf
ROOT
ATOM      1  C   UNL     1      -8.812  -3.983 -15.696  1.00  0.00     0.000 C 
ENDROOT
BRANCH   1   2
ATOM      2  C   UNL     1      -8.693  -3.330 -14.307  1.00  0.00     0.000 C 
BRANCH   2   3
ATOM      3  C   UNL     1      -7.280  -3.464 -13.711  1.00  0.00     0.000 C 
BRANCH   3   4
ATOM      4  C   UNL     1      -7.258  -3.235 -12.191  1.00  0.00     0.006 C 
BRANCH   4   5
ATOM      5  C   UNL     1      -7.716  -1.823 -11.798  1.00  0.00     0.053 C 
BRANCH   5   6
ATOM      6  C   UNL     1      -6.669  -1.149 -10.968  1.00  0.00     0.041 C 
ATOM      7  O   UNL     1      -5.495  -1.025 -11.407  1.00  0.00    -0.550 OA
ATOM      8  O   UNL     1      -7.001  -0.615  -9.729  1.00  0.00    -0.550 OA
ENDBRANCH   5   6
ENDBRANCH   4   5
ENDBRANCH   3   4
ENDBRANCH   2   3
ENDBRANCH   1   2
BRANCH   1   9
ATOM      9  C   UNL     1     -10.162  -3.689 -16.373  1.00  0.00     0.000 C 
BRANCH   9  10
ATOM     10  C   UNL     1     -11.143  -4.869 -16.270  1.00  0.00    -0.000 C 
BRANCH  10  11
ATOM     11  C   UNL     1     -11.954  -4.851 -14.962  1.00  0.00    -0.000 C 
BRANCH  11  12
ATOM     12  C   UNL     1     -11.549  -5.981 -14.002  1.00  0.00    -0.000 C 
BRANCH  12  13
ATOM     13  C   UNL     1     -10.659  -7.038 -14.672  1.00  0.00    -0.003 C 
ATOM     14  C   UNL     1      -9.318  -7.161 -13.953  1.00  0.00     0.004 C 
ENDBRANCH  12  13
ENDBRANCH  11  12
ENDBRANCH  10  11
ENDBRANCH   9  10
ENDBRANCH   1   9
TORSDOF 10
ENDMDL
