MODEL 1
REMARK VINA RESULT:     1.163      0.000      0.000
REMARK INTER + INTRA:           1.264
REMARK INTER:                   1.264
REMARK INTRA:                   0.000
REMARK UNBOUND:                 0.000
REMARK SMILES Cc1cc(O)c2c(c1)C(=O)c1cc(O)cc(O)c1C2=O
REMARK SMILES IDX 1 1 2 2 8 3 7 4 6 5 4 6 3 7 19 8 20 9 18 10 11 11 9 12 10 13
REMARK SMILES IDX 12 14 13 15 15 16 16 17 5 18 17 20 14 22
REMARK H PARENT 5 19 17 21 14 23
REMARK Flexibility Score: inf
ROOT
ATOM      1  C   UNL     1      20.114   7.651  -5.577  1.00  0.00     0.044 C 
ATOM      2  C   UNL     1      20.326   8.680  -6.647  1.00  0.00    -0.047 A 
ATOM      3  C   UNL     1      19.249   9.443  -7.115  1.00  0.00     0.016 A 
ATOM      4  C   UNL     1      19.442  10.436  -8.090  1.00  0.00     0.038 A 
ATOM      5  C   UNL     1      20.735  10.674  -8.602  1.00  0.00     0.076 A 
ATOM      6  C   UNL     1      21.825   9.919  -8.108  1.00  0.00     0.127 A 
ATOM      7  C   UNL     1      21.612   8.935  -7.134  1.00  0.00     0.050 A 
ATOM      8  C   UNL     1      20.918  11.698  -9.663  1.00  0.00     0.201 C 
ATOM      9  O   UNL     1      21.955  11.674 -10.376  1.00  0.00    -0.288 OA
ATOM     10  C   UNL     1      19.829  12.672  -9.957  1.00  0.00     0.076 A 
ATOM     11  C   UNL     1      18.526  12.387  -9.486  1.00  0.00     0.041 A 
ATOM     12  C   UNL     1      18.297  11.233  -8.583  1.00  0.00     0.194 C 
ATOM     13  O   UNL     1      17.124  10.941  -8.220  1.00  0.00    -0.289 OA
ATOM     14  C   UNL     1      17.448  13.206  -9.866  1.00  0.00     0.059 A 
ATOM     15  C   UNL     1      17.655  14.310 -10.696  1.00  0.00     0.120 A 
ATOM     16  C   UNL     1      18.943  14.623 -11.124  1.00  0.00     0.093 A 
ATOM     17  C   UNL     1      20.036  13.842 -10.739  1.00  0.00     0.131 A 
ENDROOT
BRANCH   6  18
ATOM     18  O   UNL     1      23.120  10.153  -8.571  1.00  0.00    -0.507 OA
ATOM     19  H   UNL     1      23.369  10.026  -9.545  1.00  0.00     0.293 HD
ENDBRANCH   6  18
BRANCH  17  20
ATOM     20  O   UNL     1      21.304  14.287 -11.122  1.00  0.00    -0.507 OA
ATOM     21  H   UNL     1      21.526  14.618 -12.051  1.00  0.00     0.293 HD
ENDBRANCH  17  20
BRANCH  15  22
ATOM     22  O   UNL     1      16.587  15.114 -11.088  1.00  0.00    -0.508 OA
ATOM     23  H   UNL     1      15.694  15.080 -10.609  1.00  0.00     0.293 HD
ENDBRANCH  15  22
TORSDOF 3
ENDMDL
MODEL 2
REMARK VINA RESULT:     1.334      1.703      1.706
REMARK INTER + INTRA:           1.451
REMARK INTER:                   1.451
REMARK INTRA:                   0.000
REMARK UNBOUND:                 0.000
REMARK SMILES Cc1cc(O)c2c(c1)C(=O)c1cc(O)cc(O)c1C2=O
REMARK SMILES IDX 1 1 2 2 8 3 7 4 6 5 4 6 3 7 19 8 20 9 18 10 11 11 9 12 10 13
REMARK SMILES IDX 12 14 13 15 15 16 16 17 5 18 17 20 14 22
REMARK H PARENT 5 19 17 21 14 23
REMARK Flexibility Score: inf
ROOT
ATOM      1  C   UNL     1      20.499   7.942  -5.590  1.00  0.00     0.044 C 
ATOM      2  C   UNL     1      20.522   9.015  -6.638  1.00  0.00    -0.047 A 
ATOM      3  C   UNL     1      19.792  10.195  -6.455  1.00  0.00     0.016 A 
ATOM      4  C   UNL     1      19.836  11.223  -7.412  1.00  0.00     0.038 A 
ATOM      5  C   UNL     1      20.630  11.070  -8.569  1.00  0.00     0.076 A 
ATOM      6  C   UNL     1      21.388   9.887  -8.737  1.00  0.00     0.127 A 
ATOM      7  C   UNL     1      21.331   8.875  -7.771  1.00  0.00     0.050 A 
ATOM      8  C   UNL     1      20.635  12.147  -9.592  1.00  0.00     0.201 C 
ATOM      9  O   UNL     1      21.024  11.890 -10.762  1.00  0.00    -0.288 OA
ATOM     10  C   UNL     1      20.074  13.489  -9.268  1.00  0.00     0.076 A 
ATOM     11  C   UNL     1      19.232  13.611  -8.137  1.00  0.00     0.041 A 
ATOM     12  C   UNL     1      19.056  12.464  -7.214  1.00  0.00     0.194 C 
ATOM     13  O   UNL     1      18.251  12.553  -6.245  1.00  0.00    -0.289 OA
ATOM     14  C   UNL     1      18.569  14.825  -7.884  1.00  0.00     0.059 A 
ATOM     15  C   UNL     1      18.746  15.919  -8.732  1.00  0.00     0.120 A 
ATOM     16  C   UNL     1      19.611  15.820  -9.821  1.00  0.00     0.093 A 
ATOM     17  C   UNL     1      20.303  14.634 -10.080  1.00  0.00     0.131 A 
ENDROOT
BRANCH   6  18
ATOM     18  O   UNL     1      22.206   9.720  -9.855  1.00  0.00    -0.507 OA
ATOM     19  H   UNL     1      22.369   8.808 -10.265  1.00  0.00     0.293 HD
ENDBRANCH   6  18
BRANCH  17  20
ATOM     20  O   UNL     1      21.231  14.653 -11.125  1.00  0.00    -0.507 OA
ATOM     21  H   UNL     1      21.051  14.270 -12.043  1.00  0.00     0.293 HD
ENDBRANCH  17  20
BRANCH  15  22
ATOM     22  O   UNL     1      18.078  17.119  -8.494  1.00  0.00    -0.508 OA
ATOM     23  H   UNL     1      18.378  17.757  -7.766  1.00  0.00     0.293 HD
ENDBRANCH  15  22
TORSDOF 3
ENDMDL
MODEL 3
REMARK VINA RESULT:     3.279      2.127      5.826
REMARK INTER + INTRA:           3.567
REMARK INTER:                   3.567
REMARK INTRA:                   0.000
REMARK UNBOUND:                 0.000
REMARK SMILES Cc1cc(O)c2c(c1)C(=O)c1cc(O)cc(O)c1C2=O
REMARK SMILES IDX 1 1 2 2 8 3 7 4 6 5 4 6 3 7 19 8 20 9 18 10 11 11 9 12 10 13
REMARK SMILES IDX 12 14 13 15 15 16 16 17 5 18 17 20 14 22
REMARK H PARENT 5 19 17 21 14 23
REMARK Flexibility Score: inf
ROOT
ATOM      1  C   UNL     1      15.273  16.686 -10.440  1.00  0.00     0.044 C 
ATOM      2  C   UNL     1      16.655  16.108 -10.374  1.00  0.00    -0.047 A 
ATOM      3  C   UNL     1      16.843  14.772  -9.998  1.00  0.00     0.016 A 
ATOM      4  C   UNL     1      18.130  14.208  -9.969  1.00  0.00     0.038 A 
ATOM      5  C   UNL     1      19.247  14.992 -10.329  1.00  0.00     0.076 A 
ATOM      6  C   UNL     1      19.050  16.333 -10.734  1.00  0.00     0.127 A 
ATOM      7  C   UNL     1      17.759  16.876 -10.757  1.00  0.00     0.050 A 
ATOM      8  C   UNL     1      20.606  14.395 -10.253  1.00  0.00     0.201 C 
ATOM      9  O   UNL     1      21.613  15.149 -10.211  1.00  0.00    -0.288 OA
ATOM     10  C   UNL     1      20.768  12.921 -10.112  1.00  0.00     0.076 A 
ATOM     11  C   UNL     1      19.652  12.159  -9.693  1.00  0.00     0.041 A 
ATOM     12  C   UNL     1      18.320  12.798  -9.564  1.00  0.00     0.194 C 
ATOM     13  O   UNL     1      17.342  12.133  -9.125  1.00  0.00    -0.289 OA
ATOM     14  C   UNL     1      19.804  10.790  -9.409  1.00  0.00     0.059 A 
ATOM     15  C   UNL     1      21.047  10.171  -9.549  1.00  0.00     0.120 A 
ATOM     16  C   UNL     1      22.140  10.906 -10.007  1.00  0.00     0.093 A 
ATOM     17  C   UNL     1      22.010  12.261 -10.323  1.00  0.00     0.131 A 
ENDROOT
BRANCH   6  18
ATOM     18  O   UNL     1      20.132  17.124 -11.125  1.00  0.00    -0.507 OA
ATOM     19  H   UNL     1      20.014  18.093 -11.395  1.00  0.00     0.293 HD
ENDBRANCH   6  18
BRANCH  17  20
ATOM     20  O   UNL     1      23.125  12.896 -10.877  1.00  0.00    -0.507 OA
ATOM     21  H   UNL     1      23.971  13.094 -10.362  1.00  0.00     0.293 HD
ENDBRANCH  17  20
BRANCH  15  22
ATOM     22  O   UNL     1      21.206   8.819  -9.252  1.00  0.00    -0.508 OA
ATOM     23  H   UNL     1      22.063   8.463  -8.846  1.00  0.00     0.293 HD
ENDBRANCH  15  22
TORSDOF 3
ENDMDL
MODEL 4
REMARK VINA RESULT:     3.372      1.938      5.538
REMARK INTER + INTRA:           3.668
REMARK INTER:                   3.668
REMARK INTRA:                   0.000
REMARK UNBOUND:                 0.000
REMARK SMILES Cc1cc(O)c2c(c1)C(=O)c1cc(O)cc(O)c1C2=O
REMARK SMILES IDX 1 1 2 2 8 3 7 4 6 5 4 6 3 7 19 8 20 9 18 10 11 11 9 12 10 13
REMARK SMILES IDX 12 14 13 15 15 16 16 17 5 18 17 20 14 22
REMARK H PARENT 5 19 17 21 14 23
REMARK Flexibility Score: inf
ROOT
ATOM      1  C   UNL     1      17.863  17.095  -8.878  1.00  0.00     0.044 C 
ATOM      2  C   UNL     1      18.750  15.891  -8.985  1.00  0.00    -0.047 A 
ATOM      3  C   UNL     1      18.559  14.796  -8.134  1.00  0.00     0.016 A 
ATOM      4  C   UNL     1      19.360  13.647  -8.251  1.00  0.00     0.038 A 
ATOM      5  C   UNL     1      20.364  13.590  -9.241  1.00  0.00     0.076 A 
ATOM      6  C   UNL     1      20.536  14.688 -10.116  1.00  0.00     0.127 A 
ATOM      7  C   UNL     1      19.727  15.823  -9.984  1.00  0.00     0.050 A 
ATOM      8  C   UNL     1      21.231  12.386  -9.325  1.00  0.00     0.201 C 
ATOM      9  O   UNL     1      22.333  12.456  -9.929  1.00  0.00    -0.288 OA
ATOM     10  C   UNL     1      20.851  11.139  -8.602  1.00  0.00     0.076 A 
ATOM     11  C   UNL     1      19.885  11.227  -7.573  1.00  0.00     0.041 A 
ATOM     12  C   UNL     1      19.155  12.497  -7.343  1.00  0.00     0.194 C 
ATOM     13  O   UNL     1      18.344  12.592  -6.380  1.00  0.00    -0.289 OA
ATOM     14  C   UNL     1      19.609  10.103  -6.773  1.00  0.00     0.059 A 
ATOM     15  C   UNL     1      20.271   8.895  -6.996  1.00  0.00     0.120 A 
ATOM     16  C   UNL     1      21.189   8.789  -8.038  1.00  0.00     0.093 A 
ATOM     17  C   UNL     1      21.462   9.883  -8.866  1.00  0.00     0.131 A 
ENDROOT
BRANCH   6  18
ATOM     18  O   UNL     1      21.500  14.648 -11.125  1.00  0.00    -0.507 OA
ATOM     19  H   UNL     1      21.312  14.999 -12.056  1.00  0.00     0.293 HD
ENDBRANCH   6  18
BRANCH  17  20
ATOM     20  O   UNL     1      22.312   9.662  -9.953  1.00  0.00    -0.507 OA
ATOM     21  H   UNL     1      21.996   9.340 -10.856  1.00  0.00     0.293 HD
ENDBRANCH  17  20
BRANCH  15  22
ATOM     22  O   UNL     1      20.012   7.785  -6.195  1.00  0.00    -0.508 OA
ATOM     23  H   UNL     1      20.075   7.834  -5.184  1.00  0.00     0.293 HD
ENDBRANCH  15  22
TORSDOF 3
ENDMDL
MODEL 5
REMARK VINA RESULT:     3.387      1.713      5.582
REMARK INTER + INTRA:           3.684
REMARK INTER:                   3.684
REMARK INTRA:                   0.000
REMARK UNBOUND:                 0.000
REMARK SMILES Cc1cc(O)c2c(c1)C(=O)c1cc(O)cc(O)c1C2=O
REMARK SMILES IDX 1 1 2 2 8 3 7 4 6 5 4 6 3 7 19 8 20 9 18 10 11 11 9 12 10 13
REMARK SMILES IDX 12 14 13 15 15 16 16 17 5 18 17 20 14 22
REMARK H PARENT 5 19 17 21 14 23
REMARK Flexibility Score: inf
ROOT
ATOM      1  C   UNL     1      17.924  15.521 -10.338  1.00  0.00     0.044 C 
ATOM      2  C   UNL     1      18.912  14.455  -9.968  1.00  0.00    -0.047 A 
ATOM      3  C   UNL     1      18.620  13.548  -8.942  1.00  0.00     0.016 A 
ATOM      4  C   UNL     1      19.522  12.522  -8.612  1.00  0.00     0.038 A 
ATOM      5  C   UNL     1      20.733  12.396  -9.326  1.00  0.00     0.076 A 
ATOM      6  C   UNL     1      21.012  13.297 -10.380  1.00  0.00     0.127 A 
ATOM      7  C   UNL     1      20.100  14.313 -10.694  1.00  0.00     0.050 A 
ATOM      8  C   UNL     1      21.695  11.332  -8.938  1.00  0.00     0.201 C 
ATOM      9  O   UNL     1      22.899  11.425  -9.296  1.00  0.00    -0.288 OA
ATOM     10  C   UNL     1      21.265  10.227  -8.037  1.00  0.00     0.076 A 
ATOM     11  C   UNL     1      20.078  10.396  -7.285  1.00  0.00     0.041 A 
ATOM     12  C   UNL     1      19.209  11.573  -7.521  1.00  0.00     0.194 C 
ATOM     13  O   UNL     1      18.188  11.757  -6.801  1.00  0.00    -0.289 OA
ATOM     14  C   UNL     1      19.719   9.440  -6.318  1.00  0.00     0.059 A 
ATOM     15  C   UNL     1      20.517   8.315  -6.103  1.00  0.00     0.120 A 
ATOM     16  C   UNL     1      21.661   8.118  -6.874  1.00  0.00     0.093 A 
ATOM     17  C   UNL     1      22.027   9.039  -7.860  1.00  0.00     0.131 A 
ENDROOT
BRANCH   6  18
ATOM     18  O   UNL     1      22.186  13.179 -11.125  1.00  0.00    -0.507 OA
ATOM     19  H   UNL     1      22.852  12.435 -10.956  1.00  0.00     0.293 HD
ENDBRANCH   6  18
BRANCH  17  20
ATOM     20  O   UNL     1      23.125   8.713  -8.660  1.00  0.00    -0.507 OA
ATOM     21  H   UNL     1      24.080   8.718  -8.331  1.00  0.00     0.293 HD
ENDBRANCH  17  20
BRANCH  15  22
ATOM     22  O   UNL     1      20.173   7.374  -5.135  1.00  0.00    -0.508 OA
ATOM     23  H   UNL     1      20.608   6.459  -5.106  1.00  0.00     0.293 HD
ENDBRANCH  15  22
TORSDOF 3
ENDMDL
