MODEL 1
REMARK VINA RESULT:    -3.843      0.000      0.000
REMARK INTER + INTRA:          -6.042
REMARK INTER:                  -5.865
REMARK INTRA:                  -0.177
REMARK UNBOUND:                -0.177
REMARK SMILES CC1=CCC[C@H](C)C(=O)C[C@H](C(C)C)C(=O)C1
REMARK SMILES IDX 8 1 9 2 6 3 7 4 5 5 4 6 3 7 2 8 1 9 10 11 11 12 15 13 16 14
REMARK SMILES IDX 17 15 12 17 13 18 14 19
REMARK H PARENT
REMARK Flexibility Score: 70.00
ROOT
ATOM      1  C   UNL     1      46.460  58.407  28.371  1.00  0.00     0.136 C 
ATOM      2  O   UNL     1      46.516  59.024  27.316  1.00  0.00    -0.299 OA
ENDROOT
BRANCH   1   3
ATOM      3  C   UNL     1      47.240  57.113  28.501  1.00  0.00     0.053 C 
ATOM      4  C   UNL     1      48.396  57.263  29.499  1.00  0.00     0.016 C 
BRANCH   3   5
ATOM      5  C   UNL     1      46.323  55.937  28.886  1.00  0.00     0.015 C 
BRANCH   5   6
ATOM      6  C   UNL     1      46.537  55.495  30.345  1.00  0.00     0.028 C 
BRANCH   6   7
ATOM      7  C   UNL     1      45.247  55.029  30.968  1.00  0.00    -0.028 C 
ATOM      8  C   UNL     1      44.399  55.823  31.663  1.00  0.00    -0.070 CG0
ATOM      9  C   UNL     1      43.167  55.192  32.261  1.00  0.00     0.039 C 
ATOM     10  G   UNL     1      44.631  57.314  31.859  1.00  0.00     0.000 G0
ENDBRANCH   6   7
ENDBRANCH   5   6
ENDBRANCH   3   5
ENDBRANCH   1   3
BRANCH   1  11
ATOM     11  C   UNL     1      45.639  58.984  29.505  1.00  0.00     0.087 C 
BRANCH  11  12
ATOM     12  C   UNL     1      44.186  58.435  29.518  1.00  0.00     0.066 C 
BRANCH  12  13
ATOM     13  C   UNL     1      43.763  58.170  30.954  1.00  0.00     0.140 C 
ATOM     14  O   UNL     1      42.675  58.573  31.345  1.00  0.00    -0.299 OA
BRANCH  13  15
ATOM     15  C   UNL     1      44.610  57.321  31.869  1.00  0.00     0.106 CG0
ATOM     16  G   UNL     1      44.388  55.833  31.642  1.00  0.00     0.000 G0
ENDBRANCH  13  15
ENDBRANCH  12  13
BRANCH  12  17
ATOM     17  C   UNL     1      43.173  59.400  28.817  1.00  0.00    -0.006 C 
ATOM     18  C   UNL     1      42.916  58.981  27.355  1.00  0.00     0.008 C 
ATOM     19  C   UNL     1      43.659  60.863  28.826  1.00  0.00     0.008 C 
ENDBRANCH  12  17
ENDBRANCH  11  12
ENDBRANCH   1  11
TORSDOF 1
ENDMDL
MODEL 2
REMARK VINA RESULT:    -3.837      2.280      3.570
REMARK INTER + INTRA:          -6.032
REMARK INTER:                  -5.629
REMARK INTRA:                  -0.403
REMARK UNBOUND:                -0.177
REMARK SMILES CC1=CCC[C@H](C)C(=O)C[C@H](C(C)C)C(=O)C1
REMARK SMILES IDX 8 1 9 2 6 3 7 4 5 5 4 6 3 7 2 8 1 9 10 11 11 12 15 13 16 14
REMARK SMILES IDX 17 15 12 17 13 18 14 19
REMARK H PARENT
REMARK Flexibility Score: 70.00
ROOT
ATOM      1  C   UNL     1      46.081  56.698  28.526  1.00  0.00     0.136 C 
ATOM      2  O   UNL     1      46.601  57.739  28.150  1.00  0.00    -0.299 OA
ENDROOT
BRANCH   1   3
ATOM      3  C   UNL     1      46.736  55.921  29.652  1.00  0.00     0.053 C 
ATOM      4  C   UNL     1      48.169  55.516  29.283  1.00  0.00     0.016 C 
BRANCH   3   5
ATOM      5  C   UNL     1      46.705  56.709  30.975  1.00  0.00     0.015 C 
BRANCH   5   6
ATOM      6  C   UNL     1      45.628  56.176  31.937  1.00  0.00     0.028 C 
BRANCH   6   7
ATOM      7  C   UNL     1      44.422  57.079  31.959  1.00  0.00    -0.028 C 
ATOM      8  C   UNL     1      43.210  56.755  31.451  1.00  0.00    -0.070 CG0
ATOM      9  C   UNL     1      42.116  57.790  31.514  1.00  0.00     0.039 C 
ATOM     10  G   UNL     1      42.906  55.399  30.831  1.00  0.00     0.000 G0
ENDBRANCH   6   7
ENDBRANCH   5   6
ENDBRANCH   3   5
ENDBRANCH   1   3
BRANCH   1  11
ATOM     11  C   UNL     1      44.791  56.254  27.871  1.00  0.00     0.087 C 
BRANCH  11  12
ATOM     12  C   UNL     1      44.181  55.001  28.559  1.00  0.00     0.066 C 
BRANCH  12  13
ATOM     13  C   UNL     1      42.925  55.405  29.314  1.00  0.00     0.140 C 
ATOM     14  O   UNL     1      41.904  55.663  28.688  1.00  0.00    -0.299 OA
BRANCH  13  15
ATOM     15  C   UNL     1      42.883  55.381  30.822  1.00  0.00     0.106 CG0
ATOM     16  G   UNL     1      43.222  56.734  31.429  1.00  0.00     0.000 G0
ENDBRANCH  13  15
ENDBRANCH  12  13
BRANCH  12  17
ATOM     17  C   UNL     1      43.866  53.853  27.544  1.00  0.00    -0.006 C 
ATOM     18  C   UNL     1      43.126  52.685  28.227  1.00  0.00     0.008 C 
ATOM     19  C   UNL     1      45.141  53.298  26.876  1.00  0.00     0.008 C 
ENDBRANCH  12  17
ENDBRANCH  11  12
ENDBRANCH   1  11
TORSDOF 1
ENDMDL
MODEL 3
REMARK VINA RESULT:    -3.718      2.173      3.183
REMARK INTER + INTRA:          -5.851
REMARK INTER:                  -5.821
REMARK INTRA:                  -0.030
REMARK UNBOUND:                -0.177
REMARK SMILES CC1=CCC[C@H](C)C(=O)C[C@H](C(C)C)C(=O)C1
REMARK SMILES IDX 8 1 9 2 6 3 7 4 5 5 4 6 3 7 2 8 1 9 10 11 11 12 15 13 16 14
REMARK SMILES IDX 17 15 12 17 13 18 14 19
REMARK H PARENT
REMARK Flexibility Score: 70.00
ROOT
ATOM      1  C   UNL     1      47.166  57.899  28.494  1.00  0.00     0.136 C 
ATOM      2  O   UNL     1      48.350  58.102  28.261  1.00  0.00    -0.299 OA
ENDROOT
BRANCH   1   3
ATOM      3  C   UNL     1      46.794  56.809  29.481  1.00  0.00     0.053 C 
ATOM      4  C   UNL     1      47.596  55.528  29.217  1.00  0.00     0.016 C 
BRANCH   3   5
ATOM      5  C   UNL     1      46.968  57.283  30.936  1.00  0.00     0.015 C 
BRANCH   5   6
ATOM      6  C   UNL     1      45.622  57.662  31.581  1.00  0.00     0.028 C 
BRANCH   6   7
ATOM      7  C   UNL     1      45.605  59.111  31.992  1.00  0.00    -0.028 C 
ATOM      8  C   UNL     1      44.760  60.042  31.490  1.00  0.00    -0.070 CG0
ATOM      9  C   UNL     1      44.901  61.462  31.977  1.00  0.00     0.039 C 
ATOM     10  G   UNL     1      43.678  59.717  30.471  1.00  0.00     0.000 G0
ENDBRANCH   6   7
ENDBRANCH   5   6
ENDBRANCH   3   5
ENDBRANCH   1   3
BRANCH   1  11
ATOM     11  C   UNL     1      46.134  58.768  27.809  1.00  0.00     0.087 C 
BRANCH  11  12
ATOM     12  C   UNL     1      44.699  58.513  28.349  1.00  0.00     0.066 C 
BRANCH  12  13
ATOM     13  C   UNL     1      44.192  59.770  29.038  1.00  0.00     0.140 C 
ATOM     14  O   UNL     1      44.123  60.816  28.406  1.00  0.00    -0.299 OA
BRANCH  13  15
ATOM     15  C   UNL     1      43.665  59.722  30.451  1.00  0.00     0.106 CG0
ATOM     16  G   UNL     1      44.739  60.048  31.477  1.00  0.00     0.000 G0
ENDBRANCH  13  15
ENDBRANCH  12  13
BRANCH  12  17
ATOM     17  C   UNL     1      43.706  58.065  27.225  1.00  0.00    -0.006 C 
ATOM     18  C   UNL     1      42.242  58.340  27.625  1.00  0.00     0.008 C 
ATOM     19  C   UNL     1      43.846  56.567  26.887  1.00  0.00     0.008 C 
ENDBRANCH  12  17
ENDBRANCH  11  12
ENDBRANCH   1  11
TORSDOF 1
ENDMDL
MODEL 4
REMARK VINA RESULT:    -3.709      2.246      4.572
REMARK INTER + INTRA:          -5.837
REMARK INTER:                  -5.551
REMARK INTRA:                  -0.287
REMARK UNBOUND:                -0.177
REMARK SMILES CC1=CCC[C@H](C)C(=O)C[C@H](C(C)C)C(=O)C1
REMARK SMILES IDX 8 1 9 2 6 3 7 4 5 5 4 6 3 7 2 8 1 9 10 11 11 12 15 13 16 14
REMARK SMILES IDX 17 15 12 17 13 18 14 19
REMARK H PARENT
REMARK Flexibility Score: 70.00
ROOT
ATOM      1  C   UNL     1      42.884  55.191  28.998  1.00  0.00     0.136 C 
ATOM      2  O   UNL     1      42.035  54.384  28.643  1.00  0.00    -0.299 OA
ENDROOT
BRANCH   1   3
ATOM      3  C   UNL     1      44.206  55.233  28.255  1.00  0.00     0.053 C 
ATOM      4  C   UNL     1      44.516  53.880  27.602  1.00  0.00     0.016 C 
BRANCH   3   5
ATOM      5  C   UNL     1      44.232  56.370  27.216  1.00  0.00     0.015 C 
BRANCH   5   6
ATOM      6  C   UNL     1      45.307  57.423  27.544  1.00  0.00     0.028 C 
BRANCH   6   7
ATOM      7  C   UNL     1      44.703  58.798  27.665  1.00  0.00    -0.028 C 
ATOM      8  C   UNL     1      44.515  59.455  28.834  1.00  0.00    -0.070 CG0
ATOM      9  C   UNL     1      43.857  60.809  28.787  1.00  0.00     0.039 C 
ATOM     10  G   UNL     1      44.946  58.891  30.180  1.00  0.00     0.000 G0
ENDBRANCH   6   7
ENDBRANCH   5   6
ENDBRANCH   3   5
ENDBRANCH   1   3
BRANCH   1  11
ATOM     11  C   UNL     1      42.559  56.128  30.141  1.00  0.00     0.087 C 
BRANCH  11  12
ATOM     12  C   UNL     1      43.835  56.618  30.881  1.00  0.00     0.066 C 
BRANCH  12  13
ATOM     13  C   UNL     1      43.857  58.138  30.889  1.00  0.00     0.140 C 
ATOM     14  O   UNL     1      43.026  58.748  31.550  1.00  0.00    -0.299 OA
BRANCH  13  15
ATOM     15  C   UNL     1      44.956  58.902  30.192  1.00  0.00     0.106 CG0
ATOM     16  G   UNL     1      44.513  59.438  28.839  1.00  0.00     0.000 G0
ENDBRANCH  13  15
ENDBRANCH  12  13
BRANCH  12  17
ATOM     17  C   UNL     1      43.933  56.059  32.341  1.00  0.00    -0.006 C 
ATOM     18  C   UNL     1      45.402  55.920  32.791  1.00  0.00     0.008 C 
ATOM     19  C   UNL     1      43.245  54.688  32.488  1.00  0.00     0.008 C 
ENDBRANCH  12  17
ENDBRANCH  11  12
ENDBRANCH   1  11
TORSDOF 1
ENDMDL
MODEL 5
REMARK VINA RESULT:    -3.675      2.084      3.738
REMARK INTER + INTRA:          -5.785
REMARK INTER:                  -5.441
REMARK INTRA:                  -0.344
REMARK UNBOUND:                -0.177
REMARK SMILES CC1=CCC[C@H](C)C(=O)C[C@H](C(C)C)C(=O)C1
REMARK SMILES IDX 8 1 9 2 6 3 7 4 5 5 4 6 3 7 2 8 1 9 10 11 11 12 15 13 16 14
REMARK SMILES IDX 17 15 12 17 13 18 14 19
REMARK H PARENT
REMARK Flexibility Score: 70.00
ROOT
ATOM      1  C   UNL     1      46.152  56.771  28.464  1.00  0.00     0.136 C 
ATOM      2  O   UNL     1      46.856  57.496  27.774  1.00  0.00    -0.299 OA
ENDROOT
BRANCH   1   3
ATOM      3  C   UNL     1      46.661  56.345  29.829  1.00  0.00     0.053 C 
ATOM      4  C   UNL     1      47.856  55.392  29.700  1.00  0.00     0.016 C 
BRANCH   3   5
ATOM      5  C   UNL     1      47.012  57.562  30.705  1.00  0.00     0.015 C 
BRANCH   5   6
ATOM      6  C   UNL     1      45.754  58.231  31.290  1.00  0.00     0.028 C 
BRANCH   6   7
ATOM      7  C   UNL     1      45.364  59.448  30.492  1.00  0.00    -0.028 C 
ATOM      8  C   UNL     1      44.142  59.646  29.943  1.00  0.00    -0.070 CG0
ATOM      9  C   UNL     1      43.925  60.900  29.136  1.00  0.00     0.039 C 
ATOM     10  G   UNL     1      42.988  58.670  30.113  1.00  0.00     0.000 G0
ENDBRANCH   6   7
ENDBRANCH   5   6
ENDBRANCH   3   5
ENDBRANCH   1   3
BRANCH   1  11
ATOM     11  C   UNL     1      44.795  56.362  27.934  1.00  0.00     0.087 C 
BRANCH  11  12
ATOM     12  C   UNL     1      43.708  56.351  29.045  1.00  0.00     0.066 C 
BRANCH  12  13
ATOM     13  C   UNL     1      42.918  57.649  28.985  1.00  0.00     0.140 C 
ATOM     14  O   UNL     1      42.143  57.839  28.056  1.00  0.00    -0.299 OA
BRANCH  13  15
ATOM     15  C   UNL     1      42.986  58.652  30.109  1.00  0.00     0.106 CG0
ATOM     16  G   UNL     1      44.148  59.620  29.947  1.00  0.00     0.000 G0
ENDBRANCH  13  15
ENDBRANCH  12  13
BRANCH  12  17
ATOM     17  C   UNL     1      42.750  55.119  28.935  1.00  0.00    -0.006 C 
ATOM     18  C   UNL     1      41.963  54.899  30.243  1.00  0.00     0.008 C 
ATOM     19  C   UNL     1      43.507  53.819  28.596  1.00  0.00     0.008 C 
ENDBRANCH  12  17
ENDBRANCH  11  12
ENDBRANCH   1  11
TORSDOF 1
ENDMDL
MODEL 6
REMARK VINA RESULT:    -3.636      1.965      4.195
REMARK INTER + INTRA:          -5.726
REMARK INTER:                  -5.273
REMARK INTRA:                  -0.454
REMARK UNBOUND:                -0.177
REMARK SMILES CC1=CCC[C@H](C)C(=O)C[C@H](C(C)C)C(=O)C1
REMARK SMILES IDX 8 1 9 2 6 3 7 4 5 5 4 6 3 7 2 8 1 9 10 11 11 12 15 13 16 14
REMARK SMILES IDX 17 15 12 17 13 18 14 19
REMARK H PARENT
REMARK Flexibility Score: 70.00
ROOT
ATOM      1  C   UNL     1      45.052  55.677  29.533  1.00  0.00     0.136 C 
ATOM      2  O   UNL     1      44.817  54.670  28.881  1.00  0.00    -0.299 OA
ENDROOT
BRANCH   1   3
ATOM      3  C   UNL     1      46.163  56.602  29.073  1.00  0.00     0.053 C 
ATOM      4  C   UNL     1      47.506  55.862  29.010  1.00  0.00     0.016 C 
BRANCH   3   5
ATOM      5  C   UNL     1      45.827  57.259  27.722  1.00  0.00     0.015 C 
BRANCH   5   6
ATOM      6  C   UNL     1      44.425  57.898  27.727  1.00  0.00     0.028 C 
BRANCH   6   7
ATOM      7  C   UNL     1      44.459  59.280  28.325  1.00  0.00    -0.028 C 
ATOM      8  C   UNL     1      43.790  59.651  29.443  1.00  0.00    -0.070 CG0
ATOM      9  C   UNL     1      43.895  61.087  29.887  1.00  0.00     0.039 C 
ATOM     10  G   UNL     1      42.952  58.684  30.266  1.00  0.00     0.000 G0
ENDBRANCH   6   7
ENDBRANCH   5   6
ENDBRANCH   3   5
ENDBRANCH   1   3
BRANCH   1  11
ATOM     11  C   UNL     1      44.199  55.967  30.750  1.00  0.00     0.087 C 
BRANCH  11  12
ATOM     12  C   UNL     1      44.713  57.197  31.549  1.00  0.00     0.066 C 
BRANCH  12  13
ATOM     13  C   UNL     1      43.638  58.271  31.562  1.00  0.00     0.140 C 
ATOM     14  O   UNL     1      43.397  58.869  32.603  1.00  0.00    -0.299 OA
BRANCH  13  15
ATOM     15  C   UNL     1      42.945  58.692  30.289  1.00  0.00     0.106 CG0
ATOM     16  G   UNL     1      43.790  59.652  29.465  1.00  0.00     0.000 G0
ENDBRANCH  13  15
ENDBRANCH  12  13
BRANCH  12  17
ATOM     17  C   UNL     1      45.138  56.828  33.010  1.00  0.00    -0.006 C 
ATOM     18  C   UNL     1      46.668  56.915  33.189  1.00  0.00     0.008 C 
ATOM     19  C   UNL     1      44.679  55.412  33.411  1.00  0.00     0.008 C 
ENDBRANCH  12  17
ENDBRANCH  11  12
ENDBRANCH   1  11
TORSDOF 1
ENDMDL
MODEL 7
REMARK VINA RESULT:    -3.609      1.791      2.605
REMARK INTER + INTRA:          -5.685
REMARK INTER:                  -5.254
REMARK INTRA:                  -0.431
REMARK UNBOUND:                -0.177
REMARK SMILES CC1=CCC[C@H](C)C(=O)C[C@H](C(C)C)C(=O)C1
REMARK SMILES IDX 8 1 9 2 6 3 7 4 5 5 4 6 3 7 2 8 1 9 10 11 11 12 15 13 16 14
REMARK SMILES IDX 17 15 12 17 13 18 14 19
REMARK H PARENT
REMARK Flexibility Score: 70.00
ROOT
ATOM      1  C   UNL     1      45.764  56.204  29.675  1.00  0.00     0.136 C 
ATOM      2  O   UNL     1      46.766  55.598  30.028  1.00  0.00    -0.299 OA
ENDROOT
BRANCH   1   3
ATOM      3  C   UNL     1      44.594  55.416  29.117  1.00  0.00     0.053 C 
ATOM      4  C   UNL     1      45.026  54.561  27.919  1.00  0.00     0.016 C 
BRANCH   3   5
ATOM      5  C   UNL     1      43.926  54.553  30.204  1.00  0.00     0.015 C 
BRANCH   5   6
ATOM      6  C   UNL     1      42.768  55.295  30.896  1.00  0.00     0.028 C 
BRANCH   6   7
ATOM      7  C   UNL     1      43.179  55.794  32.257  1.00  0.00    -0.028 C 
ATOM      8  C   UNL     1      43.168  57.095  32.634  1.00  0.00    -0.070 CG0
ATOM      9  C   UNL     1      43.651  57.434  34.021  1.00  0.00     0.039 C 
ATOM     10  G   UNL     1      42.686  58.217  31.727  1.00  0.00     0.000 G0
ENDBRANCH   6   7
ENDBRANCH   5   6
ENDBRANCH   3   5
ENDBRANCH   1   3
BRANCH   1  11
ATOM     11  C   UNL     1      45.729  57.708  29.844  1.00  0.00     0.087 C 
BRANCH  11  12
ATOM     12  C   UNL     1      44.301  58.289  29.652  1.00  0.00     0.066 C 
BRANCH  12  13
ATOM     13  C   UNL     1      43.816  58.872  30.970  1.00  0.00     0.140 C 
ATOM     14  O   UNL     1      44.285  59.930  31.368  1.00  0.00    -0.299 OA
BRANCH  13  15
ATOM     15  C   UNL     1      42.685  58.229  31.735  1.00  0.00     0.106 CG0
ATOM     16  G   UNL     1      43.166  57.093  32.625  1.00  0.00     0.000 G0
ENDBRANCH  13  15
ENDBRANCH  12  13
BRANCH  12  17
ATOM     17  C   UNL     1      44.239  59.366  28.519  1.00  0.00    -0.006 C 
ATOM     18  C   UNL     1      43.000  59.168  27.621  1.00  0.00     0.008 C 
ATOM     19  C   UNL     1      45.496  59.348  27.627  1.00  0.00     0.008 C 
ENDBRANCH  12  17
ENDBRANCH  11  12
ENDBRANCH   1  11
TORSDOF 1
ENDMDL
MODEL 8
REMARK VINA RESULT:    -3.589     16.669     18.603
REMARK INTER + INTRA:          -5.654
REMARK INTER:                  -5.224
REMARK INTRA:                  -0.430
REMARK UNBOUND:                -0.177
REMARK SMILES CC1=CCC[C@H](C)C(=O)C[C@H](C(C)C)C(=O)C1
REMARK SMILES IDX 8 1 9 2 6 3 7 4 5 5 4 6 3 7 2 8 1 9 10 11 11 12 15 13 16 14
REMARK SMILES IDX 17 15 12 17 13 18 14 19
REMARK H PARENT
REMARK Flexibility Score: 70.00
ROOT
ATOM      1  C   UNL     1      56.516  68.296  33.373  1.00  0.00     0.136 C 
ATOM      2  O   UNL     1      55.552  67.559  33.526  1.00  0.00    -0.299 OA
ENDROOT
BRANCH   1   3
ATOM      3  C   UNL     1      56.528  69.638  34.080  1.00  0.00     0.053 C 
ATOM      4  C   UNL     1      55.181  70.357  33.923  1.00  0.00     0.016 C 
BRANCH   3   5
ATOM      5  C   UNL     1      56.910  69.490  35.564  1.00  0.00     0.015 C 
BRANCH   5   6
ATOM      6  C   UNL     1      58.317  70.046  35.854  1.00  0.00     0.028 C 
BRANCH   6   7
ATOM      7  C   UNL     1      59.279  68.938  36.195  1.00  0.00    -0.028 C 
ATOM      8  C   UNL     1      60.304  68.540  35.405  1.00  0.00    -0.070 CG0
ATOM      9  C   UNL     1      61.152  67.385  35.872  1.00  0.00     0.039 C 
ATOM     10  G   UNL     1      60.638  69.210  34.080  1.00  0.00     0.000 G0
ENDBRANCH   6   7
ENDBRANCH   5   6
ENDBRANCH   3   5
ENDBRANCH   1   3
BRANCH   1  11
ATOM     11  C   UNL     1      57.663  67.817  32.510  1.00  0.00     0.087 C 
BRANCH  11  12
ATOM     12  C   UNL     1      58.731  68.923  32.283  1.00  0.00     0.066 C 
BRANCH  12  13
ATOM     13  C   UNL     1      60.052  68.476  32.888  1.00  0.00     0.140 C 
ATOM     14  O   UNL     1      60.686  67.576  32.351  1.00  0.00    -0.299 OA
BRANCH  13  15
ATOM     15  C   UNL     1      60.651  69.201  34.068  1.00  0.00     0.106 CG0
ATOM     16  G   UNL     1      60.298  68.535  35.390  1.00  0.00     0.000 G0
ENDBRANCH  13  15
ENDBRANCH  12  13
BRANCH  12  17
ATOM     17  C   UNL     1      58.912  69.280  30.770  1.00  0.00    -0.006 C 
ATOM     18  C   UNL     1      58.911  70.806  30.548  1.00  0.00     0.008 C 
ATOM     19  C   UNL     1      57.811  68.658  29.888  1.00  0.00     0.008 C 
ENDBRANCH  12  17
ENDBRANCH  11  12
ENDBRANCH   1  11
TORSDOF 1
ENDMDL
MODEL 9
REMARK VINA RESULT:    -3.575     17.722     19.670
REMARK INTER + INTRA:          -5.633
REMARK INTER:                  -5.189
REMARK INTRA:                  -0.443
REMARK UNBOUND:                -0.177
REMARK SMILES CC1=CCC[C@H](C)C(=O)C[C@H](C(C)C)C(=O)C1
REMARK SMILES IDX 8 1 9 2 6 3 7 4 5 5 4 6 3 7 2 8 1 9 10 11 11 12 15 13 16 14
REMARK SMILES IDX 17 15 12 17 13 18 14 19
REMARK H PARENT
REMARK Flexibility Score: 70.00
ROOT
ATOM      1  C   UNL     1      58.406  67.672  33.657  1.00  0.00     0.136 C 
ATOM      2  O   UNL     1      57.467  66.918  33.443  1.00  0.00    -0.299 OA
ENDROOT
BRANCH   1   3
ATOM      3  C   UNL     1      59.807  67.212  33.299  1.00  0.00     0.053 C 
ATOM      4  C   UNL     1      60.061  65.781  33.789  1.00  0.00     0.016 C 
BRANCH   3   5
ATOM      5  C   UNL     1      60.072  67.338  31.787  1.00  0.00     0.015 C 
BRANCH   5   6
ATOM      6  C   UNL     1      61.011  68.515  31.464  1.00  0.00     0.028 C 
BRANCH   6   7
ATOM      7  C   UNL     1      60.248  69.674  30.878  1.00  0.00    -0.028 C 
ATOM      8  C   UNL     1      60.053  70.859  31.503  1.00  0.00    -0.070 CG0
ATOM      9  C   UNL     1      59.228  71.905  30.796  1.00  0.00     0.039 C 
ATOM     10  G   UNL     1      60.632  71.180  32.872  1.00  0.00     0.000 G0
ENDBRANCH   6   7
ENDBRANCH   5   6
ENDBRANCH   3   5
ENDBRANCH   1   3
BRANCH   1  11
ATOM     11  C   UNL     1      58.118  69.039  34.239  1.00  0.00     0.087 C 
BRANCH  11  12
ATOM     12  C   UNL     1      59.409  69.753  34.729  1.00  0.00     0.066 C 
BRANCH  12  13
ATOM     13  C   UNL     1      59.580  71.057  33.966  1.00  0.00     0.140 C 
ATOM     14  O   UNL     1      58.933  72.040  34.302  1.00  0.00    -0.299 OA
BRANCH  13  15
ATOM     15  C   UNL     1      60.619  71.189  32.879  1.00  0.00     0.106 CG0
ATOM     16  G   UNL     1      60.057  70.861  31.504  1.00  0.00     0.000 G0
ENDBRANCH  13  15
ENDBRANCH  12  13
BRANCH  12  17
ATOM     17  C   UNL     1      59.399  70.018  36.272  1.00  0.00    -0.006 C 
ATOM     18  C   UNL     1      60.553  69.276  36.977  1.00  0.00     0.008 C 
ATOM     19  C   UNL     1      58.071  69.590  36.929  1.00  0.00     0.008 C 
ENDBRANCH  12  17
ENDBRANCH  11  12
ENDBRANCH   1  11
TORSDOF 1
ENDMDL
