MODEL 1
REMARK VINA RESULT:    -5.376      0.000      0.000
REMARK INTER + INTRA:          -6.237
REMARK INTER:                  -6.162
REMARK INTRA:                  -0.075
REMARK UNBOUND:                -0.075
REMARK SMILES COc1cc(C(=O)[O-])ccc1O
REMARK SMILES IDX 5 1 9 2 4 3 10 4 3 5 11 6 6 7 7 8 8 9 2 10 1 11 12 12
REMARK H PARENT 12 13
REMARK Flexibility Score: inf
ROOT
ATOM      1  C   UNL     1     -16.038 -17.605  30.425  1.00  0.00     0.001 A 
ATOM      2  C   UNL     1     -17.065 -18.294  29.762  1.00  0.00     0.014 A 
ATOM      3  C   UNL     1     -14.872 -17.267  29.713  1.00  0.00     0.060 A 
ATOM      4  C   UNL     1     -16.933 -18.639  28.416  1.00  0.00     0.051 A 
ATOM      5  C   UNL     1     -14.732 -17.612  28.353  1.00  0.00     0.161 A 
ATOM      6  C   UNL     1     -15.775 -18.302  27.709  1.00  0.00     0.157 A 
ENDROOT
BRANCH   1   7
ATOM      7  C   UNL     1     -16.184 -17.242  31.852  1.00  0.00     0.072 C 
ATOM      8  O   UNL     1     -17.118 -16.487  32.229  1.00  0.00    -0.545 OA
ATOM      9  O   UNL     1     -15.288 -17.730  32.797  1.00  0.00    -0.545 OA
ENDBRANCH   1   7
BRANCH   5  10
ATOM     10  O   UNL     1     -13.581 -17.287  27.618  1.00  0.00    -0.493 OA
ATOM     11  C   UNL     1     -12.632 -16.296  27.997  1.00  0.00     0.278 C 
ENDBRANCH   5  10
BRANCH   6  12
ATOM     12  O   UNL     1     -15.679 -18.663  26.366  1.00  0.00    -0.504 OA
ATOM     13  H   UNL     1     -15.746 -19.627  26.060  1.00  0.00     0.293 HD
ENDBRANCH   6  12
TORSDOF 3
ENDMDL
MODEL 2
REMARK VINA RESULT:    -4.891      1.596      4.526
REMARK INTER + INTRA:          -5.681
REMARK INTER:                  -5.600
REMARK INTRA:                  -0.081
REMARK UNBOUND:                -0.075
REMARK SMILES COc1cc(C(=O)[O-])ccc1O
REMARK SMILES IDX 5 1 9 2 4 3 10 4 3 5 11 6 6 7 7 8 8 9 2 10 1 11 12 12
REMARK H PARENT 12 13
REMARK Flexibility Score: inf
ROOT
ATOM      1  C   UNL     1     -13.938 -16.995  28.157  1.00  0.00     0.001 A 
ATOM      2  C   UNL     1     -13.944 -16.686  29.526  1.00  0.00     0.014 A 
ATOM      3  C   UNL     1     -14.993 -17.759  27.624  1.00  0.00     0.060 A 
ATOM      4  C   UNL     1     -14.981 -17.130  30.348  1.00  0.00     0.051 A 
ATOM      5  C   UNL     1     -16.044 -18.210  28.449  1.00  0.00     0.161 A 
ATOM      6  C   UNL     1     -16.029 -17.888  29.818  1.00  0.00     0.157 A 
ENDROOT
BRANCH   1   7
ATOM      7  C   UNL     1     -12.836 -16.521  27.290  1.00  0.00     0.072 C 
ATOM      8  O   UNL     1     -11.974 -15.716  27.731  1.00  0.00    -0.545 OA
ATOM      9  O   UNL     1     -12.738 -16.960  25.974  1.00  0.00    -0.545 OA
ENDBRANCH   1   7
BRANCH   5  10
ATOM     10  O   UNL     1     -17.109 -18.974  27.946  1.00  0.00    -0.493 OA
ATOM     11  C   UNL     1     -17.102 -19.645  26.691  1.00  0.00     0.278 C 
ENDBRANCH   5  10
BRANCH   6  12
ATOM     12  O   UNL     1     -17.047 -18.314  30.671  1.00  0.00    -0.504 OA
ATOM     13  H   UNL     1     -17.974 -18.545  30.332  1.00  0.00     0.293 HD
ENDBRANCH   6  12
TORSDOF 3
ENDMDL
MODEL 3
REMARK VINA RESULT:    -4.650      8.751     10.314
REMARK INTER + INTRA:          -5.405
REMARK INTER:                  -5.327
REMARK INTRA:                  -0.078
REMARK UNBOUND:                -0.075
REMARK SMILES COc1cc(C(=O)[O-])ccc1O
REMARK SMILES IDX 5 1 9 2 4 3 10 4 3 5 11 6 6 7 7 8 8 9 2 10 1 11 12 12
REMARK H PARENT 12 13
REMARK Flexibility Score: inf
ROOT
ATOM      1  C   UNL     1      -6.865 -20.307  33.164  1.00  0.00     0.001 A 
ATOM      2  C   UNL     1      -7.951 -20.337  32.274  1.00  0.00     0.014 A 
ATOM      3  C   UNL     1      -7.116 -20.298  34.548  1.00  0.00     0.060 A 
ATOM      4  C   UNL     1      -9.260 -20.358  32.757  1.00  0.00     0.051 A 
ATOM      5  C   UNL     1      -8.436 -20.319  35.042  1.00  0.00     0.161 A 
ATOM      6  C   UNL     1      -9.509 -20.350  34.132  1.00  0.00     0.157 A 
ENDROOT
BRANCH   1   7
ATOM      7  C   UNL     1      -5.478 -20.285  32.647  1.00  0.00     0.072 C 
ATOM      8  O   UNL     1      -5.192 -19.637  31.605  1.00  0.00    -0.545 OA
ATOM      9  O   UNL     1      -4.471 -20.981  33.306  1.00  0.00    -0.545 OA
ENDBRANCH   1   7
BRANCH   5  10
ATOM     10  O   UNL     1      -8.717 -20.311  36.417  1.00  0.00    -0.493 OA
ATOM     11  C   UNL     1      -7.798 -19.909  37.428  1.00  0.00     0.278 C 
ENDBRANCH   5  10
BRANCH   6  12
ATOM     12  O   UNL     1     -10.831 -20.371  34.576  1.00  0.00    -0.504 OA
ATOM     13  H   UNL     1     -11.535 -19.743  34.207  1.00  0.00     0.293 HD
ENDBRANCH   6  12
TORSDOF 3
ENDMDL
MODEL 4
REMARK VINA RESULT:    -4.588      9.381     10.363
REMARK INTER + INTRA:          -5.334
REMARK INTER:                  -5.247
REMARK INTRA:                  -0.087
REMARK UNBOUND:                -0.075
REMARK SMILES COc1cc(C(=O)[O-])ccc1O
REMARK SMILES IDX 5 1 9 2 4 3 10 4 3 5 11 6 6 7 7 8 8 9 2 10 1 11 12 12
REMARK H PARENT 12 13
REMARK Flexibility Score: inf
ROOT
ATOM      1  C   UNL     1      -7.297 -21.375  34.398  1.00  0.00     0.001 A 
ATOM      2  C   UNL     1      -8.434 -20.952  33.692  1.00  0.00     0.014 A 
ATOM      3  C   UNL     1      -6.022 -21.067  33.888  1.00  0.00     0.060 A 
ATOM      4  C   UNL     1      -8.303 -20.235  32.502  1.00  0.00     0.051 A 
ATOM      5  C   UNL     1      -5.883 -20.343  32.686  1.00  0.00     0.161 A 
ATOM      6  C   UNL     1      -7.036 -19.929  31.996  1.00  0.00     0.157 A 
ENDROOT
BRANCH   1   7
ATOM      7  C   UNL     1      -7.442 -22.134  35.660  1.00  0.00     0.072 C 
ATOM      8  O   UNL     1      -7.555 -23.388  35.645  1.00  0.00    -0.545 OA
ATOM      9  O   UNL     1      -7.457 -21.471  36.882  1.00  0.00    -0.545 OA
ENDBRANCH   1   7
BRANCH   5  10
ATOM     10  O   UNL     1      -4.624 -20.022  32.153  1.00  0.00    -0.493 OA
ATOM     11  C   UNL     1      -3.630 -20.975  31.794  1.00  0.00     0.278 C 
ENDBRANCH   5  10
BRANCH   6  12
ATOM     12  O   UNL     1      -6.945 -19.212  30.803  1.00  0.00    -0.504 OA
ATOM     13  H   UNL     1      -6.058 -18.899  30.427  1.00  0.00     0.293 HD
ENDBRANCH   6  12
TORSDOF 3
ENDMDL
MODEL 5
REMARK VINA RESULT:    -4.567      9.367     10.947
REMARK INTER + INTRA:          -5.310
REMARK INTER:                  -5.235
REMARK INTRA:                  -0.075
REMARK UNBOUND:                -0.075
REMARK SMILES COc1cc(C(=O)[O-])ccc1O
REMARK SMILES IDX 5 1 9 2 4 3 10 4 3 5 11 6 6 7 7 8 8 9 2 10 1 11 12 12
REMARK H PARENT 12 13
REMARK Flexibility Score: inf
ROOT
ATOM      1  C   UNL     1      -5.914 -20.496  32.880  1.00  0.00     0.001 A 
ATOM      2  C   UNL     1      -6.878 -20.056  31.959  1.00  0.00     0.014 A 
ATOM      3  C   UNL     1      -6.338 -20.999  34.124  1.00  0.00     0.060 A 
ATOM      4  C   UNL     1      -8.236 -20.117  32.272  1.00  0.00     0.051 A 
ATOM      5  C   UNL     1      -7.710 -21.063  34.446  1.00  0.00     0.161 A 
ATOM      6  C   UNL     1      -8.657 -20.617  33.507  1.00  0.00     0.157 A 
ENDROOT
BRANCH   1   7
ATOM      7  C   UNL     1      -4.475 -20.430  32.543  1.00  0.00     0.072 C 
ATOM      8  O   UNL     1      -3.993 -21.167  31.642  1.00  0.00    -0.545 OA
ATOM      9  O   UNL     1      -3.634 -19.553  33.218  1.00  0.00    -0.545 OA
ENDBRANCH   1   7
BRANCH   5  10
ATOM     10  O   UNL     1      -8.162 -21.559  35.679  1.00  0.00    -0.493 OA
ATOM     11  C   UNL     1      -7.424 -22.444  36.515  1.00  0.00     0.278 C 
ENDBRANCH   5  10
BRANCH   6  12
ATOM     12  O   UNL     1     -10.023 -20.661  33.784  1.00  0.00    -0.504 OA
ATOM     13  H   UNL     1     -10.452 -20.067  34.484  1.00  0.00     0.293 HD
ENDBRANCH   6  12
TORSDOF 3
ENDMDL
MODEL 6
REMARK VINA RESULT:    -4.501      9.403     10.423
REMARK INTER + INTRA:          -5.234
REMARK INTER:                  -5.133
REMARK INTRA:                  -0.101
REMARK UNBOUND:                -0.075
REMARK SMILES COc1cc(C(=O)[O-])ccc1O
REMARK SMILES IDX 5 1 9 2 4 3 10 4 3 5 11 6 6 7 7 8 8 9 2 10 1 11 12 12
REMARK H PARENT 12 13
REMARK Flexibility Score: inf
ROOT
ATOM      1  C   UNL     1      -6.406 -21.527  34.431  1.00  0.00     0.001 A 
ATOM      2  C   UNL     1      -7.729 -21.634  34.887  1.00  0.00     0.014 A 
ATOM      3  C   UNL     1      -6.146 -20.805  33.251  1.00  0.00     0.060 A 
ATOM      4  C   UNL     1      -8.772 -21.034  34.181  1.00  0.00     0.051 A 
ATOM      5  C   UNL     1      -7.196 -20.196  32.534  1.00  0.00     0.161 A 
ATOM      6  C   UNL     1      -8.514 -20.317  33.010  1.00  0.00     0.157 A 
ENDROOT
BRANCH   1   7
ATOM      7  C   UNL     1      -5.303 -22.165  35.184  1.00  0.00     0.072 C 
ATOM      8  O   UNL     1      -4.317 -22.662  34.579  1.00  0.00    -0.545 OA
ATOM      9  O   UNL     1      -5.341 -22.224  36.573  1.00  0.00    -0.545 OA
ENDBRANCH   1   7
BRANCH   5  10
ATOM     10  O   UNL     1      -6.967 -19.470  31.354  1.00  0.00    -0.493 OA
ATOM     11  C   UNL     1      -6.541 -18.112  31.309  1.00  0.00     0.278 C 
ENDBRANCH   5  10
BRANCH   6  12
ATOM     12  O   UNL     1      -9.583 -19.731  32.331  1.00  0.00    -0.504 OA
ATOM     13  H   UNL     1     -10.544 -20.003  32.500  1.00  0.00     0.293 HD
ENDBRANCH   6  12
TORSDOF 3
ENDMDL
MODEL 7
REMARK VINA RESULT:    -4.392      9.929     11.224
REMARK INTER + INTRA:          -5.109
REMARK INTER:                  -5.010
REMARK INTRA:                  -0.099
REMARK UNBOUND:                -0.075
REMARK SMILES COc1cc(C(=O)[O-])ccc1O
REMARK SMILES IDX 5 1 9 2 4 3 10 4 3 5 11 6 6 7 7 8 8 9 2 10 1 11 12 12
REMARK H PARENT 12 13
REMARK Flexibility Score: inf
ROOT
ATOM      1  C   UNL     1      -7.045 -20.613  33.191  1.00  0.00     0.001 A 
ATOM      2  C   UNL     1      -6.673 -19.978  31.996  1.00  0.00     0.014 A 
ATOM      3  C   UNL     1      -6.043 -21.156  34.017  1.00  0.00     0.060 A 
ATOM      4  C   UNL     1      -5.329 -19.887  31.631  1.00  0.00     0.051 A 
ATOM      5  C   UNL     1      -4.683 -21.066  33.654  1.00  0.00     0.161 A 
ATOM      6  C   UNL     1      -4.334 -20.425  32.451  1.00  0.00     0.157 A 
ENDROOT
BRANCH   1   7
ATOM      7  C   UNL     1      -8.472 -20.706  33.574  1.00  0.00     0.072 C 
ATOM      8  O   UNL     1      -9.377 -20.582  32.707  1.00  0.00    -0.545 OA
ATOM      9  O   UNL     1      -8.832 -20.933  34.897  1.00  0.00    -0.545 OA
ENDBRANCH   1   7
BRANCH   5  10
ATOM     10  O   UNL     1      -3.662 -21.598  34.458  1.00  0.00    -0.493 OA
ATOM     11  C   UNL     1      -3.212 -22.947  34.405  1.00  0.00     0.278 C 
ENDBRANCH   5  10
BRANCH   6  12
ATOM     12  O   UNL     1      -3.002 -20.315  32.053  1.00  0.00    -0.504 OA
ATOM     13  H   UNL     1      -2.471 -21.110  31.717  1.00  0.00     0.293 HD
ENDBRANCH   6  12
TORSDOF 3
ENDMDL
MODEL 8
REMARK VINA RESULT:    -4.311     10.017     11.078
REMARK INTER + INTRA:          -5.016
REMARK INTER:                  -4.917
REMARK INTRA:                  -0.099
REMARK UNBOUND:                -0.075
REMARK SMILES COc1cc(C(=O)[O-])ccc1O
REMARK SMILES IDX 5 1 9 2 4 3 10 4 3 5 11 6 6 7 7 8 8 9 2 10 1 11 12 12
REMARK H PARENT 12 13
REMARK Flexibility Score: inf
ROOT
ATOM      1  C   UNL     1      -7.645 -21.093  33.989  1.00  0.00     0.001 A 
ATOM      2  C   UNL     1      -7.490 -22.018  35.034  1.00  0.00     0.014 A 
ATOM      3  C   UNL     1      -6.500 -20.610  33.329  1.00  0.00     0.060 A 
ATOM      4  C   UNL     1      -6.219 -22.451  35.413  1.00  0.00     0.051 A 
ATOM      5  C   UNL     1      -5.213 -21.044  33.707  1.00  0.00     0.161 A 
ATOM      6  C   UNL     1      -5.082 -21.971  34.757  1.00  0.00     0.157 A 
ENDROOT
BRANCH   1   7
ATOM      7  C   UNL     1      -8.995 -20.638  33.590  1.00  0.00     0.072 C 
ATOM      8  O   UNL     1      -9.273 -20.438  32.378  1.00  0.00    -0.545 OA
ATOM      9  O   UNL     1      -9.977 -20.423  34.551  1.00  0.00    -0.545 OA
ENDBRANCH   1   7
BRANCH   5  10
ATOM     10  O   UNL     1      -4.053 -20.579  33.067  1.00  0.00    -0.493 OA
ATOM     11  C   UNL     1      -3.620 -20.994  31.776  1.00  0.00     0.278 C 
ENDBRANCH   5  10
BRANCH   6  12
ATOM     12  O   UNL     1      -3.828 -22.427  35.164  1.00  0.00    -0.504 OA
ATOM     13  H   UNL     1      -3.046 -22.498  34.525  1.00  0.00     0.293 HD
ENDBRANCH   6  12
TORSDOF 3
ENDMDL
MODEL 9
REMARK VINA RESULT:    -4.214      9.854     11.129
REMARK INTER + INTRA:          -4.905
REMARK INTER:                  -4.817
REMARK INTRA:                  -0.088
REMARK UNBOUND:                -0.075
REMARK SMILES COc1cc(C(=O)[O-])ccc1O
REMARK SMILES IDX 5 1 9 2 4 3 10 4 3 5 11 6 6 7 7 8 8 9 2 10 1 11 12 12
REMARK H PARENT 12 13
REMARK Flexibility Score: inf
ROOT
ATOM      1  C   UNL     1      -5.027 -21.126  33.584  1.00  0.00     0.001 A 
ATOM      2  C   UNL     1      -6.171 -21.510  34.300  1.00  0.00     0.014 A 
ATOM      3  C   UNL     1      -5.175 -20.319  32.441  1.00  0.00     0.060 A 
ATOM      4  C   UNL     1      -7.438 -21.098  33.884  1.00  0.00     0.051 A 
ATOM      5  C   UNL     1      -6.452 -19.899  32.016  1.00  0.00     0.161 A 
ATOM      6  C   UNL     1      -7.584 -20.295  32.749  1.00  0.00     0.157 A 
ENDROOT
BRANCH   1   7
ATOM      7  C   UNL     1      -3.686 -21.566  34.030  1.00  0.00     0.072 C 
ATOM      8  O   UNL     1      -3.463 -22.777  34.293  1.00  0.00    -0.545 OA
ATOM      9  O   UNL     1      -2.652 -20.645  34.164  1.00  0.00    -0.545 OA
ENDBRANCH   1   7
BRANCH   5  10
ATOM     10  O   UNL     1      -6.630 -19.093  30.880  1.00  0.00    -0.493 OA
ATOM     11  C   UNL     1      -6.625 -17.670  30.888  1.00  0.00     0.278 C 
ENDBRANCH   5  10
BRANCH   6  12
ATOM     12  O   UNL     1      -8.867 -19.904  32.364  1.00  0.00    -0.504 OA
ATOM     13  H   UNL     1      -9.062 -19.522  31.446  1.00  0.00     0.293 HD
ENDBRANCH   6  12
TORSDOF 3
ENDMDL
