MODEL 1
REMARK VINA RESULT:    -6.043      0.000      0.000
REMARK INTER + INTRA:          -7.829
REMARK INTER:                  -7.456
REMARK INTRA:                  -0.373
REMARK UNBOUND:                -0.373
REMARK SMILES Oc1cc(O)c2cc(O)c(-c3cc(O)c(O)c(O)c3)[o+]c2c1
REMARK SMILES IDX 10 1 20 2 21 3 22 4 2 5 3 6 4 7 6 8 7 9 8 10 11 11 12 12
REMARK SMILES IDX 13 13 19 14 15 15 17 16 14 17 16 19 18 21 9 23 1 25 5 27
REMARK H PARENT 14 18 16 20 18 22 9 24 1 26 5 28
REMARK Flexibility Score: inf
ROOT
ATOM      1  C   UNL     1      -0.750 -27.049   0.042  1.00  0.00     0.402 A 
ATOM      2  O   UNL     1      -1.066 -27.564  -1.144  1.00  0.00    -0.202 OA
ATOM      3  C   UNL     1      -2.163 -28.283  -1.358  1.00  0.00     0.368 A 
ATOM      4  C   UNL     1      -2.408 -28.784  -2.639  1.00  0.00     0.162 A 
ATOM      5  C   UNL     1      -3.551 -29.544  -2.892  1.00  0.00     0.128 A 
ATOM      6  C   UNL     1      -4.456 -29.808  -1.858  1.00  0.00     0.093 A 
ATOM      7  C   UNL     1      -4.234 -29.316  -0.565  1.00  0.00     0.136 A 
ATOM      8  C   UNL     1      -3.074 -28.540  -0.305  1.00  0.00     0.125 A 
ATOM      9  C   UNL     1      -2.777 -27.996   0.955  1.00  0.00     0.078 A 
ATOM     10  C   UNL     1      -1.617 -27.238   1.135  1.00  0.00     0.223 A 
ENDROOT
BRANCH   1  11
ATOM     11  C   UNL     1       0.506 -26.274   0.156  1.00  0.00     0.091 A 
ATOM     12  C   UNL     1       1.678 -26.853   0.675  1.00  0.00     0.068 A 
ATOM     13  C   UNL     1       2.865 -26.110   0.755  1.00  0.00     0.162 A 
ATOM     14  C   UNL     1       0.547 -24.953  -0.313  1.00  0.00     0.068 A 
ATOM     15  C   UNL     1       2.889 -24.780   0.302  1.00  0.00     0.200 A 
ATOM     16  C   UNL     1       1.730 -24.205  -0.234  1.00  0.00     0.162 A 
BRANCH  13  17
ATOM     17  O   UNL     1       4.020 -26.690   1.277  1.00  0.00    -0.504 OA
ATOM     18  H   UNL     1       4.943 -26.405   0.968  1.00  0.00     0.293 HD
ENDBRANCH  13  17
BRANCH  15  19
ATOM     19  O   UNL     1       4.056 -24.019   0.375  1.00  0.00    -0.502 OA
ATOM     20  H   UNL     1       4.279 -23.307  -0.311  1.00  0.00     0.293 HD
ENDBRANCH  15  19
BRANCH  16  21
ATOM     21  O   UNL     1       1.761 -22.888  -0.690  1.00  0.00    -0.504 OA
ATOM     22  H   UNL     1       1.120 -22.188  -0.335  1.00  0.00     0.293 HD
ENDBRANCH  16  21
ENDBRANCH   1  11
BRANCH  10  23
ATOM     23  O   UNL     1      -1.346 -26.656   2.374  1.00  0.00    -0.500 OA
ATOM     24  H   UNL     1      -0.499 -26.867   2.888  1.00  0.00     0.294 HD
ENDBRANCH  10  23
BRANCH   5  25
ATOM     25  O   UNL     1      -3.777 -30.036  -4.176  1.00  0.00    -0.507 OA
ATOM     26  H   UNL     1      -3.105 -29.899  -4.922  1.00  0.00     0.293 HD
ENDBRANCH   5  25
BRANCH   7  27
ATOM     27  O   UNL     1      -5.184 -29.625   0.412  1.00  0.00    -0.507 OA
ATOM     28  H   UNL     1      -5.778 -28.945   0.864  1.00  0.00     0.293 HD
ENDBRANCH   7  27
TORSDOF 7
ENDMDL
MODEL 2
REMARK VINA RESULT:    -5.930      2.213      7.314
REMARK INTER + INTRA:          -7.690
REMARK INTER:                  -7.315
REMARK INTRA:                  -0.374
REMARK UNBOUND:                -0.373
REMARK SMILES Oc1cc(O)c2cc(O)c(-c3cc(O)c(O)c(O)c3)[o+]c2c1
REMARK SMILES IDX 10 1 20 2 21 3 22 4 2 5 3 6 4 7 6 8 7 9 8 10 11 11 12 12
REMARK SMILES IDX 13 13 19 14 15 15 17 16 14 17 16 19 18 21 9 23 1 25 5 27
REMARK H PARENT 14 18 16 20 18 22 9 24 1 26 5 28
REMARK Flexibility Score: inf
ROOT
ATOM      1  C   UNL     1      -2.065 -29.516  -1.828  1.00  0.00     0.402 A 
ATOM      2  O   UNL     1      -1.520 -28.304  -1.765  1.00  0.00    -0.202 OA
ATOM      3  C   UNL     1      -0.819 -27.872  -0.722  1.00  0.00     0.368 A 
ATOM      4  C   UNL     1      -0.288 -26.580  -0.748  1.00  0.00     0.162 A 
ATOM      5  C   UNL     1       0.450 -26.099   0.335  1.00  0.00     0.128 A 
ATOM      6  C   UNL     1       0.658 -26.913   1.453  1.00  0.00     0.093 A 
ATOM      7  C   UNL     1       0.136 -28.212   1.504  1.00  0.00     0.136 A 
ATOM      8  C   UNL     1      -0.612 -28.706   0.404  1.00  0.00     0.125 A 
ATOM      9  C   UNL     1      -1.161 -29.997   0.361  1.00  0.00     0.078 A 
ATOM     10  C   UNL     1      -1.884 -30.416  -0.760  1.00  0.00     0.223 A 
ENDROOT
BRANCH   1  11
ATOM     11  C   UNL     1      -2.833 -29.876  -3.041  1.00  0.00     0.091 A 
ATOM     12  C   UNL     1      -2.198 -30.408  -4.177  1.00  0.00     0.068 A 
ATOM     13  C   UNL     1      -2.945 -30.764  -5.310  1.00  0.00     0.162 A 
ATOM     14  C   UNL     1      -4.229 -29.738  -3.040  1.00  0.00     0.068 A 
ATOM     15  C   UNL     1      -4.341 -30.602  -5.306  1.00  0.00     0.200 A 
ATOM     16  C   UNL     1      -4.980 -30.091  -4.169  1.00  0.00     0.162 A 
BRANCH  13  17
ATOM     17  O   UNL     1      -2.306 -31.285  -6.434  1.00  0.00    -0.504 OA
ATOM     18  H   UNL     1      -1.363 -31.009  -6.684  1.00  0.00     0.293 HD
ENDBRANCH  13  17
BRANCH  15  19
ATOM     19  O   UNL     1      -5.105 -30.944  -6.422  1.00  0.00    -0.502 OA
ATOM     20  H   UNL     1      -4.711 -30.977  -7.355  1.00  0.00     0.293 HD
ENDBRANCH  15  19
BRANCH  16  21
ATOM     21  O   UNL     1      -6.366 -29.939  -4.169  1.00  0.00    -0.504 OA
ATOM     22  H   UNL     1      -6.818 -29.198  -3.645  1.00  0.00     0.293 HD
ENDBRANCH  16  21
ENDBRANCH   1  11
BRANCH  10  23
ATOM     23  O   UNL     1      -2.387 -31.715  -0.824  1.00  0.00    -0.500 OA
ATOM     24  H   UNL     1      -3.216 -31.939  -1.361  1.00  0.00     0.294 HD
ENDBRANCH  10  23
BRANCH   5  25
ATOM     25  O   UNL     1       0.972 -24.808   0.290  1.00  0.00    -0.507 OA
ATOM     26  H   UNL     1       1.683 -24.501   0.943  1.00  0.00     0.293 HD
ENDBRANCH   5  25
BRANCH   7  27
ATOM     27  O   UNL     1       0.386 -28.961   2.657  1.00  0.00    -0.507 OA
ATOM     28  H   UNL     1       1.308 -29.167   3.015  1.00  0.00     0.293 HD
ENDBRANCH   7  27
TORSDOF 7
ENDMDL
MODEL 3
REMARK VINA RESULT:    -5.896      2.200      7.393
REMARK INTER + INTRA:          -7.647
REMARK INTER:                  -7.263
REMARK INTRA:                  -0.384
REMARK UNBOUND:                -0.373
REMARK SMILES Oc1cc(O)c2cc(O)c(-c3cc(O)c(O)c(O)c3)[o+]c2c1
REMARK SMILES IDX 10 1 20 2 21 3 22 4 2 5 3 6 4 7 6 8 7 9 8 10 11 11 12 12
REMARK SMILES IDX 13 13 19 14 15 15 17 16 14 17 16 19 18 21 9 23 1 25 5 27
REMARK H PARENT 14 18 16 20 18 22 9 24 1 26 5 28
REMARK Flexibility Score: inf
ROOT
ATOM      1  C   UNL     1      -2.050 -29.548  -1.751  1.00  0.00     0.402 A 
ATOM      2  O   UNL     1      -1.511 -28.332  -1.715  1.00  0.00    -0.202 OA
ATOM      3  C   UNL     1      -0.778 -27.887  -0.700  1.00  0.00     0.368 A 
ATOM      4  C   UNL     1      -0.257 -26.592  -0.753  1.00  0.00     0.162 A 
ATOM      5  C   UNL     1       0.514 -26.098   0.301  1.00  0.00     0.128 A 
ATOM      6  C   UNL     1       0.766 -26.903   1.417  1.00  0.00     0.093 A 
ATOM      7  C   UNL     1       0.255 -28.205   1.494  1.00  0.00     0.136 A 
ATOM      8  C   UNL     1      -0.527 -28.712   0.424  1.00  0.00     0.125 A 
ATOM      9  C   UNL     1      -1.068 -30.007   0.409  1.00  0.00     0.078 A 
ATOM     10  C   UNL     1      -1.825 -30.439  -0.684  1.00  0.00     0.223 A 
ENDROOT
BRANCH   1  11
ATOM     11  C   UNL     1      -2.856 -29.923  -2.934  1.00  0.00     0.091 A 
ATOM     12  C   UNL     1      -4.254 -29.784  -2.941  1.00  0.00     0.068 A 
ATOM     13  C   UNL     1      -5.000 -30.123  -4.079  1.00  0.00     0.162 A 
ATOM     14  C   UNL     1      -2.209 -30.373  -4.095  1.00  0.00     0.068 A 
ATOM     15  C   UNL     1      -4.343 -30.594  -5.229  1.00  0.00     0.200 A 
ATOM     16  C   UNL     1      -2.948 -30.715  -5.235  1.00  0.00     0.162 A 
BRANCH  13  17
ATOM     17  O   UNL     1      -6.387 -29.988  -4.074  1.00  0.00    -0.504 OA
ATOM     18  H   UNL     1      -6.862 -29.423  -3.379  1.00  0.00     0.293 HD
ENDBRANCH  13  17
BRANCH  15  19
ATOM     19  O   UNL     1      -5.063 -30.942  -6.373  1.00  0.00    -0.502 OA
ATOM     20  H   UNL     1      -4.974 -30.429  -7.242  1.00  0.00     0.293 HD
ENDBRANCH  15  19
BRANCH  16  21
ATOM     21  O   UNL     1      -2.301 -31.175  -6.382  1.00  0.00    -0.504 OA
ATOM     22  H   UNL     1      -2.245 -32.163  -6.599  1.00  0.00     0.293 HD
ENDBRANCH  16  21
ENDBRANCH   1  11
BRANCH  10  23
ATOM     23  O   UNL     1      -2.321 -31.742  -0.721  1.00  0.00    -0.500 OA
ATOM     24  H   UNL     1      -3.161 -32.007  -0.221  1.00  0.00     0.294 HD
ENDBRANCH  10  23
BRANCH   5  25
ATOM     25  O   UNL     1       1.024 -24.804   0.229  1.00  0.00    -0.507 OA
ATOM     26  H   UNL     1       1.237 -24.366  -0.660  1.00  0.00     0.293 HD
ENDBRANCH   5  25
BRANCH   7  27
ATOM     27  O   UNL     1       0.550 -28.944   2.644  1.00  0.00    -0.507 OA
ATOM     28  H   UNL     1       1.175 -28.637   3.375  1.00  0.00     0.293 HD
ENDBRANCH   7  27
TORSDOF 7
ENDMDL
MODEL 4
REMARK VINA RESULT:    -5.715      2.135      3.486
REMARK INTER + INTRA:          -7.425
REMARK INTER:                  -7.102
REMARK INTRA:                  -0.323
REMARK UNBOUND:                -0.373
REMARK SMILES Oc1cc(O)c2cc(O)c(-c3cc(O)c(O)c(O)c3)[o+]c2c1
REMARK SMILES IDX 10 1 20 2 21 3 22 4 2 5 3 6 4 7 6 8 7 9 8 10 11 11 12 12
REMARK SMILES IDX 13 13 19 14 15 15 17 16 14 17 16 19 18 21 9 23 1 25 5 27
REMARK H PARENT 14 18 16 20 18 22 9 24 1 26 5 28
REMARK Flexibility Score: inf
ROOT
ATOM      1  C   UNL     1      -2.617 -29.010  -1.417  1.00  0.00     0.402 A 
ATOM      2  O   UNL     1      -2.374 -29.233  -2.706  1.00  0.00    -0.202 OA
ATOM      3  C   UNL     1      -3.286 -29.706  -3.549  1.00  0.00     0.368 A 
ATOM      4  C   UNL     1      -2.934 -29.910  -4.886  1.00  0.00     0.162 A 
ATOM      5  C   UNL     1      -3.871 -30.409  -5.794  1.00  0.00     0.128 A 
ATOM      6  C   UNL     1      -5.168 -30.706  -5.363  1.00  0.00     0.093 A 
ATOM      7  C   UNL     1      -5.546 -30.510  -4.028  1.00  0.00     0.136 A 
ATOM      8  C   UNL     1      -4.597 -30.001  -3.103  1.00  0.00     0.125 A 
ATOM      9  C   UNL     1      -4.889 -29.761  -1.751  1.00  0.00     0.078 A 
ATOM     10  C   UNL     1      -3.904 -29.253  -0.900  1.00  0.00     0.223 A 
ENDROOT
BRANCH   1  11
ATOM     11  C   UNL     1      -1.515 -28.490  -0.577  1.00  0.00     0.091 A 
ATOM     12  C   UNL     1      -0.876 -29.303   0.376  1.00  0.00     0.068 A 
ATOM     13  C   UNL     1       0.182 -28.800   1.148  1.00  0.00     0.162 A 
ATOM     14  C   UNL     1      -1.059 -27.178  -0.771  1.00  0.00     0.068 A 
ATOM     15  C   UNL     1       0.617 -27.477   0.960  1.00  0.00     0.200 A 
ATOM     16  C   UNL     1      -0.003 -26.669  -0.001  1.00  0.00     0.162 A 
BRANCH  13  17
ATOM     17  O   UNL     1       0.806 -29.612   2.094  1.00  0.00    -0.504 OA
ATOM     18  H   UNL     1       0.703 -29.444   3.088  1.00  0.00     0.293 HD
ENDBRANCH  13  17
BRANCH  15  19
ATOM     19  O   UNL     1       1.663 -26.952   1.719  1.00  0.00    -0.502 OA
ATOM     20  H   UNL     1       2.497 -26.564   1.292  1.00  0.00     0.293 HD
ENDBRANCH  15  19
BRANCH  16  21
ATOM     21  O   UNL     1       0.437 -25.360  -0.189  1.00  0.00    -0.504 OA
ATOM     22  H   UNL     1       0.588 -24.978  -1.116  1.00  0.00     0.293 HD
ENDBRANCH  16  21
ENDBRANCH   1  11
BRANCH  10  23
ATOM     23  O   UNL     1      -4.207 -28.967   0.431  1.00  0.00    -0.500 OA
ATOM     24  H   UNL     1      -4.481 -28.038   0.727  1.00  0.00     0.294 HD
ENDBRANCH  10  23
BRANCH   5  25
ATOM     25  O   UNL     1      -3.501 -30.606  -7.122  1.00  0.00    -0.507 OA
ATOM     26  H   UNL     1      -2.577 -30.939  -7.371  1.00  0.00     0.293 HD
ENDBRANCH   5  25
BRANCH   7  27
ATOM     27  O   UNL     1      -6.859 -30.834  -3.677  1.00  0.00    -0.507 OA
ATOM     28  H   UNL     1      -7.169 -31.014  -2.732  1.00  0.00     0.293 HD
ENDBRANCH   7  27
TORSDOF 7
ENDMDL
MODEL 5
REMARK VINA RESULT:    -5.695      4.255      9.869
REMARK INTER + INTRA:          -7.400
REMARK INTER:                  -7.036
REMARK INTRA:                  -0.364
REMARK UNBOUND:                -0.373
REMARK SMILES Oc1cc(O)c2cc(O)c(-c3cc(O)c(O)c(O)c3)[o+]c2c1
REMARK SMILES IDX 10 1 20 2 21 3 22 4 2 5 3 6 4 7 6 8 7 9 8 10 11 11 12 12
REMARK SMILES IDX 13 13 19 14 15 15 17 16 14 17 16 19 18 21 9 23 1 25 5 27
REMARK H PARENT 14 18 16 20 18 22 9 24 1 26 5 28
REMARK Flexibility Score: inf
ROOT
ATOM      1  C   UNL     1      -5.320 -30.414  -4.604  1.00  0.00     0.402 A 
ATOM      2  O   UNL     1      -5.612 -30.300  -3.311  1.00  0.00    -0.202 OA
ATOM      3  C   UNL     1      -4.757 -29.830  -2.408  1.00  0.00     0.368 A 
ATOM      4  C   UNL     1      -5.156 -29.751  -1.071  1.00  0.00     0.162 A 
ATOM      5  C   UNL     1      -4.278 -29.264  -0.101  1.00  0.00     0.128 A 
ATOM      6  C   UNL     1      -2.992 -28.854  -0.468  1.00  0.00     0.093 A 
ATOM      7  C   UNL     1      -2.568 -28.923  -1.801  1.00  0.00     0.136 A 
ATOM      8  C   UNL     1      -3.459 -29.415  -2.791  1.00  0.00     0.125 A 
ATOM      9  C   UNL     1      -3.126 -29.507  -4.152  1.00  0.00     0.078 A 
ATOM     10  C   UNL     1      -4.058 -29.998  -5.071  1.00  0.00     0.223 A 
ENDROOT
BRANCH   1  11
ATOM     11  C   UNL     1      -6.354 -30.962  -5.510  1.00  0.00     0.091 A 
ATOM     12  C   UNL     1      -6.306 -32.295  -5.953  1.00  0.00     0.068 A 
ATOM     13  C   UNL     1      -7.307 -32.803  -6.794  1.00  0.00     0.162 A 
ATOM     14  C   UNL     1      -7.435 -30.153  -5.892  1.00  0.00     0.068 A 
ATOM     15  C   UNL     1      -8.375 -31.978  -7.187  1.00  0.00     0.200 A 
ATOM     16  C   UNL     1      -8.438 -30.655  -6.733  1.00  0.00     0.162 A 
BRANCH  13  17
ATOM     17  O   UNL     1      -7.248 -34.125  -7.233  1.00  0.00    -0.504 OA
ATOM     18  H   UNL     1      -7.623 -34.402  -8.133  1.00  0.00     0.293 HD
ENDBRANCH  13  17
BRANCH  15  19
ATOM     19  O   UNL     1      -9.380 -32.459  -8.027  1.00  0.00    -0.502 OA
ATOM     20  H   UNL     1     -10.337 -32.132  -7.964  1.00  0.00     0.293 HD
ENDBRANCH  15  19
BRANCH  16  21
ATOM     21  O   UNL     1      -9.503 -29.844  -7.120  1.00  0.00    -0.504 OA
ATOM     22  H   UNL     1      -9.516 -28.851  -6.914  1.00  0.00     0.293 HD
ENDBRANCH  16  21
ENDBRANCH   1  11
BRANCH  10  23
ATOM     23  O   UNL     1      -3.745 -30.044  -6.429  1.00  0.00    -0.500 OA
ATOM     24  H   UNL     1      -3.258 -30.832  -6.837  1.00  0.00     0.294 HD
ENDBRANCH  10  23
BRANCH   5  25
ATOM     25  O   UNL     1      -4.694 -29.194   1.227  1.00  0.00    -0.507 OA
ATOM     26  H   UNL     1      -5.662 -29.343   1.487  1.00  0.00     0.293 HD
ENDBRANCH   5  25
BRANCH   7  27
ATOM     27  O   UNL     1      -1.268 -28.496  -2.086  1.00  0.00    -0.507 OA
ATOM     28  H   UNL     1      -0.884 -27.608  -1.798  1.00  0.00     0.293 HD
ENDBRANCH   7  27
TORSDOF 7
ENDMDL
MODEL 6
REMARK VINA RESULT:    -5.683      2.132      3.879
REMARK INTER + INTRA:          -7.385
REMARK INTER:                  -7.106
REMARK INTRA:                  -0.280
REMARK UNBOUND:                -0.373
REMARK SMILES Oc1cc(O)c2cc(O)c(-c3cc(O)c(O)c(O)c3)[o+]c2c1
REMARK SMILES IDX 10 1 20 2 21 3 22 4 2 5 3 6 4 7 6 8 7 9 8 10 11 11 12 12
REMARK SMILES IDX 13 13 19 14 15 15 17 16 14 17 16 19 18 21 9 23 1 25 5 27
REMARK H PARENT 14 18 16 20 18 22 9 24 1 26 5 28
REMARK Flexibility Score: inf
ROOT
ATOM      1  C   UNL     1      -2.571 -28.997  -1.429  1.00  0.00     0.402 A 
ATOM      2  O   UNL     1      -2.337 -29.220  -2.720  1.00  0.00    -0.202 OA
ATOM      3  C   UNL     1      -3.252 -29.700  -3.555  1.00  0.00     0.368 A 
ATOM      4  C   UNL     1      -2.909 -29.903  -4.895  1.00  0.00     0.162 A 
ATOM      5  C   UNL     1      -3.850 -30.409  -5.794  1.00  0.00     0.128 A 
ATOM      6  C   UNL     1      -5.141 -30.715  -5.353  1.00  0.00     0.093 A 
ATOM      7  C   UNL     1      -5.510 -30.520  -4.016  1.00  0.00     0.136 A 
ATOM      8  C   UNL     1      -4.557 -30.004  -3.099  1.00  0.00     0.125 A 
ATOM      9  C   UNL     1      -4.841 -29.764  -1.745  1.00  0.00     0.078 A 
ATOM     10  C   UNL     1      -3.852 -29.249  -0.902  1.00  0.00     0.223 A 
ENDROOT
BRANCH   1  11
ATOM     11  C   UNL     1      -1.466 -28.469  -0.598  1.00  0.00     0.091 A 
ATOM     12  C   UNL     1      -1.012 -27.146  -0.738  1.00  0.00     0.068 A 
ATOM     13  C   UNL     1       0.022 -26.657   0.074  1.00  0.00     0.162 A 
ATOM     14  C   UNL     1      -0.896 -29.286   0.390  1.00  0.00     0.068 A 
ATOM     15  C   UNL     1       0.601 -27.491   1.046  1.00  0.00     0.200 A 
ATOM     16  C   UNL     1       0.139 -28.803   1.204  1.00  0.00     0.162 A 
BRANCH  13  17
ATOM     17  O   UNL     1       0.469 -25.346  -0.077  1.00  0.00    -0.504 OA
ATOM     18  H   UNL     1       0.338 -24.837  -0.944  1.00  0.00     0.293 HD
ENDBRANCH  13  17
BRANCH  15  19
ATOM     19  O   UNL     1       1.634 -27.029   1.862  1.00  0.00    -0.502 OA
ATOM     20  H   UNL     1       1.681 -27.252   2.850  1.00  0.00     0.293 HD
ENDBRANCH  15  19
BRANCH  16  21
ATOM     21  O   UNL     1       0.712 -29.624   2.175  1.00  0.00    -0.504 OA
ATOM     22  H   UNL     1       0.388 -30.572   2.326  1.00  0.00     0.293 HD
ENDBRANCH  16  21
ENDBRANCH   1  11
BRANCH  10  23
ATOM     23  O   UNL     1      -4.148 -28.964   0.432  1.00  0.00    -0.500 OA
ATOM     24  H   UNL     1      -4.016 -28.037   0.820  1.00  0.00     0.294 HD
ENDBRANCH  10  23
BRANCH   5  25
ATOM     25  O   UNL     1      -3.489 -30.605  -7.125  1.00  0.00    -0.507 OA
ATOM     26  H   UNL     1      -3.488 -31.528  -7.543  1.00  0.00     0.293 HD
ENDBRANCH   5  25
BRANCH   7  27
ATOM     27  O   UNL     1      -6.818 -30.853  -3.654  1.00  0.00    -0.507 OA
ATOM     28  H   UNL     1      -7.351 -31.604  -4.069  1.00  0.00     0.293 HD
ENDBRANCH   7  27
TORSDOF 7
ENDMDL
MODEL 7
REMARK VINA RESULT:    -5.619      5.917      9.661
REMARK INTER + INTRA:          -7.306
REMARK INTER:                  -6.923
REMARK INTRA:                  -0.383
REMARK UNBOUND:                -0.373
REMARK SMILES Oc1cc(O)c2cc(O)c(-c3cc(O)c(O)c(O)c3)[o+]c2c1
REMARK SMILES IDX 10 1 20 2 21 3 22 4 2 5 3 6 4 7 6 8 7 9 8 10 11 11 12 12
REMARK SMILES IDX 13 13 19 14 15 15 17 16 14 17 16 19 18 21 9 23 1 25 5 27
REMARK H PARENT 14 18 16 20 18 22 9 24 1 26 5 28
REMARK Flexibility Score: inf
ROOT
ATOM      1  C   UNL     1      -6.614 -31.362  -6.085  1.00  0.00     0.402 A 
ATOM      2  O   UNL     1      -7.595 -30.556  -6.482  1.00  0.00    -0.202 OA
ATOM      3  C   UNL     1      -8.667 -30.982  -7.142  1.00  0.00     0.368 A 
ATOM      4  C   UNL     1      -9.645 -30.058  -7.520  1.00  0.00     0.162 A 
ATOM      5  C   UNL     1     -10.780 -30.477  -8.215  1.00  0.00     0.128 A 
ATOM      6  C   UNL     1     -10.941 -31.828  -8.538  1.00  0.00     0.093 A 
ATOM      7  C   UNL     1      -9.976 -32.775  -8.171  1.00  0.00     0.136 A 
ATOM      8  C   UNL     1      -8.821 -32.353  -7.461  1.00  0.00     0.125 A 
ATOM      9  C   UNL     1      -7.810 -33.232  -7.040  1.00  0.00     0.078 A 
ATOM     10  C   UNL     1      -6.703 -32.744  -6.340  1.00  0.00     0.223 A 
ENDROOT
BRANCH   1  11
ATOM     11  C   UNL     1      -5.465 -30.766  -5.367  1.00  0.00     0.091 A 
ATOM     12  C   UNL     1      -4.293 -30.391  -6.046  1.00  0.00     0.068 A 
ATOM     13  C   UNL     1      -3.223 -29.807  -5.352  1.00  0.00     0.162 A 
ATOM     14  C   UNL     1      -5.567 -30.517  -3.990  1.00  0.00     0.068 A 
ATOM     15  C   UNL     1      -3.327 -29.581  -3.968  1.00  0.00     0.200 A 
ATOM     16  C   UNL     1      -4.501 -29.934  -3.291  1.00  0.00     0.162 A 
BRANCH  13  17
ATOM     17  O   UNL     1      -2.062 -29.444  -6.032  1.00  0.00    -0.504 OA
ATOM     18  H   UNL     1      -1.860 -29.795  -6.962  1.00  0.00     0.293 HD
ENDBRANCH  13  17
BRANCH  15  19
ATOM     19  O   UNL     1      -2.275 -29.006  -3.255  1.00  0.00    -0.502 OA
ATOM     20  H   UNL     1      -1.752 -28.214  -3.611  1.00  0.00     0.293 HD
ENDBRANCH  15  19
BRANCH  16  21
ATOM     21  O   UNL     1      -4.602 -29.701  -1.920  1.00  0.00    -0.504 OA
ATOM     22  H   UNL     1      -4.141 -30.300  -1.245  1.00  0.00     0.293 HD
ENDBRANCH  16  21
ENDBRANCH   1  11
BRANCH  10  23
ATOM     23  O   UNL     1      -5.723 -33.623  -5.880  1.00  0.00    -0.500 OA
ATOM     24  H   UNL     1      -5.110 -34.118  -6.516  1.00  0.00     0.294 HD
ENDBRANCH  10  23
BRANCH   5  25
ATOM     25  O   UNL     1     -11.743 -29.540  -8.584  1.00  0.00    -0.507 OA
ATOM     26  H   UNL     1     -11.500 -28.573  -8.765  1.00  0.00     0.293 HD
ENDBRANCH   5  25
BRANCH   7  27
ATOM     27  O   UNL     1     -10.209 -34.105  -8.532  1.00  0.00    -0.507 OA
ATOM     28  H   UNL     1     -10.839 -34.726  -8.045  1.00  0.00     0.293 HD
ENDBRANCH   7  27
TORSDOF 7
ENDMDL
MODEL 8
REMARK VINA RESULT:    -5.607      1.162      2.194
REMARK INTER + INTRA:          -7.292
REMARK INTER:                  -6.925
REMARK INTRA:                  -0.367
REMARK UNBOUND:                -0.373
REMARK SMILES Oc1cc(O)c2cc(O)c(-c3cc(O)c(O)c(O)c3)[o+]c2c1
REMARK SMILES IDX 10 1 20 2 21 3 22 4 2 5 3 6 4 7 6 8 7 9 8 10 11 11 12 12
REMARK SMILES IDX 13 13 19 14 15 15 17 16 14 17 16 19 18 21 9 23 1 25 5 27
REMARK H PARENT 14 18 16 20 18 22 9 24 1 26 5 28
REMARK Flexibility Score: inf
ROOT
ATOM      1  C   UNL     1      -0.092 -26.603   0.175  1.00  0.00     0.402 A 
ATOM      2  O   UNL     1      -0.762 -27.170  -0.825  1.00  0.00    -0.202 OA
ATOM      3  C   UNL     1      -1.794 -27.987  -0.642  1.00  0.00     0.368 A 
ATOM      4  C   UNL     1      -2.432 -28.536  -1.757  1.00  0.00     0.162 A 
ATOM      5  C   UNL     1      -3.518 -29.399  -1.595  1.00  0.00     0.128 A 
ATOM      6  C   UNL     1      -3.969 -29.716  -0.309  1.00  0.00     0.093 A 
ATOM      7  C   UNL     1      -3.347 -29.178   0.825  1.00  0.00     0.136 A 
ATOM      8  C   UNL     1      -2.244 -28.299   0.663  1.00  0.00     0.125 A 
ATOM      9  C   UNL     1      -1.569 -27.703   1.740  1.00  0.00     0.078 A 
ATOM     10  C   UNL     1      -0.493 -26.842   1.503  1.00  0.00     0.223 A 
ENDROOT
BRANCH   1  11
ATOM     11  C   UNL     1       1.048 -25.720  -0.158  1.00  0.00     0.091 A 
ATOM     12  C   UNL     1       0.855 -24.365  -0.478  1.00  0.00     0.068 A 
ATOM     13  C   UNL     1       1.949 -23.538  -0.770  1.00  0.00     0.162 A 
ATOM     14  C   UNL     1       2.355 -26.228  -0.099  1.00  0.00     0.068 A 
ATOM     15  C   UNL     1       3.253 -24.063  -0.728  1.00  0.00     0.200 A 
ATOM     16  C   UNL     1       3.452 -25.407  -0.390  1.00  0.00     0.162 A 
BRANCH  13  17
ATOM     17  O   UNL     1       1.747 -22.197  -1.092  1.00  0.00    -0.504 OA
ATOM     18  H   UNL     1       1.353 -21.919  -1.983  1.00  0.00     0.293 HD
ENDBRANCH  13  17
BRANCH  15  19
ATOM     19  O   UNL     1       4.357 -23.261  -1.018  1.00  0.00    -0.502 OA
ATOM     20  H   UNL     1       4.450 -22.770  -1.900  1.00  0.00     0.293 HD
ENDBRANCH  15  19
BRANCH  16  21
ATOM     21  O   UNL     1       4.748 -25.920  -0.343  1.00  0.00    -0.504 OA
ATOM     22  H   UNL     1       5.016 -26.622   0.338  1.00  0.00     0.293 HD
ENDBRANCH  16  21
ENDBRANCH   1  11
BRANCH  10  23
ATOM     23  O   UNL     1       0.147 -26.211   2.570  1.00  0.00    -0.500 OA
ATOM     24  H   UNL     1       1.156 -26.139   2.618  1.00  0.00     0.294 HD
ENDBRANCH  10  23
BRANCH   5  25
ATOM     25  O   UNL     1      -4.140 -29.937  -2.719  1.00  0.00    -0.507 OA
ATOM     26  H   UNL     1      -3.619 -30.459  -3.414  1.00  0.00     0.293 HD
ENDBRANCH   5  25
BRANCH   7  27
ATOM     27  O   UNL     1      -3.855 -29.546   2.074  1.00  0.00    -0.507 OA
ATOM     28  H   UNL     1      -3.375 -29.401   2.950  1.00  0.00     0.293 HD
ENDBRANCH   7  27
TORSDOF 7
ENDMDL
MODEL 9
REMARK VINA RESULT:    -5.553      3.840      6.914
REMARK INTER + INTRA:          -7.225
REMARK INTER:                  -6.884
REMARK INTRA:                  -0.341
REMARK UNBOUND:                -0.373
REMARK SMILES Oc1cc(O)c2cc(O)c(-c3cc(O)c(O)c(O)c3)[o+]c2c1
REMARK SMILES IDX 10 1 20 2 21 3 22 4 2 5 3 6 4 7 6 8 7 9 8 10 11 11 12 12
REMARK SMILES IDX 13 13 19 14 15 15 17 16 14 17 16 19 18 21 9 23 1 25 5 27
REMARK H PARENT 14 18 16 20 18 22 9 24 1 26 5 28
REMARK Flexibility Score: inf
ROOT
ATOM      1  C   UNL     1      -4.345 -30.301  -3.697  1.00  0.00     0.402 A 
ATOM      2  O   UNL     1      -5.630 -30.206  -3.363  1.00  0.00    -0.202 OA
ATOM      3  C   UNL     1      -6.623 -30.356  -4.233  1.00  0.00     0.368 A 
ATOM      4  C   UNL     1      -7.941 -30.235  -3.787  1.00  0.00     0.162 A 
ATOM      5  C   UNL     1      -9.004 -30.385  -4.679  1.00  0.00     0.128 A 
ATOM      6  C   UNL     1      -8.749 -30.658  -6.027  1.00  0.00     0.093 A 
ATOM      7  C   UNL     1      -7.436 -30.785  -6.499  1.00  0.00     0.136 A 
ATOM      8  C   UNL     1      -6.353 -30.635  -5.595  1.00  0.00     0.125 A 
ATOM      9  C   UNL     1      -5.007 -30.758  -5.975  1.00  0.00     0.078 A 
ATOM     10  C   UNL     1      -3.993 -30.602  -5.026  1.00  0.00     0.223 A 
ENDROOT
BRANCH   1  11
ATOM     11  C   UNL     1      -3.330 -30.102  -2.638  1.00  0.00     0.091 A 
ATOM     12  C   UNL     1      -2.577 -28.918  -2.558  1.00  0.00     0.068 A 
ATOM     13  C   UNL     1      -1.635 -28.738  -1.535  1.00  0.00     0.162 A 
ATOM     14  C   UNL     1      -3.152 -31.092  -1.659  1.00  0.00     0.068 A 
ATOM     15  C   UNL     1      -1.450 -29.745  -0.572  1.00  0.00     0.200 A 
ATOM     16  C   UNL     1      -2.211 -30.919  -0.634  1.00  0.00     0.162 A 
BRANCH  13  17
ATOM     17  O   UNL     1      -0.890 -27.563  -1.468  1.00  0.00    -0.504 OA
ATOM     18  H   UNL     1      -1.245 -26.735  -1.003  1.00  0.00     0.293 HD
ENDBRANCH  13  17
BRANCH  15  19
ATOM     19  O   UNL     1      -0.516 -29.592   0.453  1.00  0.00    -0.502 OA
ATOM     20  H   UNL     1      -0.089 -30.386   0.916  1.00  0.00     0.293 HD
ENDBRANCH  15  19
BRANCH  16  21
ATOM     21  O   UNL     1      -2.028 -31.911   0.328  1.00  0.00    -0.504 OA
ATOM     22  H   UNL     1      -2.763 -32.157   0.982  1.00  0.00     0.293 HD
ENDBRANCH  16  21
ENDBRANCH   1  11
BRANCH  10  23
ATOM     23  O   UNL     1      -2.658 -30.773  -5.393  1.00  0.00    -0.500 OA
ATOM     24  H   UNL     1      -2.375 -30.823  -6.364  1.00  0.00     0.294 HD
ENDBRANCH  10  23
BRANCH   5  25
ATOM     25  O   UNL     1     -10.312 -30.260  -4.215  1.00  0.00    -0.507 OA
ATOM     26  H   UNL     1     -10.677 -29.371  -3.894  1.00  0.00     0.293 HD
ENDBRANCH   5  25
BRANCH   7  27
ATOM     27  O   UNL     1      -7.265 -31.055  -7.860  1.00  0.00    -0.507 OA
ATOM     28  H   UNL     1      -7.769 -30.590  -8.602  1.00  0.00     0.293 HD
ENDBRANCH   7  27
TORSDOF 7
ENDMDL
