MODEL 1
REMARK VINA RESULT:    -3.906      0.000      0.000
REMARK INTER + INTRA:          -6.190
REMARK INTER:                  -5.961
REMARK INTRA:                  -0.229
REMARK UNBOUND:                -0.229
REMARK SMILES CC1=CCC[C@@H](C)C(=O)C[C@H](C(C)C)C(=O)C1
REMARK SMILES IDX 8 1 9 2 6 3 7 4 5 5 4 6 3 7 2 8 1 9 10 11 11 12 15 13 16 14
REMARK SMILES IDX 17 15 12 17 13 18 14 19
REMARK H PARENT
REMARK Flexibility Score: 70.00
ROOT
ATOM      1  C   UNL     1       9.244 -20.833  21.457  1.00  0.00     0.136 C 
ATOM      2  O   UNL     1       8.044 -20.585  21.443  1.00  0.00    -0.299 OA
ENDROOT
BRANCH   1   3
ATOM      3  C   UNL     1       9.834 -21.658  22.583  1.00  0.00     0.053 C 
ATOM      4  C   UNL     1       9.269 -23.086  22.583  1.00  0.00     0.016 C 
BRANCH   3   5
ATOM      5  C   UNL     1       9.582 -20.943  23.941  1.00  0.00     0.015 C 
BRANCH   5   6
ATOM      6  C   UNL     1      10.090 -19.490  24.021  1.00  0.00     0.028 C 
BRANCH   6   7
ATOM      7  C   UNL     1      11.572 -19.289  23.791  1.00  0.00    -0.028 C 
ATOM      8  C   UNL     1      12.156 -18.360  22.997  1.00  0.00    -0.070 CG0
ATOM      9  C   UNL     1      13.666 -18.282  23.007  1.00  0.00     0.039 C 
ATOM     10  G   UNL     1      11.392 -17.393  22.113  1.00  0.00     0.000 G0
ENDBRANCH   6   7
ENDBRANCH   5   6
ENDBRANCH   3   5
ENDBRANCH   1   3
BRANCH   1  11
ATOM     11  C   UNL     1      10.131 -20.216  20.405  1.00  0.00     0.087 C 
BRANCH  11  12
ATOM     12  C   UNL     1       9.935 -18.671  20.325  1.00  0.00     0.066 C 
BRANCH  12  13
ATOM     13  C   UNL     1      11.209 -17.938  20.733  1.00  0.00     0.140 C 
ATOM     14  O   UNL     1      12.125 -17.818  19.932  1.00  0.00    -0.299 OA
BRANCH  13  15
ATOM     15  C   UNL     1      11.395 -17.382  22.128  1.00  0.00     0.106 CG0
ATOM     16  G   UNL     1      12.145 -18.368  23.003  1.00  0.00     0.000 G0
ENDBRANCH  13  15
ENDBRANCH  12  13
BRANCH  12  17
ATOM     17  C   UNL     1       9.372 -18.167  18.954  1.00  0.00    -0.006 C 
ATOM     18  C   UNL     1       9.628 -19.113  17.760  1.00  0.00     0.008 C 
ATOM     19  C   UNL     1       7.871 -17.856  19.051  1.00  0.00     0.008 C 
ENDBRANCH  12  17
ENDBRANCH  11  12
ENDBRANCH   1  11
TORSDOF 1
ENDMDL
MODEL 2
REMARK VINA RESULT:    -3.638      2.586      3.722
REMARK INTER + INTRA:          -5.781
REMARK INTER:                  -5.637
REMARK INTRA:                  -0.145
REMARK UNBOUND:                -0.229
REMARK SMILES CC1=CCC[C@@H](C)C(=O)C[C@H](C(C)C)C(=O)C1
REMARK SMILES IDX 8 1 9 2 6 3 7 4 5 5 4 6 3 7 2 8 1 9 10 11 11 12 15 13 16 14
REMARK SMILES IDX 17 15 12 17 13 18 14 19
REMARK H PARENT
REMARK Flexibility Score: 70.00
ROOT
ATOM      1  C   UNL     1      10.744 -20.702  22.104  1.00  0.00     0.136 C 
ATOM      2  O   UNL     1      11.398 -21.384  21.324  1.00  0.00    -0.299 OA
ENDROOT
BRANCH   1   3
ATOM      3  C   UNL     1       9.899 -21.370  23.169  1.00  0.00     0.053 C 
ATOM      4  C   UNL     1      10.774 -21.980  24.274  1.00  0.00     0.016 C 
BRANCH   3   5
ATOM      5  C   UNL     1       8.981 -22.440  22.512  1.00  0.00     0.015 C 
BRANCH   5   6
ATOM      6  C   UNL     1       7.526 -21.993  22.266  1.00  0.00     0.028 C 
BRANCH   6   7
ATOM      7  C   UNL     1       7.081 -20.743  22.993  1.00  0.00    -0.028 C 
ATOM      8  C   UNL     1       6.932 -19.503  22.469  1.00  0.00    -0.070 CG0
ATOM      9  C   UNL     1       6.372 -18.427  23.370  1.00  0.00     0.039 C 
ATOM     10  G   UNL     1       7.282 -19.135  21.040  1.00  0.00     0.000 G0
ENDBRANCH   6   7
ENDBRANCH   5   6
ENDBRANCH   3   5
ENDBRANCH   1   3
BRANCH   1  11
ATOM     11  C   UNL     1      10.707 -19.206  21.915  1.00  0.00     0.087 C 
BRANCH  11  12
ATOM     12  C   UNL     1       9.901 -18.808  20.642  1.00  0.00     0.066 C 
BRANCH  12  13
ATOM     13  C   UNL     1       8.535 -18.242  21.015  1.00  0.00     0.140 C 
ATOM     14  O   UNL     1       8.432 -17.067  21.337  1.00  0.00    -0.299 OA
BRANCH  13  15
ATOM     15  C   UNL     1       7.294 -19.107  21.040  1.00  0.00     0.106 CG0
ATOM     16  G   UNL     1       6.944 -19.501  22.462  1.00  0.00     0.000 G0
ENDBRANCH  13  15
ENDBRANCH  12  13
BRANCH  12  17
ATOM     17  C   UNL     1      10.682 -17.878  19.654  1.00  0.00    -0.006 C 
ATOM     18  C   UNL     1      12.191 -18.183  19.531  1.00  0.00     0.008 C 
ATOM     19  C   UNL     1      10.039 -17.887  18.258  1.00  0.00     0.008 C 
ENDBRANCH  12  17
ENDBRANCH  11  12
ENDBRANCH   1  11
TORSDOF 1
ENDMDL
MODEL 3
REMARK VINA RESULT:    -3.609      1.813      4.708
REMARK INTER + INTRA:          -5.737
REMARK INTER:                  -5.588
REMARK INTRA:                  -0.149
REMARK UNBOUND:                -0.229
REMARK SMILES CC1=CCC[C@@H](C)C(=O)C[C@H](C(C)C)C(=O)C1
REMARK SMILES IDX 8 1 9 2 6 3 7 4 5 5 4 6 3 7 2 8 1 9 10 11 11 12 15 13 16 14
REMARK SMILES IDX 17 15 12 17 13 18 14 19
REMARK H PARENT
REMARK Flexibility Score: 70.00
ROOT
ATOM      1  C   UNL     1      11.157 -18.452  19.469  1.00  0.00     0.136 C 
ATOM      2  O   UNL     1      11.600 -17.328  19.270  1.00  0.00    -0.299 OA
ENDROOT
BRANCH   1   3
ATOM      3  C   UNL     1       9.946 -18.937  18.699  1.00  0.00     0.053 C 
ATOM      4  C   UNL     1      10.272 -19.129  17.210  1.00  0.00     0.016 C 
BRANCH   3   5
ATOM      5  C   UNL     1       8.767 -17.943  18.902  1.00  0.00     0.015 C 
BRANCH   5   6
ATOM      6  C   UNL     1       7.979 -18.121  20.215  1.00  0.00     0.028 C 
BRANCH   6   7
ATOM      7  C   UNL     1       8.005 -19.506  20.826  1.00  0.00    -0.028 C 
ATOM      8  C   UNL     1       8.545 -19.864  22.014  1.00  0.00    -0.070 CG0
ATOM      9  C   UNL     1       8.355 -21.294  22.464  1.00  0.00     0.039 C 
ATOM     10  G   UNL     1       9.314 -18.921  22.919  1.00  0.00     0.000 G0
ENDBRANCH   6   7
ENDBRANCH   5   6
ENDBRANCH   3   5
ENDBRANCH   1   3
BRANCH   1  11
ATOM     11  C   UNL     1      11.766 -19.296  20.562  1.00  0.00     0.087 C 
BRANCH  11  12
ATOM     12  C   UNL     1      11.754 -18.553  21.933  1.00  0.00     0.066 C 
BRANCH  12  13
ATOM     13  C   UNL     1      10.795 -19.223  22.909  1.00  0.00     0.140 C 
ATOM     14  O   UNL     1      11.211 -20.068  23.688  1.00  0.00    -0.299 OA
BRANCH  13  15
ATOM     15  C   UNL     1       9.315 -18.903  22.919  1.00  0.00     0.106 CG0
ATOM     16  G   UNL     1       8.555 -19.852  22.013  1.00  0.00     0.000 G0
ENDBRANCH  13  15
ENDBRANCH  12  13
BRANCH  12  17
ATOM     17  C   UNL     1      13.175 -18.330  22.552  1.00  0.00    -0.006 C 
ATOM     18  C   UNL     1      14.281 -17.987  21.530  1.00  0.00     0.008 C 
ATOM     19  C   UNL     1      13.139 -17.258  23.652  1.00  0.00     0.008 C 
ENDBRANCH  12  17
ENDBRANCH  11  12
ENDBRANCH   1  11
TORSDOF 1
ENDMDL
MODEL 4
REMARK VINA RESULT:    -3.580      1.841      2.500
REMARK INTER + INTRA:          -5.693
REMARK INTER:                  -5.354
REMARK INTRA:                  -0.339
REMARK UNBOUND:                -0.229
REMARK SMILES CC1=CCC[C@@H](C)C(=O)C[C@H](C(C)C)C(=O)C1
REMARK SMILES IDX 8 1 9 2 6 3 7 4 5 5 4 6 3 7 2 8 1 9 10 11 11 12 15 13 16 14
REMARK SMILES IDX 17 15 12 17 13 18 14 19
REMARK H PARENT
REMARK Flexibility Score: 70.00
ROOT
ATOM      1  C   UNL     1      10.288 -20.861  20.979  1.00  0.00     0.136 C 
ATOM      2  O   UNL     1      10.189 -21.475  19.924  1.00  0.00    -0.299 OA
ENDROOT
BRANCH   1   3
ATOM      3  C   UNL     1       9.262 -21.067  22.074  1.00  0.00     0.053 C 
ATOM      4  C   UNL     1       9.055 -22.560  22.370  1.00  0.00     0.016 C 
BRANCH   3   5
ATOM      5  C   UNL     1       7.928 -20.372  21.678  1.00  0.00     0.015 C 
BRANCH   5   6
ATOM      6  C   UNL     1       7.624 -19.060  22.428  1.00  0.00     0.028 C 
BRANCH   6   7
ATOM      7  C   UNL     1       8.396 -18.831  23.709  1.00  0.00    -0.028 C 
ATOM      8  C   UNL     1       9.341 -17.888  23.935  1.00  0.00    -0.070 CG0
ATOM      9  C   UNL     1       9.902 -17.783  25.335  1.00  0.00     0.039 C 
ATOM     10  G   UNL     1       9.858 -16.930  22.879  1.00  0.00     0.000 G0
ENDBRANCH   6   7
ENDBRANCH   5   6
ENDBRANCH   3   5
ENDBRANCH   1   3
BRANCH   1  11
ATOM     11  C   UNL     1      11.374 -19.823  21.123  1.00  0.00     0.087 C 
BRANCH  11  12
ATOM     12  C   UNL     1      10.828 -18.384  20.878  1.00  0.00     0.066 C 
BRANCH  12  13
ATOM     13  C   UNL     1      11.024 -17.509  22.111  1.00  0.00     0.140 C 
ATOM     14  O   UNL     1      12.152 -17.291  22.530  1.00  0.00    -0.299 OA
BRANCH  13  15
ATOM     15  C   UNL     1       9.851 -16.926  22.869  1.00  0.00     0.106 CG0
ATOM     16  G   UNL     1       9.362 -17.894  23.928  1.00  0.00     0.000 G0
ENDBRANCH  13  15
ENDBRANCH  12  13
BRANCH  12  17
ATOM     17  C   UNL     1      11.371 -17.707  19.575  1.00  0.00    -0.006 C 
ATOM     18  C   UNL     1      12.805 -18.121  19.178  1.00  0.00     0.008 C 
ATOM     19  C   UNL     1      10.420 -17.941  18.391  1.00  0.00     0.008 C 
ENDBRANCH  12  17
ENDBRANCH  11  12
ENDBRANCH   1  11
TORSDOF 1
ENDMDL
MODEL 5
REMARK VINA RESULT:    -3.531      1.797      4.270
REMARK INTER + INTRA:          -5.617
REMARK INTER:                  -5.734
REMARK INTRA:                   0.118
REMARK UNBOUND:                -0.229
REMARK SMILES CC1=CCC[C@@H](C)C(=O)C[C@H](C(C)C)C(=O)C1
REMARK SMILES IDX 8 1 9 2 6 3 7 4 5 5 4 6 3 7 2 8 1 9 10 11 11 12 15 13 16 14
REMARK SMILES IDX 17 15 12 17 13 18 14 19
REMARK H PARENT
REMARK Flexibility Score: 70.00
ROOT
ATOM      1  C   UNL     1      10.175 -18.026  20.016  1.00  0.00     0.136 C 
ATOM      2  O   UNL     1       9.128 -17.454  19.742  1.00  0.00    -0.299 OA
ENDROOT
BRANCH   1   3
ATOM      3  C   UNL     1      10.640 -19.200  19.178  1.00  0.00     0.053 C 
ATOM      4  C   UNL     1      10.117 -19.097  17.737  1.00  0.00     0.016 C 
BRANCH   3   5
ATOM      5  C   UNL     1      10.198 -20.530  19.853  1.00  0.00     0.015 C 
BRANCH   5   6
ATOM      6  C   UNL     1      11.261 -21.193  20.752  1.00  0.00     0.028 C 
BRANCH   6   7
ATOM      7  C   UNL     1      10.748 -21.857  22.011  1.00  0.00    -0.028 C 
ATOM      8  C   UNL     1      10.522 -21.270  23.210  1.00  0.00    -0.070 CG0
ATOM      9  C   UNL     1       9.905 -22.118  24.298  1.00  0.00     0.039 C 
ATOM     10  G   UNL     1      10.838 -19.819  23.521  1.00  0.00     0.000 G0
ENDBRANCH   6   7
ENDBRANCH   5   6
ENDBRANCH   3   5
ENDBRANCH   1   3
BRANCH   1  11
ATOM     11  C   UNL     1      10.930 -17.617  21.257  1.00  0.00     0.087 C 
BRANCH  11  12
ATOM     12  C   UNL     1       9.986 -17.514  22.494  1.00  0.00     0.066 C 
BRANCH  12  13
ATOM     13  C   UNL     1       9.704 -18.892  23.081  1.00  0.00     0.140 C 
ATOM     14  O   UNL     1       8.549 -19.270  23.220  1.00  0.00    -0.299 OA
BRANCH  13  15
ATOM     15  C   UNL     1      10.819 -19.805  23.543  1.00  0.00     0.106 CG0
ATOM     16  G   UNL     1      10.505 -21.250  23.203  1.00  0.00     0.000 G0
ENDBRANCH  13  15
ENDBRANCH  12  13
BRANCH  12  17
ATOM     17  C   UNL     1      10.463 -16.491  23.579  1.00  0.00    -0.006 C 
ATOM     18  C   UNL     1      11.951 -16.089  23.482  1.00  0.00     0.008 C 
ATOM     19  C   UNL     1       9.587 -15.229  23.574  1.00  0.00     0.008 C 
ENDBRANCH  12  17
ENDBRANCH  11  12
ENDBRANCH   1  11
TORSDOF 1
ENDMDL
MODEL 6
REMARK VINA RESULT:    -3.406      2.236      4.950
REMARK INTER + INTRA:          -5.427
REMARK INTER:                  -5.166
REMARK INTRA:                  -0.261
REMARK UNBOUND:                -0.229
REMARK SMILES CC1=CCC[C@@H](C)C(=O)C[C@H](C(C)C)C(=O)C1
REMARK SMILES IDX 8 1 9 2 6 3 7 4 5 5 4 6 3 7 2 8 1 9 10 11 11 12 15 13 16 14
REMARK SMILES IDX 17 15 12 17 13 18 14 19
REMARK H PARENT
REMARK Flexibility Score: 70.00
ROOT
ATOM      1  C   UNL     1      11.070 -18.356  24.125  1.00  0.00     0.136 C 
ATOM      2  O   UNL     1      10.603 -18.143  25.237  1.00  0.00    -0.299 OA
ENDROOT
BRANCH   1   3
ATOM      3  C   UNL     1      11.025 -17.275  23.064  1.00  0.00     0.053 C 
ATOM      4  C   UNL     1      12.002 -16.135  23.388  1.00  0.00     0.016 C 
BRANCH   3   5
ATOM      5  C   UNL     1       9.567 -16.752  22.914  1.00  0.00     0.015 C 
BRANCH   5   6
ATOM      6  C   UNL     1       8.705 -17.504  21.880  1.00  0.00     0.028 C 
BRANCH   6   7
ATOM      7  C   UNL     1       9.386 -17.860  20.576  1.00  0.00    -0.028 C 
ATOM      8  C   UNL     1       9.644 -19.102  20.102  1.00  0.00    -0.070 CG0
ATOM      9  C   UNL     1      10.243 -19.211  18.719  1.00  0.00     0.039 C 
ATOM     10  G   UNL     1       9.358 -20.381  20.865  1.00  0.00     0.000 G0
ENDBRANCH   6   7
ENDBRANCH   5   6
ENDBRANCH   3   5
ENDBRANCH   1   3
BRANCH   1  11
ATOM     11  C   UNL     1      11.585 -19.736  23.799  1.00  0.00     0.087 C 
BRANCH  11  12
ATOM     12  C   UNL     1      10.449 -20.660  23.266  1.00  0.00     0.066 C 
BRANCH  12  13
ATOM     13  C   UNL     1      10.516 -20.787  21.748  1.00  0.00     0.140 C 
ATOM     14  O   UNL     1      11.544 -21.178  21.214  1.00  0.00    -0.299 OA
BRANCH  13  15
ATOM     15  C   UNL     1       9.349 -20.400  20.864  1.00  0.00     0.106 CG0
ATOM     16  G   UNL     1       9.644 -19.111  20.122  1.00  0.00     0.000 G0
ENDBRANCH  13  15
ENDBRANCH  12  13
BRANCH  12  17
ATOM     17  C   UNL     1      10.371 -22.054  23.976  1.00  0.00    -0.006 C 
ATOM     18  C   UNL     1      10.852 -22.061  25.444  1.00  0.00     0.008 C 
ATOM     19  C   UNL     1       8.953 -22.639  23.895  1.00  0.00     0.008 C 
ENDBRANCH  12  17
ENDBRANCH  11  12
ENDBRANCH   1  11
TORSDOF 1
ENDMDL
MODEL 7
REMARK VINA RESULT:    -3.401      2.157      3.711
REMARK INTER + INTRA:          -5.419
REMARK INTER:                  -5.264
REMARK INTRA:                  -0.155
REMARK UNBOUND:                -0.229
REMARK SMILES CC1=CCC[C@@H](C)C(=O)C[C@H](C(C)C)C(=O)C1
REMARK SMILES IDX 8 1 9 2 6 3 7 4 5 5 4 6 3 7 2 8 1 9 10 11 11 12 15 13 16 14
REMARK SMILES IDX 17 15 12 17 13 18 14 19
REMARK H PARENT
REMARK Flexibility Score: 70.00
ROOT
ATOM      1  C   UNL     1      12.363 -18.320  21.523  1.00  0.00     0.136 C 
ATOM      2  O   UNL     1      13.162 -19.079  20.987  1.00  0.00    -0.299 OA
ENDROOT
BRANCH   1   3
ATOM      3  C   UNL     1      12.322 -18.205  23.033  1.00  0.00     0.053 C 
ATOM      4  C   UNL     1      13.737 -18.188  23.629  1.00  0.00     0.016 C 
BRANCH   3   5
ATOM      5  C   UNL     1      11.467 -19.364  23.621  1.00  0.00     0.015 C 
BRANCH   5   6
ATOM      6  C   UNL     1      10.392 -18.934  24.638  1.00  0.00     0.028 C 
BRANCH   6   7
ATOM      7  C   UNL     1       8.955 -19.199  24.242  1.00  0.00    -0.028 C 
ATOM      8  C   UNL     1       8.224 -18.522  23.325  1.00  0.00    -0.070 CG0
ATOM      9  C   UNL     1       6.836 -19.038  23.020  1.00  0.00     0.039 C 
ATOM     10  G   UNL     1       8.713 -17.293  22.584  1.00  0.00     0.000 G0
ENDBRANCH   6   7
ENDBRANCH   5   6
ENDBRANCH   3   5
ENDBRANCH   1   3
BRANCH   1  11
ATOM     11  C   UNL     1      11.356 -17.594  20.665  1.00  0.00     0.087 C 
BRANCH  11  12
ATOM     12  C   UNL     1      10.017 -18.385  20.558  1.00  0.00     0.066 C 
BRANCH  12  13
ATOM     13  C   UNL     1       8.854 -17.565  21.103  1.00  0.00     0.140 C 
ATOM     14  O   UNL     1       8.026 -17.097  20.333  1.00  0.00    -0.299 OA
BRANCH  13  15
ATOM     15  C   UNL     1       8.709 -17.270  22.580  1.00  0.00     0.106 CG0
ATOM     16  G   UNL     1       8.226 -18.499  23.327  1.00  0.00     0.000 G0
ENDBRANCH  13  15
ENDBRANCH  12  13
BRANCH  12  17
ATOM     17  C   UNL     1       9.725 -18.959  19.131  1.00  0.00    -0.006 C 
ATOM     18  C   UNL     1      10.178 -18.054  17.963  1.00  0.00     0.008 C 
ATOM     19  C   UNL     1      10.330 -20.360  18.961  1.00  0.00     0.008 C 
ENDBRANCH  12  17
ENDBRANCH  11  12
ENDBRANCH   1  11
TORSDOF 1
ENDMDL
MODEL 8
REMARK VINA RESULT:    -3.363      1.752      2.505
REMARK INTER + INTRA:          -5.361
REMARK INTER:                  -5.082
REMARK INTRA:                  -0.278
REMARK UNBOUND:                -0.229
REMARK SMILES CC1=CCC[C@@H](C)C(=O)C[C@H](C(C)C)C(=O)C1
REMARK SMILES IDX 8 1 9 2 6 3 7 4 5 5 4 6 3 7 2 8 1 9 10 11 11 12 15 13 16 14
REMARK SMILES IDX 17 15 12 17 13 18 14 19
REMARK H PARENT
REMARK Flexibility Score: 70.00
ROOT
ATOM      1  C   UNL     1       9.848 -21.360  21.987  1.00  0.00     0.136 C 
ATOM      2  O   UNL     1       8.907 -21.164  21.228  1.00  0.00    -0.299 OA
ENDROOT
BRANCH   1   3
ATOM      3  C   UNL     1       9.724 -22.378  23.102  1.00  0.00     0.053 C 
ATOM      4  C   UNL     1       8.911 -23.601  22.652  1.00  0.00     0.016 C 
BRANCH   3   5
ATOM      5  C   UNL     1       9.096 -21.705  24.356  1.00  0.00     0.015 C 
BRANCH   5   6
ATOM      6  C   UNL     1      10.083 -21.407  25.502  1.00  0.00     0.028 C 
BRANCH   6   7
ATOM      7  C   UNL     1      10.134 -19.972  25.981  1.00  0.00    -0.028 C 
ATOM      8  C   UNL     1      11.010 -19.014  25.595  1.00  0.00    -0.070 CG0
ATOM      9  C   UNL     1      10.799 -17.618  26.135  1.00  0.00     0.039 C 
ATOM     10  G   UNL     1      12.174 -19.252  24.653  1.00  0.00     0.000 G0
ENDBRANCH   6   7
ENDBRANCH   5   6
ENDBRANCH   3   5
ENDBRANCH   1   3
BRANCH   1  11
ATOM     11  C   UNL     1      11.080 -20.497  21.863  1.00  0.00     0.087 C 
BRANCH  11  12
ATOM     12  C   UNL     1      10.827 -19.056  22.402  1.00  0.00     0.066 C 
BRANCH  12  13
ATOM     13  C   UNL     1      11.960 -18.610  23.319  1.00  0.00     0.140 C 
ATOM     14  O   UNL     1      12.730 -17.733  22.953  1.00  0.00    -0.299 OA
BRANCH  13  15
ATOM     15  C   UNL     1      12.193 -19.254  24.669  1.00  0.00     0.106 CG0
ATOM     16  G   UNL     1      11.002 -19.032  25.581  1.00  0.00     0.000 G0
ENDBRANCH  13  15
ENDBRANCH  12  13
BRANCH  12  17
ATOM     17  C   UNL     1      10.513 -18.002  21.288  1.00  0.00    -0.006 C 
ATOM     18  C   UNL     1      10.933 -18.421  19.862  1.00  0.00     0.008 C 
ATOM     19  C   UNL     1       9.027 -17.614  21.294  1.00  0.00     0.008 C 
ENDBRANCH  12  17
ENDBRANCH  11  12
ENDBRANCH   1  11
TORSDOF 1
ENDMDL
MODEL 9
REMARK VINA RESULT:    -3.339      3.966      6.275
REMARK INTER + INTRA:          -5.324
REMARK INTER:                  -5.034
REMARK INTRA:                  -0.291
REMARK UNBOUND:                -0.229
REMARK SMILES CC1=CCC[C@@H](C)C(=O)C[C@H](C(C)C)C(=O)C1
REMARK SMILES IDX 8 1 9 2 6 3 7 4 5 5 4 6 3 7 2 8 1 9 10 11 11 12 15 13 16 14
REMARK SMILES IDX 17 15 12 17 13 18 14 19
REMARK H PARENT
REMARK Flexibility Score: 70.00
ROOT
ATOM      1  C   UNL     1       5.163 -24.059  23.448  1.00  0.00     0.136 C 
ATOM      2  O   UNL     1       4.690 -24.576  24.452  1.00  0.00    -0.299 OA
ENDROOT
BRANCH   1   3
ATOM      3  C   UNL     1       5.898 -24.909  22.432  1.00  0.00     0.053 C 
ATOM      4  C   UNL     1       4.978 -25.983  21.833  1.00  0.00     0.016 C 
BRANCH   3   5
ATOM      5  C   UNL     1       7.158 -25.539  23.092  1.00  0.00     0.015 C 
BRANCH   5   6
ATOM      6  C   UNL     1       8.213 -24.530  23.587  1.00  0.00     0.028 C 
BRANCH   6   7
ATOM      7  C   UNL     1       8.737 -23.554  22.555  1.00  0.00    -0.028 C 
ATOM      8  C   UNL     1       8.899 -22.218  22.704  1.00  0.00    -0.070 CG0
ATOM      9  C   UNL     1       9.542 -21.462  21.564  1.00  0.00     0.039 C 
ATOM     10  G   UNL     1       8.487 -21.442  23.939  1.00  0.00     0.000 G0
ENDBRANCH   6   7
ENDBRANCH   5   6
ENDBRANCH   3   5
ENDBRANCH   1   3
BRANCH   1  11
ATOM     11  C   UNL     1       5.099 -22.559  23.298  1.00  0.00     0.087 C 
BRANCH  11  12
ATOM     12  C   UNL     1       5.901 -21.835  24.422  1.00  0.00     0.066 C 
BRANCH  12  13
ATOM     13  C   UNL     1       7.033 -21.001  23.835  1.00  0.00     0.140 C 
ATOM     14  O   UNL     1       6.778 -19.964  23.237  1.00  0.00    -0.299 OA
BRANCH  13  15
ATOM     15  C   UNL     1       8.478 -21.439  23.931  1.00  0.00     0.106 CG0
ATOM     16  G   UNL     1       8.888 -22.214  22.693  1.00  0.00     0.000 G0
ENDBRANCH  13  15
ENDBRANCH  12  13
BRANCH  12  17
ATOM     17  C   UNL     1       5.011 -21.016  25.417  1.00  0.00    -0.006 C 
ATOM     18  C   UNL     1       3.548 -20.815  24.964  1.00  0.00     0.008 C 
ATOM     19  C   UNL     1       5.034 -21.636  26.822  1.00  0.00     0.008 C 
ENDBRANCH  12  17
ENDBRANCH  11  12
ENDBRANCH   1  11
TORSDOF 1
ENDMDL
