MODEL 1
REMARK VINA RESULT:    -4.924      0.000      0.000
REMARK INTER + INTRA:         -10.447
REMARK INTER:                  -8.667
REMARK INTRA:                  -1.781
REMARK UNBOUND:                -1.781
REMARK SMILES CCCCCCC=CCCCCCCCC(=O)[O-]
REMARK SMILES IDX 10 1 11 2 12 3 13 4 14 5 15 6 16 7 17 8 18 9 9 10 8 11 7 12
REMARK SMILES IDX 6 13 5 14 4 15 3 16 2 17 1 18
REMARK H PARENT
REMARK Flexibility Score: inf
ROOT
ATOM      1  C   UNL     1      -2.437   2.001   3.625  1.00  0.00     0.004 C 
ENDROOT
BRANCH   1   2
ATOM      2  C   UNL     1      -3.910   1.601   3.447  1.00  0.00     0.000 C 
BRANCH   2   3
ATOM      3  C   UNL     1      -4.765   1.924   4.685  1.00  0.00     0.000 C 
BRANCH   3   4
ATOM      4  C   UNL     1      -5.300   0.649   5.371  1.00  0.00     0.000 C 
BRANCH   4   5
ATOM      5  C   UNL     1      -5.215  -0.607   4.488  1.00  0.00     0.006 C 
BRANCH   5   6
ATOM      6  C   UNL     1      -4.998  -1.892   5.297  1.00  0.00     0.053 C 
BRANCH   6   7
ATOM      7  C   UNL     1      -6.092  -2.067   6.302  1.00  0.00     0.041 C 
ATOM      8  O   UNL     1      -7.297  -2.051   5.938  1.00  0.00    -0.550 OA
ATOM      9  O   UNL     1      -5.783  -2.200   7.650  1.00  0.00    -0.550 OA
ENDBRANCH   6   7
ENDBRANCH   5   6
ENDBRANCH   4   5
ENDBRANCH   3   4
ENDBRANCH   2   3
ENDBRANCH   1   2
BRANCH   1  10
ATOM     10  C   UNL     1      -1.932   1.758   5.055  1.00  0.00     0.027 C 
BRANCH  10  11
ATOM     11  C   UNL     1      -1.559   0.315   5.260  1.00  0.00    -0.031 C 
ATOM     12  C   UNL     1      -1.275  -0.491   4.226  1.00  0.00    -0.031 C 
BRANCH  12  13
ATOM     13  C   UNL     1      -0.903  -1.933   4.430  1.00  0.00     0.027 C 
BRANCH  13  14
ATOM     14  C   UNL     1       0.356  -2.301   3.634  1.00  0.00     0.004 C 
BRANCH  14  15
ATOM     15  C   UNL     1       1.587  -1.570   4.182  1.00  0.00     0.000 C 
BRANCH  15  16
ATOM     16  C   UNL     1       2.416  -0.959   3.043  1.00  0.00    -0.000 C 
BRANCH  16  17
ATOM     17  C   UNL     1       2.236   0.563   2.932  1.00  0.00    -0.003 C 
ATOM     18  C   UNL     1       1.812   1.206   4.252  1.00  0.00     0.004 C 
ENDBRANCH  16  17
ENDBRANCH  15  16
ENDBRANCH  14  15
ENDBRANCH  13  14
ENDBRANCH  12  13
ENDBRANCH  10  11
ENDBRANCH   1  10
TORSDOF 13
ENDMDL
MODEL 2
REMARK VINA RESULT:    -4.808      1.417      2.101
REMARK INTER + INTRA:         -10.243
REMARK INTER:                  -9.010
REMARK INTRA:                  -1.233
REMARK UNBOUND:                -1.781
REMARK SMILES CCCCCCC=CCCCCCCCC(=O)[O-]
REMARK SMILES IDX 10 1 11 2 12 3 13 4 14 5 15 6 16 7 17 8 18 9 9 10 8 11 7 12
REMARK SMILES IDX 6 13 5 14 4 15 3 16 2 17 1 18
REMARK H PARENT
REMARK Flexibility Score: inf
ROOT
ATOM      1  C   UNL     1      -2.810   0.401   3.254  1.00  0.00     0.004 C 
ENDROOT
BRANCH   1   2
ATOM      2  C   UNL     1      -3.879   1.245   3.965  1.00  0.00     0.000 C 
BRANCH   2   3
ATOM      3  C   UNL     1      -3.637   1.353   5.481  1.00  0.00     0.000 C 
BRANCH   3   4
ATOM      4  C   UNL     1      -4.775   0.709   6.299  1.00  0.00     0.000 C 
BRANCH   4   5
ATOM      5  C   UNL     1      -5.796  -0.055   5.439  1.00  0.00     0.006 C 
BRANCH   5   6
ATOM      6  C   UNL     1      -5.573  -1.573   5.455  1.00  0.00     0.053 C 
BRANCH   6   7
ATOM      7  C   UNL     1      -6.378  -2.206   6.546  1.00  0.00     0.041 C 
ATOM      8  O   UNL     1      -7.544  -2.622   6.313  1.00  0.00    -0.550 OA
ATOM      9  O   UNL     1      -5.859  -2.296   7.831  1.00  0.00    -0.550 OA
ENDBRANCH   6   7
ENDBRANCH   5   6
ENDBRANCH   4   5
ENDBRANCH   3   4
ENDBRANCH   2   3
ENDBRANCH   1   2
BRANCH   1  10
ATOM     10  C   UNL     1      -2.064  -0.534   4.219  1.00  0.00     0.027 C 
BRANCH  10  11
ATOM     11  C   UNL     1      -0.575  -0.435   4.028  1.00  0.00    -0.031 C 
ATOM     12  C   UNL     1       0.062   0.745   4.067  1.00  0.00    -0.031 C 
BRANCH  12  13
ATOM     13  C   UNL     1       1.549   0.844   3.876  1.00  0.00     0.027 C 
BRANCH  13  14
ATOM     14  C   UNL     1       2.137  -0.491   3.399  1.00  0.00     0.004 C 
BRANCH  14  15
ATOM     15  C   UNL     1       3.148  -0.274   2.266  1.00  0.00     0.000 C 
BRANCH  15  16
ATOM     16  C   UNL     1       4.218   0.749   2.673  1.00  0.00    -0.000 C 
BRANCH  16  17
ATOM     17  C   UNL     1       4.529   1.757   1.555  1.00  0.00    -0.003 C 
ATOM     18  C   UNL     1       3.268   2.340   0.917  1.00  0.00     0.004 C 
ENDBRANCH  16  17
ENDBRANCH  15  16
ENDBRANCH  14  15
ENDBRANCH  13  14
ENDBRANCH  12  13
ENDBRANCH  10  11
ENDBRANCH   1  10
TORSDOF 13
ENDMDL
MODEL 3
REMARK VINA RESULT:    -4.760      0.970      2.284
REMARK INTER + INTRA:         -10.159
REMARK INTER:                  -8.625
REMARK INTRA:                  -1.534
REMARK UNBOUND:                -1.781
REMARK SMILES CCCCCCC=CCCCCCCCC(=O)[O-]
REMARK SMILES IDX 10 1 11 2 12 3 13 4 14 5 15 6 16 7 17 8 18 9 9 10 8 11 7 12
REMARK SMILES IDX 6 13 5 14 4 15 3 16 2 17 1 18
REMARK H PARENT
REMARK Flexibility Score: inf
ROOT
ATOM      1  C   UNL     1      -2.916   1.896   3.244  1.00  0.00     0.004 C 
ENDROOT
BRANCH   1   2
ATOM      2  C   UNL     1      -3.139   0.514   3.880  1.00  0.00     0.000 C 
BRANCH   2   3
ATOM      3  C   UNL     1      -3.849   0.597   5.242  1.00  0.00     0.000 C 
BRANCH   3   4
ATOM      4  C   UNL     1      -5.385   0.604   5.098  1.00  0.00     0.000 C 
BRANCH   4   5
ATOM      5  C   UNL     1      -5.964  -0.732   4.603  1.00  0.00     0.006 C 
BRANCH   5   6
ATOM      6  C   UNL     1      -5.422  -1.941   5.377  1.00  0.00     0.053 C 
BRANCH   6   7
ATOM      7  C   UNL     1      -6.301  -2.246   6.548  1.00  0.00     0.041 C 
ATOM      8  O   UNL     1      -5.824  -2.253   7.714  1.00  0.00    -0.550 OA
ATOM      9  O   UNL     1      -7.637  -2.570   6.350  1.00  0.00    -0.550 OA
ENDBRANCH   6   7
ENDBRANCH   5   6
ENDBRANCH   4   5
ENDBRANCH   3   4
ENDBRANCH   2   3
ENDBRANCH   1   2
BRANCH   1  10
ATOM     10  C   UNL     1      -1.669   2.602   3.799  1.00  0.00     0.027 C 
BRANCH  10  11
ATOM     11  C   UNL     1      -0.566   1.617   4.074  1.00  0.00    -0.031 C 
ATOM     12  C   UNL     1       0.722   1.927   3.857  1.00  0.00    -0.031 C 
BRANCH  12  13
ATOM     13  C   UNL     1       1.825   0.943   4.132  1.00  0.00     0.027 C 
BRANCH  13  14
ATOM     14  C   UNL     1       1.877  -0.148   3.055  1.00  0.00     0.004 C 
BRANCH  14  15
ATOM     15  C   UNL     1       1.784  -1.545   3.681  1.00  0.00     0.000 C 
BRANCH  15  16
ATOM     16  C   UNL     1       0.401  -2.166   3.436  1.00  0.00    -0.000 C 
BRANCH  16  17
ATOM     17  C   UNL     1      -0.549  -1.981   4.630  1.00  0.00    -0.003 C 
ATOM     18  C   UNL     1       0.194  -1.781   5.951  1.00  0.00     0.004 C 
ENDBRANCH  16  17
ENDBRANCH  15  16
ENDBRANCH  14  15
ENDBRANCH  13  14
ENDBRANCH  12  13
ENDBRANCH  10  11
ENDBRANCH   1  10
TORSDOF 13
ENDMDL
MODEL 4
REMARK VINA RESULT:    -4.649     14.893     16.028
REMARK INTER + INTRA:          -9.963
REMARK INTER:                  -8.210
REMARK INTRA:                  -1.753
REMARK UNBOUND:                -1.781
REMARK SMILES CCCCCCC=CCCCCCCCC(=O)[O-]
REMARK SMILES IDX 10 1 11 2 12 3 13 4 14 5 15 6 16 7 17 8 18 9 9 10 8 11 7 12
REMARK SMILES IDX 6 13 5 14 4 15 3 16 2 17 1 18
REMARK H PARENT
REMARK Flexibility Score: inf
ROOT
ATOM      1  C   UNL     1      -6.530  -6.445  -5.620  1.00  0.00     0.004 C 
ENDROOT
BRANCH   1   2
ATOM      2  C   UNL     1      -7.893  -5.949  -5.116  1.00  0.00     0.000 C 
BRANCH   2   3
ATOM      3  C   UNL     1      -9.017  -6.976  -5.339  1.00  0.00     0.000 C 
BRANCH   3   4
ATOM      4  C   UNL     1      -8.464  -8.386  -5.635  1.00  0.00     0.000 C 
BRANCH   4   5
ATOM      5  C   UNL     1      -9.074  -9.036  -6.888  1.00  0.00     0.006 C 
BRANCH   5   6
ATOM      6  C   UNL     1      -8.030  -9.740  -7.764  1.00  0.00     0.053 C 
BRANCH   6   7
ATOM      7  C   UNL     1      -8.250  -9.407  -9.206  1.00  0.00     0.041 C 
ATOM      8  O   UNL     1      -8.176  -8.213  -9.599  1.00  0.00    -0.550 OA
ATOM      9  O   UNL     1      -8.581 -10.409 -10.109  1.00  0.00    -0.550 OA
ENDBRANCH   6   7
ENDBRANCH   5   6
ENDBRANCH   4   5
ENDBRANCH   3   4
ENDBRANCH   2   3
ENDBRANCH   1   2
BRANCH   1  10
ATOM     10  C   UNL     1      -5.971  -5.573  -6.755  1.00  0.00     0.027 C 
BRANCH  10  11
ATOM     11  C   UNL     1      -5.457  -6.420  -7.887  1.00  0.00    -0.031 C 
ATOM     12  C   UNL     1      -5.153  -7.716  -7.713  1.00  0.00    -0.031 C 
BRANCH  12  13
ATOM     13  C   UNL     1      -4.638  -8.562  -8.844  1.00  0.00     0.027 C 
BRANCH  13  14
ATOM     14  C   UNL     1      -3.192  -9.006  -8.592  1.00  0.00     0.004 C 
BRANCH  14  15
ATOM     15  C   UNL     1      -2.963 -10.441  -9.084  1.00  0.00     0.000 C 
BRANCH  15  16
ATOM     16  C   UNL     1      -4.256 -11.037  -9.658  1.00  0.00    -0.000 C 
BRANCH  16  17
ATOM     17  C   UNL     1      -4.538 -12.453  -9.132  1.00  0.00    -0.003 C 
ATOM     18  C   UNL     1      -6.030 -12.727  -8.940  1.00  0.00     0.004 C 
ENDBRANCH  16  17
ENDBRANCH  15  16
ENDBRANCH  14  15
ENDBRANCH  13  14
ENDBRANCH  12  13
ENDBRANCH  10  11
ENDBRANCH   1  10
TORSDOF 13
ENDMDL
MODEL 5
REMARK VINA RESULT:    -4.551      3.130      4.583
REMARK INTER + INTRA:          -9.791
REMARK INTER:                  -8.299
REMARK INTRA:                  -1.492
REMARK UNBOUND:                -1.781
REMARK SMILES CCCCCCC=CCCCCCCCC(=O)[O-]
REMARK SMILES IDX 10 1 11 2 12 3 13 4 14 5 15 6 16 7 17 8 18 9 9 10 8 11 7 12
REMARK SMILES IDX 6 13 5 14 4 15 3 16 2 17 1 18
REMARK H PARENT
REMARK Flexibility Score: inf
ROOT
ATOM      1  C   UNL     1      -4.319  -0.307   4.102  1.00  0.00     0.004 C 
ENDROOT
BRANCH   1   2
ATOM      2  C   UNL     1      -5.096   0.508   5.148  1.00  0.00     0.000 C 
BRANCH   2   3
ATOM      3  C   UNL     1      -4.692   1.993   5.159  1.00  0.00     0.000 C 
BRANCH   3   4
ATOM      4  C   UNL     1      -4.949   2.676   3.799  1.00  0.00     0.000 C 
BRANCH   4   5
ATOM      5  C   UNL     1      -3.673   3.212   3.129  1.00  0.00     0.006 C 
BRANCH   5   6
ATOM      6  C   UNL     1      -3.966   4.171   1.968  1.00  0.00     0.053 C 
BRANCH   6   7
ATOM      7  C   UNL     1      -4.666   3.449   0.860  1.00  0.00     0.041 C 
ATOM      8  O   UNL     1      -4.061   2.566   0.197  1.00  0.00    -0.550 OA
ATOM      9  O   UNL     1      -5.972   3.784   0.528  1.00  0.00    -0.550 OA
ENDBRANCH   6   7
ENDBRANCH   5   6
ENDBRANCH   4   5
ENDBRANCH   3   4
ENDBRANCH   2   3
ENDBRANCH   1   2
BRANCH   1  10
ATOM     10  C   UNL     1      -2.912  -0.690   4.586  1.00  0.00     0.027 C 
BRANCH  10  11
ATOM     11  C   UNL     1      -1.866   0.197   3.968  1.00  0.00    -0.031 C 
ATOM     12  C   UNL     1      -1.034   0.933   4.723  1.00  0.00    -0.031 C 
BRANCH  12  13
ATOM     13  C   UNL     1       0.011   1.820   4.106  1.00  0.00     0.027 C 
BRANCH  13  14
ATOM     14  C   UNL     1       1.312   1.050   3.849  1.00  0.00     0.004 C 
BRANCH  14  15
ATOM     15  C   UNL     1       1.273  -0.334   4.509  1.00  0.00     0.000 C 
BRANCH  15  16
ATOM     16  C   UNL     1       1.671  -1.430   3.511  1.00  0.00    -0.000 C 
BRANCH  16  17
ATOM     17  C   UNL     1       0.523  -2.408   3.219  1.00  0.00    -0.003 C 
ATOM     18  C   UNL     1       0.076  -3.183   4.458  1.00  0.00     0.004 C 
ENDBRANCH  16  17
ENDBRANCH  15  16
ENDBRANCH  14  15
ENDBRANCH  13  14
ENDBRANCH  12  13
ENDBRANCH  10  11
ENDBRANCH   1  10
TORSDOF 13
ENDMDL
MODEL 6
REMARK VINA RESULT:    -4.538      3.196      4.349
REMARK INTER + INTRA:          -9.768
REMARK INTER:                  -8.707
REMARK INTRA:                  -1.061
REMARK UNBOUND:                -1.781
REMARK SMILES CCCCCCC=CCCCCCCCC(=O)[O-]
REMARK SMILES IDX 10 1 11 2 12 3 13 4 14 5 15 6 16 7 17 8 18 9 9 10 8 11 7 12
REMARK SMILES IDX 6 13 5 14 4 15 3 16 2 17 1 18
REMARK H PARENT
REMARK Flexibility Score: inf
ROOT
ATOM      1  C   UNL     1      -4.066   0.085   4.776  1.00  0.00     0.004 C 
ENDROOT
BRANCH   1   2
ATOM      2  C   UNL     1      -4.952   1.300   5.094  1.00  0.00     0.000 C 
BRANCH   2   3
ATOM      3  C   UNL     1      -5.138   2.229   3.882  1.00  0.00     0.000 C 
BRANCH   3   4
ATOM      4  C   UNL     1      -4.473   3.605   4.096  1.00  0.00     0.000 C 
BRANCH   4   5
ATOM      5  C   UNL     1      -3.582   4.048   2.923  1.00  0.00     0.006 C 
BRANCH   5   6
ATOM      6  C   UNL     1      -3.079   2.871   2.077  1.00  0.00     0.053 C 
BRANCH   6   7
ATOM      7  C   UNL     1      -3.598   2.975   0.677  1.00  0.00     0.041 C 
ATOM      8  O   UNL     1      -2.798   2.996  -0.295  1.00  0.00    -0.550 OA
ATOM      9  O   UNL     1      -4.962   3.097   0.449  1.00  0.00    -0.550 OA
ENDBRANCH   6   7
ENDBRANCH   5   6
ENDBRANCH   4   5
ENDBRANCH   3   4
ENDBRANCH   2   3
ENDBRANCH   1   2
BRANCH   1  10
ATOM     10  C   UNL     1      -2.570   0.387   4.959  1.00  0.00     0.027 C 
BRANCH  10  11
ATOM     11  C   UNL     1      -1.731  -0.445   4.028  1.00  0.00    -0.031 C 
ATOM     12  C   UNL     1      -0.821  -1.315   4.491  1.00  0.00    -0.031 C 
BRANCH  12  13
ATOM     13  C   UNL     1       0.018  -2.146   3.561  1.00  0.00     0.027 C 
BRANCH  13  14
ATOM     14  C   UNL     1       1.514  -1.886   3.778  1.00  0.00     0.004 C 
BRANCH  14  15
ATOM     15  C   UNL     1       1.913  -0.501   3.256  1.00  0.00     0.000 C 
BRANCH  15  16
ATOM     16  C   UNL     1       3.334  -0.522   2.676  1.00  0.00    -0.000 C 
BRANCH  16  17
ATOM     17  C   UNL     1       3.897   0.889   2.438  1.00  0.00    -0.003 C 
ATOM     18  C   UNL     1       3.113   1.669   1.383  1.00  0.00     0.004 C 
ENDBRANCH  16  17
ENDBRANCH  15  16
ENDBRANCH  14  15
ENDBRANCH  13  14
ENDBRANCH  12  13
ENDBRANCH  10  11
ENDBRANCH   1  10
TORSDOF 13
ENDMDL
MODEL 7
REMARK VINA RESULT:    -4.449      3.206      6.384
REMARK INTER + INTRA:          -9.611
REMARK INTER:                  -7.920
REMARK INTRA:                  -1.691
REMARK UNBOUND:                -1.781
REMARK SMILES CCCCCCC=CCCCCCCCC(=O)[O-]
REMARK SMILES IDX 10 1 11 2 12 3 13 4 14 5 15 6 16 7 17 8 18 9 9 10 8 11 7 12
REMARK SMILES IDX 6 13 5 14 4 15 3 16 2 17 1 18
REMARK H PARENT
REMARK Flexibility Score: inf
ROOT
ATOM      1  C   UNL     1       0.876   1.308   4.407  1.00  0.00     0.004 C 
ENDROOT
BRANCH   1   2
ATOM      2  C   UNL     1       0.402   2.523   3.594  1.00  0.00     0.000 C 
BRANCH   2   3
ATOM      3  C   UNL     1      -0.289   3.585   4.467  1.00  0.00     0.000 C 
BRANCH   3   4
ATOM      4  C   UNL     1      -1.749   3.834   4.032  1.00  0.00     0.000 C 
BRANCH   4   5
ATOM      5  C   UNL     1      -1.999   3.576   2.537  1.00  0.00     0.006 C 
BRANCH   5   6
ATOM      6  C   UNL     1      -3.217   2.679   2.281  1.00  0.00     0.053 C 
BRANCH   6   7
ATOM      7  C   UNL     1      -3.784   2.945   0.922  1.00  0.00     0.041 C 
ATOM      8  O   UNL     1      -3.074   2.780  -0.105  1.00  0.00    -0.550 OA
ATOM      9  O   UNL     1      -5.082   3.421   0.791  1.00  0.00    -0.550 OA
ENDBRANCH   6   7
ENDBRANCH   5   6
ENDBRANCH   4   5
ENDBRANCH   3   4
ENDBRANCH   2   3
ENDBRANCH   1   2
BRANCH   1  10
ATOM     10  C   UNL     1       0.210   0.001   3.950  1.00  0.00     0.027 C 
BRANCH  10  11
ATOM     11  C   UNL     1      -1.288   0.092   4.051  1.00  0.00    -0.031 C 
ATOM     12  C   UNL     1      -1.900   0.332   5.221  1.00  0.00    -0.031 C 
BRANCH  12  13
ATOM     13  C   UNL     1      -3.397   0.423   5.322  1.00  0.00     0.027 C 
BRANCH  13  14
ATOM     14  C   UNL     1      -4.078  -0.628   4.436  1.00  0.00     0.004 C 
BRANCH  14  15
ATOM     15  C   UNL     1      -5.605  -0.533   4.543  1.00  0.00     0.000 C 
BRANCH  15  16
ATOM     16  C   UNL     1      -6.056  -0.573   6.010  1.00  0.00    -0.000 C 
BRANCH  16  17
ATOM     17  C   UNL     1      -6.056  -1.997   6.589  1.00  0.00    -0.003 C 
ATOM     18  C   UNL     1      -7.314  -2.784   6.222  1.00  0.00     0.004 C 
ENDBRANCH  16  17
ENDBRANCH  15  16
ENDBRANCH  14  15
ENDBRANCH  13  14
ENDBRANCH  12  13
ENDBRANCH  10  11
ENDBRANCH   1  10
TORSDOF 13
ENDMDL
MODEL 8
REMARK VINA RESULT:    -4.396      1.822      3.222
REMARK INTER + INTRA:          -9.519
REMARK INTER:                  -7.930
REMARK INTRA:                  -1.588
REMARK UNBOUND:                -1.781
REMARK SMILES CCCCCCC=CCCCCCCCC(=O)[O-]
REMARK SMILES IDX 10 1 11 2 12 3 13 4 14 5 15 6 16 7 17 8 18 9 9 10 8 11 7 12
REMARK SMILES IDX 6 13 5 14 4 15 3 16 2 17 1 18
REMARK H PARENT
REMARK Flexibility Score: inf
ROOT
ATOM      1  C   UNL     1      -3.373   3.023   7.847  1.00  0.00     0.004 C 
ENDROOT
BRANCH   1   2
ATOM      2  C   UNL     1      -3.334   1.503   8.069  1.00  0.00     0.000 C 
BRANCH   2   3
ATOM      3  C   UNL     1      -4.643   0.960   8.669  1.00  0.00     0.000 C 
BRANCH   3   4
ATOM      4  C   UNL     1      -5.831   1.100   7.695  1.00  0.00     0.000 C 
BRANCH   4   5
ATOM      5  C   UNL     1      -5.682   0.260   6.415  1.00  0.00     0.006 C 
BRANCH   5   6
ATOM      6  C   UNL     1      -5.832  -1.246   6.668  1.00  0.00     0.053 C 
BRANCH   6   7
ATOM      7  C   UNL     1      -6.929  -1.810   5.821  1.00  0.00     0.041 C 
ATOM      8  O   UNL     1      -7.723  -2.663   6.297  1.00  0.00    -0.550 OA
ATOM      9  O   UNL     1      -7.045  -1.429   4.490  1.00  0.00    -0.550 OA
ENDBRANCH   6   7
ENDBRANCH   5   6
ENDBRANCH   4   5
ENDBRANCH   3   4
ENDBRANCH   2   3
ENDBRANCH   1   2
BRANCH   1  10
ATOM     10  C   UNL     1      -2.954   3.419   6.422  1.00  0.00     0.027 C 
BRANCH  10  11
ATOM     11  C   UNL     1      -2.656   2.203   5.588  1.00  0.00    -0.031 C 
ATOM     12  C   UNL     1      -3.252   2.001   4.403  1.00  0.00    -0.031 C 
BRANCH  12  13
ATOM     13  C   UNL     1      -2.953   0.786   3.569  1.00  0.00     0.027 C 
BRANCH  13  14
ATOM     14  C   UNL     1      -2.593  -0.417   4.449  1.00  0.00     0.004 C 
BRANCH  14  15
ATOM     15  C   UNL     1      -1.170  -0.908   4.155  1.00  0.00     0.000 C 
BRANCH  15  16
ATOM     16  C   UNL     1      -0.903  -2.258   4.836  1.00  0.00    -0.000 C 
BRANCH  16  17
ATOM     17  C   UNL     1       0.225  -3.050   4.157  1.00  0.00    -0.003 C 
ATOM     18  C   UNL     1       1.145  -2.165   3.316  1.00  0.00     0.004 C 
ENDBRANCH  16  17
ENDBRANCH  15  16
ENDBRANCH  14  15
ENDBRANCH  13  14
ENDBRANCH  12  13
ENDBRANCH  10  11
ENDBRANCH   1  10
TORSDOF 13
ENDMDL
MODEL 9
REMARK VINA RESULT:    -4.373      4.027      7.522
REMARK INTER + INTRA:          -9.477
REMARK INTER:                  -8.277
REMARK INTRA:                  -1.200
REMARK UNBOUND:                -1.781
REMARK SMILES CCCCCCC=CCCCCCCCC(=O)[O-]
REMARK SMILES IDX 10 1 11 2 12 3 13 4 14 5 15 6 16 7 17 8 18 9 9 10 8 11 7 12
REMARK SMILES IDX 6 13 5 14 4 15 3 16 2 17 1 18
REMARK H PARENT
REMARK Flexibility Score: inf
ROOT
ATOM      1  C   UNL     1      -1.888  -0.626   3.755  1.00  0.00     0.004 C 
ENDROOT
BRANCH   1   2
ATOM      2  C   UNL     1      -0.771  -0.893   4.776  1.00  0.00     0.000 C 
BRANCH   2   3
ATOM      3  C   UNL     1      -0.097  -2.261   4.572  1.00  0.00     0.000 C 
BRANCH   3   4
ATOM      4  C   UNL     1       1.108  -2.178   3.612  1.00  0.00     0.000 C 
BRANCH   4   5
ATOM      5  C   UNL     1       1.695  -0.762   3.480  1.00  0.00     0.006 C 
BRANCH   5   6
ATOM      6  C   UNL     1       3.003  -0.729   2.680  1.00  0.00     0.053 C 
BRANCH   6   7
ATOM      7  C   UNL     1       3.373   0.681   2.344  1.00  0.00     0.041 C 
ATOM      8  O   UNL     1       2.499   1.481   1.918  1.00  0.00    -0.550 OA
ATOM      9  O   UNL     1       4.693   1.099   2.455  1.00  0.00    -0.550 OA
ENDBRANCH   6   7
ENDBRANCH   5   6
ENDBRANCH   4   5
ENDBRANCH   3   4
ENDBRANCH   2   3
ENDBRANCH   1   2
BRANCH   1  10
ATOM     10  C   UNL     1      -2.712   0.624   4.100  1.00  0.00     0.027 C 
BRANCH  10  11
ATOM     11  C   UNL     1      -4.187   0.346   3.999  1.00  0.00    -0.031 C 
ATOM     12  C   UNL     1      -4.729  -0.767   4.517  1.00  0.00    -0.031 C 
BRANCH  12  13
ATOM     13  C   UNL     1      -6.203  -1.045   4.416  1.00  0.00     0.027 C 
BRANCH  13  14
ATOM     14  C   UNL     1      -6.798  -1.389   5.787  1.00  0.00     0.004 C 
BRANCH  14  15
ATOM     15  C   UNL     1      -5.694  -1.609   6.828  1.00  0.00     0.000 C 
BRANCH  15  16
ATOM     16  C   UNL     1      -5.849  -0.638   8.007  1.00  0.00    -0.000 C 
BRANCH  16  17
ATOM     17  C   UNL     1      -5.763   0.834   7.575  1.00  0.00    -0.003 C 
ATOM     18  C   UNL     1      -4.325   1.352   7.525  1.00  0.00     0.004 C 
ENDBRANCH  16  17
ENDBRANCH  15  16
ENDBRANCH  14  15
ENDBRANCH  13  14
ENDBRANCH  12  13
ENDBRANCH  10  11
ENDBRANCH   1  10
TORSDOF 13
ENDMDL
