MODEL 1
REMARK VINA RESULT:    -4.137      0.000      0.000
REMARK INTER + INTRA:          -4.397
REMARK INTER:                  -4.379
REMARK INTRA:                  -0.018
REMARK UNBOUND:                -0.018
REMARK SMILES O=C([O-])c1cccnc1
REMARK SMILES IDX 4 1 5 2 9 3 6 4 8 5 7 6 2 7 1 8 3 9
REMARK H PARENT
REMARK Flexibility Score: inf
ROOT
ATOM      1  C   UNL     1     107.071 111.557  95.557  1.00  0.00     0.016 A 
ATOM      2  C   UNL     1     107.126 110.157  95.645  1.00  0.00     0.013 A 
ATOM      3  C   UNL     1     108.252 112.288  95.772  1.00  0.00     0.120 A 
ATOM      4  C   UNL     1     108.334 109.520  95.939  1.00  0.00     0.021 A 
ATOM      5  N   UNL     1     109.415 111.643  96.056  1.00  0.00    -0.264 NA
ATOM      6  C   UNL     1     109.480 110.288  96.143  1.00  0.00     0.111 A 
ENDROOT
BRANCH   1   7
ATOM      7  C   UNL     1     105.802 112.251  95.247  1.00  0.00     0.073 C 
ATOM      8  O   UNL     1     105.716 113.013  94.247  1.00  0.00    -0.545 OA
ATOM      9  O   UNL     1     104.685 112.068  96.054  1.00  0.00    -0.545 OA
ENDBRANCH   1   7
TORSDOF 1
ENDMDL
MODEL 2
REMARK VINA RESULT:    -3.967      2.525      3.012
REMARK INTER + INTRA:          -4.217
REMARK INTER:                  -4.197
REMARK INTRA:                  -0.020
REMARK UNBOUND:                -0.018
REMARK SMILES O=C([O-])c1cccnc1
REMARK SMILES IDX 4 1 5 2 9 3 6 4 8 5 7 6 2 7 1 8 3 9
REMARK H PARENT
REMARK Flexibility Score: inf
ROOT
ATOM      1  C   UNL     1     106.130 110.753  94.141  1.00  0.00     0.016 A 
ATOM      2  C   UNL     1     106.234 110.562  92.754  1.00  0.00     0.013 A 
ATOM      3  C   UNL     1     106.385 109.660  94.987  1.00  0.00     0.120 A 
ATOM      4  C   UNL     1     106.584 109.311  92.242  1.00  0.00     0.021 A 
ATOM      5  N   UNL     1     106.724 108.451  94.463  1.00  0.00    -0.264 NA
ATOM      6  C   UNL     1     106.829 108.257  93.122  1.00  0.00     0.111 A 
ENDROOT
BRANCH   1   7
ATOM      7  C   UNL     1     105.760 112.070  94.703  1.00  0.00     0.073 C 
ATOM      8  O   UNL     1     106.258 113.129  94.235  1.00  0.00    -0.545 OA
ATOM      9  O   UNL     1     104.855 112.158  95.755  1.00  0.00    -0.545 OA
ENDBRANCH   1   7
TORSDOF 1
ENDMDL
MODEL 3
REMARK VINA RESULT:    -3.946      2.528      3.225
REMARK INTER + INTRA:          -4.195
REMARK INTER:                  -4.171
REMARK INTRA:                  -0.024
REMARK UNBOUND:                -0.018
REMARK SMILES O=C([O-])c1cccnc1
REMARK SMILES IDX 4 1 5 2 9 3 6 4 8 5 7 6 2 7 1 8 3 9
REMARK H PARENT
REMARK Flexibility Score: inf
ROOT
ATOM      1  C   UNL     1     106.431 111.444  96.524  1.00  0.00     0.016 A 
ATOM      2  C   UNL     1     107.778 111.511  96.131  1.00  0.00     0.013 A 
ATOM      3  C   UNL     1     105.463 112.037  95.695  1.00  0.00     0.120 A 
ATOM      4  C   UNL     1     108.130 112.153  94.942  1.00  0.00     0.021 A 
ATOM      5  N   UNL     1     105.833 112.656  94.542  1.00  0.00    -0.264 NA
ATOM      6  C   UNL     1     107.133 112.725  94.152  1.00  0.00     0.111 A 
ENDROOT
BRANCH   1   7
ATOM      7  C   UNL     1     106.037 110.769  97.780  1.00  0.00     0.073 C 
ATOM      8  O   UNL     1     106.905 110.451  98.635  1.00  0.00    -0.545 OA
ATOM      9  O   UNL     1     104.701 110.477  98.032  1.00  0.00    -0.545 OA
ENDBRANCH   1   7
TORSDOF 1
ENDMDL
MODEL 4
REMARK VINA RESULT:    -3.927      6.275      6.807
REMARK INTER + INTRA:          -4.174
REMARK INTER:                  -4.156
REMARK INTRA:                  -0.019
REMARK UNBOUND:                -0.018
REMARK SMILES O=C([O-])c1cccnc1
REMARK SMILES IDX 4 1 5 2 9 3 6 4 8 5 7 6 2 7 1 8 3 9
REMARK H PARENT
REMARK Flexibility Score: inf
ROOT
ATOM      1  C   UNL     1     103.119 106.890  97.675  1.00  0.00     0.016 A 
ATOM      2  C   UNL     1     104.506 106.897  97.898  1.00  0.00     0.013 A 
ATOM      3  C   UNL     1     102.609 106.055  96.666  1.00  0.00     0.120 A 
ATOM      4  C   UNL     1     105.343 106.087  97.129  1.00  0.00     0.021 A 
ATOM      5  N   UNL     1     103.446 105.276  95.931  1.00  0.00    -0.264 NA
ATOM      6  C   UNL     1     104.789 105.275  96.140  1.00  0.00     0.111 A 
ENDROOT
BRANCH   1   7
ATOM      7  C   UNL     1     102.214 107.741  98.479  1.00  0.00     0.073 C 
ATOM      8  O   UNL     1     101.388 108.507  97.916  1.00  0.00    -0.545 OA
ATOM      9  O   UNL     1     102.264 107.704  99.868  1.00  0.00    -0.545 OA
ENDBRANCH   1   7
TORSDOF 1
ENDMDL
MODEL 5
REMARK VINA RESULT:    -3.902      6.806      7.658
REMARK INTER + INTRA:          -4.148
REMARK INTER:                  -4.125
REMARK INTRA:                  -0.023
REMARK UNBOUND:                -0.018
REMARK SMILES O=C([O-])c1cccnc1
REMARK SMILES IDX 4 1 5 2 9 3 6 4 8 5 7 6 2 7 1 8 3 9
REMARK H PARENT
REMARK Flexibility Score: inf
ROOT
ATOM      1  C   UNL     1     102.617 106.733  99.179  1.00  0.00     0.016 A 
ATOM      2  C   UNL     1     102.538 105.586  98.372  1.00  0.00     0.013 A 
ATOM      3  C   UNL     1     103.464 107.779  98.774  1.00  0.00     0.120 A 
ATOM      4  C   UNL     1     103.288 105.504  97.197  1.00  0.00     0.021 A 
ATOM      5  N   UNL     1     104.183 107.673  97.625  1.00  0.00    -0.264 NA
ATOM      6  C   UNL     1     104.114 106.568  96.836  1.00  0.00     0.111 A 
ENDROOT
BRANCH   1   7
ATOM      7  C   UNL     1     101.830 106.840 100.428  1.00  0.00     0.073 C 
ATOM      8  O   UNL     1     101.409 105.805 101.009  1.00  0.00    -0.545 OA
ATOM      9  O   UNL     1     101.547 108.086 100.976  1.00  0.00    -0.545 OA
ENDBRANCH   1   7
TORSDOF 1
ENDMDL
MODEL 6
REMARK VINA RESULT:    -3.851      3.096      3.282
REMARK INTER + INTRA:          -4.094
REMARK INTER:                  -4.078
REMARK INTRA:                  -0.016
REMARK UNBOUND:                -0.018
REMARK SMILES O=C([O-])c1cccnc1
REMARK SMILES IDX 4 1 5 2 9 3 6 4 8 5 7 6 2 7 1 8 3 9
REMARK H PARENT
REMARK Flexibility Score: inf
ROOT
ATOM      1  C   UNL     1     106.746 111.238  93.338  1.00  0.00     0.016 A 
ATOM      2  C   UNL     1     106.168 110.486  92.302  1.00  0.00     0.013 A 
ATOM      3  C   UNL     1     108.091 111.626  93.213  1.00  0.00     0.120 A 
ATOM      4  C   UNL     1     106.925 110.143  91.180  1.00  0.00     0.021 A 
ATOM      5  N   UNL     1     108.806 111.278  92.110  1.00  0.00    -0.264 NA
ATOM      6  C   UNL     1     108.256 110.552  91.101  1.00  0.00     0.111 A 
ENDROOT
BRANCH   1   7
ATOM      7  C   UNL     1     105.961 111.612  94.535  1.00  0.00     0.073 C 
ATOM      8  O   UNL     1     105.447 112.758  94.630  1.00  0.00    -0.545 OA
ATOM      9  O   UNL     1     105.781 110.703  95.571  1.00  0.00    -0.545 OA
ENDBRANCH   1   7
TORSDOF 1
ENDMDL
MODEL 7
REMARK VINA RESULT:    -3.815      3.317      3.589
REMARK INTER + INTRA:          -4.056
REMARK INTER:                  -4.040
REMARK INTRA:                  -0.016
REMARK UNBOUND:                -0.018
REMARK SMILES O=C([O-])c1cccnc1
REMARK SMILES IDX 4 1 5 2 9 3 6 4 8 5 7 6 2 7 1 8 3 9
REMARK H PARENT
REMARK Flexibility Score: inf
ROOT
ATOM      1  C   UNL     1     106.799 111.221  93.270  1.00  0.00     0.016 A 
ATOM      2  C   UNL     1     108.166 111.526  93.161  1.00  0.00     0.013 A 
ATOM      3  C   UNL     1     106.201 110.461  92.250  1.00  0.00     0.120 A 
ATOM      4  C   UNL     1     108.898 111.076  92.060  1.00  0.00     0.021 A 
ATOM      5  N   UNL     1     106.937 110.035  91.189  1.00  0.00    -0.264 NA
ATOM      6  C   UNL     1     108.260 110.324  91.074  1.00  0.00     0.111 A 
ENDROOT
BRANCH   1   7
ATOM      7  C   UNL     1     106.005 111.688  94.428  1.00  0.00     0.073 C 
ATOM      8  O   UNL     1     105.598 112.878  94.486  1.00  0.00    -0.545 OA
ATOM      9  O   UNL     1     105.697 110.817  95.466  1.00  0.00    -0.545 OA
ENDBRANCH   1   7
TORSDOF 1
ENDMDL
MODEL 8
REMARK VINA RESULT:    -3.788      7.415      7.997
REMARK INTER + INTRA:          -4.028
REMARK INTER:                  -4.010
REMARK INTRA:                  -0.018
REMARK UNBOUND:                -0.018
REMARK SMILES O=C([O-])c1cccnc1
REMARK SMILES IDX 4 1 5 2 9 3 6 4 8 5 7 6 2 7 1 8 3 9
REMARK H PARENT
REMARK Flexibility Score: inf
ROOT
ATOM      1  C   UNL     1     102.689 106.253  98.840  1.00  0.00     0.016 A 
ATOM      2  C   UNL     1     103.808 105.477  98.495  1.00  0.00     0.013 A 
ATOM      3  C   UNL     1     102.182 106.151 100.146  1.00  0.00     0.120 A 
ATOM      4  C   UNL     1     104.392 104.630  99.440  1.00  0.00     0.021 A 
ATOM      5  N   UNL     1     102.770 105.319 101.048  1.00  0.00    -0.264 NA
ATOM      6  C   UNL     1     103.853 104.565 100.724  1.00  0.00     0.111 A 
ENDROOT
BRANCH   1   7
ATOM      7  C   UNL     1     102.056 107.155  97.853  1.00  0.00     0.073 C 
ATOM      8  O   UNL     1     101.912 108.381  98.107  1.00  0.00    -0.545 OA
ATOM      9  O   UNL     1     101.612 106.663  96.631  1.00  0.00    -0.545 OA
ENDBRANCH   1   7
TORSDOF 1
ENDMDL
MODEL 9
REMARK VINA RESULT:    -3.712      8.038      8.806
REMARK INTER + INTRA:          -3.947
REMARK INTER:                  -3.923
REMARK INTRA:                  -0.024
REMARK UNBOUND:                -0.018
REMARK SMILES O=C([O-])c1cccnc1
REMARK SMILES IDX 4 1 5 2 9 3 6 4 8 5 7 6 2 7 1 8 3 9
REMARK H PARENT
REMARK Flexibility Score: inf
ROOT
ATOM      1  C   UNL     1     101.781 106.821 100.599  1.00  0.00     0.016 A 
ATOM      2  C   UNL     1     102.345 105.542 100.728  1.00  0.00     0.013 A 
ATOM      3  C   UNL     1     102.093 107.577  99.455  1.00  0.00     0.120 A 
ATOM      4  C   UNL     1     103.193 105.046  99.736  1.00  0.00     0.021 A 
ATOM      5  N   UNL     1     102.922 107.070  98.504  1.00  0.00    -0.264 NA
ATOM      6  C   UNL     1     103.472 105.833  98.619  1.00  0.00     0.111 A 
ENDROOT
BRANCH   1   7
ATOM      7  C   UNL     1     100.880 107.365 101.639  1.00  0.00     0.073 C 
ATOM      8  O   UNL     1     100.601 106.685 102.662  1.00  0.00    -0.545 OA
ATOM      9  O   UNL     1     100.332 108.635 101.501  1.00  0.00    -0.545 OA
ENDBRANCH   1   7
TORSDOF 1
ENDMDL
