MODEL 1
REMARK VINA RESULT:    -5.871      0.000      0.000
REMARK INTER + INTRA:          -6.670
REMARK INTER:                  -6.557
REMARK INTRA:                  -0.113
REMARK UNBOUND:                -0.113
REMARK SMILES COc1cc2ccc(=O)oc2cc1OC
REMARK SMILES IDX 3 1 13 2 12 3 11 4 5 5 4 6 6 7 7 8 8 9 9 10 10 11 2 12 1 13
REMARK SMILES IDX 14 14 15 15
REMARK H PARENT
REMARK Flexibility Score: inf
ROOT
ATOM      1  C   UNL     1      12.213  -2.097  19.065  1.00  0.00     0.161 A 
ATOM      2  C   UNL     1      10.969  -1.446  19.122  1.00  0.00     0.164 A 
ATOM      3  C   UNL     1       9.798  -2.194  19.355  1.00  0.00     0.098 A 
ATOM      4  C   UNL     1       9.865  -3.579  19.528  1.00  0.00     0.142 A 
ATOM      5  C   UNL     1      11.113  -4.232  19.471  1.00  0.00     0.022 A 
ATOM      6  C   UNL     1      12.280  -3.494  19.239  1.00  0.00     0.062 A 
ATOM      7  C   UNL     1      11.147  -5.619  19.649  1.00  0.00     0.019 A 
ATOM      8  C   UNL     1       9.957  -6.310  19.876  1.00  0.00     0.094 A 
ATOM      9  C   UNL     1       8.756  -5.594  19.920  1.00  0.00     0.336 A 
ATOM     10  O   UNL     1       7.671  -6.199  20.125  1.00  0.00    -0.246 OA
ATOM     11  O   UNL     1       8.753  -4.275  19.748  1.00  0.00    -0.423 OA
ENDROOT
BRANCH   1  12
ATOM     12  O   UNL     1      13.360  -1.321  18.831  1.00  0.00    -0.493 OA
ATOM     13  C   UNL     1      14.507  -1.301  19.674  1.00  0.00     0.278 C 
ENDBRANCH   1  12
BRANCH   2  14
ATOM     14  O   UNL     1      10.939  -0.054  18.943  1.00  0.00    -0.493 OA
ATOM     15  C   UNL     1       9.750   0.729  18.897  1.00  0.00     0.278 C 
ENDBRANCH   2  14
TORSDOF 2
ENDMDL
MODEL 2
REMARK VINA RESULT:    -5.414      1.100      2.848
REMARK INTER + INTRA:          -6.160
REMARK INTER:                  -6.046
REMARK INTRA:                  -0.114
REMARK UNBOUND:                -0.113
REMARK SMILES COc1cc2ccc(=O)oc2cc1OC
REMARK SMILES IDX 3 1 13 2 12 3 11 4 5 5 4 6 6 7 7 8 8 9 9 10 10 11 2 12 1 13
REMARK SMILES IDX 14 14 15 15
REMARK H PARENT
REMARK Flexibility Score: inf
ROOT
ATOM      1  C   UNL     1      11.424  -1.182  19.231  1.00  0.00     0.161 A 
ATOM      2  C   UNL     1      12.589  -1.959  19.126  1.00  0.00     0.164 A 
ATOM      3  C   UNL     1      12.508  -3.361  19.244  1.00  0.00     0.098 A 
ATOM      4  C   UNL     1      11.276  -3.982  19.466  1.00  0.00     0.142 A 
ATOM      5  C   UNL     1      10.107  -3.202  19.572  1.00  0.00     0.022 A 
ATOM      6  C   UNL     1      10.182  -1.809  19.456  1.00  0.00     0.062 A 
ATOM      7  C   UNL     1       8.890  -3.854  19.794  1.00  0.00     0.019 A 
ATOM      8  C   UNL     1       8.866  -5.244  19.903  1.00  0.00     0.094 A 
ATOM      9  C   UNL     1      10.067  -5.953  19.787  1.00  0.00     0.336 A 
ATOM     10  O   UNL     1      10.068  -7.207  19.882  1.00  0.00    -0.246 OA
ATOM     11  O   UNL     1      11.212  -5.307  19.576  1.00  0.00    -0.423 OA
ENDROOT
BRANCH   1  12
ATOM     12  O   UNL     1      11.541   0.212  19.109  1.00  0.00    -0.493 OA
ATOM     13  C   UNL     1      10.442   1.105  18.956  1.00  0.00     0.278 C 
ENDBRANCH   1  12
BRANCH   2  14
ATOM     14  O   UNL     1      13.809  -1.301  18.902  1.00  0.00    -0.493 OA
ATOM     15  C   UNL     1      14.949  -1.405  19.749  1.00  0.00     0.278 C 
ENDBRANCH   2  14
TORSDOF 2
ENDMDL
MODEL 3
REMARK VINA RESULT:    -5.222      1.402      1.592
REMARK INTER + INTRA:          -5.945
REMARK INTER:                  -5.805
REMARK INTRA:                  -0.140
REMARK UNBOUND:                -0.113
REMARK SMILES COc1cc2ccc(=O)oc2cc1OC
REMARK SMILES IDX 3 1 13 2 12 3 11 4 5 5 4 6 6 7 7 8 8 9 9 10 10 11 2 12 1 13
REMARK SMILES IDX 14 14 15 15
REMARK H PARENT
REMARK Flexibility Score: inf
ROOT
ATOM      1  C   UNL     1      10.861  -1.331  19.825  1.00  0.00     0.161 A 
ATOM      2  C   UNL     1       9.459  -1.316  19.738  1.00  0.00     0.164 A 
ATOM      3  C   UNL     1       8.748  -2.532  19.685  1.00  0.00     0.098 A 
ATOM      4  C   UNL     1       9.430  -3.752  19.718  1.00  0.00     0.142 A 
ATOM      5  C   UNL     1      10.837  -3.766  19.805  1.00  0.00     0.022 A 
ATOM      6  C   UNL     1      11.548  -2.561  19.857  1.00  0.00     0.062 A 
ATOM      7  C   UNL     1      11.489  -5.003  19.836  1.00  0.00     0.019 A 
ATOM      8  C   UNL     1      10.737  -6.176  19.781  1.00  0.00     0.094 A 
ATOM      9  C   UNL     1       9.343  -6.084  19.695  1.00  0.00     0.336 A 
ATOM     10  O   UNL     1       8.646  -7.130  19.644  1.00  0.00    -0.246 OA
ATOM     11  O   UNL     1       8.749  -4.894  19.667  1.00  0.00    -0.423 OA
ENDROOT
BRANCH   1  12
ATOM     12  O   UNL     1      11.537  -0.101  19.875  1.00  0.00    -0.493 OA
ATOM     13  C   UNL     1      12.023   0.602  18.736  1.00  0.00     0.278 C 
ENDBRANCH   1  12
BRANCH   2  14
ATOM     14  O   UNL     1       8.808  -0.073  19.707  1.00  0.00    -0.493 OA
ATOM     15  C   UNL     1       8.179   0.481  18.556  1.00  0.00     0.278 C 
ENDBRANCH   2  14
TORSDOF 2
ENDMDL
MODEL 4
REMARK VINA RESULT:    -4.534      9.811     12.991
REMARK INTER + INTRA:          -5.177
REMARK INTER:                  -5.565
REMARK INTRA:                   0.388
REMARK UNBOUND:                -0.113
REMARK SMILES COc1cc2ccc(=O)oc2cc1OC
REMARK SMILES IDX 3 1 13 2 12 3 11 4 5 5 4 6 6 7 7 8 8 9 9 10 10 11 2 12 1 13
REMARK SMILES IDX 14 14 15 15
REMARK H PARENT
REMARK Flexibility Score: inf
ROOT
ATOM      1  C   UNL     1       7.161   2.498  10.563  1.00  0.00     0.161 A 
ATOM      2  C   UNL     1       8.143   2.873  11.496  1.00  0.00     0.164 A 
ATOM      3  C   UNL     1       8.357   4.238  11.774  1.00  0.00     0.098 A 
ATOM      4  C   UNL     1       7.601   5.219  11.128  1.00  0.00     0.142 A 
ATOM      5  C   UNL     1       6.616   4.842  10.193  1.00  0.00     0.022 A 
ATOM      6  C   UNL     1       6.399   3.488   9.912  1.00  0.00     0.062 A 
ATOM      7  C   UNL     1       5.875   5.848   9.564  1.00  0.00     0.019 A 
ATOM      8  C   UNL     1       6.128   7.183   9.876  1.00  0.00     0.094 A 
ATOM      9  C   UNL     1       7.122   7.482  10.815  1.00  0.00     0.336 A 
ATOM     10  O   UNL     1       7.366   8.680  11.112  1.00  0.00    -0.246 OA
ATOM     11  O   UNL     1       7.811   6.505  11.399  1.00  0.00    -0.423 OA
ENDROOT
BRANCH   1  12
ATOM     12  O   UNL     1       6.975   1.129  10.310  1.00  0.00    -0.493 OA
ATOM     13  C   UNL     1       6.250   0.604   9.202  1.00  0.00     0.278 C 
ENDBRANCH   1  12
BRANCH   2  14
ATOM     14  O   UNL     1       8.884   1.861  12.125  1.00  0.00    -0.493 OA
ATOM     15  C   UNL     1       9.542   0.798  11.443  1.00  0.00     0.278 C 
ENDBRANCH   2  14
TORSDOF 2
ENDMDL
MODEL 5
REMARK VINA RESULT:    -4.499      3.068      5.106
REMARK INTER + INTRA:          -5.138
REMARK INTER:                  -5.047
REMARK INTRA:                  -0.091
REMARK UNBOUND:                -0.113
REMARK SMILES COc1cc2ccc(=O)oc2cc1OC
REMARK SMILES IDX 3 1 13 2 12 3 11 4 5 5 4 6 6 7 7 8 8 9 9 10 10 11 2 12 1 13
REMARK SMILES IDX 14 14 15 15
REMARK H PARENT
REMARK Flexibility Score: inf
ROOT
ATOM      1  C   UNL     1       8.943   0.271  18.719  1.00  0.00     0.161 A 
ATOM      2  C   UNL     1       9.740   1.409  18.932  1.00  0.00     0.164 A 
ATOM      3  C   UNL     1      11.129   1.265  19.123  1.00  0.00     0.098 A 
ATOM      4  C   UNL     1      11.718  -0.002  19.104  1.00  0.00     0.142 A 
ATOM      5  C   UNL     1      10.919  -1.144  18.890  1.00  0.00     0.022 A 
ATOM      6  C   UNL     1       9.538  -1.007  18.700  1.00  0.00     0.062 A 
ATOM      7  C   UNL     1      11.539  -2.397  18.876  1.00  0.00     0.019 A 
ATOM      8  C   UNL     1      12.917  -2.482  19.071  1.00  0.00     0.094 A 
ATOM      9  C   UNL     1      13.646  -1.306  19.277  1.00  0.00     0.336 A 
ATOM     10  O   UNL     1      14.891  -1.360  19.454  1.00  0.00    -0.246 OA
ATOM     11  O   UNL     1      13.030  -0.126  19.285  1.00  0.00    -0.423 OA
ENDROOT
BRANCH   1  12
ATOM     12  O   UNL     1       7.563   0.451  18.533  1.00  0.00    -0.493 OA
ATOM     13  C   UNL     1       6.587  -0.573  18.691  1.00  0.00     0.278 C 
ENDBRANCH   1  12
BRANCH   2  14
ATOM     14  O   UNL     1       9.114   2.665  18.945  1.00  0.00    -0.493 OA
ATOM     15  C   UNL     1       8.608   3.303  20.114  1.00  0.00     0.278 C 
ENDBRANCH   2  14
TORSDOF 2
ENDMDL
MODEL 6
REMARK VINA RESULT:    -4.399      2.022      2.855
REMARK INTER + INTRA:          -5.026
REMARK INTER:                  -4.920
REMARK INTRA:                  -0.106
REMARK UNBOUND:                -0.113
REMARK SMILES COc1cc2ccc(=O)oc2cc1OC
REMARK SMILES IDX 3 1 13 2 12 3 11 4 5 5 4 6 6 7 7 8 8 9 9 10 10 11 2 12 1 13
REMARK SMILES IDX 14 14 15 15
REMARK H PARENT
REMARK Flexibility Score: inf
ROOT
ATOM      1  C   UNL     1       9.984   0.435  18.856  1.00  0.00     0.161 A 
ATOM      2  C   UNL     1       8.593   0.565  18.700  1.00  0.00     0.164 A 
ATOM      3  C   UNL     1       7.760  -0.556  18.890  1.00  0.00     0.098 A 
ATOM      4  C   UNL     1       8.308  -1.795  19.233  1.00  0.00     0.142 A 
ATOM      5  C   UNL     1       9.703  -1.925  19.390  1.00  0.00     0.022 A 
ATOM      6  C   UNL     1      10.536  -0.815  19.201  1.00  0.00     0.062 A 
ATOM      7  C   UNL     1      10.220  -3.178  19.733  1.00  0.00     0.019 A 
ATOM      8  C   UNL     1       9.351  -4.253  19.909  1.00  0.00     0.094 A 
ATOM      9  C   UNL     1       7.978  -4.049  19.737  1.00  0.00     0.336 A 
ATOM     10  O   UNL     1       7.176  -5.006  19.892  1.00  0.00    -0.246 OA
ATOM     11  O   UNL     1       7.512  -2.846  19.410  1.00  0.00    -0.423 OA
ENDROOT
BRANCH   1  12
ATOM     12  O   UNL     1      10.784   1.572  18.658  1.00  0.00    -0.493 OA
ATOM     13  C   UNL     1      12.168   1.653  18.983  1.00  0.00     0.278 C 
ENDBRANCH   1  12
BRANCH   2  14
ATOM     14  O   UNL     1       8.078   1.824  18.355  1.00  0.00    -0.493 OA
ATOM     15  C   UNL     1       7.568   2.771  19.288  1.00  0.00     0.278 C 
ENDBRANCH   2  14
TORSDOF 2
ENDMDL
MODEL 7
REMARK VINA RESULT:    -4.393      9.289     11.132
REMARK INTER + INTRA:          -5.020
REMARK INTER:                  -4.956
REMARK INTRA:                  -0.064
REMARK UNBOUND:                -0.113
REMARK SMILES COc1cc2ccc(=O)oc2cc1OC
REMARK SMILES IDX 3 1 13 2 12 3 11 4 5 5 4 6 6 7 7 8 8 9 9 10 10 11 2 12 1 13
REMARK SMILES IDX 14 14 15 15
REMARK H PARENT
REMARK Flexibility Score: inf
ROOT
ATOM      1  C   UNL     1      19.030  -7.963  18.296  1.00  0.00     0.161 A 
ATOM      2  C   UNL     1      19.773  -8.026  19.487  1.00  0.00     0.164 A 
ATOM      3  C   UNL     1      20.357  -6.855  20.010  1.00  0.00     0.098 A 
ATOM      4  C   UNL     1      20.203  -5.633  19.351  1.00  0.00     0.142 A 
ATOM      5  C   UNL     1      19.458  -5.569  18.156  1.00  0.00     0.022 A 
ATOM      6  C   UNL     1      18.876  -6.730  17.631  1.00  0.00     0.062 A 
ATOM      7  C   UNL     1      19.322  -4.331  17.521  1.00  0.00     0.019 A 
ATOM      8  C   UNL     1      19.920  -3.203  18.082  1.00  0.00     0.094 A 
ATOM      9  C   UNL     1      20.645  -3.342  19.271  1.00  0.00     0.336 A 
ATOM     10  O   UNL     1      21.193  -2.338  19.794  1.00  0.00    -0.246 OA
ATOM     11  O   UNL     1      20.759  -4.533  19.854  1.00  0.00    -0.423 OA
ENDROOT
BRANCH   1  12
ATOM     12  O   UNL     1      18.462  -9.149  17.803  1.00  0.00    -0.493 OA
ATOM     13  C   UNL     1      19.159 -10.114  17.021  1.00  0.00     0.278 C 
ENDBRANCH   1  12
BRANCH   2  14
ATOM     14  O   UNL     1      19.907  -9.271  20.121  1.00  0.00    -0.493 OA
ATOM     15  C   UNL     1      21.097 -10.053  20.121  1.00  0.00     0.278 C 
ENDBRANCH   2  14
TORSDOF 2
ENDMDL
MODEL 8
REMARK VINA RESULT:    -4.352      2.064      3.765
REMARK INTER + INTRA:          -4.973
REMARK INTER:                  -4.843
REMARK INTRA:                  -0.130
REMARK UNBOUND:                -0.113
REMARK SMILES COc1cc2ccc(=O)oc2cc1OC
REMARK SMILES IDX 3 1 13 2 12 3 11 4 5 5 4 6 6 7 7 8 8 9 9 10 10 11 2 12 1 13
REMARK SMILES IDX 14 14 15 15
REMARK H PARENT
REMARK Flexibility Score: inf
ROOT
ATOM      1  C   UNL     1       8.883   0.520  18.807  1.00  0.00     0.161 A 
ATOM      2  C   UNL     1      10.257   0.230  18.772  1.00  0.00     0.164 A 
ATOM      3  C   UNL     1      10.700  -1.085  19.018  1.00  0.00     0.098 A 
ATOM      4  C   UNL     1       9.782  -2.101  19.298  1.00  0.00     0.142 A 
ATOM      5  C   UNL     1       8.403  -1.809  19.333  1.00  0.00     0.022 A 
ATOM      6  C   UNL     1       7.957  -0.504  19.089  1.00  0.00     0.062 A 
ATOM      7  C   UNL     1       7.510  -2.847  19.615  1.00  0.00     0.019 A 
ATOM      8  C   UNL     1       8.002  -4.130  19.852  1.00  0.00     0.094 A 
ATOM      9  C   UNL     1       9.384  -4.345  19.800  1.00  0.00     0.336 A 
ATOM     10  O   UNL     1       9.849  -5.495  20.010  1.00  0.00    -0.246 OA
ATOM     11  O   UNL     1      10.212  -3.339  19.529  1.00  0.00    -0.423 OA
ENDROOT
BRANCH   1  12
ATOM     12  O   UNL     1       8.476   1.841  18.556  1.00  0.00    -0.493 OA
ATOM     13  C   UNL     1       7.561   2.572  19.366  1.00  0.00     0.278 C 
ENDBRANCH   1  12
BRANCH   2  14
ATOM     14  O   UNL     1      11.150   1.274  18.488  1.00  0.00    -0.493 OA
ATOM     15  C   UNL     1      12.048   1.848  19.433  1.00  0.00     0.278 C 
ENDBRANCH   2  14
TORSDOF 2
ENDMDL
MODEL 9
REMARK VINA RESULT:    -4.194      1.784      2.483
REMARK INTER + INTRA:          -4.797
REMARK INTER:                  -4.663
REMARK INTRA:                  -0.134
REMARK UNBOUND:                -0.113
REMARK SMILES COc1cc2ccc(=O)oc2cc1OC
REMARK SMILES IDX 3 1 13 2 12 3 11 4 5 5 4 6 6 7 7 8 8 9 9 10 10 11 2 12 1 13
REMARK SMILES IDX 14 14 15 15
REMARK H PARENT
REMARK Flexibility Score: inf
ROOT
ATOM      1  C   UNL     1       9.602  -2.264  19.555  1.00  0.00     0.161 A 
ATOM      2  C   UNL     1       8.258  -1.862  19.616  1.00  0.00     0.164 A 
ATOM      3  C   UNL     1       7.243  -2.831  19.746  1.00  0.00     0.098 A 
ATOM      4  C   UNL     1       7.566  -4.189  19.815  1.00  0.00     0.142 A 
ATOM      5  C   UNL     1       8.915  -4.593  19.754  1.00  0.00     0.022 A 
ATOM      6  C   UNL     1       9.927  -3.634  19.624  1.00  0.00     0.062 A 
ATOM      7  C   UNL     1       9.205  -5.959  19.826  1.00  0.00     0.019 A 
ATOM      8  C   UNL     1       8.163  -6.875  19.955  1.00  0.00     0.094 A 
ATOM      9  C   UNL     1       6.847  -6.401  20.009  1.00  0.00     0.336 A 
ATOM     10  O   UNL     1       5.892  -7.212  20.125  1.00  0.00    -0.246 OA
ATOM     11  O   UNL     1       6.600  -5.095  19.938  1.00  0.00    -0.423 OA
ENDROOT
BRANCH   1  12
ATOM     12  O   UNL     1      10.588  -1.272  19.425  1.00  0.00    -0.493 OA
ATOM     13  C   UNL     1      11.633  -1.294  18.458  1.00  0.00     0.278 C 
ENDBRANCH   1  12
BRANCH   2  14
ATOM     14  O   UNL     1       7.970  -0.490  19.544  1.00  0.00    -0.493 OA
ATOM     15  C   UNL     1       7.510   0.178  18.373  1.00  0.00     0.278 C 
ENDBRANCH   2  14
TORSDOF 2
ENDMDL
