MODEL 1
REMARK VINA RESULT:    -4.173      0.000      0.000
REMARK INTER + INTRA:          -4.873
REMARK INTER:                  -4.782
REMARK INTRA:                  -0.090
REMARK UNBOUND:                -0.090
REMARK SMILES COc1cc(C(=O)[O-])ccc1O
REMARK SMILES IDX 5 1 9 2 4 3 10 4 3 5 11 6 6 7 7 8 8 9 2 10 1 11 12 12
REMARK H PARENT 12 13
REMARK Flexibility Score: inf
ROOT
ATOM      1  C   UNL     1      -6.308 -31.528 -49.517  1.00  0.00     0.001 A 
ATOM      2  C   UNL     1      -6.796 -30.626 -48.558  1.00  0.00     0.014 A 
ATOM      3  C   UNL     1      -6.868 -32.816 -49.592  1.00  0.00     0.060 A 
ATOM      4  C   UNL     1      -7.822 -31.003 -47.691  1.00  0.00     0.051 A 
ATOM      5  C   UNL     1      -7.905 -33.202 -48.718  1.00  0.00     0.161 A 
ATOM      6  C   UNL     1      -8.377 -32.286 -47.767  1.00  0.00     0.157 A 
ENDROOT
BRANCH   1   7
ATOM      7  C   UNL     1      -5.220 -31.122 -50.435  1.00  0.00     0.072 C 
ATOM      8  O   UNL     1      -4.172 -31.816 -50.533  1.00  0.00    -0.545 OA
ATOM      9  O   UNL     1      -5.338 -29.969 -51.202  1.00  0.00    -0.545 OA
ENDBRANCH   1   7
BRANCH   5  10
ATOM     10  O   UNL     1      -8.488 -34.477 -48.764  1.00  0.00    -0.493 OA
ATOM     11  C   UNL     1      -9.071 -35.058 -49.926  1.00  0.00     0.278 C 
ENDBRANCH   5  10
BRANCH   6  12
ATOM     12  O   UNL     1      -9.402 -32.661 -46.899  1.00  0.00    -0.504 OA
ATOM     13  H   UNL     1      -9.971 -33.481 -47.073  1.00  0.00     0.293 HD
ENDBRANCH   6  12
TORSDOF 3
ENDMDL
MODEL 2
REMARK VINA RESULT:    -4.161      3.542      5.450
REMARK INTER + INTRA:          -4.859
REMARK INTER:                  -4.774
REMARK INTRA:                  -0.085
REMARK UNBOUND:                -0.090
REMARK SMILES COc1cc(C(=O)[O-])ccc1O
REMARK SMILES IDX 5 1 9 2 4 3 10 4 3 5 11 6 6 7 7 8 8 9 2 10 1 11 12 12
REMARK H PARENT 12 13
REMARK Flexibility Score: inf
ROOT
ATOM      1  C   UNL     1      -5.292 -34.954 -50.233  1.00  0.00     0.001 A 
ATOM      2  C   UNL     1      -4.800 -36.153 -49.693  1.00  0.00     0.014 A 
ATOM      3  C   UNL     1      -4.752 -33.732 -49.792  1.00  0.00     0.060 A 
ATOM      4  C   UNL     1      -3.788 -36.132 -48.731  1.00  0.00     0.051 A 
ATOM      5  C   UNL     1      -3.731 -33.706 -48.820  1.00  0.00     0.161 A 
ATOM      6  C   UNL     1      -3.254 -34.915 -48.294  1.00  0.00     0.157 A 
ENDROOT
BRANCH   1   7
ATOM      7  C   UNL     1      -6.364 -34.982 -51.254  1.00  0.00     0.072 C 
ATOM      8  O   UNL     1      -6.095 -35.231 -52.459  1.00  0.00    -0.545 OA
ATOM      9  O   UNL     1      -7.684 -34.735 -50.895  1.00  0.00    -0.545 OA
ENDBRANCH   1   7
BRANCH   5  10
ATOM     10  O   UNL     1      -3.169 -32.507 -48.356  1.00  0.00    -0.493 OA
ATOM     11  C   UNL     1      -2.692 -31.461 -49.196  1.00  0.00     0.278 C 
ENDBRANCH   5  10
BRANCH   6  12
ATOM     12  O   UNL     1      -2.244 -34.896 -47.332  1.00  0.00    -0.504 OA
ATOM     13  H   UNL     1      -1.277 -35.078 -47.574  1.00  0.00     0.293 HD
ENDBRANCH   6  12
TORSDOF 3
ENDMDL
MODEL 3
REMARK VINA RESULT:    -4.099      1.508      2.786
REMARK INTER + INTRA:          -4.789
REMARK INTER:                  -4.692
REMARK INTRA:                  -0.097
REMARK UNBOUND:                -0.090
REMARK SMILES COc1cc(C(=O)[O-])ccc1O
REMARK SMILES IDX 5 1 9 2 4 3 10 4 3 5 11 6 6 7 7 8 8 9 2 10 1 11 12 12
REMARK H PARENT 12 13
REMARK Flexibility Score: inf
ROOT
ATOM      1  C   UNL     1      -5.338 -32.580 -49.061  1.00  0.00     0.001 A 
ATOM      2  C   UNL     1      -5.392 -33.943 -49.394  1.00  0.00     0.014 A 
ATOM      3  C   UNL     1      -6.491 -31.954 -48.555  1.00  0.00     0.060 A 
ATOM      4  C   UNL     1      -6.575 -34.666 -49.225  1.00  0.00     0.051 A 
ATOM      5  C   UNL     1      -7.688 -32.679 -48.383  1.00  0.00     0.161 A 
ATOM      6  C   UNL     1      -7.720 -34.039 -48.722  1.00  0.00     0.157 A 
ENDROOT
BRANCH   1   7
ATOM      7  C   UNL     1      -4.081 -31.819 -49.242  1.00  0.00     0.072 C 
ATOM      8  O   UNL     1      -4.030 -30.847 -50.041  1.00  0.00    -0.545 OA
ATOM      9  O   UNL     1      -2.939 -32.167 -48.530  1.00  0.00    -0.545 OA
ENDBRANCH   1   7
BRANCH   5  10
ATOM     10  O   UNL     1      -8.857 -32.087 -47.881  1.00  0.00    -0.493 OA
ATOM     11  C   UNL     1      -9.699 -31.209 -48.619  1.00  0.00     0.278 C 
ENDBRANCH   5  10
BRANCH   6  12
ATOM     12  O   UNL     1      -8.901 -34.762 -48.554  1.00  0.00    -0.504 OA
ATOM     13  H   UNL     1      -9.635 -34.748 -49.252  1.00  0.00     0.293 HD
ENDBRANCH   6  12
TORSDOF 3
ENDMDL
MODEL 4
REMARK VINA RESULT:    -4.060      2.449      5.176
REMARK INTER + INTRA:          -4.743
REMARK INTER:                  -4.642
REMARK INTRA:                  -0.101
REMARK UNBOUND:                -0.090
REMARK SMILES COc1cc(C(=O)[O-])ccc1O
REMARK SMILES IDX 5 1 9 2 4 3 10 4 3 5 11 6 6 7 7 8 8 9 2 10 1 11 12 12
REMARK H PARENT 12 13
REMARK Flexibility Score: inf
ROOT
ATOM      1  C   UNL     1      -6.040 -32.628 -48.528  1.00  0.00     0.001 A 
ATOM      2  C   UNL     1      -5.746 -33.982 -48.301  1.00  0.00     0.014 A 
ATOM      3  C   UNL     1      -5.028 -31.780 -49.014  1.00  0.00     0.060 A 
ATOM      4  C   UNL     1      -4.467 -34.479 -48.556  1.00  0.00     0.051 A 
ATOM      5  C   UNL     1      -3.735 -32.278 -49.272  1.00  0.00     0.161 A 
ATOM      6  C   UNL     1      -3.462 -33.634 -49.040  1.00  0.00     0.157 A 
ENDROOT
BRANCH   1   7
ATOM      7  C   UNL     1      -7.398 -32.106 -48.256  1.00  0.00     0.072 C 
ATOM      8  O   UNL     1      -7.562 -30.921 -47.859  1.00  0.00    -0.545 OA
ATOM      9  O   UNL     1      -8.513 -32.916 -48.437  1.00  0.00    -0.545 OA
ENDBRANCH   1   7
BRANCH   5  10
ATOM     10  O   UNL     1      -2.702 -31.463 -49.759  1.00  0.00    -0.493 OA
ATOM     11  C   UNL     1      -1.954 -30.547 -48.965  1.00  0.00     0.278 C 
ENDBRANCH   5  10
BRANCH   6  12
ATOM     12  O   UNL     1      -2.185 -34.133 -49.293  1.00  0.00    -0.504 OA
ATOM     13  H   UNL     1      -2.033 -35.106 -49.530  1.00  0.00     0.293 HD
ENDBRANCH   6  12
TORSDOF 3
ENDMDL
MODEL 5
REMARK VINA RESULT:    -4.035      2.368      4.268
REMARK INTER + INTRA:          -4.716
REMARK INTER:                  -4.614
REMARK INTRA:                  -0.101
REMARK UNBOUND:                -0.090
REMARK SMILES COc1cc(C(=O)[O-])ccc1O
REMARK SMILES IDX 5 1 9 2 4 3 10 4 3 5 11 6 6 7 7 8 8 9 2 10 1 11 12 12
REMARK H PARENT 12 13
REMARK Flexibility Score: inf
ROOT
ATOM      1  C   UNL     1      -7.268 -33.529 -49.251  1.00  0.00     0.001 A 
ATOM      2  C   UNL     1      -6.982 -32.155 -49.220  1.00  0.00     0.014 A 
ATOM      3  C   UNL     1      -6.258 -34.446 -48.906  1.00  0.00     0.060 A 
ATOM      4  C   UNL     1      -5.712 -31.705 -48.852  1.00  0.00     0.051 A 
ATOM      5  C   UNL     1      -4.975 -33.997 -48.534  1.00  0.00     0.161 A 
ATOM      6  C   UNL     1      -4.710 -32.620 -48.510  1.00  0.00     0.157 A 
ENDROOT
BRANCH   1   7
ATOM      7  C   UNL     1      -8.616 -34.001 -49.641  1.00  0.00     0.072 C 
ATOM      8  O   UNL     1      -9.017 -35.146 -49.302  1.00  0.00    -0.545 OA
ATOM      9  O   UNL     1      -9.458 -33.185 -50.388  1.00  0.00    -0.545 OA
ENDBRANCH   1   7
BRANCH   5  10
ATOM     10  O   UNL     1      -3.944 -34.881 -48.184  1.00  0.00    -0.493 OA
ATOM     11  C   UNL     1      -3.286 -35.757 -49.094  1.00  0.00     0.278 C 
ENDBRANCH   5  10
BRANCH   6  12
ATOM     12  O   UNL     1      -3.443 -32.169 -48.143  1.00  0.00    -0.504 OA
ATOM     13  H   UNL     1      -3.170 -31.199 -48.258  1.00  0.00     0.293 HD
ENDBRANCH   6  12
TORSDOF 3
ENDMDL
MODEL 6
REMARK VINA RESULT:    -4.016      2.467      2.988
REMARK INTER + INTRA:          -4.693
REMARK INTER:                  -4.594
REMARK INTRA:                  -0.098
REMARK UNBOUND:                -0.090
REMARK SMILES COc1cc(C(=O)[O-])ccc1O
REMARK SMILES IDX 5 1 9 2 4 3 10 4 3 5 11 6 6 7 7 8 8 9 2 10 1 11 12 12
REMARK H PARENT 12 13
REMARK Flexibility Score: inf
ROOT
ATOM      1  C   UNL     1      -5.576 -34.373 -48.883  1.00  0.00     0.001 A 
ATOM      2  C   UNL     1      -5.839 -33.236 -48.101  1.00  0.00     0.014 A 
ATOM      3  C   UNL     1      -6.605 -34.910 -49.677  1.00  0.00     0.060 A 
ATOM      4  C   UNL     1      -7.106 -32.649 -48.113  1.00  0.00     0.051 A 
ATOM      5  C   UNL     1      -7.885 -34.320 -49.692  1.00  0.00     0.161 A 
ATOM      6  C   UNL     1      -8.127 -33.186 -48.905  1.00  0.00     0.157 A 
ENDROOT
BRANCH   1   7
ATOM      7  C   UNL     1      -4.231 -34.992 -48.866  1.00  0.00     0.072 C 
ATOM      8  O   UNL     1      -4.101 -36.245 -48.903  1.00  0.00    -0.545 OA
ATOM      9  O   UNL     1      -3.091 -34.198 -48.810  1.00  0.00    -0.545 OA
ENDBRANCH   1   7
BRANCH   5  10
ATOM     10  O   UNL     1      -8.934 -34.828 -50.473  1.00  0.00    -0.493 OA
ATOM     11  C   UNL     1      -9.755 -35.932 -50.103  1.00  0.00     0.278 C 
ENDBRANCH   5  10
BRANCH   6  12
ATOM     12  O   UNL     1      -9.391 -32.598 -48.915  1.00  0.00    -0.504 OA
ATOM     13  H   UNL     1     -10.205 -33.093 -49.260  1.00  0.00     0.293 HD
ENDBRANCH   6  12
TORSDOF 3
ENDMDL
MODEL 7
REMARK VINA RESULT:    -3.997      2.441      3.685
REMARK INTER + INTRA:          -4.671
REMARK INTER:                  -4.577
REMARK INTRA:                  -0.094
REMARK UNBOUND:                -0.090
REMARK SMILES COc1cc(C(=O)[O-])ccc1O
REMARK SMILES IDX 5 1 9 2 4 3 10 4 3 5 11 6 6 7 7 8 8 9 2 10 1 11 12 12
REMARK H PARENT 12 13
REMARK Flexibility Score: inf
ROOT
ATOM      1  C   UNL     1      -6.680 -34.122 -49.400  1.00  0.00     0.001 A 
ATOM      2  C   UNL     1      -7.437 -34.721 -50.420  1.00  0.00     0.014 A 
ATOM      3  C   UNL     1      -7.210 -33.012 -48.716  1.00  0.00     0.060 A 
ATOM      4  C   UNL     1      -8.698 -34.221 -50.750  1.00  0.00     0.051 A 
ATOM      5  C   UNL     1      -8.482 -32.504 -49.047  1.00  0.00     0.161 A 
ATOM      6  C   UNL     1      -9.222 -33.117 -50.068  1.00  0.00     0.157 A 
ENDROOT
BRANCH   1   7
ATOM      7  C   UNL     1      -5.343 -34.656 -49.053  1.00  0.00     0.072 C 
ATOM      8  O   UNL     1      -5.057 -35.862 -49.277  1.00  0.00    -0.545 OA
ATOM      9  O   UNL     1      -4.384 -33.832 -48.476  1.00  0.00    -0.545 OA
ENDBRANCH   1   7
BRANCH   5  10
ATOM     10  O   UNL     1      -9.043 -31.401 -48.387  1.00  0.00    -0.493 OA
ATOM     11  C   UNL     1      -8.791 -30.042 -48.728  1.00  0.00     0.278 C 
ENDBRANCH   5  10
BRANCH   6  12
ATOM     12  O   UNL     1     -10.482 -32.620 -50.400  1.00  0.00    -0.504 OA
ATOM     13  H   UNL     1     -10.599 -31.900 -51.103  1.00  0.00     0.293 HD
ENDBRANCH   6  12
TORSDOF 3
ENDMDL
MODEL 8
REMARK VINA RESULT:    -3.952      2.483      4.617
REMARK INTER + INTRA:          -4.620
REMARK INTER:                  -4.528
REMARK INTRA:                  -0.092
REMARK UNBOUND:                -0.090
REMARK SMILES COc1cc(C(=O)[O-])ccc1O
REMARK SMILES IDX 5 1 9 2 4 3 10 4 3 5 11 6 6 7 7 8 8 9 2 10 1 11 12 12
REMARK H PARENT 12 13
REMARK Flexibility Score: inf
ROOT
ATOM      1  C   UNL     1      -5.871 -31.838 -48.826  1.00  0.00     0.001 A 
ATOM      2  C   UNL     1      -5.210 -30.865 -49.593  1.00  0.00     0.014 A 
ATOM      3  C   UNL     1      -5.170 -32.993 -48.433  1.00  0.00     0.060 A 
ATOM      4  C   UNL     1      -3.874 -31.043 -49.959  1.00  0.00     0.051 A 
ATOM      5  C   UNL     1      -3.822 -33.176 -48.802  1.00  0.00     0.161 A 
ATOM      6  C   UNL     1      -3.180 -32.193 -49.567  1.00  0.00     0.157 A 
ENDROOT
BRANCH   1   7
ATOM      7  C   UNL     1      -7.287 -31.644 -48.439  1.00  0.00     0.072 C 
ATOM      8  O   UNL     1      -7.631 -30.653 -47.740  1.00  0.00    -0.545 OA
ATOM      9  O   UNL     1      -8.258 -32.554 -48.841  1.00  0.00    -0.545 OA
ENDBRANCH   1   7
BRANCH   5  10
ATOM     10  O   UNL     1      -3.092 -34.315 -48.427  1.00  0.00    -0.493 OA
ATOM     11  C   UNL     1      -3.438 -35.649 -48.783  1.00  0.00     0.278 C 
ENDBRANCH   5  10
BRANCH   6  12
ATOM     12  O   UNL     1      -1.847 -32.369 -49.936  1.00  0.00    -0.504 OA
ATOM     13  H   UNL     1      -1.565 -32.405 -50.908  1.00  0.00     0.293 HD
ENDBRANCH   6  12
TORSDOF 3
ENDMDL
MODEL 9
REMARK VINA RESULT:    -3.950      2.310      3.574
REMARK INTER + INTRA:          -4.617
REMARK INTER:                  -4.533
REMARK INTRA:                  -0.085
REMARK UNBOUND:                -0.090
REMARK SMILES COc1cc(C(=O)[O-])ccc1O
REMARK SMILES IDX 5 1 9 2 4 3 10 4 3 5 11 6 6 7 7 8 8 9 2 10 1 11 12 12
REMARK H PARENT 12 13
REMARK Flexibility Score: inf
ROOT
ATOM      1  C   UNL     1      -6.963 -32.638 -49.135  1.00  0.00     0.001 A 
ATOM      2  C   UNL     1      -7.640 -33.566 -49.943  1.00  0.00     0.014 A 
ATOM      3  C   UNL     1      -7.633 -31.471 -48.726  1.00  0.00     0.060 A 
ATOM      4  C   UNL     1      -8.959 -33.333 -50.334  1.00  0.00     0.051 A 
ATOM      5  C   UNL     1      -8.965 -31.231 -49.119  1.00  0.00     0.161 A 
ATOM      6  C   UNL     1      -9.623 -32.171 -49.926  1.00  0.00     0.157 A 
ENDROOT
BRANCH   1   7
ATOM      7  C   UNL     1      -5.564 -32.891 -48.723  1.00  0.00     0.072 C 
ATOM      8  O   UNL     1      -4.682 -32.002 -48.868  1.00  0.00    -0.545 OA
ATOM      9  O   UNL     1      -5.203 -34.113 -48.168  1.00  0.00    -0.545 OA
ENDBRANCH   1   7
BRANCH   5  10
ATOM     10  O   UNL     1      -9.665 -30.079 -48.730  1.00  0.00    -0.493 OA
ATOM     11  C   UNL     1      -9.123 -28.762 -48.740  1.00  0.00     0.278 C 
ENDBRANCH   5  10
BRANCH   6  12
ATOM     12  O   UNL     1     -10.941 -31.940 -50.319  1.00  0.00    -0.504 OA
ATOM     13  H   UNL     1     -11.251 -32.117 -51.267  1.00  0.00     0.293 HD
ENDBRANCH   6  12
TORSDOF 3
ENDMDL
