MODEL 1
REMARK VINA RESULT:    -2.998      0.000      0.000
REMARK INTER + INTRA:          -4.977
REMARK INTER:                  -4.400
REMARK INTRA:                  -0.577
REMARK UNBOUND:                -0.577
REMARK SMILES CCCCCC(=O)CCCCC
REMARK SMILES IDX 6 1 7 2 5 3 4 4 3 5 2 6 1 7 8 8 9 9 10 10 11 11 12 12
REMARK H PARENT
REMARK Flexibility Score: inf
ROOT
ATOM      1  C   UNL     1     136.129 139.581 142.550  1.00  0.00     0.132 C 
ATOM      2  O   UNL     1     136.912 138.642 142.535  1.00  0.00    -0.300 OA
ENDROOT
BRANCH   1   3
ATOM      3  C   UNL     1     136.097 140.495 143.747  1.00  0.00     0.075 C 
BRANCH   3   4
ATOM      4  C   UNL     1     137.470 141.139 143.969  1.00  0.00     0.008 C 
BRANCH   4   5
ATOM      5  C   UNL     1     137.439 142.634 143.614  1.00  0.00     0.000 C 
BRANCH   5   6
ATOM      6  C   UNL     1     137.952 142.913 142.193  1.00  0.00    -0.003 C 
ATOM      7  C   UNL     1     138.647 144.270 142.071  1.00  0.00     0.004 C 
ENDBRANCH   5   6
ENDBRANCH   4   5
ENDBRANCH   3   4
ENDBRANCH   1   3
BRANCH   1   8
ATOM      8  C   UNL     1     135.205 139.790 141.380  1.00  0.00     0.075 C 
BRANCH   8   9
ATOM      9  C   UNL     1     135.983 140.309 140.166  1.00  0.00     0.008 C 
BRANCH   9  10
ATOM     10  C   UNL     1     135.046 140.989 139.159  1.00  0.00     0.000 C 
BRANCH  10  11
ATOM     11  C   UNL     1     133.601 140.510 139.342  1.00  0.00    -0.003 C 
ATOM     12  C   UNL     1     132.608 141.605 138.965  1.00  0.00     0.004 C 
ENDBRANCH  10  11
ENDBRANCH   9  10
ENDBRANCH   8   9
ENDBRANCH   1   8
TORSDOF 8
ENDMDL
MODEL 2
REMARK VINA RESULT:    -2.935      6.418      8.558
REMARK INTER + INTRA:          -4.884
REMARK INTER:                  -4.452
REMARK INTRA:                  -0.433
REMARK UNBOUND:                -0.577
REMARK SMILES CCCCCC(=O)CCCCC
REMARK SMILES IDX 6 1 7 2 5 3 4 4 3 5 2 6 1 7 8 8 9 9 10 10 11 11 12 12
REMARK H PARENT
REMARK Flexibility Score: inf
ROOT
ATOM      1  C   UNL     1     143.471 143.611 142.729  1.00  0.00     0.132 C 
ATOM      2  O   UNL     1     142.862 143.739 141.677  1.00  0.00    -0.300 OA
ENDROOT
BRANCH   1   3
ATOM      3  C   UNL     1     144.692 142.731 142.773  1.00  0.00     0.075 C 
BRANCH   3   4
ATOM      4  C   UNL     1     144.400 141.372 142.128  1.00  0.00     0.008 C 
BRANCH   4   5
ATOM      5  C   UNL     1     145.224 141.184 140.845  1.00  0.00     0.000 C 
BRANCH   5   6
ATOM      6  C   UNL     1     146.627 141.800 140.950  1.00  0.00    -0.003 C 
ATOM      7  C   UNL     1     147.512 141.467 139.749  1.00  0.00     0.004 C 
ENDBRANCH   5   6
ENDBRANCH   4   5
ENDBRANCH   3   4
ENDBRANCH   1   3
BRANCH   1   8
ATOM      8  C   UNL     1     142.975 144.325 143.959  1.00  0.00     0.075 C 
BRANCH   8   9
ATOM      9  C   UNL     1     141.465 144.128 144.124  1.00  0.00     0.008 C 
BRANCH   9  10
ATOM     10  C   UNL     1     140.721 145.467 144.042  1.00  0.00     0.000 C 
BRANCH  10  11
ATOM     11  C   UNL     1     139.521 145.373 143.093  1.00  0.00    -0.003 C 
ATOM     12  C   UNL     1     139.902 145.805 141.680  1.00  0.00     0.004 C 
ENDBRANCH  10  11
ENDBRANCH   9  10
ENDBRANCH   8   9
ENDBRANCH   1   8
TORSDOF 8
ENDMDL
MODEL 3
REMARK VINA RESULT:    -2.883      4.848      6.627
REMARK INTER + INTRA:          -4.808
REMARK INTER:                  -4.053
REMARK INTRA:                  -0.755
REMARK UNBOUND:                -0.577
REMARK SMILES CCCCCC(=O)CCCCC
REMARK SMILES IDX 6 1 7 2 5 3 4 4 3 5 2 6 1 7 8 8 9 9 10 10 11 11 12 12
REMARK H PARENT
REMARK Flexibility Score: inf
ROOT
ATOM      1  C   UNL     1     140.472 138.299 142.885  1.00  0.00     0.132 C 
ATOM      2  O   UNL     1     140.938 139.303 142.367  1.00  0.00    -0.300 OA
ENDROOT
BRANCH   1   3
ATOM      3  C   UNL     1     139.103 137.823 142.473  1.00  0.00     0.075 C 
BRANCH   3   4
ATOM      4  C   UNL     1     138.173 137.741 143.688  1.00  0.00     0.008 C 
BRANCH   4   5
ATOM      5  C   UNL     1     137.284 138.991 143.786  1.00  0.00     0.000 C 
BRANCH   5   6
ATOM      6  C   UNL     1     137.106 139.693 142.431  1.00  0.00    -0.003 C 
ATOM      7  C   UNL     1     135.687 139.560 141.878  1.00  0.00     0.004 C 
ENDBRANCH   5   6
ENDBRANCH   4   5
ENDBRANCH   3   4
ENDBRANCH   1   3
BRANCH   1   8
ATOM      8  C   UNL     1     141.270 137.571 143.935  1.00  0.00     0.075 C 
BRANCH   8   9
ATOM      9  C   UNL     1     141.545 136.129 143.498  1.00  0.00     0.008 C 
BRANCH   9  10
ATOM     10  C   UNL     1     142.403 136.091 142.226  1.00  0.00     0.000 C 
BRANCH  10  11
ATOM     11  C   UNL     1     141.828 135.104 141.204  1.00  0.00    -0.003 C 
ATOM     12  C   UNL     1     141.232 135.837 140.006  1.00  0.00     0.004 C 
ENDBRANCH  10  11
ENDBRANCH   9  10
ENDBRANCH   8   9
ENDBRANCH   1   8
TORSDOF 8
ENDMDL
MODEL 4
REMARK VINA RESULT:    -2.877      6.296      7.624
REMARK INTER + INTRA:          -4.800
REMARK INTER:                  -3.982
REMARK INTRA:                  -0.818
REMARK UNBOUND:                -0.577
REMARK SMILES CCCCCC(=O)CCCCC
REMARK SMILES IDX 6 1 7 2 5 3 4 4 3 5 2 6 1 7 8 8 9 9 10 10 11 11 12 12
REMARK H PARENT
REMARK Flexibility Score: inf
ROOT
ATOM      1  C   UNL     1     143.291 138.273 142.064  1.00  0.00     0.132 C 
ATOM      2  O   UNL     1     143.899 138.397 141.011  1.00  0.00    -0.300 OA
ENDROOT
BRANCH   1   3
ATOM      3  C   UNL     1     144.010 138.517 143.365  1.00  0.00     0.075 C 
BRANCH   3   4
ATOM      4  C   UNL     1     143.370 139.685 144.123  1.00  0.00     0.008 C 
BRANCH   4   5
ATOM      5  C   UNL     1     143.721 141.027 143.461  1.00  0.00     0.000 C 
BRANCH   5   6
ATOM      6  C   UNL     1     145.236 141.233 143.312  1.00  0.00    -0.003 C 
ATOM      7  C   UNL     1     145.637 141.688 141.909  1.00  0.00     0.004 C 
ENDBRANCH   5   6
ENDBRANCH   4   5
ENDBRANCH   3   4
ENDBRANCH   1   3
BRANCH   1   8
ATOM      8  C   UNL     1     141.842 137.863 142.036  1.00  0.00     0.075 C 
BRANCH   8   9
ATOM      9  C   UNL     1     141.685 136.408 142.489  1.00  0.00     0.008 C 
BRANCH   9  10
ATOM     10  C   UNL     1     140.986 136.326 143.852  1.00  0.00     0.000 C 
BRANCH  10  11
ATOM     11  C   UNL     1     140.103 137.556 144.092  1.00  0.00    -0.003 C 
ATOM     12  C   UNL     1     138.623 137.200 143.986  1.00  0.00     0.004 C 
ENDBRANCH  10  11
ENDBRANCH   9  10
ENDBRANCH   8   9
ENDBRANCH   1   8
TORSDOF 8
ENDMDL
MODEL 5
REMARK VINA RESULT:    -2.873      4.851      7.022
REMARK INTER + INTRA:          -4.793
REMARK INTER:                  -3.631
REMARK INTRA:                  -1.162
REMARK UNBOUND:                -0.577
REMARK SMILES CCCCCC(=O)CCCCC
REMARK SMILES IDX 6 1 7 2 5 3 4 4 3 5 2 6 1 7 8 8 9 9 10 10 11 11 12 12
REMARK H PARENT
REMARK Flexibility Score: inf
ROOT
ATOM      1  C   UNL     1     143.026 143.549 142.378  1.00  0.00     0.132 C 
ATOM      2  O   UNL     1     144.045 143.532 143.053  1.00  0.00    -0.300 OA
ENDROOT
BRANCH   1   3
ATOM      3  C   UNL     1     143.133 143.722 140.885  1.00  0.00     0.075 C 
BRANCH   3   4
ATOM      4  C   UNL     1     141.744 143.690 140.239  1.00  0.00     0.008 C 
BRANCH   4   5
ATOM      5  C   UNL     1     141.301 145.100 139.818  1.00  0.00     0.000 C 
BRANCH   5   6
ATOM      6  C   UNL     1     139.890 145.447 140.316  1.00  0.00    -0.003 C 
ATOM      7  C   UNL     1     139.804 146.847 140.925  1.00  0.00     0.004 C 
ENDBRANCH   5   6
ENDBRANCH   4   5
ENDBRANCH   3   4
ENDBRANCH   1   3
BRANCH   1   8
ATOM      8  C   UNL     1     141.689 143.413 143.056  1.00  0.00     0.075 C 
BRANCH   8   9
ATOM      9  C   UNL     1     141.337 144.696 143.816  1.00  0.00     0.008 C 
BRANCH   9  10
ATOM     10  C   UNL     1     139.823 144.811 144.035  1.00  0.00     0.000 C 
BRANCH  10  11
ATOM     11  C   UNL     1     139.138 143.449 143.865  1.00  0.00    -0.003 C 
ATOM     12  C   UNL     1     137.981 143.535 142.875  1.00  0.00     0.004 C 
ENDBRANCH  10  11
ENDBRANCH   9  10
ENDBRANCH   8   9
ENDBRANCH   1   8
TORSDOF 8
ENDMDL
MODEL 6
REMARK VINA RESULT:    -2.840      6.680      9.084
REMARK INTER + INTRA:          -4.745
REMARK INTER:                  -4.108
REMARK INTRA:                  -0.637
REMARK UNBOUND:                -0.577
REMARK SMILES CCCCCC(=O)CCCCC
REMARK SMILES IDX 6 1 7 2 5 3 4 4 3 5 2 6 1 7 8 8 9 9 10 10 11 11 12 12
REMARK H PARENT
REMARK Flexibility Score: inf
ROOT
ATOM      1  C   UNL     1     143.599 139.113 142.103  1.00  0.00     0.132 C 
ATOM      2  O   UNL     1     143.999 138.881 140.972  1.00  0.00    -0.300 OA
ENDROOT
BRANCH   1   3
ATOM      3  C   UNL     1     143.456 137.979 143.084  1.00  0.00     0.075 C 
BRANCH   3   4
ATOM      4  C   UNL     1     142.835 136.754 142.403  1.00  0.00     0.008 C 
BRANCH   4   5
ATOM      5  C   UNL     1     141.736 136.136 143.281  1.00  0.00     0.000 C 
BRANCH   5   6
ATOM      6  C   UNL     1     140.616 137.134 143.612  1.00  0.00    -0.003 C 
ATOM      7  C   UNL     1     139.875 137.627 142.369  1.00  0.00     0.004 C 
ENDBRANCH   5   6
ENDBRANCH   4   5
ENDBRANCH   3   4
ENDBRANCH   1   3
BRANCH   1   8
ATOM      8  C   UNL     1     143.243 140.526 142.484  1.00  0.00     0.075 C 
BRANCH   8   9
ATOM      9  C   UNL     1     144.007 140.954 143.741  1.00  0.00     0.008 C 
BRANCH   9  10
ATOM     10  C   UNL     1     145.460 141.315 143.408  1.00  0.00     0.000 C 
BRANCH  10  11
ATOM     11  C   UNL     1     145.529 142.281 142.220  1.00  0.00    -0.003 C 
ATOM     12  C   UNL     1     146.458 141.751 141.132  1.00  0.00     0.004 C 
ENDBRANCH  10  11
ENDBRANCH   9  10
ENDBRANCH   8   9
ENDBRANCH   1   8
TORSDOF 8
ENDMDL
MODEL 7
REMARK VINA RESULT:    -2.827      5.905      7.870
REMARK INTER + INTRA:          -4.726
REMARK INTER:                  -3.990
REMARK INTRA:                  -0.736
REMARK UNBOUND:                -0.577
REMARK SMILES CCCCCC(=O)CCCCC
REMARK SMILES IDX 6 1 7 2 5 3 4 4 3 5 2 6 1 7 8 8 9 9 10 10 11 11 12 12
REMARK H PARENT
REMARK Flexibility Score: inf
ROOT
ATOM      1  C   UNL     1     139.473 145.357 141.677  1.00  0.00     0.132 C 
ATOM      2  O   UNL     1     139.009 144.345 141.172  1.00  0.00    -0.300 OA
ENDROOT
BRANCH   1   3
ATOM      3  C   UNL     1     139.925 146.485 140.786  1.00  0.00     0.075 C 
BRANCH   3   4
ATOM      4  C   UNL     1     140.653 145.939 139.554  1.00  0.00     0.008 C 
BRANCH   4   5
ATOM      5  C   UNL     1     141.319 147.075 138.761  1.00  0.00     0.000 C 
BRANCH   5   6
ATOM      6  C   UNL     1     140.901 148.466 139.261  1.00  0.00    -0.003 C 
ATOM      7  C   UNL     1     141.864 149.568 138.818  1.00  0.00     0.004 C 
ENDBRANCH   5   6
ENDBRANCH   4   5
ENDBRANCH   3   4
ENDBRANCH   1   3
BRANCH   1   8
ATOM      8  C   UNL     1     139.596 145.445 143.175  1.00  0.00     0.075 C 
BRANCH   8   9
ATOM      9  C   UNL     1     140.375 144.245 143.723  1.00  0.00     0.008 C 
BRANCH   9  10
ATOM     10  C   UNL     1     141.876 144.387 143.441  1.00  0.00     0.000 C 
BRANCH  10  11
ATOM     11  C   UNL     1     142.389 143.220 142.588  1.00  0.00    -0.003 C 
ATOM     12  C   UNL     1     143.016 143.720 141.291  1.00  0.00     0.004 C 
ENDBRANCH  10  11
ENDBRANCH   9  10
ENDBRANCH   8   9
ENDBRANCH   1   8
TORSDOF 8
ENDMDL
MODEL 8
REMARK VINA RESULT:    -2.821      2.160      4.523
REMARK INTER + INTRA:          -4.717
REMARK INTER:                  -3.405
REMARK INTRA:                  -1.312
REMARK UNBOUND:                -0.577
REMARK SMILES CCCCCC(=O)CCCCC
REMARK SMILES IDX 6 1 7 2 5 3 4 4 3 5 2 6 1 7 8 8 9 9 10 10 11 11 12 12
REMARK H PARENT
REMARK Flexibility Score: inf
ROOT
ATOM      1  C   UNL     1     136.140 140.146 140.814  1.00  0.00     0.132 C 
ATOM      2  O   UNL     1     135.188 140.444 140.108  1.00  0.00    -0.300 OA
ENDROOT
BRANCH   1   3
ATOM      3  C   UNL     1     135.935 139.206 141.973  1.00  0.00     0.075 C 
BRANCH   3   4
ATOM      4  C   UNL     1     136.196 139.923 143.301  1.00  0.00     0.008 C 
BRANCH   4   5
ATOM      5  C   UNL     1     137.282 139.199 144.113  1.00  0.00     0.000 C 
BRANCH   5   6
ATOM      6  C   UNL     1     137.975 138.088 143.309  1.00  0.00    -0.003 C 
ATOM      7  C   UNL     1     139.494 138.259 143.252  1.00  0.00     0.004 C 
ENDBRANCH   5   6
ENDBRANCH   4   5
ENDBRANCH   3   4
ENDBRANCH   1   3
BRANCH   1   8
ATOM      8  C   UNL     1     137.493 140.739 140.518  1.00  0.00     0.075 C 
BRANCH   8   9
ATOM      9  C   UNL     1     137.435 142.269 140.576  1.00  0.00     0.008 C 
BRANCH   9  10
ATOM     10  C   UNL     1     138.068 142.797 141.869  1.00  0.00     0.000 C 
BRANCH  10  11
ATOM     11  C   UNL     1     139.217 141.891 142.329  1.00  0.00    -0.003 C 
ATOM     12  C   UNL     1     139.543 142.120 143.801  1.00  0.00     0.004 C 
ENDBRANCH  10  11
ENDBRANCH   9  10
ENDBRANCH   8   9
ENDBRANCH   1   8
TORSDOF 8
ENDMDL
MODEL 9
REMARK VINA RESULT:    -2.807      7.236      8.471
REMARK INTER + INTRA:          -4.697
REMARK INTER:                  -3.997
REMARK INTRA:                  -0.700
REMARK UNBOUND:                -0.577
REMARK SMILES CCCCCC(=O)CCCCC
REMARK SMILES IDX 6 1 7 2 5 3 4 4 3 5 2 6 1 7 8 8 9 9 10 10 11 11 12 12
REMARK H PARENT
REMARK Flexibility Score: inf
ROOT
ATOM      1  C   UNL     1     143.219 140.228 142.857  1.00  0.00     0.132 C 
ATOM      2  O   UNL     1     142.202 140.580 142.277  1.00  0.00    -0.300 OA
ENDROOT
BRANCH   1   3
ATOM      3  C   UNL     1     143.882 141.173 143.825  1.00  0.00     0.075 C 
BRANCH   3   4
ATOM      4  C   UNL     1     145.356 141.373 143.458  1.00  0.00     0.008 C 
BRANCH   4   5
ATOM      5  C   UNL     1     145.503 142.364 142.293  1.00  0.00     0.000 C 
BRANCH   5   6
ATOM      6  C   UNL     1     146.340 141.795 141.137  1.00  0.00    -0.003 C 
ATOM      7  C   UNL     1     145.481 141.276 139.984  1.00  0.00     0.004 C 
ENDBRANCH   5   6
ENDBRANCH   4   5
ENDBRANCH   3   4
ENDBRANCH   1   3
BRANCH   1   8
ATOM      8  C   UNL     1     143.793 138.864 142.577  1.00  0.00     0.075 C 
BRANCH   8   9
ATOM      9  C   UNL     1     143.501 137.909 143.739  1.00  0.00     0.008 C 
BRANCH   9  10
ATOM     10  C   UNL     1     142.284 137.026 143.436  1.00  0.00     0.000 C 
BRANCH  10  11
ATOM     11  C   UNL     1     142.536 136.143 142.209  1.00  0.00    -0.003 C 
ATOM     12  C   UNL     1     141.405 136.276 141.194  1.00  0.00     0.004 C 
ENDBRANCH  10  11
ENDBRANCH   9  10
ENDBRANCH   8   9
ENDBRANCH   1   8
TORSDOF 8
ENDMDL
