MODEL 1
REMARK VINA RESULT:    -3.784      0.000      0.000
REMARK INTER + INTRA:          -5.848
REMARK INTER:                  -5.222
REMARK INTRA:                  -0.626
REMARK UNBOUND:                -0.626
REMARK SMILES OC[C@H](O)C(O)[C@@H](O)CO
REMARK SMILES IDX 5 1 7 2 9 3 10 4 8 6 3 8 2 9 1 10 4 12 6 14
REMARK H PARENT 10 5 8 7 1 11 4 13 6 15
REMARK Flexibility Score: inf
ROOT
ATOM      1  C   UNL     1     163.663 161.940 182.845  1.00  0.00     0.176 C 
ENDROOT
BRANCH   1   2
ATOM      2  C   UNL     1     163.368 161.414 184.285  1.00  0.00     0.171 C 
BRANCH   2   3
ATOM      3  C   UNL     1     164.440 161.764 185.338  1.00  0.00     0.190 C 
BRANCH   3   4
ATOM      4  O   UNL     1     165.583 160.964 185.198  1.00  0.00    -0.394 OA
ATOM      5  H   UNL     1     165.560 160.296 185.932  1.00  0.00     0.210 HD
ENDBRANCH   3   4
ENDBRANCH   2   3
BRANCH   2   6
ATOM      6  O   UNL     1     163.171 160.022 184.262  1.00  0.00    -0.388 OA
ATOM      7  H   UNL     1     163.322 159.681 185.183  1.00  0.00     0.211 HD
ENDBRANCH   2   6
ENDBRANCH   1   2
BRANCH   1   8
ATOM      8  C   UNL     1     162.939 161.199 181.678  1.00  0.00     0.171 C 
BRANCH   8   9
ATOM      9  C   UNL     1     161.399 161.278 181.747  1.00  0.00     0.190 C 
BRANCH   9  10
ATOM     10  O   UNL     1     160.868 160.050 182.170  1.00  0.00    -0.394 OA
ATOM     11  H   UNL     1     160.084 160.260 182.742  1.00  0.00     0.210 HD
ENDBRANCH   9  10
ENDBRANCH   8   9
BRANCH   8  12
ATOM     12  O   UNL     1     163.395 159.876 181.534  1.00  0.00    -0.388 OA
ATOM     13  H   UNL     1     163.111 159.363 182.335  1.00  0.00     0.211 HD
ENDBRANCH   8  12
ENDBRANCH   1   8
BRANCH   1  14
ATOM     14  O   UNL     1     165.051 161.904 182.618  1.00  0.00    -0.388 OA
ATOM     15  H   UNL     1     165.500 161.980 183.501  1.00  0.00     0.211 HD
ENDBRANCH   1  14
TORSDOF 9
ENDMDL
MODEL 2
REMARK VINA RESULT:    -3.661      1.096      3.882
REMARK INTER + INTRA:          -5.679
REMARK INTER:                  -4.997
REMARK INTRA:                  -0.681
REMARK UNBOUND:                -0.626
REMARK SMILES OC[C@H](O)C(O)[C@@H](O)CO
REMARK SMILES IDX 5 1 7 2 9 3 10 4 8 6 3 8 2 9 1 10 4 12 6 14
REMARK H PARENT 10 5 8 7 1 11 4 13 6 15
REMARK Flexibility Score: inf
ROOT
ATOM      1  C   UNL     1     162.488 162.232 182.986  1.00  0.00     0.176 C 
ENDROOT
BRANCH   1   2
ATOM      2  C   UNL     1     162.549 161.533 181.591  1.00  0.00     0.171 C 
BRANCH   2   3
ATOM      3  C   UNL     1     161.269 160.771 181.189  1.00  0.00     0.190 C 
BRANCH   3   4
ATOM      4  O   UNL     1     160.863 159.876 182.190  1.00  0.00    -0.394 OA
ATOM      5  H   UNL     1     161.689 159.545 182.632  1.00  0.00     0.210 HD
ENDBRANCH   3   4
ENDBRANCH   2   3
BRANCH   2   6
ATOM      6  O   UNL     1     163.651 160.661 181.532  1.00  0.00    -0.388 OA
ATOM      7  H   UNL     1     163.485 160.015 180.795  1.00  0.00     0.211 HD
ENDBRANCH   2   6
ENDBRANCH   1   2
BRANCH   1   8
ATOM      8  C   UNL     1     163.276 161.537 184.139  1.00  0.00     0.171 C 
BRANCH   8   9
ATOM      9  C   UNL     1     164.712 162.073 184.327  1.00  0.00     0.190 C 
BRANCH   9  10
ATOM     10  O   UNL     1     165.535 161.634 183.280  1.00  0.00    -0.394 OA
ATOM     11  H   UNL     1     166.147 162.385 183.062  1.00  0.00     0.210 HD
ENDBRANCH   9  10
ENDBRANCH   8   9
BRANCH   8  12
ATOM     12  O   UNL     1     163.246 160.135 184.026  1.00  0.00    -0.388 OA
ATOM     13  H   UNL     1     163.424 159.899 183.079  1.00  0.00     0.211 HD
ENDBRANCH   8  12
ENDBRANCH   1   8
BRANCH   1  14
ATOM     14  O   UNL     1     161.142 162.372 183.371  1.00  0.00    -0.388 OA
ATOM     15  H   UNL     1     161.038 163.276 183.769  1.00  0.00     0.211 HD
ENDBRANCH   1  14
TORSDOF 9
ENDMDL
MODEL 3
REMARK VINA RESULT:    -3.604      1.034      1.672
REMARK INTER + INTRA:          -5.599
REMARK INTER:                  -4.905
REMARK INTRA:                  -0.694
REMARK UNBOUND:                -0.626
REMARK SMILES OC[C@H](O)C(O)[C@@H](O)CO
REMARK SMILES IDX 5 1 7 2 9 3 10 4 8 6 3 8 2 9 1 10 4 12 6 14
REMARK H PARENT 10 5 8 7 1 11 4 13 6 15
REMARK Flexibility Score: inf
ROOT
ATOM      1  C   UNL     1     163.625 161.873 182.868  1.00  0.00     0.176 C 
ENDROOT
BRANCH   1   2
ATOM      2  C   UNL     1     163.405 161.363 184.327  1.00  0.00     0.171 C 
BRANCH   2   3
ATOM      3  C   UNL     1     164.528 161.728 185.320  1.00  0.00     0.190 C 
BRANCH   3   4
ATOM      4  O   UNL     1     165.661 160.922 185.139  1.00  0.00    -0.394 OA
ATOM      5  H   UNL     1     166.431 161.417 185.525  1.00  0.00     0.210 HD
ENDBRANCH   3   4
ENDBRANCH   2   3
BRANCH   2   6
ATOM      6  O   UNL     1     163.213 159.969 184.330  1.00  0.00    -0.388 OA
ATOM      7  H   UNL     1     164.107 159.542 184.397  1.00  0.00     0.211 HD
ENDBRANCH   2   6
ENDBRANCH   1   2
BRANCH   1   8
ATOM      8  C   UNL     1     162.758 161.195 181.762  1.00  0.00     0.171 C 
BRANCH   8   9
ATOM      9  C   UNL     1     162.734 161.967 180.425  1.00  0.00     0.190 C 
BRANCH   9  10
ATOM     10  O   UNL     1     163.968 161.841 179.770  1.00  0.00    -0.394 OA
ATOM     11  H   UNL     1     164.666 162.126 180.417  1.00  0.00     0.210 HD
ENDBRANCH   9  10
ENDBRANCH   8   9
BRANCH   8  12
ATOM     12  O   UNL     1     161.463 160.894 182.222  1.00  0.00    -0.388 OA
ATOM     13  H   UNL     1     161.268 161.480 182.999  1.00  0.00     0.211 HD
ENDBRANCH   8  12
ENDBRANCH   1   8
BRANCH   1  14
ATOM     14  O   UNL     1     164.984 161.734 182.532  1.00  0.00    -0.388 OA
ATOM     15  H   UNL     1     165.507 161.788 183.375  1.00  0.00     0.211 HD
ENDBRANCH   1  14
TORSDOF 9
ENDMDL
MODEL 4
REMARK VINA RESULT:    -3.579      1.195      1.827
REMARK INTER + INTRA:          -5.564
REMARK INTER:                  -5.089
REMARK INTRA:                  -0.475
REMARK UNBOUND:                -0.626
REMARK SMILES OC[C@H](O)C(O)[C@@H](O)CO
REMARK SMILES IDX 5 1 7 2 9 3 10 4 8 6 3 8 2 9 1 10 4 12 6 14
REMARK H PARENT 10 5 8 7 1 11 4 13 6 15
REMARK Flexibility Score: inf
ROOT
ATOM      1  C   UNL     1     162.996 161.445 182.244  1.00  0.00     0.176 C 
ENDROOT
BRANCH   1   2
ATOM      2  C   UNL     1     163.302 161.405 183.775  1.00  0.00     0.171 C 
BRANCH   2   3
ATOM      3  C   UNL     1     164.668 161.997 184.181  1.00  0.00     0.190 C 
BRANCH   3   4
ATOM      4  O   UNL     1     165.649 161.749 183.210  1.00  0.00    -0.394 OA
ATOM      5  H   UNL     1     166.309 162.489 183.271  1.00  0.00     0.210 HD
ENDBRANCH   3   4
ENDBRANCH   2   3
BRANCH   2   6
ATOM      6  O   UNL     1     163.202 160.087 184.256  1.00  0.00    -0.388 OA
ATOM      7  H   UNL     1     163.556 160.076 185.184  1.00  0.00     0.211 HD
ENDBRANCH   2   6
ENDBRANCH   1   2
BRANCH   1   8
ATOM      8  C   UNL     1     161.489 161.498 181.844  1.00  0.00     0.171 C 
BRANCH   8   9
ATOM      9  C   UNL     1     160.743 162.739 182.381  1.00  0.00     0.190 C 
BRANCH   9  10
ATOM     10  O   UNL     1     159.983 162.397 183.509  1.00  0.00    -0.394 OA
ATOM     11  H   UNL     1     159.532 163.229 183.812  1.00  0.00     0.210 HD
ENDBRANCH   9  10
ENDBRANCH   8   9
BRANCH   8  12
ATOM     12  O   UNL     1     160.820 160.302 182.158  1.00  0.00    -0.388 OA
ATOM     13  H   UNL     1     161.491 159.571 182.182  1.00  0.00     0.211 HD
ENDBRANCH   8  12
ENDBRANCH   1   8
BRANCH   1  14
ATOM     14  O   UNL     1     163.595 160.331 181.627  1.00  0.00    -0.388 OA
ATOM     15  H   UNL     1     163.881 160.612 180.718  1.00  0.00     0.211 HD
ENDBRANCH   1  14
TORSDOF 9
ENDMDL
MODEL 5
REMARK VINA RESULT:    -3.498      1.661      3.880
REMARK INTER + INTRA:          -5.453
REMARK INTER:                  -4.702
REMARK INTRA:                  -0.751
REMARK UNBOUND:                -0.626
REMARK SMILES OC[C@H](O)C(O)[C@@H](O)CO
REMARK SMILES IDX 5 1 7 2 9 3 10 4 8 6 3 8 2 9 1 10 4 12 6 14
REMARK H PARENT 10 5 8 7 1 11 4 13 6 15
REMARK Flexibility Score: inf
ROOT
ATOM      1  C   UNL     1     162.746 162.118 183.681  1.00  0.00     0.176 C 
ENDROOT
BRANCH   1   2
ATOM      2  C   UNL     1     162.917 161.494 182.260  1.00  0.00     0.171 C 
BRANCH   2   3
ATOM      3  C   UNL     1     162.418 160.041 182.124  1.00  0.00     0.190 C 
BRANCH   3   4
ATOM      4  O   UNL     1     161.017 159.973 182.111  1.00  0.00    -0.394 OA
ATOM      5  H   UNL     1     160.776 159.015 182.014  1.00  0.00     0.210 HD
ENDBRANCH   3   4
ENDBRANCH   2   3
BRANCH   2   6
ATOM      6  O   UNL     1     164.262 161.568 181.856  1.00  0.00    -0.388 OA
ATOM      7  H   UNL     1     164.276 161.638 180.865  1.00  0.00     0.211 HD
ENDBRANCH   2   6
ENDBRANCH   1   2
BRANCH   1   8
ATOM      8  C   UNL     1     163.361 161.311 184.867  1.00  0.00     0.171 C 
BRANCH   8   9
ATOM      9  C   UNL     1     163.111 161.946 186.252  1.00  0.00     0.190 C 
BRANCH   9  10
ATOM     10  O   UNL     1     161.874 161.525 186.763  1.00  0.00    -0.394 OA
ATOM     11  H   UNL     1     161.357 162.347 186.973  1.00  0.00     0.210 HD
ENDBRANCH   9  10
ENDBRANCH   8   9
BRANCH   8  12
ATOM     12  O   UNL     1     164.721 161.020 184.655  1.00  0.00    -0.388 OA
ATOM     13  H   UNL     1     164.913 161.134 183.688  1.00  0.00     0.211 HD
ENDBRANCH   8  12
ENDBRANCH   1   8
BRANCH   1  14
ATOM     14  O   UNL     1     161.377 162.326 183.931  1.00  0.00    -0.388 OA
ATOM     15  H   UNL     1     160.980 162.716 183.108  1.00  0.00     0.211 HD
ENDBRANCH   1  14
TORSDOF 9
ENDMDL
MODEL 6
REMARK VINA RESULT:    -3.379      1.748      2.741
REMARK INTER + INTRA:          -5.289
REMARK INTER:                  -4.829
REMARK INTRA:                  -0.461
REMARK UNBOUND:                -0.626
REMARK SMILES OC[C@H](O)C(O)[C@@H](O)CO
REMARK SMILES IDX 5 1 7 2 9 3 10 4 8 6 3 8 2 9 1 10 4 12 6 14
REMARK H PARENT 10 5 8 7 1 11 4 13 6 15
REMARK Flexibility Score: inf
ROOT
ATOM      1  C   UNL     1     163.798 161.567 184.656  1.00  0.00     0.176 C 
ENDROOT
BRANCH   1   2
ATOM      2  C   UNL     1     162.843 162.466 185.504  1.00  0.00     0.171 C 
BRANCH   2   3
ATOM      3  C   UNL     1     162.711 162.058 186.986  1.00  0.00     0.190 C 
BRANCH   3   4
ATOM      4  O   UNL     1     161.961 160.881 187.133  1.00  0.00    -0.394 OA
ATOM      5  H   UNL     1     161.188 160.953 186.514  1.00  0.00     0.210 HD
ENDBRANCH   3   4
ENDBRANCH   2   3
BRANCH   2   6
ATOM      6  O   UNL     1     161.567 162.510 184.915  1.00  0.00    -0.388 OA
ATOM      7  H   UNL     1     161.600 161.966 184.083  1.00  0.00     0.211 HD
ENDBRANCH   2   6
ENDBRANCH   1   2
BRANCH   1   8
ATOM      8  C   UNL     1     164.218 162.130 183.263  1.00  0.00     0.171 C 
BRANCH   8   9
ATOM      9  C   UNL     1     163.291 161.695 182.107  1.00  0.00     0.190 C 
BRANCH   9  10
ATOM     10  O   UNL     1     163.603 160.390 181.699  1.00  0.00    -0.394 OA
ATOM     11  H   UNL     1     163.487 159.806 182.495  1.00  0.00     0.210 HD
ENDBRANCH   9  10
ENDBRANCH   8   9
BRANCH   8  12
ATOM     12  O   UNL     1     165.572 161.873 182.980  1.00  0.00    -0.388 OA
ATOM     13  H   UNL     1     165.614 161.137 182.316  1.00  0.00     0.211 HD
ENDBRANCH   8  12
ENDBRANCH   1   8
BRANCH   1  14
ATOM     14  O   UNL     1     163.203 160.304 184.479  1.00  0.00    -0.388 OA
ATOM     15  H   UNL     1     163.788 159.781 183.871  1.00  0.00     0.211 HD
ENDBRANCH   1  14
TORSDOF 9
ENDMDL
MODEL 7
REMARK VINA RESULT:    -3.341      2.039      3.124
REMARK INTER + INTRA:          -5.237
REMARK INTER:                  -4.785
REMARK INTRA:                  -0.451
REMARK UNBOUND:                -0.626
REMARK SMILES OC[C@H](O)C(O)[C@@H](O)CO
REMARK SMILES IDX 5 1 7 2 9 3 10 4 8 6 3 8 2 9 1 10 4 12 6 14
REMARK H PARENT 10 5 8 7 1 11 4 13 6 15
REMARK Flexibility Score: inf
ROOT
ATOM      1  C   UNL     1     164.549 162.214 183.907  1.00  0.00     0.176 C 
ENDROOT
BRANCH   1   2
ATOM      2  C   UNL     1     165.883 162.048 184.701  1.00  0.00     0.171 C 
BRANCH   2   3
ATOM      3  C   UNL     1     167.159 162.416 183.915  1.00  0.00     0.190 C 
BRANCH   3   4
ATOM      4  O   UNL     1     167.542 161.388 183.041  1.00  0.00    -0.394 OA
ATOM      5  H   UNL     1     168.202 160.827 183.528  1.00  0.00     0.210 HD
ENDBRANCH   3   4
ENDBRANCH   2   3
BRANCH   2   6
ATOM      6  O   UNL     1     165.997 160.734 185.189  1.00  0.00    -0.388 OA
ATOM      7  H   UNL     1     166.300 160.158 184.438  1.00  0.00     0.211 HD
ENDBRANCH   2   6
ENDBRANCH   1   2
BRANCH   1   8
ATOM      8  C   UNL     1     163.282 161.562 184.544  1.00  0.00     0.171 C 
BRANCH   8   9
ATOM      9  C   UNL     1     163.016 162.003 185.999  1.00  0.00     0.190 C 
BRANCH   9  10
ATOM     10  O   UNL     1     162.155 161.093 186.632  1.00  0.00    -0.394 OA
ATOM     11  H   UNL     1     161.900 161.499 187.502  1.00  0.00     0.210 HD
ENDBRANCH   9  10
ENDBRANCH   8   9
BRANCH   8  12
ATOM     12  O   UNL     1     163.288 160.162 184.407  1.00  0.00    -0.388 OA
ATOM     13  H   UNL     1     162.802 159.775 185.181  1.00  0.00     0.211 HD
ENDBRANCH   8  12
ENDBRANCH   1   8
BRANCH   1  14
ATOM     14  O   UNL     1     164.722 161.705 182.607  1.00  0.00    -0.388 OA
ATOM     15  H   UNL     1     165.661 161.392 182.531  1.00  0.00     0.211 HD
ENDBRANCH   1  14
TORSDOF 9
ENDMDL
MODEL 8
REMARK VINA RESULT:    -3.283     10.776     12.445
REMARK INTER + INTRA:          -5.156
REMARK INTER:                  -4.657
REMARK INTRA:                  -0.499
REMARK UNBOUND:                -0.626
REMARK SMILES OC[C@H](O)C(O)[C@@H](O)CO
REMARK SMILES IDX 5 1 7 2 9 3 10 4 8 6 3 8 2 9 1 10 4 12 6 14
REMARK H PARENT 10 5 8 7 1 11 4 13 6 15
REMARK Flexibility Score: inf
ROOT
ATOM      1  C   UNL     1     174.106 161.207 183.820  1.00  0.00     0.176 C 
ENDROOT
BRANCH   1   2
ATOM      2  C   UNL     1     174.496 161.941 182.498  1.00  0.00     0.171 C 
BRANCH   2   3
ATOM      3  C   UNL     1     175.082 161.032 181.398  1.00  0.00     0.190 C 
BRANCH   3   4
ATOM      4  O   UNL     1     176.414 160.686 181.668  1.00  0.00    -0.394 OA
ATOM      5  H   UNL     1     176.393 159.820 182.154  1.00  0.00     0.210 HD
ENDBRANCH   3   4
ENDBRANCH   2   3
BRANCH   2   6
ATOM      6  O   UNL     1     175.397 162.986 182.771  1.00  0.00    -0.388 OA
ATOM      7  H   UNL     1     175.014 163.821 182.392  1.00  0.00     0.211 HD
ENDBRANCH   2   6
ENDBRANCH   1   2
BRANCH   1   8
ATOM      8  C   UNL     1     175.179 161.212 184.954  1.00  0.00     0.171 C 
BRANCH   8   9
ATOM      9  C   UNL     1     175.254 162.539 185.738  1.00  0.00     0.190 C 
BRANCH   9  10
ATOM     10  O   UNL     1     176.367 163.286 185.323  1.00  0.00    -0.394 OA
ATOM     11  H   UNL     1     177.146 162.946 185.837  1.00  0.00     0.210 HD
ENDBRANCH   9  10
ENDBRANCH   8   9
BRANCH   8  12
ATOM     12  O   UNL     1     176.440 160.802 184.484  1.00  0.00    -0.388 OA
ATOM     13  H   UNL     1     176.410 159.822 184.334  1.00  0.00     0.211 HD
ENDBRANCH   8  12
ENDBRANCH   1   8
BRANCH   1  14
ATOM     14  O   UNL     1     173.761 159.876 183.522  1.00  0.00    -0.388 OA
ATOM     15  H   UNL     1     174.064 159.689 182.595  1.00  0.00     0.211 HD
ENDBRANCH   1  14
TORSDOF 9
ENDMDL
MODEL 9
REMARK VINA RESULT:    -3.267     16.585     17.528
REMARK INTER + INTRA:          -5.134
REMARK INTER:                  -4.483
REMARK INTRA:                  -0.651
REMARK UNBOUND:                -0.626
REMARK SMILES OC[C@H](O)C(O)[C@@H](O)CO
REMARK SMILES IDX 5 1 7 2 9 3 10 4 8 6 3 8 2 9 1 10 4 12 6 14
REMARK H PARENT 10 5 8 7 1 11 4 13 6 15
REMARK Flexibility Score: inf
ROOT
ATOM      1  C   UNL     1     166.084 177.037 184.607  1.00  0.00     0.176 C 
ENDROOT
BRANCH   1   2
ATOM      2  C   UNL     1     164.782 177.672 185.189  1.00  0.00     0.171 C 
BRANCH   2   3
ATOM      3  C   UNL     1     163.571 177.663 184.234  1.00  0.00     0.190 C 
BRANCH   3   4
ATOM      4  O   UNL     1     163.673 178.666 183.259  1.00  0.00    -0.394 OA
ATOM      5  H   UNL     1     164.630 178.720 183.000  1.00  0.00     0.210 HD
ENDBRANCH   3   4
ENDBRANCH   2   3
BRANCH   2   6
ATOM      6  O   UNL     1     165.033 178.989 185.614  1.00  0.00    -0.388 OA
ATOM      7  H   UNL     1     165.570 179.437 184.908  1.00  0.00     0.211 HD
ENDBRANCH   2   6
ENDBRANCH   1   2
BRANCH   1   8
ATOM      8  C   UNL     1     167.411 177.379 185.353  1.00  0.00     0.171 C 
BRANCH   8   9
ATOM      9  C   UNL     1     167.423 176.953 186.837  1.00  0.00     0.190 C 
BRANCH   9  10
ATOM     10  O   UNL     1     167.181 178.061 187.663  1.00  0.00    -0.394 OA
ATOM     11  H   UNL     1     167.800 177.982 188.435  1.00  0.00     0.210 HD
ENDBRANCH   9  10
ENDBRANCH   8   9
BRANCH   8  12
ATOM     12  O   UNL     1     167.773 178.729 185.188  1.00  0.00    -0.388 OA
ATOM     13  H   UNL     1     166.950 179.279 185.259  1.00  0.00     0.211 HD
ENDBRANCH   8  12
ENDBRANCH   1   8
BRANCH   1  14
ATOM     14  O   UNL     1     166.211 177.405 183.255  1.00  0.00    -0.388 OA
ATOM     15  H   UNL     1     166.788 178.212 183.219  1.00  0.00     0.211 HD
ENDBRANCH   1  14
TORSDOF 9
ENDMDL
