MODEL 1
REMARK VINA RESULT:    -4.775      0.000      0.000
REMARK INTER + INTRA:          -8.284
REMARK INTER:                  -7.426
REMARK INTRA:                  -0.858
REMARK UNBOUND:                -0.858
REMARK SMILES COc1cc(CNC(=O)CCCCC=CC(C)C)ccc1O
REMARK SMILES IDX 11 1 12 2 13 3 14 4 15 5 16 6 17 7 18 8 10 9 8 10 9 11 7 12
REMARK SMILES IDX 6 14 5 15 4 16 19 17 3 18 20 19 21 20 2 21 1 22 22 23
REMARK H PARENT 7 13 22 24
REMARK Flexibility Score: inf
ROOT
ATOM      1  C   UNL     1     190.316 204.056 203.286  1.00  0.00     0.010 C 
ENDROOT
BRANCH   1   2
ATOM      2  C   UNL     1     190.441 204.775 204.644  1.00  0.00     0.005 C 
BRANCH   2   3
ATOM      3  C   UNL     1     191.847 204.668 205.257  1.00  0.00     0.027 C 
BRANCH   3   4
ATOM      4  C   UNL     1     192.845 205.517 204.513  1.00  0.00    -0.031 C 
ATOM      5  C   UNL     1     194.125 205.757 204.862  1.00  0.00    -0.028 C 
BRANCH   5   6
ATOM      6  C   UNL     1     194.882 205.237 206.072  1.00  0.00     0.005 C 
ATOM      7  C   UNL     1     196.351 204.921 205.765  1.00  0.00     0.012 C 
ATOM      8  C   UNL     1     194.713 206.114 207.319  1.00  0.00     0.012 C 
ENDBRANCH   5   6
ENDBRANCH   3   4
ENDBRANCH   2   3
ENDBRANCH   1   2
BRANCH   1   9
ATOM      9  C   UNL     1     189.984 205.020 202.138  1.00  0.00     0.100 C 
BRANCH   9  10
ATOM     10  C   UNL     1     190.910 204.785 200.986  1.00  0.00     0.220 C 
ATOM     11  O   UNL     1     192.063 205.295 201.003  1.00  0.00    -0.275 OA
ATOM     12  N   UNL     1     190.462 204.045 199.843  1.00  0.00    -0.352 N 
ATOM     13  H   UNL     1     189.575 203.495 199.918  1.00  0.00     0.163 HD
BRANCH  12  14
ATOM     14  C   UNL     1     190.989 204.291 198.503  1.00  0.00     0.151 C 
BRANCH  14  15
ATOM     15  C   UNL     1     190.201 205.393 197.850  1.00  0.00    -0.025 A 
ATOM     16  C   UNL     1     189.004 205.098 197.180  1.00  0.00     0.056 A 
ATOM     17  C   UNL     1     190.690 206.706 197.836  1.00  0.00     0.009 A 
ATOM     18  C   UNL     1     188.301 206.105 196.488  1.00  0.00     0.160 A 
ATOM     19  C   UNL     1     189.989 207.712 197.170  1.00  0.00     0.050 A 
ATOM     20  C   UNL     1     188.802 207.419 196.494  1.00  0.00     0.157 A 
BRANCH  18  21
ATOM     21  O   UNL     1     187.118 205.833 195.786  1.00  0.00    -0.493 OA
ATOM     22  C   UNL     1     187.010 204.899 194.715  1.00  0.00     0.278 C 
ENDBRANCH  18  21
BRANCH  20  23
ATOM     23  O   UNL     1     188.136 208.446 195.823  1.00  0.00    -0.504 OA
ATOM     24  H   UNL     1     187.248 208.302 195.361  1.00  0.00     0.293 HD
ENDBRANCH  20  23
ENDBRANCH  14  15
ENDBRANCH  12  14
ENDBRANCH   9  10
ENDBRANCH   1   9
TORSDOF 10
ENDMDL
MODEL 2
REMARK VINA RESULT:    -4.743      2.021      8.917
REMARK INTER + INTRA:          -8.236
REMARK INTER:                  -7.114
REMARK INTRA:                  -1.122
REMARK UNBOUND:                -0.858
REMARK SMILES COc1cc(CNC(=O)CCCCC=CC(C)C)ccc1O
REMARK SMILES IDX 11 1 12 2 13 3 14 4 15 5 16 6 17 7 18 8 10 9 8 10 9 11 7 12
REMARK SMILES IDX 6 14 5 15 4 16 19 17 3 18 20 19 21 20 2 21 1 22 22 23
REMARK H PARENT 7 13 22 24
REMARK Flexibility Score: inf
ROOT
ATOM      1  C   UNL     1     190.189 206.625 196.843  1.00  0.00     0.010 C 
ENDROOT
BRANCH   1   2
ATOM      2  C   UNL     1     189.056 207.671 196.893  1.00  0.00     0.005 C 
BRANCH   2   3
ATOM      3  C   UNL     1     187.974 207.439 195.825  1.00  0.00     0.027 C 
BRANCH   3   4
ATOM      4  C   UNL     1     187.152 206.211 196.123  1.00  0.00    -0.031 C 
ATOM      5  C   UNL     1     187.279 204.994 195.558  1.00  0.00    -0.028 C 
BRANCH   5   6
ATOM      6  C   UNL     1     188.270 204.550 194.497  1.00  0.00     0.005 C 
ATOM      7  C   UNL     1     188.814 203.138 194.743  1.00  0.00     0.012 C 
ATOM      8  C   UNL     1     187.758 204.747 193.064  1.00  0.00     0.012 C 
ENDBRANCH   5   6
ENDBRANCH   3   4
ENDBRANCH   2   3
ENDBRANCH   1   2
BRANCH   1   9
ATOM      9  C   UNL     1     190.861 206.420 198.208  1.00  0.00     0.100 C 
BRANCH   9  10
ATOM     10  C   UNL     1     190.735 204.989 198.632  1.00  0.00     0.220 C 
ATOM     11  O   UNL     1     189.622 204.407 198.530  1.00  0.00    -0.275 OA
ATOM     12  N   UNL     1     191.858 204.311 199.213  1.00  0.00    -0.352 N 
ATOM     13  H   UNL     1     192.804 204.750 199.134  1.00  0.00     0.163 HD
BRANCH  12  14
ATOM     14  C   UNL     1     191.695 203.234 200.184  1.00  0.00     0.151 C 
BRANCH  14  15
ATOM     15  C   UNL     1     191.332 203.817 201.523  1.00  0.00    -0.025 A 
ATOM     16  C   UNL     1     192.182 204.751 202.134  1.00  0.00     0.056 A 
ATOM     17  C   UNL     1     190.190 203.377 202.205  1.00  0.00     0.009 A 
ATOM     18  C   UNL     1     191.901 205.240 203.426  1.00  0.00     0.160 A 
ATOM     19  C   UNL     1     189.896 203.871 203.476  1.00  0.00     0.050 A 
ATOM     20  C   UNL     1     190.745 204.795 204.092  1.00  0.00     0.157 A 
BRANCH  18  21
ATOM     21  O   UNL     1     192.747 206.152 204.073  1.00  0.00    -0.493 OA
ATOM     22  C   UNL     1     193.859 205.787 204.885  1.00  0.00     0.278 C 
ENDBRANCH  18  21
BRANCH  20  23
ATOM     23  O   UNL     1     190.428 205.255 205.371  1.00  0.00    -0.504 OA
ATOM     24  H   UNL     1     190.517 206.229 205.632  1.00  0.00     0.293 HD
ENDBRANCH  20  23
ENDBRANCH  14  15
ENDBRANCH  12  14
ENDBRANCH   9  10
ENDBRANCH   1   9
TORSDOF 10
ENDMDL
MODEL 3
REMARK VINA RESULT:    -4.658      2.960      8.593
REMARK INTER + INTRA:          -8.103
REMARK INTER:                  -6.497
REMARK INTRA:                  -1.606
REMARK UNBOUND:                -0.858
REMARK SMILES COc1cc(CNC(=O)CCCCC=CC(C)C)ccc1O
REMARK SMILES IDX 11 1 12 2 13 3 14 4 15 5 16 6 17 7 18 8 10 9 8 10 9 11 7 12
REMARK SMILES IDX 6 14 5 15 4 16 19 17 3 18 20 19 21 20 2 21 1 22 22 23
REMARK H PARENT 7 13 22 24
REMARK Flexibility Score: inf
ROOT
ATOM      1  C   UNL     1     187.829 204.155 193.586  1.00  0.00     0.010 C 
ENDROOT
BRANCH   1   2
ATOM      2  C   UNL     1     187.300 202.883 194.278  1.00  0.00     0.005 C 
BRANCH   2   3
ATOM      3  C   UNL     1     188.365 201.782 194.414  1.00  0.00     0.027 C 
BRANCH   3   4
ATOM      4  C   UNL     1     189.757 202.329 194.228  1.00  0.00    -0.031 C 
ATOM      5  C   UNL     1     190.915 201.731 194.573  1.00  0.00    -0.028 C 
BRANCH   5   6
ATOM      6  C   UNL     1     191.114 200.373 195.222  1.00  0.00     0.005 C 
ATOM      7  C   UNL     1     190.955 199.211 194.233  1.00  0.00     0.012 C 
ATOM      8  C   UNL     1     192.403 200.275 196.049  1.00  0.00     0.012 C 
ENDBRANCH   5   6
ENDBRANCH   3   4
ENDBRANCH   2   3
ENDBRANCH   1   2
BRANCH   1   9
ATOM      9  C   UNL     1     187.325 205.442 194.255  1.00  0.00     0.100 C 
BRANCH   9  10
ATOM     10  C   UNL     1     187.890 205.556 195.637  1.00  0.00     0.220 C 
ATOM     11  O   UNL     1     187.110 205.709 196.615  1.00  0.00    -0.275 OA
ATOM     12  N   UNL     1     189.311 205.561 195.835  1.00  0.00    -0.352 N 
ATOM     13  H   UNL     1     189.928 205.267 195.042  1.00  0.00     0.163 HD
BRANCH  12  14
ATOM     14  C   UNL     1     189.937 206.267 196.948  1.00  0.00     0.151 C 
BRANCH  14  15
ATOM     15  C   UNL     1     190.533 205.270 197.903  1.00  0.00    -0.025 A 
ATOM     16  C   UNL     1     191.022 205.695 199.147  1.00  0.00     0.056 A 
ATOM     17  C   UNL     1     190.677 203.927 197.531  1.00  0.00     0.009 A 
ATOM     18  C   UNL     1     191.662 204.788 200.016  1.00  0.00     0.160 A 
ATOM     19  C   UNL     1     191.292 203.019 198.394  1.00  0.00     0.050 A 
ATOM     20  C   UNL     1     191.789 203.442 199.630  1.00  0.00     0.157 A 
BRANCH  18  21
ATOM     21  O   UNL     1     192.187 205.192 201.253  1.00  0.00    -0.493 OA
ATOM     22  C   UNL     1     191.415 205.371 202.437  1.00  0.00     0.278 C 
ENDBRANCH  18  21
BRANCH  20  23
ATOM     23  O   UNL     1     192.414 202.510 200.460  1.00  0.00    -0.504 OA
ATOM     24  H   UNL     1     192.565 202.682 201.446  1.00  0.00     0.293 HD
ENDBRANCH  20  23
ENDBRANCH  14  15
ENDBRANCH  12  14
ENDBRANCH   9  10
ENDBRANCH   1   9
TORSDOF 10
ENDMDL
MODEL 4
REMARK VINA RESULT:    -4.623      2.525      5.543
REMARK INTER + INTRA:          -8.049
REMARK INTER:                  -6.215
REMARK INTRA:                  -1.834
REMARK UNBOUND:                -0.858
REMARK SMILES COc1cc(CNC(=O)CCCCC=CC(C)C)ccc1O
REMARK SMILES IDX 11 1 12 2 13 3 14 4 15 5 16 6 17 7 18 8 10 9 8 10 9 11 7 12
REMARK SMILES IDX 6 14 5 15 4 16 19 17 3 18 20 19 21 20 2 21 1 22 22 23
REMARK H PARENT 7 13 22 24
REMARK Flexibility Score: inf
ROOT
ATOM      1  C   UNL     1     190.649 206.724 197.372  1.00  0.00     0.010 C 
ENDROOT
BRANCH   1   2
ATOM      2  C   UNL     1     190.518 205.677 198.497  1.00  0.00     0.005 C 
BRANCH   2   3
ATOM      3  C   UNL     1     191.628 205.787 199.556  1.00  0.00     0.027 C 
BRANCH   3   4
ATOM      4  C   UNL     1     191.702 204.551 200.415  1.00  0.00    -0.031 C 
ATOM      5  C   UNL     1     191.614 204.492 201.759  1.00  0.00    -0.028 C 
BRANCH   5   6
ATOM      6  C   UNL     1     191.414 205.635 202.738  1.00  0.00     0.005 C 
ATOM      7  C   UNL     1     189.943 205.846 203.116  1.00  0.00     0.012 C 
ATOM      8  C   UNL     1     192.335 205.557 203.963  1.00  0.00     0.012 C 
ENDBRANCH   5   6
ENDBRANCH   3   4
ENDBRANCH   2   3
ENDBRANCH   1   2
BRANCH   1   9
ATOM      9  C   UNL     1     189.287 207.164 196.817  1.00  0.00     0.100 C 
BRANCH   9  10
ATOM     10  C   UNL     1     188.552 205.981 196.264  1.00  0.00     0.220 C 
ATOM     11  O   UNL     1     187.387 205.730 196.672  1.00  0.00    -0.275 OA
ATOM     12  N   UNL     1     189.199 205.106 195.331  1.00  0.00    -0.352 N 
ATOM     13  H   UNL     1     190.091 205.420 194.883  1.00  0.00     0.163 HD
BRANCH  12  14
ATOM     14  C   UNL     1     188.864 203.687 195.238  1.00  0.00     0.151 C 
BRANCH  14  15
ATOM     15  C   UNL     1     189.536 202.939 196.356  1.00  0.00    -0.025 A 
ATOM     16  C   UNL     1     188.799 202.553 197.485  1.00  0.00     0.056 A 
ATOM     17  C   UNL     1     190.915 202.690 196.318  1.00  0.00     0.009 A 
ATOM     18  C   UNL     1     189.432 201.930 198.578  1.00  0.00     0.160 A 
ATOM     19  C   UNL     1     191.545 202.056 197.389  1.00  0.00     0.050 A 
ATOM     20  C   UNL     1     190.815 201.679 198.519  1.00  0.00     0.157 A 
BRANCH  18  21
ATOM     21  O   UNL     1     188.725 201.559 199.732  1.00  0.00    -0.493 OA
ATOM     22  C   UNL     1     188.369 202.452 200.783  1.00  0.00     0.278 C 
ENDBRANCH  18  21
BRANCH  20  23
ATOM     23  O   UNL     1     191.481 201.062 199.578  1.00  0.00    -0.504 OA
ATOM     24  H   UNL     1     190.987 200.592 200.327  1.00  0.00     0.293 HD
ENDBRANCH  20  23
ENDBRANCH  14  15
ENDBRANCH  12  14
ENDBRANCH   9  10
ENDBRANCH   1   9
TORSDOF 10
ENDMDL
MODEL 5
REMARK VINA RESULT:    -4.601      1.882      2.949
REMARK INTER + INTRA:          -8.015
REMARK INTER:                  -7.362
REMARK INTRA:                  -0.653
REMARK UNBOUND:                -0.858
REMARK SMILES COc1cc(CNC(=O)CCCCC=CC(C)C)ccc1O
REMARK SMILES IDX 11 1 12 2 13 3 14 4 15 5 16 6 17 7 18 8 10 9 8 10 9 11 7 12
REMARK SMILES IDX 6 14 5 15 4 16 19 17 3 18 20 19 21 20 2 21 1 22 22 23
REMARK H PARENT 7 13 22 24
REMARK Flexibility Score: inf
ROOT
ATOM      1  C   UNL     1     191.235 204.548 201.571  1.00  0.00     0.010 C 
ENDROOT
BRANCH   1   2
ATOM      2  C   UNL     1     191.118 205.783 202.487  1.00  0.00     0.005 C 
BRANCH   2   3
ATOM      3  C   UNL     1     192.170 205.804 203.609  1.00  0.00     0.027 C 
BRANCH   3   4
ATOM      4  C   UNL     1     192.848 204.467 203.762  1.00  0.00    -0.031 C 
ATOM      5  C   UNL     1     193.946 204.195 204.495  1.00  0.00    -0.028 C 
BRANCH   5   6
ATOM      6  C   UNL     1     194.767 205.147 205.346  1.00  0.00     0.005 C 
ATOM      7  C   UNL     1     194.345 205.142 206.820  1.00  0.00     0.012 C 
ATOM      8  C   UNL     1     196.281 204.978 205.163  1.00  0.00     0.012 C 
ENDBRANCH   5   6
ENDBRANCH   3   4
ENDBRANCH   2   3
ENDBRANCH   1   2
BRANCH   1   9
ATOM      9  C   UNL     1     191.676 204.911 200.146  1.00  0.00     0.100 C 
BRANCH   9  10
ATOM     10  C   UNL     1     191.564 203.714 199.253  1.00  0.00     0.220 C 
ATOM     11  O   UNL     1     192.257 202.690 199.499  1.00  0.00    -0.275 OA
ATOM     12  N   UNL     1     190.727 203.761 198.090  1.00  0.00    -0.352 N 
ATOM     13  H   UNL     1     190.041 204.546 197.997  1.00  0.00     0.163 HD
BRANCH  12  14
ATOM     14  C   UNL     1     191.018 202.978 196.892  1.00  0.00     0.151 C 
BRANCH  14  15
ATOM     15  C   UNL     1     190.091 203.395 195.783  1.00  0.00    -0.025 A 
ATOM     16  C   UNL     1     189.327 204.564 195.909  1.00  0.00     0.056 A 
ATOM     17  C   UNL     1     189.924 202.583 194.653  1.00  0.00     0.009 A 
ATOM     18  C   UNL     1     188.390 204.921 194.919  1.00  0.00     0.160 A 
ATOM     19  C   UNL     1     189.012 202.940 193.659  1.00  0.00     0.050 A 
ATOM     20  C   UNL     1     188.243 204.100 193.786  1.00  0.00     0.157 A 
BRANCH  18  21
ATOM     21  O   UNL     1     187.592 206.069 195.032  1.00  0.00    -0.493 OA
ATOM     22  C   UNL     1     187.753 207.068 196.035  1.00  0.00     0.278 C 
ENDBRANCH  18  21
BRANCH  20  23
ATOM     23  O   UNL     1     187.329 204.417 192.781  1.00  0.00    -0.504 OA
ATOM     24  H   UNL     1     186.835 203.705 192.256  1.00  0.00     0.293 HD
ENDBRANCH  20  23
ENDBRANCH  14  15
ENDBRANCH  12  14
ENDBRANCH   9  10
ENDBRANCH   1   9
TORSDOF 10
ENDMDL
MODEL 6
REMARK VINA RESULT:    -4.563      4.379      7.020
REMARK INTER + INTRA:          -7.955
REMARK INTER:                  -5.811
REMARK INTRA:                  -2.144
REMARK UNBOUND:                -0.858
REMARK SMILES COc1cc(CNC(=O)CCCCC=CC(C)C)ccc1O
REMARK SMILES IDX 11 1 12 2 13 3 14 4 15 5 16 6 17 7 18 8 10 9 8 10 9 11 7 12
REMARK SMILES IDX 6 14 5 15 4 16 19 17 3 18 20 19 21 20 2 21 1 22 22 23
REMARK H PARENT 7 13 22 24
REMARK Flexibility Score: inf
ROOT
ATOM      1  C   UNL     1     190.589 206.267 197.387  1.00  0.00     0.010 C 
ENDROOT
BRANCH   1   2
ATOM      2  C   UNL     1     191.057 206.091 198.846  1.00  0.00     0.005 C 
BRANCH   2   3
ATOM      3  C   UNL     1     191.344 204.626 199.215  1.00  0.00     0.027 C 
BRANCH   3   4
ATOM      4  C   UNL     1     190.312 204.079 200.167  1.00  0.00    -0.031 C 
ATOM      5  C   UNL     1     189.143 203.491 199.845  1.00  0.00    -0.028 C 
BRANCH   5   6
ATOM      6  C   UNL     1     188.574 203.225 198.462  1.00  0.00     0.005 C 
ATOM      7  C   UNL     1     188.624 201.743 198.072  1.00  0.00     0.012 C 
ATOM      8  C   UNL     1     187.191 203.850 198.241  1.00  0.00     0.012 C 
ENDBRANCH   5   6
ENDBRANCH   3   4
ENDBRANCH   2   3
ENDBRANCH   1   2
BRANCH   1   9
ATOM      9  C   UNL     1     189.548 207.386 197.234  1.00  0.00     0.100 C 
BRANCH   9  10
ATOM     10  C   UNL     1     188.533 207.004 196.201  1.00  0.00     0.220 C 
ATOM     11  O   UNL     1     187.455 207.651 196.122  1.00  0.00    -0.275 OA
ATOM     12  N   UNL     1     188.760 205.868 195.356  1.00  0.00    -0.352 N 
ATOM     13  H   UNL     1     189.720 205.452 195.322  1.00  0.00     0.163 HD
BRANCH  12  14
ATOM     14  C   UNL     1     187.662 205.069 194.819  1.00  0.00     0.151 C 
BRANCH  14  15
ATOM     15  C   UNL     1     188.098 203.634 194.700  1.00  0.00    -0.025 A 
ATOM     16  C   UNL     1     189.458 203.303 194.796  1.00  0.00     0.056 A 
ATOM     17  C   UNL     1     187.165 202.629 194.414  1.00  0.00     0.009 A 
ATOM     18  C   UNL     1     189.890 201.977 194.599  1.00  0.00     0.160 A 
ATOM     19  C   UNL     1     187.583 201.310 194.237  1.00  0.00     0.050 A 
ATOM     20  C   UNL     1     188.938 200.979 194.324  1.00  0.00     0.157 A 
BRANCH  18  21
ATOM     21  O   UNL     1     191.246 201.622 194.661  1.00  0.00    -0.493 OA
ATOM     22  C   UNL     1     191.893 201.105 195.820  1.00  0.00     0.278 C 
ENDBRANCH  18  21
BRANCH  20  23
ATOM     23  O   UNL     1     189.323 199.652 194.124  1.00  0.00    -0.504 OA
ATOM     24  H   UNL     1     189.663 199.318 193.231  1.00  0.00     0.293 HD
ENDBRANCH  20  23
ENDBRANCH  14  15
ENDBRANCH  12  14
ENDBRANCH   9  10
ENDBRANCH   1   9
TORSDOF 10
ENDMDL
MODEL 7
REMARK VINA RESULT:    -4.529      4.014      5.015
REMARK INTER + INTRA:          -7.902
REMARK INTER:                  -5.944
REMARK INTRA:                  -1.958
REMARK UNBOUND:                -0.858
REMARK SMILES COc1cc(CNC(=O)CCCCC=CC(C)C)ccc1O
REMARK SMILES IDX 11 1 12 2 13 3 14 4 15 5 16 6 17 7 18 8 10 9 8 10 9 11 7 12
REMARK SMILES IDX 6 14 5 15 4 16 19 17 3 18 20 19 21 20 2 21 1 22 22 23
REMARK H PARENT 7 13 22 24
REMARK Flexibility Score: inf
ROOT
ATOM      1  C   UNL     1     191.141 204.630 206.551  1.00  0.00     0.010 C 
ENDROOT
BRANCH   1   2
ATOM      2  C   UNL     1     191.908 203.418 205.984  1.00  0.00     0.005 C 
BRANCH   2   3
ATOM      3  C   UNL     1     192.571 203.705 204.627  1.00  0.00     0.027 C 
BRANCH   3   4
ATOM      4  C   UNL     1     192.944 205.158 204.485  1.00  0.00    -0.031 C 
ATOM      5  C   UNL     1     193.983 205.789 205.067  1.00  0.00    -0.028 C 
BRANCH   5   6
ATOM      6  C   UNL     1     195.033 205.207 205.997  1.00  0.00     0.005 C 
ATOM      7  C   UNL     1     196.404 205.055 205.327  1.00  0.00     0.012 C 
ATOM      8  C   UNL     1     195.112 205.923 207.352  1.00  0.00     0.012 C 
ENDBRANCH   5   6
ENDBRANCH   3   4
ENDBRANCH   2   3
ENDBRANCH   1   2
BRANCH   1   9
ATOM      9  C   UNL     1     189.671 204.307 206.852  1.00  0.00     0.100 C 
BRANCH   9  10
ATOM     10  C   UNL     1     188.791 204.872 205.780  1.00  0.00     0.220 C 
ATOM     11  O   UNL     1     187.577 204.538 205.734  1.00  0.00    -0.275 OA
ATOM     12  N   UNL     1     189.346 205.730 204.774  1.00  0.00    -0.352 N 
ATOM     13  H   UNL     1     190.303 206.125 204.923  1.00  0.00     0.163 HD
BRANCH  12  14
ATOM     14  C   UNL     1     188.792 205.801 203.424  1.00  0.00     0.151 C 
BRANCH  14  15
ATOM     15  C   UNL     1     189.744 205.151 202.458  1.00  0.00    -0.025 A 
ATOM     16  C   UNL     1     189.732 203.758 202.291  1.00  0.00     0.056 A 
ATOM     17  C   UNL     1     190.700 205.917 201.776  1.00  0.00     0.009 A 
ATOM     18  C   UNL     1     190.676 203.127 201.456  1.00  0.00     0.160 A 
ATOM     19  C   UNL     1     191.625 205.300 200.933  1.00  0.00     0.050 A 
ATOM     20  C   UNL     1     191.621 203.912 200.772  1.00  0.00     0.157 A 
BRANCH  18  21
ATOM     21  O   UNL     1     190.705 201.734 201.292  1.00  0.00    -0.493 OA
ATOM     22  C   UNL     1     191.434 200.838 202.127  1.00  0.00     0.278 C 
ENDBRANCH  18  21
BRANCH  20  23
ATOM     23  O   UNL     1     192.572 203.327 199.933  1.00  0.00    -0.504 OA
ATOM     24  H   UNL     1     193.443 202.952 200.285  1.00  0.00     0.293 HD
ENDBRANCH  20  23
ENDBRANCH  14  15
ENDBRANCH  12  14
ENDBRANCH   9  10
ENDBRANCH   1   9
TORSDOF 10
ENDMDL
MODEL 8
REMARK VINA RESULT:    -4.529     15.598     17.576
REMARK INTER + INTRA:          -7.902
REMARK INTER:                  -6.118
REMARK INTRA:                  -1.783
REMARK UNBOUND:                -0.858
REMARK SMILES COc1cc(CNC(=O)CCCCC=CC(C)C)ccc1O
REMARK SMILES IDX 11 1 12 2 13 3 14 4 15 5 16 6 17 7 18 8 10 9 8 10 9 11 7 12
REMARK SMILES IDX 6 14 5 15 4 16 19 17 3 18 20 19 21 20 2 21 1 22 22 23
REMARK H PARENT 7 13 22 24
REMARK Flexibility Score: inf
ROOT
ATOM      1  C   UNL     1     200.612 204.228 188.047  1.00  0.00     0.010 C 
ENDROOT
BRANCH   1   2
ATOM      2  C   UNL     1     199.487 203.470 188.781  1.00  0.00     0.005 C 
BRANCH   2   3
ATOM      3  C   UNL     1     199.895 202.049 189.205  1.00  0.00     0.027 C 
BRANCH   3   4
ATOM      4  C   UNL     1     201.333 201.993 189.652  1.00  0.00    -0.031 C 
ATOM      5  C   UNL     1     201.973 200.937 190.195  1.00  0.00    -0.028 C 
BRANCH   5   6
ATOM      6  C   UNL     1     201.420 199.554 190.487  1.00  0.00     0.005 C 
ATOM      7  C   UNL     1     201.349 198.664 189.240  1.00  0.00     0.012 C 
ATOM      8  C   UNL     1     202.107 198.860 191.671  1.00  0.00     0.012 C 
ENDBRANCH   5   6
ENDBRANCH   3   4
ENDBRANCH   2   3
ENDBRANCH   1   2
BRANCH   1   9
ATOM      9  C   UNL     1     200.470 205.752 188.168  1.00  0.00     0.100 C 
BRANCH   9  10
ATOM     10  C   UNL     1     201.541 206.297 189.061  1.00  0.00     0.220 C 
ATOM     11  O   UNL     1     202.199 207.308 188.694  1.00  0.00    -0.275 OA
ATOM     12  N   UNL     1     201.861 205.631 190.290  1.00  0.00    -0.352 N 
ATOM     13  H   UNL     1     201.201 204.904 190.653  1.00  0.00     0.163 HD
BRANCH  12  14
ATOM     14  C   UNL     1     203.201 205.671 190.869  1.00  0.00     0.151 C 
BRANCH  14  15
ATOM     15  C   UNL     1     203.963 204.443 190.452  1.00  0.00    -0.025 A 
ATOM     16  C   UNL     1     204.398 203.526 191.420  1.00  0.00     0.056 A 
ATOM     17  C   UNL     1     204.312 204.243 189.110  1.00  0.00     0.009 A 
ATOM     18  C   UNL     1     205.188 202.417 191.056  1.00  0.00     0.160 A 
ATOM     19  C   UNL     1     205.077 203.136 188.739  1.00  0.00     0.050 A 
ATOM     20  C   UNL     1     205.520 202.226 189.703  1.00  0.00     0.157 A 
BRANCH  18  21
ATOM     21  O   UNL     1     205.661 201.500 192.006  1.00  0.00    -0.493 OA
ATOM     22  C   UNL     1     204.853 200.877 193.001  1.00  0.00     0.278 C 
ENDBRANCH  18  21
BRANCH  20  23
ATOM     23  O   UNL     1     206.299 201.141 189.298  1.00  0.00    -0.504 OA
ATOM     24  H   UNL     1     207.294 201.222 189.134  1.00  0.00     0.293 HD
ENDBRANCH  20  23
ENDBRANCH  14  15
ENDBRANCH  12  14
ENDBRANCH   9  10
ENDBRANCH   1   9
TORSDOF 10
ENDMDL
MODEL 9
REMARK VINA RESULT:    -4.504      2.730      8.854
REMARK INTER + INTRA:          -7.863
REMARK INTER:                  -6.622
REMARK INTRA:                  -1.240
REMARK UNBOUND:                -0.858
REMARK SMILES COc1cc(CNC(=O)CCCCC=CC(C)C)ccc1O
REMARK SMILES IDX 11 1 12 2 13 3 14 4 15 5 16 6 17 7 18 8 10 9 8 10 9 11 7 12
REMARK SMILES IDX 6 14 5 15 4 16 19 17 3 18 20 19 21 20 2 21 1 22 22 23
REMARK H PARENT 7 13 22 24
REMARK Flexibility Score: inf
ROOT
ATOM      1  C   UNL     1     191.998 204.552 200.292  1.00  0.00     0.010 C 
ENDROOT
BRANCH   1   2
ATOM      2  C   UNL     1     191.413 203.603 199.226  1.00  0.00     0.005 C 
BRANCH   2   3
ATOM      3  C   UNL     1     190.108 204.127 198.603  1.00  0.00     0.027 C 
BRANCH   3   4
ATOM      4  C   UNL     1     190.246 204.337 197.118  1.00  0.00    -0.031 C 
ATOM      5  C   UNL     1     189.868 205.423 196.414  1.00  0.00    -0.028 C 
BRANCH   5   6
ATOM      6  C   UNL     1     189.223 206.698 196.929  1.00  0.00     0.005 C 
ATOM      7  C   UNL     1     190.245 207.792 197.260  1.00  0.00     0.012 C 
ATOM      8  C   UNL     1     188.079 207.204 196.041  1.00  0.00     0.012 C 
ENDBRANCH   5   6
ENDBRANCH   3   4
ENDBRANCH   2   3
ENDBRANCH   1   2
BRANCH   1   9
ATOM      9  C   UNL     1     191.006 205.647 200.713  1.00  0.00     0.100 C 
BRANCH   9  10
ATOM     10  C   UNL     1     190.655 205.492 202.160  1.00  0.00     0.220 C 
ATOM     11  O   UNL     1     190.353 206.511 202.838  1.00  0.00    -0.275 OA
ATOM     12  N   UNL     1     190.732 204.203 202.785  1.00  0.00    -0.352 N 
ATOM     13  H   UNL     1     190.820 203.356 202.177  1.00  0.00     0.163 HD
BRANCH  12  14
ATOM     14  C   UNL     1     191.034 204.046 204.204  1.00  0.00     0.151 C 
BRANCH  14  15
ATOM     15  C   UNL     1     192.491 204.332 204.442  1.00  0.00    -0.025 A 
ATOM     16  C   UNL     1     193.462 203.397 204.053  1.00  0.00     0.056 A 
ATOM     17  C   UNL     1     192.887 205.492 205.120  1.00  0.00     0.009 A 
ATOM     18  C   UNL     1     194.824 203.611 204.347  1.00  0.00     0.160 A 
ATOM     19  C   UNL     1     194.236 205.720 205.398  1.00  0.00     0.050 A 
ATOM     20  C   UNL     1     195.204 204.786 205.020  1.00  0.00     0.157 A 
BRANCH  18  21
ATOM     21  O   UNL     1     195.813 202.680 203.995  1.00  0.00    -0.493 OA
ATOM     22  C   UNL     1     196.047 201.453 204.679  1.00  0.00     0.278 C 
ENDBRANCH  18  21
BRANCH  20  23
ATOM     23  O   UNL     1     196.542 205.038 205.329  1.00  0.00    -0.504 OA
ATOM     24  H   UNL     1     197.115 204.371 205.829  1.00  0.00     0.293 HD
ENDBRANCH  20  23
ENDBRANCH  14  15
ENDBRANCH  12  14
ENDBRANCH   9  10
ENDBRANCH   1   9
TORSDOF 10
ENDMDL
