MODEL 1
REMARK VINA RESULT:    -3.822      0.000      0.000
REMARK INTER + INTRA:          -5.314
REMARK INTER:                  -4.939
REMARK INTRA:                  -0.375
REMARK UNBOUND:                -0.375
REMARK SMILES CCOC(=O)C=Cc1ccc(O)c(O)c1
REMARK SMILES IDX 6 1 7 2 4 3 5 4 3 5 2 6 1 7 8 8 15 9 9 10 13 11 10 12 11 13
REMARK SMILES IDX 14 14 12 16
REMARK H PARENT 14 15 12 17
REMARK Flexibility Score: inf
ROOT
ATOM      1  C   UNL     1       7.734 -21.738 -17.465  1.00  0.00     0.094 C 
ATOM      2  C   UNL     1       8.856 -21.841 -18.189  1.00  0.00     0.016 C 
ENDROOT
BRANCH   1   3
ATOM      3  C   UNL     1       7.760 -21.659 -15.996  1.00  0.00     0.330 C 
ATOM      4  O   UNL     1       7.394 -22.659 -15.322  1.00  0.00    -0.247 OA
BRANCH   3   5
ATOM      5  O   UNL     1       8.192 -20.489 -15.356  1.00  0.00    -0.463 OA
BRANCH   5   6
ATOM      6  C   UNL     1       9.199 -20.473 -14.346  1.00  0.00     0.230 C 
ATOM      7  C   UNL     1      10.588 -20.439 -14.974  1.00  0.00     0.049 C 
ENDBRANCH   5   6
ENDBRANCH   3   5
ENDBRANCH   1   3
BRANCH   2   8
ATOM      8  C   UNL     1       8.876 -21.935 -19.670  1.00  0.00    -0.021 A 
ATOM      9  C   UNL     1       9.612 -21.041 -20.476  1.00  0.00     0.058 A 
ATOM     10  C   UNL     1       8.165 -22.975 -20.288  1.00  0.00     0.012 A 
ATOM     11  C   UNL     1       9.612 -21.174 -21.869  1.00  0.00     0.157 A 
ATOM     12  C   UNL     1       8.163 -23.108 -21.678  1.00  0.00     0.051 A 
ATOM     13  C   UNL     1       8.882 -22.209 -22.476  1.00  0.00     0.157 A 
BRANCH  11  14
ATOM     14  O   UNL     1      10.348 -20.269 -22.635  1.00  0.00    -0.504 OA
ATOM     15  H   UNL     1      11.150 -20.557 -23.185  1.00  0.00     0.293 HD
ENDBRANCH  11  14
BRANCH  13  16
ATOM     16  O   UNL     1       8.876 -22.342 -23.863  1.00  0.00    -0.504 OA
ATOM     17  H   UNL     1       8.034 -22.189 -24.407  1.00  0.00     0.293 HD
ENDBRANCH  13  16
ENDBRANCH   2   8
TORSDOF 6
ENDMDL
MODEL 2
REMARK VINA RESULT:    -3.709      2.090      6.234
REMARK INTER + INTRA:          -5.167
REMARK INTER:                  -4.943
REMARK INTRA:                  -0.224
REMARK UNBOUND:                -0.375
REMARK SMILES CCOC(=O)C=Cc1ccc(O)c(O)c1
REMARK SMILES IDX 6 1 7 2 4 3 5 4 3 5 2 6 1 7 8 8 15 9 9 10 13 11 10 12 11 13
REMARK SMILES IDX 14 14 12 16
REMARK H PARENT 14 15 12 17
REMARK Flexibility Score: inf
ROOT
ATOM      1  C   UNL     1       8.881 -21.812 -19.663  1.00  0.00     0.094 C 
ATOM      2  C   UNL     1       8.782 -21.930 -18.332  1.00  0.00     0.016 C 
ENDROOT
BRANCH   1   3
ATOM      3  C   UNL     1      10.184 -21.756 -20.344  1.00  0.00     0.330 C 
ATOM      4  O   UNL     1      11.098 -22.545 -19.983  1.00  0.00    -0.247 OA
BRANCH   3   5
ATOM      5  O   UNL     1      10.403 -20.842 -21.384  1.00  0.00    -0.463 OA
BRANCH   5   6
ATOM      6  C   UNL     1       9.489 -20.641 -22.460  1.00  0.00     0.230 C 
ATOM      7  C   UNL     1       9.143 -21.968 -23.126  1.00  0.00     0.049 C 
ENDBRANCH   5   6
ENDBRANCH   3   5
ENDBRANCH   1   3
BRANCH   2   8
ATOM      8  C   UNL     1       7.490 -21.979 -17.603  1.00  0.00    -0.021 A 
ATOM      9  C   UNL     1       7.110 -20.995 -16.666  1.00  0.00     0.058 A 
ATOM     10  C   UNL     1       6.598 -23.026 -17.884  1.00  0.00     0.012 A 
ATOM     11  C   UNL     1       5.877 -21.075 -16.009  1.00  0.00     0.157 A 
ATOM     12  C   UNL     1       5.368 -23.107 -17.230  1.00  0.00     0.051 A 
ATOM     13  C   UNL     1       5.001 -22.137 -16.288  1.00  0.00     0.157 A 
BRANCH  11  14
ATOM     14  O   UNL     1       5.536 -20.086 -15.087  1.00  0.00    -0.504 OA
ATOM     15  H   UNL     1       5.755 -19.109 -15.239  1.00  0.00     0.293 HD
ENDBRANCH  11  14
BRANCH  13  16
ATOM     16  O   UNL     1       3.773 -22.223 -15.634  1.00  0.00    -0.504 OA
ATOM     17  H   UNL     1       3.155 -23.015 -15.767  1.00  0.00     0.293 HD
ENDBRANCH  13  16
ENDBRANCH   2   8
TORSDOF 6
ENDMDL
MODEL 3
REMARK VINA RESULT:    -3.674      0.980      1.864
REMARK INTER + INTRA:          -5.123
REMARK INTER:                  -4.831
REMARK INTRA:                  -0.292
REMARK UNBOUND:                -0.375
REMARK SMILES CCOC(=O)C=Cc1ccc(O)c(O)c1
REMARK SMILES IDX 6 1 7 2 4 3 5 4 3 5 2 6 1 7 8 8 15 9 9 10 13 11 10 12 11 13
REMARK SMILES IDX 14 14 12 16
REMARK H PARENT 14 15 12 17
REMARK Flexibility Score: inf
ROOT
ATOM      1  C   UNL     1       7.965 -21.612 -17.794  1.00  0.00     0.094 C 
ATOM      2  C   UNL     1       8.738 -22.380 -18.573  1.00  0.00     0.016 C 
ENDROOT
BRANCH   1   3
ATOM      3  C   UNL     1       7.425 -22.097 -16.515  1.00  0.00     0.330 C 
ATOM      4  O   UNL     1       6.370 -22.788 -16.517  1.00  0.00    -0.247 OA
BRANCH   3   5
ATOM      5  O   UNL     1       8.077 -21.800 -15.310  1.00  0.00    -0.463 OA
BRANCH   5   6
ATOM      6  C   UNL     1       8.384 -20.472 -14.889  1.00  0.00     0.230 C 
ATOM      7  C   UNL     1       9.854 -20.356 -14.504  1.00  0.00     0.049 C 
ENDBRANCH   5   6
ENDBRANCH   3   5
ENDBRANCH   1   3
BRANCH   2   8
ATOM      8  C   UNL     1       9.295 -21.937 -19.876  1.00  0.00    -0.021 A 
ATOM      9  C   UNL     1       8.649 -22.192 -21.103  1.00  0.00     0.058 A 
ATOM     10  C   UNL     1      10.493 -21.205 -19.880  1.00  0.00     0.012 A 
ATOM     11  C   UNL     1       9.205 -21.745 -22.307  1.00  0.00     0.157 A 
ATOM     12  C   UNL     1      11.050 -20.759 -21.080  1.00  0.00     0.051 A 
ATOM     13  C   UNL     1      10.413 -21.028 -22.298  1.00  0.00     0.157 A 
BRANCH  11  14
ATOM     14  O   UNL     1       8.539 -22.018 -23.502  1.00  0.00    -0.504 OA
ATOM     15  H   UNL     1       7.550 -22.232 -23.531  1.00  0.00     0.293 HD
ENDBRANCH  11  14
BRANCH  13  16
ATOM     16  O   UNL     1      10.972 -20.584 -23.496  1.00  0.00    -0.504 OA
ATOM     17  H   UNL     1      11.755 -21.064 -23.925  1.00  0.00     0.293 HD
ENDBRANCH  13  16
ENDBRANCH   2   8
TORSDOF 6
ENDMDL
MODEL 4
REMARK VINA RESULT:    -3.321      1.507      2.908
REMARK INTER + INTRA:          -4.666
REMARK INTER:                  -4.345
REMARK INTRA:                  -0.320
REMARK UNBOUND:                -0.375
REMARK SMILES CCOC(=O)C=Cc1ccc(O)c(O)c1
REMARK SMILES IDX 6 1 7 2 4 3 5 4 3 5 2 6 1 7 8 8 15 9 9 10 13 11 10 12 11 13
REMARK SMILES IDX 14 14 12 16
REMARK H PARENT 14 15 12 17
REMARK Flexibility Score: inf
ROOT
ATOM      1  C   UNL     1       8.136 -21.615 -17.667  1.00  0.00     0.094 C 
ATOM      2  C   UNL     1       8.858 -22.389 -18.488  1.00  0.00     0.016 C 
ENDROOT
BRANCH   1   3
ATOM      3  C   UNL     1       7.625 -22.111 -16.380  1.00  0.00     0.330 C 
ATOM      4  O   UNL     1       8.109 -21.651 -15.310  1.00  0.00    -0.247 OA
BRANCH   3   5
ATOM      5  O   UNL     1       6.611 -23.078 -16.344  1.00  0.00    -0.463 OA
BRANCH   5   6
ATOM      6  C   UNL     1       5.330 -22.895 -16.943  1.00  0.00     0.230 C 
ATOM      7  C   UNL     1       4.463 -21.977 -16.088  1.00  0.00     0.049 C 
ENDBRANCH   5   6
ENDBRANCH   3   5
ENDBRANCH   1   3
BRANCH   2   8
ATOM      8  C   UNL     1       9.385 -21.934 -19.800  1.00  0.00    -0.021 A 
ATOM      9  C   UNL     1       8.696 -22.154 -21.011  1.00  0.00     0.058 A 
ATOM     10  C   UNL     1      10.596 -21.226 -19.829  1.00  0.00     0.012 A 
ATOM     11  C   UNL     1       9.223 -21.697 -22.223  1.00  0.00     0.157 A 
ATOM     12  C   UNL     1      11.125 -20.770 -21.038  1.00  0.00     0.051 A 
ATOM     13  C   UNL     1      10.445 -21.005 -22.240  1.00  0.00     0.157 A 
BRANCH  11  14
ATOM     14  O   UNL     1       8.516 -21.936 -23.402  1.00  0.00    -0.504 OA
ATOM     15  H   UNL     1       8.593 -22.809 -23.909  1.00  0.00     0.293 HD
ENDBRANCH  11  14
BRANCH  13  16
ATOM     16  O   UNL     1      10.977 -20.552 -23.447  1.00  0.00    -0.504 OA
ATOM     17  H   UNL     1      10.951 -19.571 -23.703  1.00  0.00     0.293 HD
ENDBRANCH  13  16
ENDBRANCH   2   8
TORSDOF 6
ENDMDL
MODEL 5
REMARK VINA RESULT:    -2.810      2.406      6.531
REMARK INTER + INTRA:          -4.006
REMARK INTER:                  -3.863
REMARK INTRA:                  -0.143
REMARK UNBOUND:                -0.375
REMARK SMILES CCOC(=O)C=Cc1ccc(O)c(O)c1
REMARK SMILES IDX 6 1 7 2 4 3 5 4 3 5 2 6 1 7 8 8 15 9 9 10 13 11 10 12 11 13
REMARK SMILES IDX 14 14 12 16
REMARK H PARENT 14 15 12 17
REMARK Flexibility Score: inf
ROOT
ATOM      1  C   UNL     1       8.721 -21.781 -19.247  1.00  0.00     0.094 C 
ATOM      2  C   UNL     1       7.680 -22.499 -18.805  1.00  0.00     0.016 C 
ENDROOT
BRANCH   1   3
ATOM      3  C   UNL     1       9.566 -22.240 -20.360  1.00  0.00     0.330 C 
ATOM      4  O   UNL     1       9.121 -23.122 -21.143  1.00  0.00    -0.247 OA
BRANCH   3   5
ATOM      5  O   UNL     1      10.845 -21.700 -20.550  1.00  0.00    -0.463 OA
BRANCH   5   6
ATOM      6  C   UNL     1      11.108 -20.583 -21.396  1.00  0.00     0.230 C 
ATOM      7  C   UNL     1      10.692 -20.884 -22.831  1.00  0.00     0.049 C 
ENDBRANCH   5   6
ENDBRANCH   3   5
ENDBRANCH   1   3
BRANCH   2   8
ATOM      8  C   UNL     1       6.808 -22.080 -17.679  1.00  0.00    -0.021 A 
ATOM      9  C   UNL     1       5.595 -22.733 -17.375  1.00  0.00     0.058 A 
ATOM     10  C   UNL     1       7.226 -21.016 -16.864  1.00  0.00     0.012 A 
ATOM     11  C   UNL     1       4.810 -22.312 -16.296  1.00  0.00     0.157 A 
ATOM     12  C   UNL     1       6.444 -20.594 -15.788  1.00  0.00     0.051 A 
ATOM     13  C   UNL     1       5.232 -21.235 -15.500  1.00  0.00     0.157 A 
BRANCH  11  14
ATOM     14  O   UNL     1       3.615 -22.979 -16.028  1.00  0.00    -0.504 OA
ATOM     15  H   UNL     1       3.246 -23.068 -15.088  1.00  0.00     0.293 HD
ENDBRANCH  11  14
BRANCH  13  16
ATOM     16  O   UNL     1       4.451 -20.810 -14.426  1.00  0.00    -0.504 OA
ATOM     17  H   UNL     1       3.503 -21.147 -14.293  1.00  0.00     0.293 HD
ENDBRANCH  13  16
ENDBRANCH   2   8
TORSDOF 6
ENDMDL
MODEL 6
REMARK VINA RESULT:    -2.288      3.088      6.095
REMARK INTER + INTRA:          -3.332
REMARK INTER:                  -3.066
REMARK INTRA:                  -0.266
REMARK UNBOUND:                -0.375
REMARK SMILES CCOC(=O)C=Cc1ccc(O)c(O)c1
REMARK SMILES IDX 6 1 7 2 4 3 5 4 3 5 2 6 1 7 8 8 15 9 9 10 13 11 10 12 11 13
REMARK SMILES IDX 14 14 12 16
REMARK H PARENT 14 15 12 17
REMARK Flexibility Score: inf
ROOT
ATOM      1  C   UNL     1       9.120 -22.041 -16.639  1.00  0.00     0.094 C 
ATOM      2  C   UNL     1       8.088 -21.190 -16.711  1.00  0.00     0.016 C 
ENDROOT
BRANCH   1   3
ATOM      3  C   UNL     1      10.500 -21.615 -16.918  1.00  0.00     0.330 C 
ATOM      4  O   UNL     1      11.115 -20.927 -16.059  1.00  0.00    -0.247 OA
BRANCH   3   5
ATOM      5  O   UNL     1      11.125 -21.973 -18.121  1.00  0.00    -0.463 OA
BRANCH   5   6
ATOM      6  C   UNL     1      10.432 -22.087 -19.362  1.00  0.00     0.230 C 
ATOM      7  C   UNL     1      11.103 -21.231 -20.432  1.00  0.00     0.049 C 
ENDBRANCH   5   6
ENDBRANCH   3   5
ENDBRANCH   1   3
BRANCH   2   8
ATOM      8  C   UNL     1       6.679 -21.579 -16.449  1.00  0.00    -0.021 A 
ATOM      9  C   UNL     1       5.824 -20.818 -15.624  1.00  0.00     0.058 A 
ATOM     10  C   UNL     1       6.171 -22.726 -17.076  1.00  0.00     0.012 A 
ATOM     11  C   UNL     1       4.499 -21.215 -15.413  1.00  0.00     0.157 A 
ATOM     12  C   UNL     1       4.849 -23.125 -16.866  1.00  0.00     0.051 A 
ATOM     13  C   UNL     1       4.008 -22.376 -16.033  1.00  0.00     0.157 A 
BRANCH  11  14
ATOM     14  O   UNL     1       3.683 -20.441 -14.589  1.00  0.00    -0.504 OA
ATOM     15  H   UNL     1       2.690 -20.618 -14.493  1.00  0.00     0.293 HD
ENDBRANCH  11  14
BRANCH  13  16
ATOM     16  O   UNL     1       2.689 -22.777 -15.823  1.00  0.00    -0.504 OA
ATOM     17  H   UNL     1       1.934 -22.447 -16.414  1.00  0.00     0.293 HD
ENDBRANCH  13  16
ENDBRANCH   2   8
TORSDOF 6
ENDMDL
MODEL 7
REMARK VINA RESULT:    -1.980      3.747      5.681
REMARK INTER + INTRA:          -2.934
REMARK INTER:                  -2.768
REMARK INTRA:                  -0.166
REMARK UNBOUND:                -0.375
REMARK SMILES CCOC(=O)C=Cc1ccc(O)c(O)c1
REMARK SMILES IDX 6 1 7 2 4 3 5 4 3 5 2 6 1 7 8 8 15 9 9 10 13 11 10 12 11 13
REMARK SMILES IDX 14 14 12 16
REMARK H PARENT 14 15 12 17
REMARK Flexibility Score: inf
ROOT
ATOM      1  C   UNL     1       4.837 -22.376 -16.304  1.00  0.00     0.094 C 
ATOM      2  C   UNL     1       5.836 -21.536 -16.004  1.00  0.00     0.016 C 
ENDROOT
BRANCH   1   3
ATOM      3  C   UNL     1       3.480 -22.193 -15.767  1.00  0.00     0.330 C 
ATOM      4  O   UNL     1       3.255 -21.229 -14.986  1.00  0.00    -0.247 OA
BRANCH   3   5
ATOM      5  O   UNL     1       2.450 -23.074 -16.123  1.00  0.00    -0.463 OA
BRANCH   5   6
ATOM      6  C   UNL     1       1.140 -23.020 -15.562  1.00  0.00     0.230 C 
ATOM      7  C   UNL     1       0.296 -21.964 -16.267  1.00  0.00     0.049 C 
ENDBRANCH   5   6
ENDBRANCH   3   5
ENDBRANCH   1   3
BRANCH   2   8
ATOM      8  C   UNL     1       7.222 -21.687 -16.514  1.00  0.00    -0.021 A 
ATOM      9  C   UNL     1       8.337 -21.126 -15.857  1.00  0.00     0.058 A 
ATOM     10  C   UNL     1       7.432 -22.449 -17.673  1.00  0.00     0.012 A 
ATOM     11  C   UNL     1       9.628 -21.304 -16.367  1.00  0.00     0.157 A 
ATOM     12  C   UNL     1       8.719 -22.628 -18.184  1.00  0.00     0.051 A 
ATOM     13  C   UNL     1       9.822 -22.055 -17.538  1.00  0.00     0.157 A 
BRANCH  11  14
ATOM     14  O   UNL     1      10.707 -20.731 -15.693  1.00  0.00    -0.504 OA
ATOM     15  H   UNL     1      11.393 -20.155 -16.167  1.00  0.00     0.293 HD
ENDBRANCH  11  14
BRANCH  13  16
ATOM     16  O   UNL     1      11.106 -22.232 -18.052  1.00  0.00    -0.504 OA
ATOM     17  H   UNL     1      11.411 -23.125 -18.421  1.00  0.00     0.293 HD
ENDBRANCH  13  16
ENDBRANCH   2   8
TORSDOF 6
ENDMDL
MODEL 8
REMARK VINA RESULT:    -1.941     14.713     17.628
REMARK INTER + INTRA:          -2.883
REMARK INTER:                  -2.674
REMARK INTRA:                  -0.209
REMARK UNBOUND:                -0.375
REMARK SMILES CCOC(=O)C=Cc1ccc(O)c(O)c1
REMARK SMILES IDX 6 1 7 2 4 3 5 4 3 5 2 6 1 7 8 8 15 9 9 10 13 11 10 12 11 13
REMARK SMILES IDX 14 14 12 16
REMARK H PARENT 14 15 12 17
REMARK Flexibility Score: inf
ROOT
ATOM      1  C   UNL     1      -5.283 -22.632 -13.247  1.00  0.00     0.094 C 
ATOM      2  C   UNL     1      -6.594 -22.434 -13.053  1.00  0.00     0.016 C 
ENDROOT
BRANCH   1   3
ATOM      3  C   UNL     1      -4.711 -22.783 -14.594  1.00  0.00     0.330 C 
ATOM      4  O   UNL     1      -5.450 -22.595 -15.598  1.00  0.00    -0.247 OA
BRANCH   3   5
ATOM      5  O   UNL     1      -3.362 -23.125 -14.758  1.00  0.00    -0.463 OA
BRANCH   5   6
ATOM      6  C   UNL     1      -2.284 -22.331 -14.265  1.00  0.00     0.230 C 
ATOM      7  C   UNL     1      -1.026 -22.557 -15.095  1.00  0.00     0.049 C 
ENDBRANCH   5   6
ENDBRANCH   3   5
ENDBRANCH   1   3
BRANCH   2   8
ATOM      8  C   UNL     1      -7.217 -22.287 -11.713  1.00  0.00    -0.021 A 
ATOM      9  C   UNL     1      -6.615 -22.786 -10.539  1.00  0.00     0.058 A 
ATOM     10  C   UNL     1      -8.432 -21.593 -11.609  1.00  0.00     0.012 A 
ATOM     11  C   UNL     1      -7.232 -22.615  -9.295  1.00  0.00     0.157 A 
ATOM     12  C   UNL     1      -9.049 -21.421 -10.368  1.00  0.00     0.051 A 
ATOM     13  C   UNL     1      -8.456 -21.933  -9.207  1.00  0.00     0.157 A 
BRANCH  11  14
ATOM     14  O   UNL     1      -6.610 -23.125  -8.155  1.00  0.00    -0.504 OA
ATOM     15  H   UNL     1      -6.218 -24.059  -8.127  1.00  0.00     0.293 HD
ENDBRANCH  11  14
BRANCH  13  16
ATOM     16  O   UNL     1      -9.076 -21.763  -7.970  1.00  0.00    -0.504 OA
ATOM     17  H   UNL     1      -9.410 -22.555  -7.431  1.00  0.00     0.293 HD
ENDBRANCH  13  16
ENDBRANCH   2   8
TORSDOF 6
ENDMDL
MODEL 9
REMARK VINA RESULT:    -1.896     14.828     17.560
REMARK INTER + INTRA:          -2.825
REMARK INTER:                  -2.863
REMARK INTRA:                   0.037
REMARK UNBOUND:                -0.375
REMARK SMILES CCOC(=O)C=Cc1ccc(O)c(O)c1
REMARK SMILES IDX 6 1 7 2 4 3 5 4 3 5 2 6 1 7 8 8 15 9 9 10 13 11 10 12 11 13
REMARK SMILES IDX 14 14 12 16
REMARK H PARENT 14 15 12 17
REMARK Flexibility Score: inf
ROOT
ATOM      1  C   UNL     1      -4.784 -22.479 -14.024  1.00  0.00     0.094 C 
ATOM      2  C   UNL     1      -6.119 -22.386 -13.953  1.00  0.00     0.016 C 
ENDROOT
BRANCH   1   3
ATOM      3  C   UNL     1      -4.088 -22.724 -15.296  1.00  0.00     0.330 C 
ATOM      4  O   UNL     1      -2.870 -23.049 -15.275  1.00  0.00    -0.247 OA
BRANCH   3   5
ATOM      5  O   UNL     1      -4.771 -22.603 -16.514  1.00  0.00    -0.463 OA
BRANCH   5   6
ATOM      6  C   UNL     1      -5.528 -21.451 -16.880  1.00  0.00     0.230 C 
ATOM      7  C   UNL     1      -6.866 -21.857 -17.486  1.00  0.00     0.049 C 
ENDBRANCH   5   6
ENDBRANCH   3   5
ENDBRANCH   1   3
BRANCH   2   8
ATOM      8  C   UNL     1      -6.864 -22.150 -12.691  1.00  0.00    -0.021 A 
ATOM      9  C   UNL     1      -7.657 -21.003 -12.481  1.00  0.00     0.058 A 
ATOM     10  C   UNL     1      -6.804 -23.125 -11.683  1.00  0.00     0.012 A 
ATOM     11  C   UNL     1      -8.352 -20.827 -11.280  1.00  0.00     0.157 A 
ATOM     12  C   UNL     1      -7.496 -22.951 -10.483  1.00  0.00     0.051 A 
ATOM     13  C   UNL     1      -8.270 -21.803 -10.273  1.00  0.00     0.157 A 
BRANCH  11  14
ATOM     14  O   UNL     1      -9.125 -19.679 -11.106  1.00  0.00    -0.504 OA
ATOM     15  H   UNL     1      -8.993 -19.055 -10.319  1.00  0.00     0.293 HD
ENDBRANCH  11  14
BRANCH  13  16
ATOM     16  O   UNL     1      -8.958 -21.630  -9.072  1.00  0.00    -0.504 OA
ATOM     17  H   UNL     1      -8.503 -21.245  -8.252  1.00  0.00     0.293 HD
ENDBRANCH  13  16
ENDBRANCH   2   8
TORSDOF 6
ENDMDL
