MODEL 1
REMARK VINA RESULT:    -3.218      0.000      0.000
REMARK INTER + INTRA:          -9.697
REMARK INTER:                  -8.486
REMARK INTRA:                  -1.211
REMARK UNBOUND:                -1.211
REMARK SMILES CCCCCCCCCCCCCCCCCCCCCCCCCCCCCC(=O)[O-]
REMARK SMILES IDX 16 1 17 2 18 3 19 4 20 5 21 6 22 7 23 8 24 9 25 10 26 11
REMARK SMILES IDX 27 12 28 13 29 14 30 15 31 16 32 17 15 18 14 19 13 20 12 21
REMARK SMILES IDX 11 22 10 23 9 24 8 25 7 26 6 27 5 28 4 29 3 30 2 31 1 32
REMARK H PARENT
REMARK Flexibility Score: inf
ROOT
ATOM      1  C   UNL     1      14.173 -30.366  14.247  1.00  0.00     0.000 C 
ENDROOT
BRANCH   1   2
ATOM      2  C   UNL     1      13.024 -31.360  14.486  1.00  0.00     0.000 C 
BRANCH   2   3
ATOM      3  C   UNL     1      11.941 -31.274  13.398  1.00  0.00     0.000 C 
BRANCH   3   4
ATOM      4  C   UNL     1      11.134 -32.576  13.265  1.00  0.00     0.000 C 
BRANCH   4   5
ATOM      5  C   UNL     1       9.625 -32.331  13.089  1.00  0.00     0.000 C 
BRANCH   5   6
ATOM      6  C   UNL     1       8.736 -33.307  13.887  1.00  0.00     0.000 C 
BRANCH   6   7
ATOM      7  C   UNL     1       7.676 -33.987  13.006  1.00  0.00     0.000 C 
BRANCH   7   8
ATOM      8  C   UNL     1       6.376 -34.220  13.788  1.00  0.00     0.000 C 
BRANCH   8   9
ATOM      9  C   UNL     1       5.992 -35.707  13.784  1.00  0.00     0.000 C 
BRANCH   9  10
ATOM     10  C   UNL     1       6.800 -36.538  14.800  1.00  0.00     0.000 C 
BRANCH  10  11
ATOM     11  C   UNL     1       7.598 -35.716  15.829  1.00  0.00     0.000 C 
BRANCH  11  12
ATOM     12  C   UNL     1       6.885 -35.603  17.188  1.00  0.00     0.000 C 
BRANCH  12  13
ATOM     13  C   UNL     1       7.408 -34.432  18.041  1.00  0.00     0.006 C 
BRANCH  13  14
ATOM     14  C   UNL     1       7.577 -33.110  17.274  1.00  0.00     0.053 C 
BRANCH  14  15
ATOM     15  C   UNL     1       8.634 -32.237  17.880  1.00  0.00     0.041 C 
ATOM     16  O   UNL     1       8.665 -32.048  19.124  1.00  0.00    -0.550 OA
ATOM     17  O   UNL     1       9.604 -31.657  17.071  1.00  0.00    -0.550 OA
ENDBRANCH  14  15
ENDBRANCH  13  14
ENDBRANCH  12  13
ENDBRANCH  11  12
ENDBRANCH  10  11
ENDBRANCH   9  10
ENDBRANCH   8   9
ENDBRANCH   7   8
ENDBRANCH   6   7
ENDBRANCH   5   6
ENDBRANCH   4   5
ENDBRANCH   3   4
ENDBRANCH   2   3
ENDBRANCH   1   2
BRANCH   1  18
ATOM     18  C   UNL     1      15.469 -31.048  13.775  1.00  0.00     0.000 C 
BRANCH  18  19
ATOM     19  C   UNL     1      16.340 -31.643  14.900  1.00  0.00     0.000 C 
BRANCH  19  20
ATOM     20  C   UNL     1      17.704 -32.202  14.448  1.00  0.00     0.000 C 
BRANCH  20  21
ATOM     21  C   UNL     1      18.357 -31.457  13.266  1.00  0.00     0.000 C 
BRANCH  21  22
ATOM     22  C   UNL     1      19.727 -30.829  13.573  1.00  0.00     0.000 C 
BRANCH  22  23
ATOM     23  C   UNL     1      19.932 -29.474  12.876  1.00  0.00     0.000 C 
BRANCH  23  24
ATOM     24  C   UNL     1      20.940 -28.574  13.611  1.00  0.00    -0.000 C 
BRANCH  24  25
ATOM     25  C   UNL     1      21.200 -27.249  12.876  1.00  0.00    -0.000 C 
BRANCH  25  26
ATOM     26  C   UNL     1      20.137 -26.180  13.183  1.00  0.00    -0.000 C 
BRANCH  26  27
ATOM     27  C   UNL     1      20.695 -24.742  13.215  1.00  0.00    -0.000 C 
BRANCH  27  28
ATOM     28  C   UNL     1      20.089 -23.908  14.357  1.00  0.00    -0.000 C 
BRANCH  28  29
ATOM     29  C   UNL     1      20.883 -22.623  14.646  1.00  0.00    -0.000 C 
BRANCH  29  30
ATOM     30  C   UNL     1      20.000 -21.428  15.062  1.00  0.00    -0.000 C 
BRANCH  30  31
ATOM     31  C   UNL     1      20.543 -20.089  14.541  1.00  0.00    -0.003 C 
ATOM     32  C   UNL     1      19.807 -18.914  15.181  1.00  0.00     0.004 C 
ENDBRANCH  30  31
ENDBRANCH  29  30
ENDBRANCH  28  29
ENDBRANCH  27  28
ENDBRANCH  26  27
ENDBRANCH  25  26
ENDBRANCH  24  25
ENDBRANCH  23  24
ENDBRANCH  22  23
ENDBRANCH  21  22
ENDBRANCH  20  21
ENDBRANCH  19  20
ENDBRANCH  18  19
ENDBRANCH   1  18
TORSDOF 28
ENDMDL
MODEL 2
REMARK VINA RESULT:    -1.513      1.320      4.919
REMARK INTER + INTRA:          -5.201
REMARK INTER:                  -3.736
REMARK INTRA:                  -1.465
REMARK UNBOUND:                -1.211
REMARK SMILES CCCCCCCCCCCCCCCCCCCCCCCCCCCCCC(=O)[O-]
REMARK SMILES IDX 16 1 17 2 18 3 19 4 20 5 21 6 22 7 23 8 24 9 25 10 26 11
REMARK SMILES IDX 27 12 28 13 29 14 30 15 31 16 32 17 15 18 14 19 13 20 12 21
REMARK SMILES IDX 11 22 10 23 9 24 8 25 7 26 6 27 5 28 4 29 3 30 2 31 1 32
REMARK H PARENT
REMARK Flexibility Score: inf
ROOT
ATOM      1  C   UNL     1      19.130 -30.173  12.883  1.00  0.00     0.000 C 
ENDROOT
BRANCH   1   2
ATOM      2  C   UNL     1      18.905 -31.471  13.677  1.00  0.00     0.000 C 
BRANCH   2   3
ATOM      3  C   UNL     1      17.477 -32.017  13.512  1.00  0.00     0.000 C 
BRANCH   3   4
ATOM      4  C   UNL     1      16.748 -32.176  14.857  1.00  0.00     0.000 C 
BRANCH   4   5
ATOM      5  C   UNL     1      15.704 -31.074  15.108  1.00  0.00     0.000 C 
BRANCH   5   6
ATOM      6  C   UNL     1      14.599 -31.002  14.034  1.00  0.00     0.000 C 
BRANCH   6   7
ATOM      7  C   UNL     1      13.190 -30.956  14.645  1.00  0.00     0.000 C 
BRANCH   7   8
ATOM      8  C   UNL     1      12.118 -31.219  13.579  1.00  0.00     0.000 C 
BRANCH   8   9
ATOM      9  C   UNL     1      11.688 -32.693  13.586  1.00  0.00     0.000 C 
BRANCH   9  10
ATOM     10  C   UNL     1      10.159 -32.871  13.662  1.00  0.00     0.000 C 
BRANCH  10  11
ATOM     11  C   UNL     1       9.670 -34.332  13.665  1.00  0.00     0.000 C 
BRANCH  11  12
ATOM     12  C   UNL     1       8.141 -34.452  13.776  1.00  0.00     0.000 C 
BRANCH  12  13
ATOM     13  C   UNL     1       7.684 -35.027  15.130  1.00  0.00     0.006 C 
BRANCH  13  14
ATOM     14  C   UNL     1       8.289 -34.328  16.358  1.00  0.00     0.053 C 
BRANCH  14  15
ATOM     15  C   UNL     1       7.294 -33.454  17.059  1.00  0.00     0.041 C 
ATOM     16  O   UNL     1       6.144 -33.286  16.573  1.00  0.00    -0.550 OA
ATOM     17  O   UNL     1       7.626 -32.850  18.265  1.00  0.00    -0.550 OA
ENDBRANCH  14  15
ENDBRANCH  13  14
ENDBRANCH  12  13
ENDBRANCH  11  12
ENDBRANCH  10  11
ENDBRANCH   9  10
ENDBRANCH   8   9
ENDBRANCH   7   8
ENDBRANCH   6   7
ENDBRANCH   5   6
ENDBRANCH   4   5
ENDBRANCH   3   4
ENDBRANCH   2   3
ENDBRANCH   1   2
BRANCH   1  18
ATOM     18  C   UNL     1      20.597 -29.708  12.895  1.00  0.00     0.000 C 
BRANCH  18  19
ATOM     19  C   UNL     1      20.955 -28.707  14.012  1.00  0.00     0.000 C 
BRANCH  19  20
ATOM     20  C   UNL     1      21.951 -27.602  13.609  1.00  0.00     0.000 C 
BRANCH  20  21
ATOM     21  C   UNL     1      21.315 -26.348  12.975  1.00  0.00     0.000 C 
BRANCH  21  22
ATOM     22  C   UNL     1      20.244 -25.659  13.839  1.00  0.00     0.000 C 
BRANCH  22  23
ATOM     23  C   UNL     1      19.286 -24.783  13.013  1.00  0.00     0.000 C 
BRANCH  23  24
ATOM     24  C   UNL     1      19.463 -23.282  13.297  1.00  0.00    -0.000 C 
BRANCH  24  25
ATOM     25  C   UNL     1      20.464 -23.005  14.431  1.00  0.00    -0.000 C 
BRANCH  25  26
ATOM     26  C   UNL     1      20.145 -21.715  15.205  1.00  0.00    -0.000 C 
BRANCH  26  27
ATOM     27  C   UNL     1      19.479 -20.623  14.342  1.00  0.00    -0.000 C 
BRANCH  27  28
ATOM     28  C   UNL     1      20.504 -19.633  13.763  1.00  0.00    -0.000 C 
BRANCH  28  29
ATOM     29  C   UNL     1      20.253 -18.182  14.208  1.00  0.00    -0.000 C 
BRANCH  29  30
ATOM     30  C   UNL     1      20.524 -17.935  15.706  1.00  0.00    -0.000 C 
BRANCH  30  31
ATOM     31  C   UNL     1      19.231 -17.876  16.533  1.00  0.00    -0.003 C 
ATOM     32  C   UNL     1      19.535 -17.916  18.028  1.00  0.00     0.004 C 
ENDBRANCH  30  31
ENDBRANCH  29  30
ENDBRANCH  28  29
ENDBRANCH  27  28
ENDBRANCH  26  27
ENDBRANCH  25  26
ENDBRANCH  24  25
ENDBRANCH  23  24
ENDBRANCH  22  23
ENDBRANCH  21  22
ENDBRANCH  20  21
ENDBRANCH  19  20
ENDBRANCH  18  19
ENDBRANCH   1  18
TORSDOF 28
ENDMDL
MODEL 3
REMARK VINA RESULT:    -1.450      1.378      1.870
REMARK INTER + INTRA:          -5.034
REMARK INTER:                  -4.950
REMARK INTRA:                  -0.085
REMARK UNBOUND:                -1.211
REMARK SMILES CCCCCCCCCCCCCCCCCCCCCCCCCCCCCC(=O)[O-]
REMARK SMILES IDX 16 1 17 2 18 3 19 4 20 5 21 6 22 7 23 8 24 9 25 10 26 11
REMARK SMILES IDX 27 12 28 13 29 14 30 15 31 16 32 17 15 18 14 19 13 20 12 21
REMARK SMILES IDX 11 22 10 23 9 24 8 25 7 26 6 27 5 28 4 29 3 30 2 31 1 32
REMARK H PARENT
REMARK Flexibility Score: inf
ROOT
ATOM      1  C   UNL     1      14.468 -30.194  14.624  1.00  0.00     0.000 C 
ENDROOT
BRANCH   1   2
ATOM      2  C   UNL     1      13.490 -31.374  14.756  1.00  0.00     0.000 C 
BRANCH   2   3
ATOM      3  C   UNL     1      12.654 -31.585  13.484  1.00  0.00     0.000 C 
BRANCH   3   4
ATOM      4  C   UNL     1      11.772 -32.843  13.559  1.00  0.00     0.000 C 
BRANCH   4   5
ATOM      5  C   UNL     1      10.294 -32.560  13.241  1.00  0.00     0.000 C 
BRANCH   5   6
ATOM      6  C   UNL     1       9.314 -33.578  13.861  1.00  0.00     0.000 C 
BRANCH   6   7
ATOM      7  C   UNL     1       8.137 -33.901  12.926  1.00  0.00     0.000 C 
BRANCH   7   8
ATOM      8  C   UNL     1       6.913 -33.040  13.266  1.00  0.00     0.000 C 
BRANCH   8   9
ATOM      9  C   UNL     1       5.940 -33.806  14.176  1.00  0.00     0.000 C 
BRANCH   9  10
ATOM     10  C   UNL     1       6.246 -33.619  15.674  1.00  0.00     0.000 C 
BRANCH  10  11
ATOM     11  C   UNL     1       7.428 -32.682  15.988  1.00  0.00     0.000 C 
BRANCH  11  12
ATOM     12  C   UNL     1       7.564 -32.372  17.489  1.00  0.00     0.000 C 
BRANCH  12  13
ATOM     13  C   UNL     1       6.683 -33.280  18.367  1.00  0.00     0.006 C 
BRANCH  13  14
ATOM     14  C   UNL     1       7.434 -34.440  19.042  1.00  0.00     0.053 C 
BRANCH  14  15
ATOM     15  C   UNL     1       7.772 -35.533  18.074  1.00  0.00     0.041 C 
ATOM     16  O   UNL     1       8.522 -35.299  17.089  1.00  0.00    -0.550 OA
ATOM     17  O   UNL     1       7.283 -36.817  18.277  1.00  0.00    -0.550 OA
ENDBRANCH  14  15
ENDBRANCH  13  14
ENDBRANCH  12  13
ENDBRANCH  11  12
ENDBRANCH  10  11
ENDBRANCH   9  10
ENDBRANCH   8   9
ENDBRANCH   7   8
ENDBRANCH   6   7
ENDBRANCH   5   6
ENDBRANCH   4   5
ENDBRANCH   3   4
ENDBRANCH   2   3
ENDBRANCH   1   2
BRANCH   1  18
ATOM     18  C   UNL     1      15.891 -30.633  14.239  1.00  0.00     0.000 C 
BRANCH  18  19
ATOM     19  C   UNL     1      16.358 -31.959  14.873  1.00  0.00     0.000 C 
BRANCH  19  20
ATOM     20  C   UNL     1      17.754 -32.443  14.431  1.00  0.00     0.000 C 
BRANCH  20  21
ATOM     21  C   UNL     1      18.438 -31.572  13.358  1.00  0.00     0.000 C 
BRANCH  21  22
ATOM     22  C   UNL     1      19.782 -30.958  13.785  1.00  0.00     0.000 C 
BRANCH  22  23
ATOM     23  C   UNL     1      20.023 -29.567  13.173  1.00  0.00     0.000 C 
BRANCH  23  24
ATOM     24  C   UNL     1      21.100 -28.767  13.923  1.00  0.00    -0.000 C 
BRANCH  24  25
ATOM     25  C   UNL     1      21.558 -27.518  13.151  1.00  0.00    -0.000 C 
BRANCH  25  26
ATOM     26  C   UNL     1      20.456 -26.452  13.037  1.00  0.00    -0.000 C 
BRANCH  26  27
ATOM     27  C   UNL     1      20.933 -25.026  13.385  1.00  0.00    -0.000 C 
BRANCH  27  28
ATOM     28  C   UNL     1      19.837 -24.198  14.077  1.00  0.00    -0.000 C 
BRANCH  28  29
ATOM     29  C   UNL     1      19.976 -22.688  13.821  1.00  0.00    -0.000 C 
BRANCH  29  30
ATOM     30  C   UNL     1      20.496 -21.898  15.039  1.00  0.00    -0.000 C 
BRANCH  30  31
ATOM     31  C   UNL     1      19.714 -20.596  15.270  1.00  0.00    -0.003 C 
ATOM     32  C   UNL     1      20.139 -19.518  14.277  1.00  0.00     0.004 C 
ENDBRANCH  30  31
ENDBRANCH  29  30
ENDBRANCH  28  29
ENDBRANCH  27  28
ENDBRANCH  26  27
ENDBRANCH  25  26
ENDBRANCH  24  25
ENDBRANCH  23  24
ENDBRANCH  22  23
ENDBRANCH  21  22
ENDBRANCH  20  21
ENDBRANCH  19  20
ENDBRANCH  18  19
ENDBRANCH   1  18
TORSDOF 28
ENDMDL
MODEL 4
REMARK VINA RESULT:    -0.502      2.526      5.575
REMARK INTER + INTRA:          -2.536
REMARK INTER:                  -0.794
REMARK INTRA:                  -1.742
REMARK UNBOUND:                -1.211
REMARK SMILES CCCCCCCCCCCCCCCCCCCCCCCCCCCCCC(=O)[O-]
REMARK SMILES IDX 16 1 17 2 18 3 19 4 20 5 21 6 22 7 23 8 24 9 25 10 26 11
REMARK SMILES IDX 27 12 28 13 29 14 30 15 31 16 32 17 15 18 14 19 13 20 12 21
REMARK SMILES IDX 11 22 10 23 9 24 8 25 7 26 6 27 5 28 4 29 3 30 2 31 1 32
REMARK H PARENT
REMARK Flexibility Score: inf
ROOT
ATOM      1  C   UNL     1      11.419 -35.858  13.960  1.00  0.00     0.000 C 
ENDROOT
BRANCH   1   2
ATOM      2  C   UNL     1      10.381 -36.192  12.875  1.00  0.00     0.000 C 
BRANCH   2   3
ATOM      3  C   UNL     1       9.506 -37.398  13.254  1.00  0.00     0.000 C 
BRANCH   3   4
ATOM      4  C   UNL     1       8.012 -37.042  13.334  1.00  0.00     0.000 C 
BRANCH   4   5
ATOM      5  C   UNL     1       7.201 -38.043  14.174  1.00  0.00     0.000 C 
BRANCH   5   6
ATOM      6  C   UNL     1       6.541 -37.422  15.423  1.00  0.00     0.000 C 
BRANCH   6   7
ATOM      7  C   UNL     1       6.920 -35.945  15.612  1.00  0.00     0.000 C 
BRANCH   7   8
ATOM      8  C   UNL     1       5.875 -35.022  14.969  1.00  0.00     0.000 C 
BRANCH   8   9
ATOM      9  C   UNL     1       6.078 -33.568  15.418  1.00  0.00     0.000 C 
BRANCH   9  10
ATOM     10  C   UNL     1       7.256 -32.877  14.703  1.00  0.00     0.000 C 
BRANCH  10  11
ATOM     11  C   UNL     1       8.649 -33.435  15.050  1.00  0.00     0.000 C 
BRANCH  11  12
ATOM     12  C   UNL     1       8.935 -33.433  16.561  1.00  0.00     0.000 C 
BRANCH  12  13
ATOM     13  C   UNL     1       8.917 -32.019  17.170  1.00  0.00     0.006 C 
BRANCH  13  14
ATOM     14  C   UNL     1       8.670 -31.981  18.687  1.00  0.00     0.053 C 
BRANCH  14  15
ATOM     15  C   UNL     1       7.358 -32.601  19.062  1.00  0.00     0.041 C 
ATOM     16  O   UNL     1       6.361 -31.874  19.314  1.00  0.00    -0.550 OA
ATOM     17  O   UNL     1       7.230 -33.984  19.105  1.00  0.00    -0.550 OA
ENDBRANCH  14  15
ENDBRANCH  13  14
ENDBRANCH  12  13
ENDBRANCH  11  12
ENDBRANCH  10  11
ENDBRANCH   9  10
ENDBRANCH   8   9
ENDBRANCH   7   8
ENDBRANCH   6   7
ENDBRANCH   5   6
ENDBRANCH   4   5
ENDBRANCH   3   4
ENDBRANCH   2   3
ENDBRANCH   1   2
BRANCH   1  18
ATOM     18  C   UNL     1      11.775 -34.362  14.012  1.00  0.00     0.000 C 
BRANCH  18  19
ATOM     19  C   UNL     1      10.961 -33.465  13.058  1.00  0.00     0.000 C 
BRANCH  19  20
ATOM     20  C   UNL     1      11.326 -31.968  13.092  1.00  0.00     0.000 C 
BRANCH  20  21
ATOM     21  C   UNL     1      11.435 -31.354  14.503  1.00  0.00     0.000 C 
BRANCH  21  22
ATOM     22  C   UNL     1      12.807 -30.742  14.837  1.00  0.00     0.000 C 
BRANCH  22  23
ATOM     23  C   UNL     1      13.944 -31.322  13.979  1.00  0.00     0.000 C 
BRANCH  23  24
ATOM     24  C   UNL     1      15.307 -31.272  14.688  1.00  0.00    -0.000 C 
BRANCH  24  25
ATOM     25  C   UNL     1      16.379 -32.110  13.973  1.00  0.00    -0.000 C 
BRANCH  25  26
ATOM     26  C   UNL     1      17.787 -31.899  14.557  1.00  0.00    -0.000 C 
BRANCH  26  27
ATOM     27  C   UNL     1      18.913 -31.975  13.505  1.00  0.00    -0.000 C 
BRANCH  27  28
ATOM     28  C   UNL     1      19.216 -30.604  12.876  1.00  0.00    -0.000 C 
BRANCH  28  29
ATOM     29  C   UNL     1      20.105 -29.720  13.767  1.00  0.00    -0.000 C 
BRANCH  29  30
ATOM     30  C   UNL     1      20.987 -28.732  12.978  1.00  0.00    -0.000 C 
BRANCH  30  31
ATOM     31  C   UNL     1      21.402 -27.516  13.821  1.00  0.00    -0.003 C 
ATOM     32  C   UNL     1      20.887 -26.220  13.202  1.00  0.00     0.004 C 
ENDBRANCH  30  31
ENDBRANCH  29  30
ENDBRANCH  28  29
ENDBRANCH  27  28
ENDBRANCH  26  27
ENDBRANCH  25  26
ENDBRANCH  24  25
ENDBRANCH  23  24
ENDBRANCH  22  23
ENDBRANCH  21  22
ENDBRANCH  20  21
ENDBRANCH  19  20
ENDBRANCH  18  19
ENDBRANCH   1  18
TORSDOF 28
ENDMDL
