MODEL 1
REMARK VINA RESULT:    -3.856      0.000      0.000
REMARK INTER + INTRA:          -4.318
REMARK INTER:                  -4.194
REMARK INTRA:                  -0.124
REMARK UNBOUND:                -0.124
REMARK SMILES Cc1ccc(C(C)C)cc1O
REMARK SMILES IDX 1 1 2 2 10 3 9 4 5 5 4 6 3 7 11 8 6 10 7 11 8 12
REMARK H PARENT 11 9
REMARK Flexibility Score: inf
ROOT
ATOM      1  C   UNL     1     157.919 165.257 166.657  1.00  0.00     0.048 C 
ATOM      2  C   UNL     1     159.122 164.997 167.521  1.00  0.00    -0.009 A 
ATOM      3  C   UNL     1     159.030 165.021 168.930  1.00  0.00     0.118 A 
ATOM      4  C   UNL     1     160.170 164.775 169.705  1.00  0.00     0.050 A 
ATOM      5  C   UNL     1     161.410 164.502 169.102  1.00  0.00    -0.042 A 
ATOM      6  C   UNL     1     161.492 164.479 167.701  1.00  0.00     0.004 A 
ATOM      7  C   UNL     1     160.361 164.723 166.920  1.00  0.00     0.007 A 
ENDROOT
BRANCH   3   8
ATOM      8  O   UNL     1     157.828 165.287 169.588  1.00  0.00    -0.508 OA
ATOM      9  H   UNL     1     157.595 164.898 170.492  1.00  0.00     0.293 HD
ENDBRANCH   3   8
BRANCH   5  10
ATOM     10  C   UNL     1     162.647 164.234 169.939  1.00  0.00     0.013 C 
ATOM     11  C   UNL     1     162.444 164.695 171.387  1.00  0.00     0.012 C 
ATOM     12  C   UNL     1     163.887 164.888 169.320  1.00  0.00     0.012 C 
ENDBRANCH   5  10
TORSDOF 2
ENDMDL
MODEL 2
REMARK VINA RESULT:    -3.843      6.942      9.311
REMARK INTER + INTRA:          -4.304
REMARK INTER:                  -4.176
REMARK INTRA:                  -0.128
REMARK UNBOUND:                -0.124
REMARK SMILES Cc1ccc(C(C)C)cc1O
REMARK SMILES IDX 1 1 2 2 10 3 9 4 5 5 4 6 3 7 11 8 6 10 7 11 8 12
REMARK H PARENT 11 9
REMARK Flexibility Score: inf
ROOT
ATOM      1  C   UNL     1     170.988 167.216 169.931  1.00  0.00     0.048 C 
ATOM      2  C   UNL     1     169.861 166.837 169.011  1.00  0.00    -0.009 A 
ATOM      3  C   UNL     1     170.028 166.843 167.608  1.00  0.00     0.118 A 
ATOM      4  C   UNL     1     168.958 166.485 166.779  1.00  0.00     0.050 A 
ATOM      5  C   UNL     1     167.714 166.118 167.322  1.00  0.00    -0.042 A 
ATOM      6  C   UNL     1     167.557 166.115 168.717  1.00  0.00     0.004 A 
ATOM      7  C   UNL     1     168.618 166.470 169.552  1.00  0.00     0.007 A 
ENDROOT
BRANCH   3   8
ATOM      8  O   UNL     1     171.238 167.199 167.010  1.00  0.00    -0.508 OA
ATOM      9  H   UNL     1     171.353 167.290 166.009  1.00  0.00     0.293 HD
ENDBRANCH   3   8
BRANCH   5  10
ATOM     10  C   UNL     1     166.552 165.729 166.427  1.00  0.00     0.013 C 
ATOM     11  C   UNL     1     165.422 166.762 166.509  1.00  0.00     0.012 C 
ATOM     12  C   UNL     1     166.042 164.323 166.761  1.00  0.00     0.012 C 
ENDBRANCH   5  10
TORSDOF 2
ENDMDL
MODEL 3
REMARK VINA RESULT:    -3.823      5.487      7.541
REMARK INTER + INTRA:          -4.283
REMARK INTER:                  -4.155
REMARK INTRA:                  -0.128
REMARK UNBOUND:                -0.124
REMARK SMILES Cc1ccc(C(C)C)cc1O
REMARK SMILES IDX 1 1 2 2 10 3 9 4 5 5 4 6 3 7 11 8 6 10 7 11 8 12
REMARK H PARENT 11 9
REMARK Flexibility Score: inf
ROOT
ATOM      1  C   UNL     1     167.255 160.226 170.024  1.00  0.00     0.048 C 
ATOM      2  C   UNL     1     166.869 161.347 169.099  1.00  0.00    -0.009 A 
ATOM      3  C   UNL     1     166.859 161.169 167.698  1.00  0.00     0.118 A 
ATOM      4  C   UNL     1     166.494 162.233 166.865  1.00  0.00     0.050 A 
ATOM      5  C   UNL     1     166.137 163.483 167.402  1.00  0.00    -0.042 A 
ATOM      6  C   UNL     1     166.150 163.650 168.795  1.00  0.00     0.004 A 
ATOM      7  C   UNL     1     166.512 162.595 169.634  1.00  0.00     0.007 A 
ENDROOT
BRANCH   3   8
ATOM      8  O   UNL     1     167.204 159.953 167.105  1.00  0.00    -0.508 OA
ATOM      9  H   UNL     1     166.528 159.342 166.664  1.00  0.00     0.293 HD
ENDBRANCH   3   8
BRANCH   5  10
ATOM     10  C   UNL     1     165.741 164.638 166.502  1.00  0.00     0.013 C 
ATOM     11  C   UNL     1     166.805 165.742 166.520  1.00  0.00     0.012 C 
ATOM     12  C   UNL     1     164.364 165.191 166.884  1.00  0.00     0.012 C 
ENDBRANCH   5  10
TORSDOF 2
ENDMDL
MODEL 4
REMARK VINA RESULT:    -3.821      5.081      6.633
REMARK INTER + INTRA:          -4.280
REMARK INTER:                  -4.152
REMARK INTRA:                  -0.128
REMARK UNBOUND:                -0.124
REMARK SMILES Cc1ccc(C(C)C)cc1O
REMARK SMILES IDX 1 1 2 2 10 3 9 4 5 5 4 6 3 7 11 8 6 10 7 11 8 12
REMARK H PARENT 11 9
REMARK Flexibility Score: inf
ROOT
ATOM      1  C   UNL     1     163.729 171.605 170.287  1.00  0.00     0.048 C 
ATOM      2  C   UNL     1     164.148 170.392 169.502  1.00  0.00    -0.009 A 
ATOM      3  C   UNL     1     164.202 170.416 168.091  1.00  0.00     0.118 A 
ATOM      4  C   UNL     1     164.597 169.270 167.391  1.00  0.00     0.050 A 
ATOM      5  C   UNL     1     164.942 168.089 168.073  1.00  0.00    -0.042 A 
ATOM      6  C   UNL     1     164.886 168.075 169.475  1.00  0.00     0.004 A 
ATOM      7  C   UNL     1     164.494 169.213 170.181  1.00  0.00     0.007 A 
ENDROOT
BRANCH   3   8
ATOM      8  O   UNL     1     163.871 171.557 167.358  1.00  0.00    -0.508 OA
ATOM      9  H   UNL     1     163.479 172.390 167.780  1.00  0.00     0.293 HD
ENDBRANCH   3   8
BRANCH   5  10
ATOM     10  C   UNL     1     165.371 166.845 167.317  1.00  0.00     0.013 C 
ATOM     11  C   UNL     1     164.322 165.734 167.442  1.00  0.00     0.012 C 
ATOM     12  C   UNL     1     166.747 166.360 167.784  1.00  0.00     0.012 C 
ENDBRANCH   5  10
TORSDOF 2
ENDMDL
MODEL 5
REMARK VINA RESULT:    -3.811      1.872      3.241
REMARK INTER + INTRA:          -4.270
REMARK INTER:                  -4.151
REMARK INTRA:                  -0.119
REMARK UNBOUND:                -0.124
REMARK SMILES Cc1ccc(C(C)C)cc1O
REMARK SMILES IDX 1 1 2 2 10 3 9 4 5 5 4 6 3 7 11 8 6 10 7 11 8 12
REMARK H PARENT 11 9
REMARK Flexibility Score: inf
ROOT
ATOM      1  C   UNL     1     159.492 163.741 170.311  1.00  0.00     0.048 C 
ATOM      2  C   UNL     1     160.718 164.144 169.540  1.00  0.00    -0.009 A 
ATOM      3  C   UNL     1     160.722 164.159 168.127  1.00  0.00     0.118 A 
ATOM      4  C   UNL     1     161.880 164.540 167.439  1.00  0.00     0.050 A 
ATOM      5  C   UNL     1     163.046 164.909 168.134  1.00  0.00    -0.042 A 
ATOM      6  C   UNL     1     163.033 164.891 169.537  1.00  0.00     0.004 A 
ATOM      7  C   UNL     1     161.883 164.514 170.232  1.00  0.00     0.007 A 
ENDROOT
BRANCH   3   8
ATOM      8  O   UNL     1     159.597 163.802 167.382  1.00  0.00    -0.508 OA
ATOM      9  H   UNL     1     159.326 164.278 166.530  1.00  0.00     0.293 HD
ENDBRANCH   3   8
BRANCH   5  10
ATOM     10  C   UNL     1     164.303 165.322 167.392  1.00  0.00     0.013 C 
ATOM     11  C   UNL     1     164.795 166.696 167.860  1.00  0.00     0.012 C 
ATOM     12  C   UNL     1     164.082 165.301 165.875  1.00  0.00     0.012 C 
ENDBRANCH   5  10
TORSDOF 2
ENDMDL
MODEL 6
REMARK VINA RESULT:    -3.783      6.505      7.433
REMARK INTER + INTRA:          -4.239
REMARK INTER:                  -4.138
REMARK INTRA:                  -0.101
REMARK UNBOUND:                -0.124
REMARK SMILES Cc1ccc(C(C)C)cc1O
REMARK SMILES IDX 1 1 2 2 10 3 9 4 5 5 4 6 3 7 11 8 6 10 7 11 8 12
REMARK H PARENT 11 9
REMARK Flexibility Score: inf
ROOT
ATOM      1  C   UNL     1     161.405 170.119 172.274  1.00  0.00     0.048 C 
ATOM      2  C   UNL     1     162.270 170.435 171.085  1.00  0.00    -0.009 A 
ATOM      3  C   UNL     1     161.854 171.360 170.102  1.00  0.00     0.118 A 
ATOM      4  C   UNL     1     162.684 171.631 169.008  1.00  0.00     0.050 A 
ATOM      5  C   UNL     1     163.931 170.995 168.870  1.00  0.00    -0.042 A 
ATOM      6  C   UNL     1     164.336 170.078 169.852  1.00  0.00     0.004 A 
ATOM      7  C   UNL     1     163.516 169.801 170.947  1.00  0.00     0.007 A 
ENDROOT
BRANCH   3   8
ATOM      8  O   UNL     1     160.628 172.022 170.183  1.00  0.00    -0.508 OA
ATOM      9  H   UNL     1     160.327 172.528 171.006  1.00  0.00     0.293 HD
ENDBRANCH   3   8
BRANCH   5  10
ATOM     10  C   UNL     1     164.833 171.287 167.685  1.00  0.00     0.013 C 
ATOM     11  C   UNL     1     164.863 172.787 167.370  1.00  0.00     0.012 C 
ATOM     12  C   UNL     1     164.413 170.473 166.456  1.00  0.00     0.012 C 
ENDBRANCH   5  10
TORSDOF 2
ENDMDL
MODEL 7
REMARK VINA RESULT:    -3.750      8.217      9.865
REMARK INTER + INTRA:          -4.203
REMARK INTER:                  -4.103
REMARK INTRA:                  -0.100
REMARK UNBOUND:                -0.124
REMARK SMILES Cc1ccc(C(C)C)cc1O
REMARK SMILES IDX 1 1 2 2 10 3 9 4 5 5 4 6 3 7 11 8 6 10 7 11 8 12
REMARK H PARENT 11 9
REMARK Flexibility Score: inf
ROOT
ATOM      1  C   UNL     1     169.738 160.970 172.377  1.00  0.00     0.048 C 
ATOM      2  C   UNL     1     168.890 160.692 171.166  1.00  0.00    -0.009 A 
ATOM      3  C   UNL     1     169.335 159.823 170.146  1.00  0.00     0.118 A 
ATOM      4  C   UNL     1     168.521 159.586 169.031  1.00  0.00     0.050 A 
ATOM      5  C   UNL     1     167.262 160.202 168.911  1.00  0.00    -0.042 A 
ATOM      6  C   UNL     1     166.829 161.063 169.930  1.00  0.00     0.004 A 
ATOM      7  C   UNL     1     167.633 161.306 171.045  1.00  0.00     0.007 A 
ENDROOT
BRANCH   3   8
ATOM      8  O   UNL     1     170.574 159.183 170.208  1.00  0.00    -0.508 OA
ATOM      9  H   UNL     1     170.676 158.194 170.395  1.00  0.00     0.293 HD
ENDBRANCH   3   8
BRANCH   5  10
ATOM     10  C   UNL     1     166.378 159.947 167.704  1.00  0.00     0.013 C 
ATOM     11  C   UNL     1     166.326 158.453 167.363  1.00  0.00     0.012 C 
ATOM     12  C   UNL     1     166.836 160.774 166.498  1.00  0.00     0.012 C 
ENDBRANCH   5  10
TORSDOF 2
ENDMDL
MODEL 8
REMARK VINA RESULT:    -3.745     10.341     11.483
REMARK INTER + INTRA:          -4.197
REMARK INTER:                  -4.097
REMARK INTRA:                  -0.101
REMARK UNBOUND:                -0.124
REMARK SMILES Cc1ccc(C(C)C)cc1O
REMARK SMILES IDX 1 1 2 2 10 3 9 4 5 5 4 6 3 7 11 8 6 10 7 11 8 12
REMARK H PARENT 11 9
REMARK Flexibility Score: inf
ROOT
ATOM      1  C   UNL     1     169.971 169.718 172.334  1.00  0.00     0.048 C 
ATOM      2  C   UNL     1     170.326 168.878 171.139  1.00  0.00    -0.009 A 
ATOM      3  C   UNL     1     171.248 169.334 170.171  1.00  0.00     0.118 A 
ATOM      4  C   UNL     1     171.556 168.526 169.070  1.00  0.00     0.050 A 
ATOM      5  C   UNL     1     170.960 167.262 168.910  1.00  0.00    -0.042 A 
ATOM      6  C   UNL     1     170.046 166.817 169.877  1.00  0.00     0.004 A 
ATOM      7  C   UNL     1     169.732 167.615 170.979  1.00  0.00     0.007 A 
ENDROOT
BRANCH   3   8
ATOM      8  O   UNL     1     171.871 170.579 170.273  1.00  0.00    -0.508 OA
ATOM      9  H   UNL     1     171.826 171.280 169.545  1.00  0.00     0.293 HD
ENDBRANCH   3   8
BRANCH   5  10
ATOM     10  C   UNL     1     171.292 166.385 167.718  1.00  0.00     0.013 C 
ATOM     11  C   UNL     1     172.797 166.396 167.425  1.00  0.00     0.012 C 
ATOM     12  C   UNL     1     170.486 166.801 166.483  1.00  0.00     0.012 C 
ENDBRANCH   5  10
TORSDOF 2
ENDMDL
MODEL 9
REMARK VINA RESULT:    -3.733      7.674      8.225
REMARK INTER + INTRA:          -4.185
REMARK INTER:                  -4.057
REMARK INTRA:                  -0.128
REMARK UNBOUND:                -0.124
REMARK SMILES Cc1ccc(C(C)C)cc1O
REMARK SMILES IDX 1 1 2 2 10 3 9 4 5 5 4 6 3 7 11 8 6 10 7 11 8 12
REMARK H PARENT 11 9
REMARK Flexibility Score: inf
ROOT
ATOM      1  C   UNL     1     165.591 158.179 166.253  1.00  0.00     0.048 C 
ATOM      2  C   UNL     1     166.095 159.023 167.390  1.00  0.00    -0.009 A 
ATOM      3  C   UNL     1     166.648 160.303 167.163  1.00  0.00     0.118 A 
ATOM      4  C   UNL     1     167.109 161.064 168.244  1.00  0.00     0.050 A 
ATOM      5  C   UNL     1     167.031 160.572 169.560  1.00  0.00    -0.042 A 
ATOM      6  C   UNL     1     166.480 159.300 169.776  1.00  0.00     0.004 A 
ATOM      7  C   UNL     1     166.017 158.534 168.705  1.00  0.00     0.007 A 
ENDROOT
BRANCH   3   8
ATOM      8  O   UNL     1     166.754 160.844 165.880  1.00  0.00    -0.508 OA
ATOM      9  H   UNL     1     166.208 160.514 165.095  1.00  0.00     0.293 HD
ENDBRANCH   3   8
BRANCH   5  10
ATOM     10  C   UNL     1     167.529 161.394 170.734  1.00  0.00     0.013 C 
ATOM     11  C   UNL     1     168.860 160.849 171.264  1.00  0.00     0.012 C 
ATOM     12  C   UNL     1     166.478 161.464 171.846  1.00  0.00     0.012 C 
ENDBRANCH   5  10
TORSDOF 2
ENDMDL
