MODEL 1
REMARK VINA RESULT:    -2.299      0.000      0.000
REMARK INTER + INTRA:          -2.299
REMARK INTER:                  -2.299
REMARK INTRA:                   0.000
REMARK UNBOUND:                 0.000
REMARK SMILES CC(=O)[O-]
REMARK SMILES IDX 1 1 2 2 3 3 4 4
REMARK H PARENT
REMARK Flexibility Score: inf
ROOT
ATOM      1  C   UNL     1      -9.388  21.329  14.321  1.00  0.00     0.063 C 
ATOM      2  C   UNL     1      -8.607  22.597  14.242  1.00  0.00     0.038 C 
ATOM      3  O   UNL     1      -9.192  23.683  13.993  1.00  0.00    -0.550 OA
ATOM      4  O   UNL     1      -7.226  22.575  14.390  1.00  0.00    -0.550 OA
ENDROOT
TORSDOF 0
ENDMDL
MODEL 2
REMARK VINA RESULT:    -2.273      1.413      1.944
REMARK INTER + INTRA:          -2.273
REMARK INTER:                  -2.273
REMARK INTRA:                   0.000
REMARK UNBOUND:                 0.000
REMARK SMILES CC(=O)[O-]
REMARK SMILES IDX 1 1 2 2 3 3 4 4
REMARK H PARENT
REMARK Flexibility Score: inf
ROOT
ATOM      1  C   UNL     1      -7.419  21.925  14.721  1.00  0.00     0.063 C 
ATOM      2  C   UNL     1      -8.814  22.262  14.318  1.00  0.00     0.038 C 
ATOM      3  O   UNL     1      -9.683  21.355  14.231  1.00  0.00    -0.550 OA
ATOM      4  O   UNL     1      -9.147  23.568  13.983  1.00  0.00    -0.550 OA
ENDROOT
TORSDOF 0
ENDMDL
MODEL 3
REMARK VINA RESULT:    -2.208      1.538      1.822
REMARK INTER + INTRA:          -2.208
REMARK INTER:                  -2.208
REMARK INTRA:                   0.000
REMARK UNBOUND:                 0.000
REMARK SMILES CC(=O)[O-]
REMARK SMILES IDX 1 1 2 2 3 3 4 4
REMARK H PARENT
REMARK Flexibility Score: inf
ROOT
ATOM      1  C   UNL     1      -8.816  23.398  14.143  1.00  0.00     0.063 C 
ATOM      2  C   UNL     1      -8.694  21.916  14.247  1.00  0.00     0.038 C 
ATOM      3  O   UNL     1      -9.727  21.200  14.302  1.00  0.00    -0.550 OA
ATOM      4  O   UNL     1      -7.440  21.324  14.338  1.00  0.00    -0.550 OA
ENDROOT
TORSDOF 0
ENDMDL
MODEL 4
REMARK VINA RESULT:    -2.163      1.538      2.505
REMARK INTER + INTRA:          -2.163
REMARK INTER:                  -2.163
REMARK INTRA:                   0.000
REMARK UNBOUND:                 0.000
REMARK SMILES CC(=O)[O-]
REMARK SMILES IDX 1 1 2 2 3 3 4 4
REMARK H PARENT
REMARK Flexibility Score: inf
ROOT
ATOM      1  C   UNL     1      -8.632  25.044  13.630  1.00  0.00     0.063 C 
ATOM      2  C   UNL     1      -8.332  23.670  14.125  1.00  0.00     0.038 C 
ATOM      3  O   UNL     1      -7.150  23.347  14.411  1.00  0.00    -0.550 OA
ATOM      4  O   UNL     1      -9.347  22.727  14.220  1.00  0.00    -0.550 OA
ENDROOT
TORSDOF 0
ENDMDL
MODEL 5
REMARK VINA RESULT:    -2.146      1.678      2.230
REMARK INTER + INTRA:          -2.146
REMARK INTER:                  -2.146
REMARK INTRA:                   0.000
REMARK UNBOUND:                 0.000
REMARK SMILES CC(=O)[O-]
REMARK SMILES IDX 1 1 2 2 3 3 4 4
REMARK H PARENT
REMARK Flexibility Score: inf
ROOT
ATOM      1  C   UNL     1      -8.734  25.254  13.566  1.00  0.00     0.063 C 
ATOM      2  C   UNL     1      -8.351  23.903  14.070  1.00  0.00     0.038 C 
ATOM      3  O   UNL     1      -9.224  23.005  14.192  1.00  0.00    -0.550 OA
ATOM      4  O   UNL     1      -7.042  23.650  14.457  1.00  0.00    -0.550 OA
ENDROOT
TORSDOF 0
ENDMDL
MODEL 6
REMARK VINA RESULT:    -2.061      2.982      3.568
REMARK INTER + INTRA:          -2.061
REMARK INTER:                  -2.061
REMARK INTRA:                   0.000
REMARK UNBOUND:                 0.000
REMARK SMILES CC(=O)[O-]
REMARK SMILES IDX 1 1 2 2 3 3 4 4
REMARK H PARENT
REMARK Flexibility Score: inf
ROOT
ATOM      1  C   UNL     1      -9.313  26.601  12.879  1.00  0.00     0.063 C 
ATOM      2  C   UNL     1      -8.724  25.596  13.810  1.00  0.00     0.038 C 
ATOM      3  O   UNL     1      -8.537  25.890  15.019  1.00  0.00    -0.550 OA
ATOM      4  O   UNL     1      -8.329  24.353  13.334  1.00  0.00    -0.550 OA
ENDROOT
TORSDOF 0
ENDMDL
MODEL 7
REMARK VINA RESULT:    -2.035      3.355      3.651
REMARK INTER + INTRA:          -2.035
REMARK INTER:                  -2.035
REMARK INTRA:                   0.000
REMARK UNBOUND:                 0.000
REMARK SMILES CC(=O)[O-]
REMARK SMILES IDX 1 1 2 2 3 3 4 4
REMARK H PARENT
REMARK Flexibility Score: inf
ROOT
ATOM      1  C   UNL     1      -8.532  24.596  13.728  1.00  0.00     0.063 C 
ATOM      2  C   UNL     1      -8.643  26.070  13.534  1.00  0.00     0.038 C 
ATOM      3  O   UNL     1      -9.529  26.542  12.775  1.00  0.00    -0.550 OA
ATOM      4  O   UNL     1      -7.735  26.924  14.148  1.00  0.00    -0.550 OA
ENDROOT
TORSDOF 0
ENDMDL
MODEL 8
REMARK VINA RESULT:    -1.997      3.673      4.207
REMARK INTER + INTRA:          -1.997
REMARK INTER:                  -1.997
REMARK INTRA:                   0.000
REMARK UNBOUND:                 0.000
REMARK SMILES CC(=O)[O-]
REMARK SMILES IDX 1 1 2 2 3 3 4 4
REMARK H PARENT
REMARK Flexibility Score: inf
ROOT
ATOM      1  C   UNL     1      -8.602  24.933  13.706  1.00  0.00     0.063 C 
ATOM      2  C   UNL     1      -8.616  26.407  13.482  1.00  0.00     0.038 C 
ATOM      3  O   UNL     1      -7.834  27.152  14.129  1.00  0.00    -0.550 OA
ATOM      4  O   UNL     1      -9.529  26.969  12.599  1.00  0.00    -0.550 OA
ENDROOT
TORSDOF 0
ENDMDL
MODEL 9
REMARK VINA RESULT:    -1.936      4.100      4.722
REMARK INTER + INTRA:          -1.936
REMARK INTER:                  -1.936
REMARK INTRA:                   0.000
REMARK UNBOUND:                 0.000
REMARK SMILES CC(=O)[O-]
REMARK SMILES IDX 1 1 2 2 3 3 4 4
REMARK H PARENT
REMARK Flexibility Score: inf
ROOT
ATOM      1  C   UNL     1      -7.862  27.451  14.155  1.00  0.00     0.063 C 
ATOM      2  C   UNL     1      -8.862  26.824  13.243  1.00  0.00     0.038 C 
ATOM      3  O   UNL     1      -9.503  27.533  12.426  1.00  0.00    -0.550 OA
ATOM      4  O   UNL     1      -9.127  25.463  13.331  1.00  0.00    -0.550 OA
ENDROOT
TORSDOF 0
ENDMDL
