MODEL 1
REMARK VINA RESULT:    -3.229      0.000      0.000
REMARK INTER + INTRA:          -6.537
REMARK INTER:                  -5.873
REMARK INTRA:                  -0.665
REMARK UNBOUND:                -0.665
REMARK SMILES CCCCCCCCCCCCCCCC(=O)[O-]
REMARK SMILES IDX 9 1 10 2 11 3 12 4 13 5 14 6 15 7 16 8 17 9 18 10 8 11 7 12
REMARK SMILES IDX 6 13 5 14 4 15 3 16 2 17 1 18
REMARK H PARENT
REMARK Flexibility Score: inf
ROOT
ATOM      1  C   UNL     1      36.159 105.323 265.367  1.00  0.00     0.000 C 
ENDROOT
BRANCH   1   2
ATOM      2  C   UNL     1      35.334 105.265 264.068  1.00  0.00     0.000 C 
BRANCH   2   3
ATOM      3  C   UNL     1      35.882 106.115 262.904  1.00  0.00     0.000 C 
BRANCH   3   4
ATOM      4  C   UNL     1      36.970 107.134 263.293  1.00  0.00     0.000 C 
BRANCH   4   5
ATOM      5  C   UNL     1      38.410 106.700 262.958  1.00  0.00     0.000 C 
BRANCH   5   6
ATOM      6  C   UNL     1      38.801 106.927 261.480  1.00  0.00     0.006 C 
BRANCH   6   7
ATOM      7  C   UNL     1      38.321 105.814 260.535  1.00  0.00     0.053 C 
BRANCH   7   8
ATOM      8  C   UNL     1      37.382 106.335 259.490  1.00  0.00     0.041 C 
ATOM      9  O   UNL     1      36.623 107.306 259.748  1.00  0.00    -0.550 OA
ATOM     10  O   UNL     1      37.331 105.735 258.237  1.00  0.00    -0.550 OA
ENDBRANCH   7   8
ENDBRANCH   6   7
ENDBRANCH   5   6
ENDBRANCH   4   5
ENDBRANCH   3   4
ENDBRANCH   2   3
ENDBRANCH   1   2
BRANCH   1  11
ATOM     11  C   UNL     1      35.902 104.124 266.292  1.00  0.00     0.000 C 
BRANCH  11  12
ATOM     12  C   UNL     1      34.893 104.484 267.389  1.00  0.00    -0.000 C 
BRANCH  12  13
ATOM     13  C   UNL     1      34.875 105.998 267.647  1.00  0.00    -0.000 C 
BRANCH  13  14
ATOM     14  C   UNL     1      35.299 106.363 269.078  1.00  0.00    -0.000 C 
BRANCH  14  15
ATOM     15  C   UNL     1      35.614 107.861 269.237  1.00  0.00    -0.000 C 
BRANCH  15  16
ATOM     16  C   UNL     1      34.991 108.717 268.122  1.00  0.00    -0.000 C 
BRANCH  16  17
ATOM     17  C   UNL     1      35.737 108.586 266.786  1.00  0.00    -0.003 C 
ATOM     18  C   UNL     1      34.880 109.086 265.627  1.00  0.00     0.004 C 
ENDBRANCH  16  17
ENDBRANCH  15  16
ENDBRANCH  14  15
ENDBRANCH  13  14
ENDBRANCH  12  13
ENDBRANCH  11  12
ENDBRANCH   1  11
TORSDOF 14
ENDMDL
MODEL 2
REMARK VINA RESULT:    -3.062      3.406      7.603
REMARK INTER + INTRA:          -6.232
REMARK INTER:                  -5.402
REMARK INTRA:                  -0.830
REMARK UNBOUND:                -0.665
REMARK SMILES CCCCCCCCCCCCCCCC(=O)[O-]
REMARK SMILES IDX 9 1 10 2 11 3 12 4 13 5 14 6 15 7 16 8 17 9 18 10 8 11 7 12
REMARK SMILES IDX 6 13 5 14 4 15 3 16 2 17 1 18
REMARK H PARENT
REMARK Flexibility Score: inf
ROOT
ATOM      1  C   UNL     1      37.414 106.882 263.327  1.00  0.00     0.000 C 
ENDROOT
BRANCH   1   2
ATOM      2  C   UNL     1      35.900 106.850 263.050  1.00  0.00     0.000 C 
BRANCH   2   3
ATOM      3  C   UNL     1      35.133 105.697 263.730  1.00  0.00     0.000 C 
BRANCH   3   4
ATOM      4  C   UNL     1      35.912 104.951 264.830  1.00  0.00     0.000 C 
BRANCH   4   5
ATOM      5  C   UNL     1      35.067 104.534 266.049  1.00  0.00     0.000 C 
BRANCH   5   6
ATOM      6  C   UNL     1      35.237 105.464 267.271  1.00  0.00     0.006 C 
BRANCH   6   7
ATOM      7  C   UNL     1      34.876 106.930 266.989  1.00  0.00     0.053 C 
BRANCH   7   8
ATOM      8  C   UNL     1      35.046 107.792 268.203  1.00  0.00     0.041 C 
ATOM      9  O   UNL     1      35.165 109.039 268.084  1.00  0.00    -0.550 OA
ATOM     10  O   UNL     1      35.094 107.214 269.466  1.00  0.00    -0.550 OA
ENDBRANCH   7   8
ENDBRANCH   6   7
ENDBRANCH   5   6
ENDBRANCH   4   5
ENDBRANCH   3   4
ENDBRANCH   2   3
ENDBRANCH   1   2
BRANCH   1  11
ATOM     11  C   UNL     1      38.210 107.581 262.214  1.00  0.00     0.000 C 
BRANCH  11  12
ATOM     12  C   UNL     1      39.397 106.721 261.765  1.00  0.00    -0.000 C 
BRANCH  12  13
ATOM     13  C   UNL     1      38.964 105.691 260.711  1.00  0.00    -0.000 C 
BRANCH  13  14
ATOM     14  C   UNL     1      37.567 105.977 260.139  1.00  0.00    -0.000 C 
BRANCH  14  15
ATOM     15  C   UNL     1      37.432 105.551 258.666  1.00  0.00    -0.000 C 
BRANCH  15  16
ATOM     16  C   UNL     1      36.473 106.456 257.876  1.00  0.00    -0.000 C 
BRANCH  16  17
ATOM     17  C   UNL     1      35.844 107.555 258.744  1.00  0.00    -0.003 C 
ATOM     18  C   UNL     1      35.668 108.848 257.952  1.00  0.00     0.004 C 
ENDBRANCH  16  17
ENDBRANCH  15  16
ENDBRANCH  14  15
ENDBRANCH  13  14
ENDBRANCH  12  13
ENDBRANCH  11  12
ENDBRANCH   1  11
TORSDOF 14
ENDMDL
MODEL 3
REMARK VINA RESULT:    -2.036      1.284      2.898
REMARK INTER + INTRA:          -4.366
REMARK INTER:                  -3.426
REMARK INTRA:                  -0.940
REMARK UNBOUND:                -0.665
REMARK SMILES CCCCCCCCCCCCCCCC(=O)[O-]
REMARK SMILES IDX 9 1 10 2 11 3 12 4 13 5 14 6 15 7 16 8 17 9 18 10 8 11 7 12
REMARK SMILES IDX 6 13 5 14 4 15 3 16 2 17 1 18
REMARK H PARENT
REMARK Flexibility Score: inf
ROOT
ATOM      1  C   UNL     1      36.395 105.497 265.160  1.00  0.00     0.000 C 
ENDROOT
BRANCH   1   2
ATOM      2  C   UNL     1      35.665 104.292 264.539  1.00  0.00     0.000 C 
BRANCH   2   3
ATOM      3  C   UNL     1      34.953 104.574 263.201  1.00  0.00     0.000 C 
BRANCH   3   4
ATOM      4  C   UNL     1      35.627 103.962 261.959  1.00  0.00     0.000 C 
BRANCH   4   5
ATOM      5  C   UNL     1      35.874 104.952 260.804  1.00  0.00     0.000 C 
BRANCH   5   6
ATOM      6  C   UNL     1      37.298 105.553 260.795  1.00  0.00     0.006 C 
BRANCH   6   7
ATOM      7  C   UNL     1      37.373 106.959 260.181  1.00  0.00     0.053 C 
BRANCH   7   8
ATOM      8  C   UNL     1      36.731 107.013 258.828  1.00  0.00     0.041 C 
ATOM      9  O   UNL     1      36.876 106.060 258.020  1.00  0.00    -0.550 OA
ATOM     10  O   UNL     1      35.988 108.126 258.454  1.00  0.00    -0.550 OA
ENDBRANCH   7   8
ENDBRANCH   6   7
ENDBRANCH   5   6
ENDBRANCH   4   5
ENDBRANCH   3   4
ENDBRANCH   2   3
ENDBRANCH   1   2
BRANCH   1  11
ATOM     11  C   UNL     1      36.837 106.531 264.115  1.00  0.00     0.000 C 
BRANCH  11  12
ATOM     12  C   UNL     1      35.803 107.657 263.984  1.00  0.00    -0.000 C 
BRANCH  12  13
ATOM     13  C   UNL     1      34.895 107.718 265.221  1.00  0.00    -0.000 C 
BRANCH  13  14
ATOM     14  C   UNL     1      35.375 108.741 266.262  1.00  0.00    -0.000 C 
BRANCH  14  15
ATOM     15  C   UNL     1      35.053 108.312 267.704  1.00  0.00    -0.000 C 
BRANCH  15  16
ATOM     16  C   UNL     1      34.886 106.790 267.844  1.00  0.00    -0.000 C 
BRANCH  16  17
ATOM     17  C   UNL     1      35.373 106.263 269.201  1.00  0.00    -0.003 C 
ATOM     18  C   UNL     1      35.756 107.410 270.131  1.00  0.00     0.004 C 
ENDBRANCH  16  17
ENDBRANCH  15  16
ENDBRANCH  14  15
ENDBRANCH  13  14
ENDBRANCH  12  13
ENDBRANCH  11  12
ENDBRANCH   1  11
TORSDOF 14
ENDMDL
MODEL 4
REMARK VINA RESULT:    -1.917      3.045      7.232
REMARK INTER + INTRA:          -4.151
REMARK INTER:                  -5.116
REMARK INTRA:                   0.965
REMARK UNBOUND:                -0.665
REMARK SMILES CCCCCCCCCCCCCCCC(=O)[O-]
REMARK SMILES IDX 9 1 10 2 11 3 12 4 13 5 14 6 15 7 16 8 17 9 18 10 8 11 7 12
REMARK SMILES IDX 6 13 5 14 4 15 3 16 2 17 1 18
REMARK H PARENT
REMARK Flexibility Score: inf
ROOT
ATOM      1  C   UNL     1      36.647 107.148 264.019  1.00  0.00     0.000 C 
ENDROOT
BRANCH   1   2
ATOM      2  C   UNL     1      35.164 107.396 264.349  1.00  0.00     0.000 C 
BRANCH   2   3
ATOM      3  C   UNL     1      34.899 108.510 265.382  1.00  0.00     0.000 C 
BRANCH   3   4
ATOM      4  C   UNL     1      35.934 108.608 266.519  1.00  0.00     0.000 C 
BRANCH   4   5
ATOM      5  C   UNL     1      35.420 108.156 267.900  1.00  0.00     0.000 C 
BRANCH   5   6
ATOM      6  C   UNL     1      34.875 106.709 267.918  1.00  0.00     0.006 C 
BRANCH   6   7
ATOM      7  C   UNL     1      35.122 105.938 266.613  1.00  0.00     0.053 C 
BRANCH   7   8
ATOM      8  C   UNL     1      35.455 104.499 266.868  1.00  0.00     0.041 C 
ATOM      9  O   UNL     1      34.982 103.909 267.874  1.00  0.00    -0.550 OA
ATOM     10  O   UNL     1      36.303 103.817 266.005  1.00  0.00    -0.550 OA
ENDBRANCH   7   8
ENDBRANCH   6   7
ENDBRANCH   5   6
ENDBRANCH   4   5
ENDBRANCH   3   4
ENDBRANCH   2   3
ENDBRANCH   1   2
BRANCH   1  11
ATOM     11  C   UNL     1      36.856 106.553 262.619  1.00  0.00     0.000 C 
BRANCH  11  12
ATOM     12  C   UNL     1      38.316 106.700 262.171  1.00  0.00    -0.000 C 
BRANCH  12  13
ATOM     13  C   UNL     1      38.489 106.271 260.706  1.00  0.00    -0.000 C 
BRANCH  13  14
ATOM     14  C   UNL     1      37.440 105.240 260.261  1.00  0.00    -0.000 C 
BRANCH  14  15
ATOM     15  C   UNL     1      36.813 105.587 258.898  1.00  0.00    -0.000 C 
BRANCH  15  16
ATOM     16  C   UNL     1      36.834 107.096 258.606  1.00  0.00    -0.000 C 
BRANCH  16  17
ATOM     17  C   UNL     1      35.568 107.578 257.883  1.00  0.00    -0.003 C 
ATOM     18  C   UNL     1      35.437 109.096 257.959  1.00  0.00     0.004 C 
ENDBRANCH  16  17
ENDBRANCH  15  16
ENDBRANCH  14  15
ENDBRANCH  13  14
ENDBRANCH  12  13
ENDBRANCH  11  12
ENDBRANCH   1  11
TORSDOF 14
ENDMDL
MODEL 5
REMARK VINA RESULT:    -1.561      1.543      3.459
REMARK INTER + INTRA:          -3.504
REMARK INTER:                  -2.575
REMARK INTRA:                  -0.929
REMARK UNBOUND:                -0.665
REMARK SMILES CCCCCCCCCCCCCCCC(=O)[O-]
REMARK SMILES IDX 9 1 10 2 11 3 12 4 13 5 14 6 15 7 16 8 17 9 18 10 8 11 7 12
REMARK SMILES IDX 6 13 5 14 4 15 3 16 2 17 1 18
REMARK H PARENT
REMARK Flexibility Score: inf
ROOT
ATOM      1  C   UNL     1      38.467 106.338 263.880  1.00  0.00     0.000 C 
ENDROOT
BRANCH   1   2
ATOM      2  C   UNL     1      39.377 107.289 263.081  1.00  0.00     0.000 C 
BRANCH   2   3
ATOM      3  C   UNL     1      39.911 106.722 261.750  1.00  0.00     0.000 C 
BRANCH   3   4
ATOM      4  C   UNL     1      38.919 106.766 260.574  1.00  0.00     0.000 C 
BRANCH   4   5
ATOM      5  C   UNL     1      38.525 105.387 260.009  1.00  0.00     0.000 C 
BRANCH   5   6
ATOM      6  C   UNL     1      37.265 105.419 259.114  1.00  0.00     0.006 C 
BRANCH   6   7
ATOM      7  C   UNL     1      37.270 106.551 258.076  1.00  0.00     0.053 C 
BRANCH   7   8
ATOM      8  C   UNL     1      35.974 107.303 258.062  1.00  0.00     0.041 C 
ATOM      9  O   UNL     1      34.886 106.685 257.924  1.00  0.00    -0.550 OA
ATOM     10  O   UNL     1      35.970 108.687 258.182  1.00  0.00    -0.550 OA
ENDBRANCH   7   8
ENDBRANCH   6   7
ENDBRANCH   5   6
ENDBRANCH   4   5
ENDBRANCH   3   4
ENDBRANCH   2   3
ENDBRANCH   1   2
BRANCH   1  11
ATOM     11  C   UNL     1      36.975 106.553 263.589  1.00  0.00     0.000 C 
BRANCH  11  12
ATOM     12  C   UNL     1      36.222 105.217 263.560  1.00  0.00    -0.000 C 
BRANCH  12  13
ATOM     13  C   UNL     1      34.875 105.328 264.290  1.00  0.00    -0.000 C 
BRANCH  13  14
ATOM     14  C   UNL     1      34.875 106.414 265.377  1.00  0.00    -0.000 C 
BRANCH  14  15
ATOM     15  C   UNL     1      35.528 105.939 266.687  1.00  0.00    -0.000 C 
BRANCH  15  16
ATOM     16  C   UNL     1      35.505 107.017 267.783  1.00  0.00    -0.000 C 
BRANCH  16  17
ATOM     17  C   UNL     1      35.168 106.447 269.168  1.00  0.00    -0.003 C 
ATOM     18  C   UNL     1      35.483 107.456 270.268  1.00  0.00     0.004 C 
ENDBRANCH  16  17
ENDBRANCH  15  16
ENDBRANCH  14  15
ENDBRANCH  13  14
ENDBRANCH  12  13
ENDBRANCH  11  12
ENDBRANCH   1  11
TORSDOF 14
ENDMDL
MODEL 6
REMARK VINA RESULT:    -1.502      1.921      3.401
REMARK INTER + INTRA:          -3.396
REMARK INTER:                  -1.897
REMARK INTRA:                  -1.498
REMARK UNBOUND:                -0.665
REMARK SMILES CCCCCCCCCCCCCCCC(=O)[O-]
REMARK SMILES IDX 9 1 10 2 11 3 12 4 13 5 14 6 15 7 16 8 17 9 18 10 8 11 7 12
REMARK SMILES IDX 6 13 5 14 4 15 3 16 2 17 1 18
REMARK H PARENT
REMARK Flexibility Score: inf
ROOT
ATOM      1  C   UNL     1      36.058 105.944 263.998  1.00  0.00     0.000 C 
ENDROOT
BRANCH   1   2
ATOM      2  C   UNL     1      35.364 104.756 263.307  1.00  0.00     0.000 C 
BRANCH   2   3
ATOM      3  C   UNL     1      35.981 104.329 261.959  1.00  0.00     0.000 C 
BRANCH   3   4
ATOM      4  C   UNL     1      35.941 105.399 260.852  1.00  0.00     0.000 C 
BRANCH   4   5
ATOM      5  C   UNL     1      37.139 105.371 259.883  1.00  0.00     0.000 C 
BRANCH   5   6
ATOM      6  C   UNL     1      38.461 105.866 260.514  1.00  0.00     0.006 C 
BRANCH   6   7
ATOM      7  C   UNL     1      38.276 107.013 261.518  1.00  0.00     0.053 C 
BRANCH   7   8
ATOM      8  C   UNL     1      39.478 107.186 262.397  1.00  0.00     0.041 C 
ATOM      9  O   UNL     1      39.415 106.895 263.620  1.00  0.00    -0.550 OA
ATOM     10  O   UNL     1      40.661 107.687 261.868  1.00  0.00    -0.550 OA
ENDBRANCH   7   8
ENDBRANCH   6   7
ENDBRANCH   5   6
ENDBRANCH   4   5
ENDBRANCH   3   4
ENDBRANCH   2   3
ENDBRANCH   1   2
BRANCH   1  11
ATOM     11  C   UNL     1      35.292 107.264 263.829  1.00  0.00     0.000 C 
BRANCH  11  12
ATOM     12  C   UNL     1      35.858 108.349 264.753  1.00  0.00    -0.000 C 
BRANCH  12  13
ATOM     13  C   UNL     1      34.933 108.584 265.957  1.00  0.00    -0.000 C 
BRANCH  13  14
ATOM     14  C   UNL     1      35.704 108.758 267.275  1.00  0.00    -0.000 C 
BRANCH  14  15
ATOM     15  C   UNL     1      35.616 107.515 268.179  1.00  0.00    -0.000 C 
BRANCH  15  16
ATOM     16  C   UNL     1      34.876 106.348 267.506  1.00  0.00    -0.000 C 
BRANCH  16  17
ATOM     17  C   UNL     1      35.268 104.982 268.089  1.00  0.00    -0.003 C 
ATOM     18  C   UNL     1      35.188 103.889 267.027  1.00  0.00     0.004 C 
ENDBRANCH  16  17
ENDBRANCH  15  16
ENDBRANCH  14  15
ENDBRANCH  13  14
ENDBRANCH  12  13
ENDBRANCH  11  12
ENDBRANCH   1  11
TORSDOF 14
ENDMDL
MODEL 7
REMARK VINA RESULT:    -1.326      1.642      3.214
REMARK INTER + INTRA:          -3.077
REMARK INTER:                  -2.951
REMARK INTRA:                  -0.126
REMARK UNBOUND:                -0.665
REMARK SMILES CCCCCCCCCCCCCCCC(=O)[O-]
REMARK SMILES IDX 9 1 10 2 11 3 12 4 13 5 14 6 15 7 16 8 17 9 18 10 8 11 7 12
REMARK SMILES IDX 6 13 5 14 4 15 3 16 2 17 1 18
REMARK H PARENT
REMARK Flexibility Score: inf
ROOT
ATOM      1  C   UNL     1      35.761 105.765 264.400  1.00  0.00     0.000 C 
ENDROOT
BRANCH   1   2
ATOM      2  C   UNL     1      35.890 104.492 263.543  1.00  0.00     0.000 C 
BRANCH   2   3
ATOM      3  C   UNL     1      35.364 104.617 262.099  1.00  0.00     0.000 C 
BRANCH   3   4
ATOM      4  C   UNL     1      36.437 104.519 261.000  1.00  0.00     0.000 C 
BRANCH   4   5
ATOM      5  C   UNL     1      36.494 105.726 260.043  1.00  0.00     0.000 C 
BRANCH   5   6
ATOM      6  C   UNL     1      37.931 106.149 259.662  1.00  0.00     0.006 C 
BRANCH   6   7
ATOM      7  C   UNL     1      38.944 106.006 260.807  1.00  0.00     0.053 C 
BRANCH   7   8
ATOM      8  C   UNL     1      38.574 106.851 261.989  1.00  0.00     0.041 C 
ATOM      9  O   UNL     1      39.250 106.788 263.049  1.00  0.00    -0.550 OA
ATOM     10  O   UNL     1      37.470 107.692 261.926  1.00  0.00    -0.550 OA
ENDBRANCH   7   8
ENDBRANCH   6   7
ENDBRANCH   5   6
ENDBRANCH   4   5
ENDBRANCH   3   4
ENDBRANCH   2   3
ENDBRANCH   1   2
BRANCH   1  11
ATOM     11  C   UNL     1      35.118 106.934 263.639  1.00  0.00     0.000 C 
BRANCH  11  12
ATOM     12  C   UNL     1      34.877 108.129 264.569  1.00  0.00    -0.000 C 
BRANCH  12  13
ATOM     13  C   UNL     1      35.787 108.058 265.805  1.00  0.00    -0.000 C 
BRANCH  13  14
ATOM     14  C   UNL     1      35.008 107.789 267.102  1.00  0.00    -0.000 C 
BRANCH  14  15
ATOM     15  C   UNL     1      34.876 106.287 267.410  1.00  0.00    -0.000 C 
BRANCH  15  16
ATOM     16  C   UNL     1      35.072 105.971 268.901  1.00  0.00    -0.000 C 
BRANCH  16  17
ATOM     17  C   UNL     1      34.982 107.220 269.789  1.00  0.00    -0.003 C 
ATOM     18  C   UNL     1      36.286 107.449 270.549  1.00  0.00     0.004 C 
ENDBRANCH  16  17
ENDBRANCH  15  16
ENDBRANCH  14  15
ENDBRANCH  13  14
ENDBRANCH  12  13
ENDBRANCH  11  12
ENDBRANCH   1  11
TORSDOF 14
ENDMDL
