MODEL 1
REMARK VINA RESULT:    -4.982      0.000      0.000
REMARK INTER + INTRA:          -5.813
REMARK INTER:                  -5.710
REMARK INTRA:                  -0.103
REMARK UNBOUND:                -0.103
REMARK SMILES COc1cc(C(=O)[O-])ccc1O
REMARK SMILES IDX 5 1 9 2 4 3 10 4 3 5 11 6 6 7 7 8 8 9 2 10 1 11 12 12
REMARK H PARENT 12 13
REMARK Flexibility Score: inf
ROOT
ATOM      1  C   UNL     1       5.494  10.534   6.510  1.00  0.00     0.001 A 
ATOM      2  C   UNL     1       5.049  11.033   5.274  1.00  0.00     0.014 A 
ATOM      3  C   UNL     1       6.870  10.556   6.801  1.00  0.00     0.060 A 
ATOM      4  C   UNL     1       5.962  11.543   4.350  1.00  0.00     0.051 A 
ATOM      5  C   UNL     1       7.795  11.070   5.870  1.00  0.00     0.161 A 
ATOM      6  C   UNL     1       7.328  11.565   4.638  1.00  0.00     0.157 A 
ENDROOT
BRANCH   1   7
ATOM      7  C   UNL     1       4.529   9.993   7.494  1.00  0.00     0.072 C 
ATOM      8  O   UNL     1       4.920   9.247   8.431  1.00  0.00    -0.545 OA
ATOM      9  O   UNL     1       3.177  10.303   7.399  1.00  0.00    -0.545 OA
ENDBRANCH   1   7
BRANCH   5  10
ATOM     10  O   UNL     1       9.174  11.104   6.134  1.00  0.00    -0.493 OA
ATOM     11  C   UNL     1       9.827  12.112   6.897  1.00  0.00     0.278 C 
ENDBRANCH   5  10
BRANCH   6  12
ATOM     12  O   UNL     1       8.210  12.083   3.689  1.00  0.00    -0.504 OA
ATOM     13  H   UNL     1       7.980  12.891   3.123  1.00  0.00     0.293 HD
ENDBRANCH   6  12
TORSDOF 3
ENDMDL
MODEL 2
REMARK VINA RESULT:    -4.588      1.258      4.312
REMARK INTER + INTRA:          -5.361
REMARK INTER:                  -5.259
REMARK INTRA:                  -0.103
REMARK UNBOUND:                -0.103
REMARK SMILES COc1cc(C(=O)[O-])ccc1O
REMARK SMILES IDX 5 1 9 2 4 3 10 4 3 5 11 6 6 7 7 8 8 9 2 10 1 11 12 12
REMARK H PARENT 12 13
REMARK Flexibility Score: inf
ROOT
ATOM      1  C   UNL     1       8.002  11.733   5.859  1.00  0.00     0.001 A 
ATOM      2  C   UNL     1       7.273  12.149   4.732  1.00  0.00     0.014 A 
ATOM      3  C   UNL     1       7.371  10.923   6.820  1.00  0.00     0.060 A 
ATOM      4  C   UNL     1       5.942  11.763   4.570  1.00  0.00     0.051 A 
ATOM      5  C   UNL     1       6.026  10.531   6.661  1.00  0.00     0.161 A 
ATOM      6  C   UNL     1       5.315  10.959   5.525  1.00  0.00     0.157 A 
ENDROOT
BRANCH   1   7
ATOM      7  C   UNL     1       9.415  12.139   6.034  1.00  0.00     0.072 C 
ATOM      8  O   UNL     1       9.993  11.986   7.143  1.00  0.00    -0.545 OA
ATOM      9  O   UNL     1      10.124  12.695   4.976  1.00  0.00    -0.545 OA
ENDBRANCH   1   7
BRANCH   5  10
ATOM     10  O   UNL     1       5.371   9.722   7.604  1.00  0.00    -0.493 OA
ATOM     11  C   UNL     1       4.876  10.180   8.858  1.00  0.00     0.278 C 
ENDBRANCH   5  10
BRANCH   6  12
ATOM     12  O   UNL     1       3.983  10.593   5.328  1.00  0.00    -0.504 OA
ATOM     13  H   UNL     1       3.486   9.993   5.975  1.00  0.00     0.293 HD
ENDBRANCH   6  12
TORSDOF 3
ENDMDL
MODEL 3
REMARK VINA RESULT:    -4.549      1.808      4.671
REMARK INTER + INTRA:          -5.317
REMARK INTER:                  -5.217
REMARK INTRA:                  -0.099
REMARK UNBOUND:                -0.103
REMARK SMILES COc1cc(C(=O)[O-])ccc1O
REMARK SMILES IDX 5 1 9 2 4 3 10 4 3 5 11 6 6 7 7 8 8 9 2 10 1 11 12 12
REMARK H PARENT 12 13
REMARK Flexibility Score: inf
ROOT
ATOM      1  C   UNL     1       6.238  11.587   5.933  1.00  0.00     0.001 A 
ATOM      2  C   UNL     1       6.350  12.758   6.701  1.00  0.00     0.014 A 
ATOM      3  C   UNL     1       5.767  10.411   6.543  1.00  0.00     0.060 A 
ATOM      4  C   UNL     1       6.000  12.752   8.052  1.00  0.00     0.051 A 
ATOM      5  C   UNL     1       5.412  10.400   7.907  1.00  0.00     0.161 A 
ATOM      6  C   UNL     1       5.532  11.584   8.659  1.00  0.00     0.157 A 
ENDROOT
BRANCH   1   7
ATOM      7  C   UNL     1       6.608  11.590   4.499  1.00  0.00     0.072 C 
ATOM      8  O   UNL     1       5.926  10.945   3.660  1.00  0.00    -0.545 OA
ATOM      9  O   UNL     1       7.715  12.307   4.058  1.00  0.00    -0.545 OA
ENDBRANCH   1   7
BRANCH   5  10
ATOM     10  O   UNL     1       4.938   9.240   8.543  1.00  0.00    -0.493 OA
ATOM     11  C   UNL     1       3.627   8.711   8.388  1.00  0.00     0.278 C 
ENDBRANCH   5  10
BRANCH   6  12
ATOM     12  O   UNL     1       5.191  11.617  10.011  1.00  0.00    -0.504 OA
ATOM     13  H   UNL     1       5.888  11.573  10.745  1.00  0.00     0.293 HD
ENDBRANCH   6  12
TORSDOF 3
ENDMDL
MODEL 4
REMARK VINA RESULT:    -4.389      2.606      5.557
REMARK INTER + INTRA:          -5.134
REMARK INTER:                  -5.148
REMARK INTRA:                   0.015
REMARK UNBOUND:                -0.103
REMARK SMILES COc1cc(C(=O)[O-])ccc1O
REMARK SMILES IDX 5 1 9 2 4 3 10 4 3 5 11 6 6 7 7 8 8 9 2 10 1 11 12 12
REMARK H PARENT 12 13
REMARK Flexibility Score: inf
ROOT
ATOM      1  C   UNL     1       4.992  10.648   7.485  1.00  0.00     0.001 A 
ATOM      2  C   UNL     1       4.591   9.351   7.849  1.00  0.00     0.014 A 
ATOM      3  C   UNL     1       4.449  11.749   8.170  1.00  0.00     0.060 A 
ATOM      4  C   UNL     1       3.666   9.160   8.876  1.00  0.00     0.051 A 
ATOM      5  C   UNL     1       3.513  11.561   9.209  1.00  0.00     0.161 A 
ATOM      6  C   UNL     1       3.126  10.254   9.557  1.00  0.00     0.157 A 
ENDROOT
BRANCH   1   7
ATOM      7  C   UNL     1       5.974  10.854   6.396  1.00  0.00     0.072 C 
ATOM      8  O   UNL     1       7.207  10.709   6.610  1.00  0.00    -0.545 OA
ATOM      9  O   UNL     1       5.549  11.210   5.122  1.00  0.00    -0.545 OA
ENDBRANCH   1   7
BRANCH   5  10
ATOM     10  O   UNL     1       2.955  12.642   9.910  1.00  0.00    -0.493 OA
ATOM     11  C   UNL     1       1.625  13.118   9.738  1.00  0.00     0.278 C 
ENDBRANCH   5  10
BRANCH   6  12
ATOM     12  O   UNL     1       2.204  10.023  10.578  1.00  0.00    -0.504 OA
ATOM     13  H   UNL     1       1.308   9.583  10.408  1.00  0.00     0.293 HD
ENDBRANCH   6  12
TORSDOF 3
ENDMDL
MODEL 5
REMARK VINA RESULT:    -4.301      1.657      2.912
REMARK INTER + INTRA:          -5.033
REMARK INTER:                  -4.936
REMARK INTRA:                  -0.097
REMARK UNBOUND:                -0.103
REMARK SMILES COc1cc(C(=O)[O-])ccc1O
REMARK SMILES IDX 5 1 9 2 4 3 10 4 3 5 11 6 6 7 7 8 8 9 2 10 1 11 12 12
REMARK H PARENT 12 13
REMARK Flexibility Score: inf
ROOT
ATOM      1  C   UNL     1       4.707  10.975   8.163  1.00  0.00     0.001 A 
ATOM      2  C   UNL     1       5.447  11.699   9.113  1.00  0.00     0.014 A 
ATOM      3  C   UNL     1       5.323  10.604   6.955  1.00  0.00     0.060 A 
ATOM      4  C   UNL     1       6.775  12.045   8.859  1.00  0.00     0.051 A 
ATOM      5  C   UNL     1       6.665  10.951   6.694  1.00  0.00     0.161 A 
ATOM      6  C   UNL     1       7.387  11.677   7.659  1.00  0.00     0.157 A 
ENDROOT
BRANCH   1   7
ATOM      7  C   UNL     1       3.298  10.606   8.429  1.00  0.00     0.072 C 
ATOM      8  O   UNL     1       2.555  10.203   7.496  1.00  0.00    -0.545 OA
ATOM      9  O   UNL     1       2.777  10.697   9.715  1.00  0.00    -0.545 OA
ENDBRANCH   1   7
BRANCH   5  10
ATOM     10  O   UNL     1       7.305  10.594   5.496  1.00  0.00    -0.493 OA
ATOM     11  C   UNL     1       7.277  11.366   4.301  1.00  0.00     0.278 C 
ENDBRANCH   5  10
BRANCH   6  12
ATOM     12  O   UNL     1       8.716  12.040   7.441  1.00  0.00    -0.504 OA
ATOM     13  H   UNL     1       9.139  12.017   6.520  1.00  0.00     0.293 HD
ENDBRANCH   6  12
TORSDOF 3
ENDMDL
MODEL 6
REMARK VINA RESULT:    -4.252     16.497     17.862
REMARK INTER + INTRA:          -4.977
REMARK INTER:                  -5.021
REMARK INTRA:                   0.044
REMARK UNBOUND:                -0.103
REMARK SMILES COc1cc(C(=O)[O-])ccc1O
REMARK SMILES IDX 5 1 9 2 4 3 10 4 3 5 11 6 6 7 7 8 8 9 2 10 1 11 12 12
REMARK H PARENT 12 13
REMARK Flexibility Score: inf
ROOT
ATOM      1  C   UNL     1      -6.516  10.248  -6.964  1.00  0.00     0.001 A 
ATOM      2  C   UNL     1      -6.365   9.833  -8.298  1.00  0.00     0.014 A 
ATOM      3  C   UNL     1      -5.476  10.966  -6.349  1.00  0.00     0.060 A 
ATOM      4  C   UNL     1      -5.196  10.130  -9.001  1.00  0.00     0.051 A 
ATOM      5  C   UNL     1      -4.293  11.268  -7.055  1.00  0.00     0.161 A 
ATOM      6  C   UNL     1      -4.162  10.843  -8.390  1.00  0.00     0.157 A 
ENDROOT
BRANCH   1   7
ATOM      7  C   UNL     1      -7.755   9.936  -6.216  1.00  0.00     0.072 C 
ATOM      8  O   UNL     1      -7.899   8.818  -5.653  1.00  0.00    -0.545 OA
ATOM      9  O   UNL     1      -8.777  10.874  -6.122  1.00  0.00    -0.545 OA
ENDBRANCH   1   7
BRANCH   5  10
ATOM     10  O   UNL     1      -3.238  11.984  -6.466  1.00  0.00    -0.493 OA
ATOM     11  C   UNL     1      -1.985  11.419  -6.095  1.00  0.00     0.278 C 
ENDBRANCH   5  10
BRANCH   6  12
ATOM     12  O   UNL     1      -3.009  11.121  -9.125  1.00  0.00    -0.504 OA
ATOM     13  H   UNL     1      -2.209  10.499  -9.131  1.00  0.00     0.293 HD
ENDBRANCH   6  12
TORSDOF 3
ENDMDL
MODEL 7
REMARK VINA RESULT:    -4.178     18.300     19.627
REMARK INTER + INTRA:          -4.891
REMARK INTER:                  -4.794
REMARK INTRA:                  -0.097
REMARK UNBOUND:                -0.103
REMARK SMILES COc1cc(C(=O)[O-])ccc1O
REMARK SMILES IDX 5 1 9 2 4 3 10 4 3 5 11 6 6 7 7 8 8 9 2 10 1 11 12 12
REMARK H PARENT 12 13
REMARK Flexibility Score: inf
ROOT
ATOM      1  C   UNL     1      -6.588  10.329  -7.210  1.00  0.00     0.001 A 
ATOM      2  C   UNL     1      -7.284  11.463  -6.760  1.00  0.00     0.014 A 
ATOM      3  C   UNL     1      -7.085   9.051  -6.895  1.00  0.00     0.060 A 
ATOM      4  C   UNL     1      -8.453  11.322  -6.011  1.00  0.00     0.051 A 
ATOM      5  C   UNL     1      -8.266   8.905  -6.138  1.00  0.00     0.161 A 
ATOM      6  C   UNL     1      -8.947  10.054  -5.698  1.00  0.00     0.157 A 
ENDROOT
BRANCH   1   7
ATOM      7  C   UNL     1      -5.348  10.474  -8.005  1.00  0.00     0.072 C 
ATOM      8  O   UNL     1      -5.230   9.897  -9.119  1.00  0.00    -0.545 OA
ATOM      9  O   UNL     1      -4.295  11.250  -7.535  1.00  0.00    -0.545 OA
ENDBRANCH   1   7
BRANCH   5  10
ATOM     10  O   UNL     1      -8.785   7.642  -5.809  1.00  0.00    -0.493 OA
ATOM     11  C   UNL     1      -9.614   6.860  -6.662  1.00  0.00     0.278 C 
ENDBRANCH   5  10
BRANCH   6  12
ATOM     12  O   UNL     1     -10.119   9.954  -4.948  1.00  0.00    -0.504 OA
ATOM     13  H   UNL     1     -10.629   9.083  -4.856  1.00  0.00     0.293 HD
ENDBRANCH   6  12
TORSDOF 3
ENDMDL
MODEL 8
REMARK VINA RESULT:    -3.933     18.729     19.719
REMARK INTER + INTRA:          -4.610
REMARK INTER:                  -4.524
REMARK INTRA:                  -0.087
REMARK UNBOUND:                -0.103
REMARK SMILES COc1cc(C(=O)[O-])ccc1O
REMARK SMILES IDX 5 1 9 2 4 3 10 4 3 5 11 6 6 7 7 8 8 9 2 10 1 11 12 12
REMARK H PARENT 12 13
REMARK Flexibility Score: inf
ROOT
ATOM      1  C   UNL     1      -9.260   8.670  -6.091  1.00  0.00     0.001 A 
ATOM      2  C   UNL     1     -10.125   9.708  -5.704  1.00  0.00     0.014 A 
ATOM      3  C   UNL     1      -7.950   8.986  -6.495  1.00  0.00     0.060 A 
ATOM      4  C   UNL     1      -9.689  11.034  -5.723  1.00  0.00     0.051 A 
ATOM      5  C   UNL     1      -7.506  10.324  -6.515  1.00  0.00     0.161 A 
ATOM      6  C   UNL     1      -8.388  11.348  -6.124  1.00  0.00     0.157 A 
ENDROOT
BRANCH   1   7
ATOM      7  C   UNL     1      -9.719   7.263  -6.072  1.00  0.00     0.072 C 
ATOM      8  O   UNL     1     -10.125   6.736  -5.002  1.00  0.00    -0.545 OA
ATOM      9  O   UNL     1      -9.709   6.503  -7.236  1.00  0.00    -0.545 OA
ENDBRANCH   1   7
BRANCH   5  10
ATOM     10  O   UNL     1      -6.204  10.668  -6.914  1.00  0.00    -0.493 OA
ATOM     11  C   UNL     1      -5.620  10.317  -8.163  1.00  0.00     0.278 C 
ENDBRANCH   5  10
BRANCH   6  12
ATOM     12  O   UNL     1      -7.988  12.684  -6.129  1.00  0.00    -0.504 OA
ATOM     13  H   UNL     1      -7.861  13.213  -5.273  1.00  0.00     0.293 HD
ENDBRANCH   6  12
TORSDOF 3
ENDMDL
