MODEL 1
REMARK VINA RESULT:    -5.299      0.000      0.000
REMARK INTER + INTRA:          -8.251
REMARK INTER:                  -7.468
REMARK INTRA:                  -0.783
REMARK UNBOUND:                -0.783
REMARK SMILES CCCCCCCCC(=O)[O-]
REMARK SMILES IDX 6 1 7 2 8 3 9 4 10 5 11 6 5 7 4 8 3 9 2 10 1 11
REMARK H PARENT
REMARK Flexibility Score: inf
ROOT
ATOM      1  C   UNL     1     -16.442 -11.388 -10.584  1.00  0.00     0.000 C 
ENDROOT
BRANCH   1   2
ATOM      2  C   UNL     1     -15.073 -11.250  -9.896  1.00  0.00     0.006 C 
BRANCH   2   3
ATOM      3  C   UNL     1     -14.770 -12.363  -8.876  1.00  0.00     0.053 C 
BRANCH   3   4
ATOM      4  C   UNL     1     -14.812 -11.877  -7.459  1.00  0.00     0.041 C 
ATOM      5  O   UNL     1     -15.893 -11.892  -6.813  1.00  0.00    -0.550 OA
ATOM      6  O   UNL     1     -13.662 -11.379  -6.860  1.00  0.00    -0.550 OA
ENDBRANCH   3   4
ENDBRANCH   2   3
ENDBRANCH   1   2
BRANCH   1   7
ATOM      7  C   UNL     1     -17.460 -10.336 -10.119  1.00  0.00     0.000 C 
BRANCH   7   8
ATOM      8  C   UNL     1     -16.766  -9.012  -9.778  1.00  0.00    -0.000 C 
BRANCH   8   9
ATOM      9  C   UNL     1     -17.413  -8.351  -8.552  1.00  0.00    -0.000 C 
BRANCH   9  10
ATOM     10  C   UNL     1     -16.559  -8.495  -7.284  1.00  0.00    -0.003 C 
ATOM     11  C   UNL     1     -15.079  -8.203  -7.532  1.00  0.00     0.004 C 
ENDBRANCH   9  10
ENDBRANCH   8   9
ENDBRANCH   7   8
ENDBRANCH   1   7
TORSDOF 7
ENDMDL
MODEL 2
REMARK VINA RESULT:    -5.249      1.172      2.037
REMARK INTER + INTRA:          -8.181
REMARK INTER:                  -7.381
REMARK INTRA:                  -0.799
REMARK UNBOUND:                -0.783
REMARK SMILES CCCCCCCCC(=O)[O-]
REMARK SMILES IDX 6 1 7 2 8 3 9 4 10 5 11 6 5 7 4 8 3 9 2 10 1 11
REMARK H PARENT
REMARK Flexibility Score: inf
ROOT
ATOM      1  C   UNL     1     -17.479 -10.204 -10.129  1.00  0.00     0.000 C 
ENDROOT
BRANCH   1   2
ATOM      2  C   UNL     1     -16.622 -11.408 -10.558  1.00  0.00     0.006 C 
BRANCH   2   3
ATOM      3  C   UNL     1     -15.126 -11.261 -10.226  1.00  0.00     0.053 C 
BRANCH   3   4
ATOM      4  C   UNL     1     -14.733 -12.003  -8.986  1.00  0.00     0.041 C 
ATOM      5  O   UNL     1     -14.030 -11.442  -8.104  1.00  0.00    -0.550 OA
ATOM      6  O   UNL     1     -15.116 -13.327  -8.816  1.00  0.00    -0.550 OA
ENDBRANCH   3   4
ENDBRANCH   2   3
ENDBRANCH   1   2
BRANCH   1   7
ATOM      7  C   UNL     1     -16.651  -8.936  -9.873  1.00  0.00     0.000 C 
BRANCH   7   8
ATOM      8  C   UNL     1     -16.961  -8.345  -8.493  1.00  0.00    -0.000 C 
BRANCH   8   9
ATOM      9  C   UNL     1     -15.716  -8.370  -7.592  1.00  0.00    -0.000 C 
BRANCH   9  10
ATOM     10  C   UNL     1     -15.949  -9.144  -6.286  1.00  0.00    -0.003 C 
ATOM     11  C   UNL     1     -17.007 -10.238  -6.427  1.00  0.00     0.004 C 
ENDBRANCH   9  10
ENDBRANCH   8   9
ENDBRANCH   7   8
ENDBRANCH   1   7
TORSDOF 7
ENDMDL
MODEL 3
REMARK VINA RESULT:    -5.185      1.537      3.413
REMARK INTER + INTRA:          -8.091
REMARK INTER:                  -7.371
REMARK INTRA:                  -0.720
REMARK UNBOUND:                -0.783
REMARK SMILES CCCCCCCCC(=O)[O-]
REMARK SMILES IDX 6 1 7 2 8 3 9 4 10 5 11 6 5 7 4 8 3 9 2 10 1 11
REMARK H PARENT
REMARK Flexibility Score: inf
ROOT
ATOM      1  C   UNL     1     -17.443 -10.296 -10.246  1.00  0.00     0.000 C 
ENDROOT
BRANCH   1   2
ATOM      2  C   UNL     1     -16.650  -9.082  -9.732  1.00  0.00     0.006 C 
BRANCH   2   3
ATOM      3  C   UNL     1     -17.326  -8.343  -8.562  1.00  0.00     0.053 C 
BRANCH   3   4
ATOM      4  C   UNL     1     -16.940  -8.898  -7.226  1.00  0.00     0.041 C 
ATOM      5  O   UNL     1     -17.575  -9.866  -6.730  1.00  0.00    -0.550 OA
ATOM      6  O   UNL     1     -15.895  -8.326  -6.510  1.00  0.00    -0.550 OA
ENDBRANCH   3   4
ENDBRANCH   2   3
ENDBRANCH   1   2
BRANCH   1   7
ATOM      7  C   UNL     1     -16.548 -11.487 -10.619  1.00  0.00     0.000 C 
BRANCH   7   8
ATOM      8  C   UNL     1     -15.135 -11.314 -10.049  1.00  0.00    -0.000 C 
BRANCH   8   9
ATOM      9  C   UNL     1     -14.766 -12.485  -9.127  1.00  0.00    -0.000 C 
BRANCH   9  10
ATOM     10  C   UNL     1     -14.897 -12.129  -7.638  1.00  0.00    -0.003 C 
ATOM     11  C   UNL     1     -13.854 -11.108  -7.182  1.00  0.00     0.004 C 
ENDBRANCH   9  10
ENDBRANCH   8   9
ENDBRANCH   7   8
ENDBRANCH   1   7
TORSDOF 7
ENDMDL
MODEL 4
REMARK VINA RESULT:    -5.161      1.635      3.141
REMARK INTER + INTRA:          -8.056
REMARK INTER:                  -7.404
REMARK INTRA:                  -0.652
REMARK UNBOUND:                -0.783
REMARK SMILES CCCCCCCCC(=O)[O-]
REMARK SMILES IDX 6 1 7 2 8 3 9 4 10 5 11 6 5 7 4 8 3 9 2 10 1 11
REMARK H PARENT
REMARK Flexibility Score: inf
ROOT
ATOM      1  C   UNL     1     -15.584  -9.344  -6.458  1.00  0.00     0.000 C 
ENDROOT
BRANCH   1   2
ATOM      2  C   UNL     1     -15.479 -10.810  -6.912  1.00  0.00     0.006 C 
BRANCH   2   3
ATOM      3  C   UNL     1     -14.340 -11.074  -7.914  1.00  0.00     0.053 C 
BRANCH   3   4
ATOM      4  C   UNL     1     -14.710 -12.081  -8.959  1.00  0.00     0.041 C 
ATOM      5  O   UNL     1     -14.758 -11.751 -10.174  1.00  0.00    -0.550 OA
ATOM      6  O   UNL     1     -15.031 -13.382  -8.589  1.00  0.00    -0.550 OA
ENDBRANCH   3   4
ENDBRANCH   2   3
ENDBRANCH   1   2
BRANCH   1   7
ATOM      7  C   UNL     1     -15.394  -8.342  -7.606  1.00  0.00     0.000 C 
BRANCH   7   8
ATOM      8  C   UNL     1     -16.690  -8.170  -8.407  1.00  0.00    -0.000 C 
BRANCH   8   9
ATOM      9  C   UNL     1     -16.557  -8.788  -9.808  1.00  0.00    -0.000 C 
BRANCH   9  10
ATOM     10  C   UNL     1     -17.819  -9.550 -10.239  1.00  0.00    -0.003 C 
ATOM     11  C   UNL     1     -18.993  -9.338  -9.282  1.00  0.00     0.004 C 
ENDBRANCH   9  10
ENDBRANCH   8   9
ENDBRANCH   7   8
ENDBRANCH   1   7
TORSDOF 7
ENDMDL
MODEL 5
REMARK VINA RESULT:    -5.151      1.679      3.422
REMARK INTER + INTRA:          -8.042
REMARK INTER:                  -7.610
REMARK INTRA:                  -0.432
REMARK UNBOUND:                -0.783
REMARK SMILES CCCCCCCCC(=O)[O-]
REMARK SMILES IDX 6 1 7 2 8 3 9 4 10 5 11 6 5 7 4 8 3 9 2 10 1 11
REMARK H PARENT
REMARK Flexibility Score: inf
ROOT
ATOM      1  C   UNL     1     -16.929  -8.817  -7.405  1.00  0.00     0.000 C 
ENDROOT
BRANCH   1   2
ATOM      2  C   UNL     1     -15.670  -8.813  -6.520  1.00  0.00     0.006 C 
BRANCH   2   3
ATOM      3  C   UNL     1     -14.357  -9.004  -7.300  1.00  0.00     0.053 C 
BRANCH   3   4
ATOM      4  C   UNL     1     -13.989 -10.445  -7.471  1.00  0.00     0.041 C 
ATOM      5  O   UNL     1     -14.369 -11.084  -8.489  1.00  0.00    -0.550 OA
ATOM      6  O   UNL     1     -13.250 -11.096  -6.491  1.00  0.00    -0.550 OA
ENDBRANCH   3   4
ENDBRANCH   2   3
ENDBRANCH   1   2
BRANCH   1   7
ATOM      7  C   UNL     1     -16.691  -8.207  -8.794  1.00  0.00     0.000 C 
BRANCH   7   8
ATOM      8  C   UNL     1     -17.146  -9.165  -9.901  1.00  0.00    -0.000 C 
BRANCH   8   9
ATOM      9  C   UNL     1     -18.646  -9.472  -9.781  1.00  0.00    -0.000 C 
BRANCH   9  10
ATOM     10  C   UNL     1     -19.203 -10.191 -11.019  1.00  0.00    -0.003 C 
ATOM     11  C   UNL     1     -18.356 -11.394 -11.434  1.00  0.00     0.004 C 
ENDBRANCH   9  10
ENDBRANCH   8   9
ENDBRANCH   7   8
ENDBRANCH   1   7
TORSDOF 7
ENDMDL
MODEL 6
REMARK VINA RESULT:    -5.095      2.492      4.451
REMARK INTER + INTRA:          -7.964
REMARK INTER:                  -7.272
REMARK INTRA:                  -0.692
REMARK UNBOUND:                -0.783
REMARK SMILES CCCCCCCCC(=O)[O-]
REMARK SMILES IDX 6 1 7 2 8 3 9 4 10 5 11 6 5 7 4 8 3 9 2 10 1 11
REMARK H PARENT
REMARK Flexibility Score: inf
ROOT
ATOM      1  C   UNL     1     -16.207  -8.923  -7.330  1.00  0.00     0.000 C 
ENDROOT
BRANCH   1   2
ATOM      2  C   UNL     1     -16.836  -8.213  -8.542  1.00  0.00     0.006 C 
BRANCH   2   3
ATOM      3  C   UNL     1     -16.827  -9.053  -9.832  1.00  0.00     0.053 C 
BRANCH   3   4
ATOM      4  C   UNL     1     -18.131  -9.746 -10.080  1.00  0.00     0.041 C 
ATOM      5  O   UNL     1     -19.191  -9.321  -9.548  1.00  0.00    -0.550 OA
ATOM      6  O   UNL     1     -18.174 -10.884 -10.877  1.00  0.00    -0.550 OA
ENDBRANCH   3   4
ENDBRANCH   2   3
ENDBRANCH   1   2
BRANCH   1   7
ATOM      7  C   UNL     1     -14.678  -8.789  -7.278  1.00  0.00     0.000 C 
BRANCH   7   8
ATOM      8  C   UNL     1     -13.997 -10.113  -7.642  1.00  0.00    -0.000 C 
BRANCH   8   9
ATOM      9  C   UNL     1     -14.757 -11.306  -7.041  1.00  0.00    -0.000 C 
BRANCH   9  10
ATOM     10  C   UNL     1     -14.989 -12.432  -8.059  1.00  0.00    -0.003 C 
ATOM     11  C   UNL     1     -14.643 -12.015  -9.489  1.00  0.00     0.004 C 
ENDBRANCH   9  10
ENDBRANCH   8   9
ENDBRANCH   7   8
ENDBRANCH   1   7
TORSDOF 7
ENDMDL
MODEL 7
REMARK VINA RESULT:    -5.036      2.943      4.559
REMARK INTER + INTRA:          -7.880
REMARK INTER:                  -7.388
REMARK INTRA:                  -0.492
REMARK UNBOUND:                -0.783
REMARK SMILES CCCCCCCCC(=O)[O-]
REMARK SMILES IDX 6 1 7 2 8 3 9 4 10 5 11 6 5 7 4 8 3 9 2 10 1 11
REMARK H PARENT
REMARK Flexibility Score: inf
ROOT
ATOM      1  C   UNL     1     -16.604  -8.760  -9.683  1.00  0.00     0.000 C 
ENDROOT
BRANCH   1   2
ATOM      2  C   UNL     1     -17.418 -10.053  -9.866  1.00  0.00     0.006 C 
BRANCH   2   3
ATOM      3  C   UNL     1     -18.882  -9.818 -10.280  1.00  0.00     0.053 C 
BRANCH   3   4
ATOM      4  C   UNL     1     -19.301 -10.671 -11.438  1.00  0.00     0.041 C 
ATOM      5  O   UNL     1     -20.192 -10.272 -12.233  1.00  0.00    -0.550 OA
ATOM      6  O   UNL     1     -18.727 -11.923 -11.623  1.00  0.00    -0.550 OA
ENDBRANCH   3   4
ENDBRANCH   2   3
ENDBRANCH   1   2
BRANCH   1   7
ATOM      7  C   UNL     1     -16.598  -8.251  -8.234  1.00  0.00     0.000 C 
BRANCH   7   8
ATOM      8  C   UNL     1     -15.188  -8.311  -7.636  1.00  0.00    -0.000 C 
BRANCH   8   9
ATOM      9  C   UNL     1     -14.964  -9.635  -6.888  1.00  0.00    -0.000 C 
BRANCH   9  10
ATOM     10  C   UNL     1     -14.024 -10.587  -7.643  1.00  0.00    -0.003 C 
ATOM     11  C   UNL     1     -14.646 -11.963  -7.883  1.00  0.00     0.004 C 
ENDBRANCH   9  10
ENDBRANCH   8   9
ENDBRANCH   7   8
ENDBRANCH   1   7
TORSDOF 7
ENDMDL
MODEL 8
REMARK VINA RESULT:    -5.010      1.581      3.393
REMARK INTER + INTRA:          -7.844
REMARK INTER:                  -7.238
REMARK INTRA:                  -0.606
REMARK UNBOUND:                -0.783
REMARK SMILES CCCCCCCCC(=O)[O-]
REMARK SMILES IDX 6 1 7 2 8 3 9 4 10 5 11 6 5 7 4 8 3 9 2 10 1 11
REMARK H PARENT
REMARK Flexibility Score: inf
ROOT
ATOM      1  C   UNL     1     -17.599  -9.849  -7.540  1.00  0.00     0.000 C 
ENDROOT
BRANCH   1   2
ATOM      2  C   UNL     1     -16.459 -10.170  -6.558  1.00  0.00     0.006 C 
BRANCH   2   3
ATOM      3  C   UNL     1     -15.633 -11.411  -6.942  1.00  0.00     0.053 C 
BRANCH   3   4
ATOM      4  C   UNL     1     -14.532 -11.099  -7.908  1.00  0.00     0.041 C 
ATOM      5  O   UNL     1     -13.750 -10.135  -7.694  1.00  0.00    -0.550 OA
ATOM      6  O   UNL     1     -14.387 -11.854  -9.065  1.00  0.00    -0.550 OA
ENDBRANCH   3   4
ENDBRANCH   2   3
ENDBRANCH   1   2
BRANCH   1   7
ATOM      7  C   UNL     1     -17.339  -8.586  -8.373  1.00  0.00     0.000 C 
BRANCH   7   8
ATOM      8  C   UNL     1     -16.889  -8.946  -9.794  1.00  0.00    -0.000 C 
BRANCH   8   9
ATOM      9  C   UNL     1     -17.443 -10.316 -10.216  1.00  0.00    -0.000 C 
BRANCH   9  10
ATOM     10  C   UNL     1     -18.768 -10.206 -10.985  1.00  0.00    -0.003 C 
ATOM     11  C   UNL     1     -19.132 -11.494 -11.722  1.00  0.00     0.004 C 
ENDBRANCH   9  10
ENDBRANCH   8   9
ENDBRANCH   7   8
ENDBRANCH   1   7
TORSDOF 7
ENDMDL
MODEL 9
REMARK VINA RESULT:    -4.941      1.278      3.192
REMARK INTER + INTRA:          -7.746
REMARK INTER:                  -7.128
REMARK INTRA:                  -0.618
REMARK UNBOUND:                -0.783
REMARK SMILES CCCCCCCCC(=O)[O-]
REMARK SMILES IDX 6 1 7 2 8 3 9 4 10 5 11 6 5 7 4 8 3 9 2 10 1 11
REMARK H PARENT
REMARK Flexibility Score: inf
ROOT
ATOM      1  C   UNL     1     -16.992  -9.412  -7.361  1.00  0.00     0.000 C 
ENDROOT
BRANCH   1   2
ATOM      2  C   UNL     1     -15.762  -9.175  -6.467  1.00  0.00     0.006 C 
BRANCH   2   3
ATOM      3  C   UNL     1     -14.476  -8.847  -7.246  1.00  0.00     0.053 C 
BRANCH   3   4
ATOM      4  C   UNL     1     -13.388  -9.851  -7.019  1.00  0.00     0.041 C 
ATOM      5  O   UNL     1     -13.652 -11.083  -6.998  1.00  0.00    -0.550 OA
ATOM      6  O   UNL     1     -12.084  -9.427  -6.799  1.00  0.00    -0.550 OA
ENDBRANCH   3   4
ENDBRANCH   2   3
ENDBRANCH   1   2
BRANCH   1   7
ATOM      7  C   UNL     1     -17.169  -8.334  -8.439  1.00  0.00     0.000 C 
BRANCH   7   8
ATOM      8  C   UNL     1     -16.850  -8.890  -9.832  1.00  0.00    -0.000 C 
BRANCH   8   9
ATOM      9  C   UNL     1     -17.638 -10.180 -10.103  1.00  0.00    -0.000 C 
BRANCH   9  10
ATOM     10  C   UNL     1     -16.741 -11.328 -10.590  1.00  0.00    -0.003 C 
ATOM     11  C   UNL     1     -15.274 -11.135 -10.206  1.00  0.00     0.004 C 
ENDBRANCH   9  10
ENDBRANCH   8   9
ENDBRANCH   7   8
ENDBRANCH   1   7
TORSDOF 7
ENDMDL
