MODEL 1
REMARK VINA RESULT:    -1.540      0.000      0.000
REMARK INTER + INTRA:          -2.561
REMARK INTER:                  -2.080
REMARK INTRA:                  -0.481
REMARK UNBOUND:                -0.481
REMARK SMILES CCCCCCCC(=O)[O-]
REMARK SMILES IDX 5 1 6 2 7 3 8 4 9 5 10 6 4 7 3 8 2 9 1 10
REMARK H PARENT
REMARK Flexibility Score: inf
ROOT
ATOM      1  C   UNL     1      15.831 -34.564   0.193  1.00  0.00     0.000 C 
ENDROOT
BRANCH   1   2
ATOM      2  C   UNL     1      14.408 -34.842  -0.320  1.00  0.00     0.006 C 
BRANCH   2   3
ATOM      3  C   UNL     1      14.009 -33.895  -1.461  1.00  0.00     0.053 C 
BRANCH   3   4
ATOM      4  C   UNL     1      12.747 -33.150  -1.149  1.00  0.00     0.041 C 
ATOM      5  O   UNL     1      12.043 -33.483  -0.161  1.00  0.00    -0.550 OA
ATOM      6  O   UNL     1      12.329 -32.113  -1.974  1.00  0.00    -0.550 OA
ENDBRANCH   3   4
ENDBRANCH   2   3
ENDBRANCH   1   2
BRANCH   1   7
ATOM      7  C   UNL     1      15.880 -34.339   1.713  1.00  0.00     0.000 C 
BRANCH   7   8
ATOM      8  C   UNL     1      14.555 -33.792   2.272  1.00  0.00    -0.000 C 
BRANCH   8   9
ATOM      9  C   UNL     1      14.547 -32.259   2.376  1.00  0.00    -0.003 C 
ATOM     10  C   UNL     1      15.921 -31.682   2.719  1.00  0.00     0.004 C 
ENDBRANCH   8   9
ENDBRANCH   7   8
ENDBRANCH   1   7
TORSDOF 6
ENDMDL
MODEL 2
REMARK VINA RESULT:    -1.470      2.989      4.483
REMARK INTER + INTRA:          -2.467
REMARK INTER:                  -2.111
REMARK INTRA:                  -0.356
REMARK UNBOUND:                -0.481
REMARK SMILES CCCCCCCC(=O)[O-]
REMARK SMILES IDX 5 1 6 2 7 3 8 4 9 5 10 6 4 7 3 8 2 9 1 10
REMARK H PARENT
REMARK Flexibility Score: inf
ROOT
ATOM      1  C   UNL     1      15.720 -32.417   2.426  1.00  0.00     0.000 C 
ENDROOT
BRANCH   1   2
ATOM      2  C   UNL     1      15.356 -31.047   3.024  1.00  0.00     0.006 C 
BRANCH   2   3
ATOM      3  C   UNL     1      14.048 -30.491   2.444  1.00  0.00     0.053 C 
BRANCH   3   4
ATOM      4  C   UNL     1      14.097 -29.002   2.289  1.00  0.00     0.041 C 
ATOM      5  O   UNL     1      14.472 -28.278   3.248  1.00  0.00    -0.550 OA
ATOM      6  O   UNL     1      13.694 -28.412   1.098  1.00  0.00    -0.550 OA
ENDBRANCH   3   4
ENDBRANCH   2   3
ENDBRANCH   1   2
BRANCH   1   7
ATOM      7  C   UNL     1      14.495 -33.172   1.884  1.00  0.00     0.000 C 
BRANCH   7   8
ATOM      8  C   UNL     1      14.832 -34.042   0.660  1.00  0.00    -0.000 C 
BRANCH   8   9
ATOM      9  C   UNL     1      13.822 -33.865  -0.484  1.00  0.00    -0.003 C 
ATOM     10  C   UNL     1      12.652 -32.957  -0.106  1.00  0.00     0.004 C 
ENDBRANCH   8   9
ENDBRANCH   7   8
ENDBRANCH   1   7
TORSDOF 6
ENDMDL
MODEL 3
REMARK VINA RESULT:    -1.468      1.309      1.904
REMARK INTER + INTRA:          -2.464
REMARK INTER:                  -2.097
REMARK INTRA:                  -0.367
REMARK UNBOUND:                -0.481
REMARK SMILES CCCCCCCC(=O)[O-]
REMARK SMILES IDX 5 1 6 2 7 3 8 4 9 5 10 6 4 7 3 8 2 9 1 10
REMARK H PARENT
REMARK Flexibility Score: inf
ROOT
ATOM      1  C   UNL     1      14.387 -33.744   1.094  1.00  0.00     0.000 C 
ENDROOT
BRANCH   1   2
ATOM      2  C   UNL     1      14.607 -34.691  -0.099  1.00  0.00     0.006 C 
BRANCH   2   3
ATOM      3  C   UNL     1      14.234 -34.034  -1.435  1.00  0.00     0.053 C 
BRANCH   3   4
ATOM      4  C   UNL     1      12.808 -33.574  -1.449  1.00  0.00     0.041 C 
ATOM      5  O   UNL     1      11.875 -34.399  -1.268  1.00  0.00    -0.550 OA
ATOM      6  O   UNL     1      12.510 -32.240  -1.700  1.00  0.00    -0.550 OA
ENDBRANCH   3   4
ENDBRANCH   2   3
ENDBRANCH   1   2
BRANCH   1   7
ATOM      7  C   UNL     1      15.430 -33.939   2.207  1.00  0.00     0.000 C 
BRANCH   7   8
ATOM      8  C   UNL     1      16.367 -32.728   2.358  1.00  0.00    -0.000 C 
BRANCH   8   9
ATOM      9  C   UNL     1      17.850 -33.113   2.244  1.00  0.00    -0.003 C 
ATOM     10  C   UNL     1      18.114 -34.133   1.137  1.00  0.00     0.004 C 
ENDBRANCH   8   9
ENDBRANCH   7   8
ENDBRANCH   1   7
TORSDOF 6
ENDMDL
MODEL 4
REMARK VINA RESULT:    -1.453      2.872      4.354
REMARK INTER + INTRA:          -2.444
REMARK INTER:                  -2.072
REMARK INTRA:                  -0.372
REMARK UNBOUND:                -0.481
REMARK SMILES CCCCCCCC(=O)[O-]
REMARK SMILES IDX 5 1 6 2 7 3 8 4 9 5 10 6 4 7 3 8 2 9 1 10
REMARK H PARENT
REMARK Flexibility Score: inf
ROOT
ATOM      1  C   UNL     1      16.164 -34.399   0.935  1.00  0.00     0.000 C 
ENDROOT
BRANCH   1   2
ATOM      2  C   UNL     1      16.502 -33.362   2.019  1.00  0.00     0.006 C 
BRANCH   2   3
ATOM      3  C   UNL     1      15.285 -32.511   2.406  1.00  0.00     0.053 C 
BRANCH   3   4
ATOM      4  C   UNL     1      15.692 -31.207   3.022  1.00  0.00     0.041 C 
ATOM      5  O   UNL     1      14.959 -30.658   3.885  1.00  0.00    -0.550 OA
ATOM      6  O   UNL     1      16.863 -30.579   2.614  1.00  0.00    -0.550 OA
ENDBRANCH   3   4
ENDBRANCH   2   3
ENDBRANCH   1   2
BRANCH   1   7
ATOM      7  C   UNL     1      14.679 -34.377   0.536  1.00  0.00     0.000 C 
BRANCH   7   8
ATOM      8  C   UNL     1      14.478 -34.274  -0.986  1.00  0.00    -0.000 C 
BRANCH   8   9
ATOM      9  C   UNL     1      13.236 -33.451  -1.362  1.00  0.00    -0.003 C 
ATOM     10  C   UNL     1      12.552 -32.823  -0.147  1.00  0.00     0.004 C 
ENDBRANCH   8   9
ENDBRANCH   7   8
ENDBRANCH   1   7
TORSDOF 6
ENDMDL
MODEL 5
REMARK VINA RESULT:    -1.448      7.830      9.104
REMARK INTER + INTRA:          -2.437
REMARK INTER:                  -1.876
REMARK INTRA:                  -0.561
REMARK UNBOUND:                -0.481
REMARK SMILES CCCCCCCC(=O)[O-]
REMARK SMILES IDX 5 1 6 2 7 3 8 4 9 5 10 6 4 7 3 8 2 9 1 10
REMARK H PARENT
REMARK Flexibility Score: inf
ROOT
ATOM      1  C   UNL     1      21.881 -27.904  -1.174  1.00  0.00     0.000 C 
ENDROOT
BRANCH   1   2
ATOM      2  C   UNL     1      20.861 -29.046  -1.330  1.00  0.00     0.006 C 
BRANCH   2   3
ATOM      3  C   UNL     1      19.768 -28.997  -0.254  1.00  0.00     0.053 C 
BRANCH   3   4
ATOM      4  C   UNL     1      20.152 -29.780   0.964  1.00  0.00     0.041 C 
ATOM      5  O   UNL     1      20.359 -29.191   2.057  1.00  0.00    -0.550 OA
ATOM      6  O   UNL     1      20.317 -31.158   0.882  1.00  0.00    -0.550 OA
ENDBRANCH   3   4
ENDBRANCH   2   3
ENDBRANCH   1   2
BRANCH   1   7
ATOM      7  C   UNL     1      21.447 -26.618  -1.896  1.00  0.00     0.000 C 
BRANCH   7   8
ATOM      8  C   UNL     1      21.025 -25.506  -0.920  1.00  0.00    -0.000 C 
BRANCH   8   9
ATOM      9  C   UNL     1      21.496 -25.775   0.518  1.00  0.00    -0.003 C 
ATOM     10  C   UNL     1      20.361 -25.689   1.538  1.00  0.00     0.004 C 
ENDBRANCH   8   9
ENDBRANCH   7   8
ENDBRANCH   1   7
TORSDOF 6
ENDMDL
MODEL 6
REMARK VINA RESULT:    -1.430      2.490      3.016
REMARK INTER + INTRA:          -2.413
REMARK INTER:                  -2.132
REMARK INTRA:                  -0.281
REMARK UNBOUND:                -0.481
REMARK SMILES CCCCCCCC(=O)[O-]
REMARK SMILES IDX 5 1 6 2 7 3 8 4 9 5 10 6 4 7 3 8 2 9 1 10
REMARK H PARENT
REMARK Flexibility Score: inf
ROOT
ATOM      1  C   UNL     1      17.476 -34.409   0.876  1.00  0.00     0.000 C 
ENDROOT
BRANCH   1   2
ATOM      2  C   UNL     1      16.276 -35.121   0.227  1.00  0.00     0.006 C 
BRANCH   2   3
ATOM      3  C   UNL     1      15.030 -34.226   0.178  1.00  0.00     0.053 C 
BRANCH   3   4
ATOM      4  C   UNL     1      14.409 -34.211  -1.185  1.00  0.00     0.041 C 
ATOM      5  O   UNL     1      14.913 -34.890  -2.118  1.00  0.00    -0.550 OA
ATOM      6  O   UNL     1      13.295 -33.419  -1.435  1.00  0.00    -0.550 OA
ENDBRANCH   3   4
ENDBRANCH   2   3
ENDBRANCH   1   2
BRANCH   1   7
ATOM      7  C   UNL     1      17.079 -33.587   2.113  1.00  0.00     0.000 C 
BRANCH   7   8
ATOM      8  C   UNL     1      18.038 -32.411   2.372  1.00  0.00    -0.000 C 
BRANCH   8   9
ATOM      9  C   UNL     1      19.368 -32.558   1.619  1.00  0.00    -0.003 C 
ATOM     10  C   UNL     1      20.037 -31.215   1.327  1.00  0.00     0.004 C 
ENDBRANCH   8   9
ENDBRANCH   7   8
ENDBRANCH   1   7
TORSDOF 6
ENDMDL
MODEL 7
REMARK VINA RESULT:    -1.416      8.067      9.516
REMARK INTER + INTRA:          -2.394
REMARK INTER:                  -1.859
REMARK INTRA:                  -0.535
REMARK UNBOUND:                -0.481
REMARK SMILES CCCCCCCC(=O)[O-]
REMARK SMILES IDX 5 1 6 2 7 3 8 4 9 5 10 6 4 7 3 8 2 9 1 10
REMARK H PARENT
REMARK Flexibility Score: inf
ROOT
ATOM      1  C   UNL     1      19.893 -29.019   0.164  1.00  0.00     0.000 C 
ENDROOT
BRANCH   1   2
ATOM      2  C   UNL     1      20.758 -29.089   1.435  1.00  0.00     0.006 C 
BRANCH   2   3
ATOM      3  C   UNL     1      21.405 -27.737   1.768  1.00  0.00     0.053 C 
BRANCH   3   4
ATOM      4  C   UNL     1      20.421 -26.787   2.381  1.00  0.00     0.041 C 
ATOM      5  O   UNL     1      20.086 -25.741   1.768  1.00  0.00    -0.550 OA
ATOM      6  O   UNL     1      19.905 -27.040   3.647  1.00  0.00    -0.550 OA
ENDBRANCH   3   4
ENDBRANCH   2   3
ENDBRANCH   1   2
BRANCH   1   7
ATOM      7  C   UNL     1      20.688 -29.332  -1.113  1.00  0.00     0.000 C 
BRANCH   7   8
ATOM      8  C   UNL     1      20.661 -28.172  -2.124  1.00  0.00    -0.000 C 
BRANCH   8   9
ATOM      9  C   UNL     1      21.843 -27.207  -1.946  1.00  0.00    -0.003 C 
ATOM     10  C   UNL     1      21.410 -25.822  -1.465  1.00  0.00     0.004 C 
ENDBRANCH   8   9
ENDBRANCH   7   8
ENDBRANCH   1   7
TORSDOF 6
ENDMDL
MODEL 8
REMARK VINA RESULT:    -1.398      1.462      2.148
REMARK INTER + INTRA:          -2.370
REMARK INTER:                  -2.021
REMARK INTRA:                  -0.349
REMARK UNBOUND:                -0.481
REMARK SMILES CCCCCCCC(=O)[O-]
REMARK SMILES IDX 5 1 6 2 7 3 8 4 9 5 10 6 4 7 3 8 2 9 1 10
REMARK H PARENT
REMARK Flexibility Score: inf
ROOT
ATOM      1  C   UNL     1      17.156 -34.216   1.275  1.00  0.00     0.000 C 
ENDROOT
BRANCH   1   2
ATOM      2  C   UNL     1      16.013 -34.623   0.329  1.00  0.00     0.006 C 
BRANCH   2   3
ATOM      3  C   UNL     1      14.674 -33.993   0.734  1.00  0.00     0.053 C 
BRANCH   3   4
ATOM      4  C   UNL     1      13.787 -33.761  -0.451  1.00  0.00     0.041 C 
ATOM      5  O   UNL     1      12.583 -33.435  -0.287  1.00  0.00    -0.550 OA
ATOM      6  O   UNL     1      14.282 -33.942  -1.737  1.00  0.00    -0.550 OA
ENDBRANCH   3   4
ENDBRANCH   2   3
ENDBRANCH   1   2
BRANCH   1   7
ATOM      7  C   UNL     1      16.708 -33.210   2.348  1.00  0.00     0.000 C 
BRANCH   7   8
ATOM      8  C   UNL     1      17.712 -32.060   2.536  1.00  0.00    -0.000 C 
BRANCH   8   9
ATOM      9  C   UNL     1      17.045 -30.772   3.043  1.00  0.00    -0.003 C 
ATOM     10  C   UNL     1      15.537 -30.750   2.796  1.00  0.00     0.004 C 
ENDBRANCH   8   9
ENDBRANCH   7   8
ENDBRANCH   1   7
TORSDOF 6
ENDMDL
MODEL 9
REMARK VINA RESULT:    -1.371      8.382      9.610
REMARK INTER + INTRA:          -2.333
REMARK INTER:                  -1.819
REMARK INTRA:                  -0.514
REMARK UNBOUND:                -0.481
REMARK SMILES CCCCCCCC(=O)[O-]
REMARK SMILES IDX 5 1 6 2 7 3 8 4 9 5 10 6 4 7 3 8 2 9 1 10
REMARK H PARENT
REMARK Flexibility Score: inf
ROOT
ATOM      1  C   UNL     1      20.544 -29.027  -1.656  1.00  0.00     0.000 C 
ENDROOT
BRANCH   1   2
ATOM      2  C   UNL     1      21.054 -27.654  -2.125  1.00  0.00     0.006 C 
BRANCH   2   3
ATOM      3  C   UNL     1      21.625 -26.823  -0.967  1.00  0.00     0.053 C 
BRANCH   3   4
ATOM      4  C   UNL     1      23.027 -27.230  -0.630  1.00  0.00     0.041 C 
ATOM      5  O   UNL     1      23.954 -27.058  -1.463  1.00  0.00    -0.550 OA
ATOM      6  O   UNL     1      23.302 -27.832   0.592  1.00  0.00    -0.550 OA
ENDBRANCH   3   4
ENDBRANCH   2   3
ENDBRANCH   1   2
BRANCH   1   7
ATOM      7  C   UNL     1      19.822 -28.961  -0.301  1.00  0.00     0.000 C 
BRANCH   7   8
ATOM      8  C   UNL     1      20.326 -30.026   0.690  1.00  0.00    -0.000 C 
BRANCH   8   9
ATOM      9  C   UNL     1      21.470 -30.873   0.111  1.00  0.00    -0.003 C 
ATOM     10  C   UNL     1      21.402 -32.336   0.547  1.00  0.00     0.004 C 
ENDBRANCH   8   9
ENDBRANCH   7   8
ENDBRANCH   1   7
TORSDOF 6
ENDMDL
