MODEL 1
REMARK VINA RESULT:    -7.071      0.000      0.000
REMARK INTER + INTRA:          -8.840
REMARK INTER:                  -8.517
REMARK INTRA:                  -0.322
REMARK UNBOUND:                -0.322
REMARK SMILES Oc1cc(O)c2cc(O)c(-c3ccc(O)c(O)c3)[o+]c2c1
REMARK SMILES IDX 10 1 19 2 20 3 21 4 2 5 3 6 4 7 6 8 7 9 8 10 11 11 12 12
REMARK SMILES IDX 13 13 14 14 18 15 16 16 15 17 17 19 9 21 1 23 5 25
REMARK H PARENT 15 18 17 20 9 22 1 24 5 26
REMARK Flexibility Score: inf
ROOT
ATOM      1  C   UNL     1       4.642  -0.534 -22.605  1.00  0.00     0.402 A 
ATOM      2  O   UNL     1       3.934   0.158 -23.495  1.00  0.00    -0.202 OA
ATOM      3  C   UNL     1       4.093   1.461 -23.700  1.00  0.00     0.368 A 
ATOM      4  C   UNL     1       3.303   2.099 -24.660  1.00  0.00     0.162 A 
ATOM      5  C   UNL     1       3.450   3.466 -24.898  1.00  0.00     0.128 A 
ATOM      6  C   UNL     1       4.394   4.202 -24.173  1.00  0.00     0.093 A 
ATOM      7  C   UNL     1       5.197   3.586 -23.206  1.00  0.00     0.136 A 
ATOM      8  C   UNL     1       5.049   2.196 -22.959  1.00  0.00     0.125 A 
ATOM      9  C   UNL     1       5.801   1.498 -22.001  1.00  0.00     0.078 A 
ATOM     10  C   UNL     1       5.596   0.128 -21.810  1.00  0.00     0.223 A 
ENDROOT
BRANCH   1  11
ATOM     11  C   UNL     1       4.380  -1.985 -22.477  1.00  0.00     0.087 A 
ATOM     12  C   UNL     1       4.914  -2.910 -23.391  1.00  0.00     0.022 A 
ATOM     13  C   UNL     1       4.634  -4.272 -23.262  1.00  0.00     0.051 A 
ATOM     14  C   UNL     1       3.806  -4.730 -22.228  1.00  0.00     0.157 A 
ATOM     15  C   UNL     1       3.534  -2.447 -21.454  1.00  0.00     0.068 A 
ATOM     16  C   UNL     1       3.252  -3.812 -21.323  1.00  0.00     0.158 A 
BRANCH  14  17
ATOM     17  O   UNL     1       3.529  -6.091 -22.102  1.00  0.00    -0.504 OA
ATOM     18  H   UNL     1       2.939  -6.576 -22.768  1.00  0.00     0.293 HD
ENDBRANCH  14  17
BRANCH  16  19
ATOM     19  O   UNL     1       2.419  -4.232 -20.287  1.00  0.00    -0.504 OA
ATOM     20  H   UNL     1       1.974  -5.143 -20.291  1.00  0.00     0.293 HD
ENDBRANCH  16  19
ENDBRANCH   1  11
BRANCH  10  21
ATOM     21  O   UNL     1       6.307  -0.555 -20.824  1.00  0.00    -0.500 OA
ATOM     22  H   UNL     1       6.785  -1.428 -21.020  1.00  0.00     0.294 HD
ENDBRANCH  10  21
BRANCH   5  23
ATOM     23  O   UNL     1       2.653   4.084 -25.859  1.00  0.00    -0.507 OA
ATOM     24  H   UNL     1       2.321   3.582 -26.674  1.00  0.00     0.293 HD
ENDBRANCH   5  23
BRANCH   7  25
ATOM     25  O   UNL     1       6.119   4.390 -22.528  1.00  0.00    -0.507 OA
ATOM     26  H   UNL     1       7.121   4.324 -22.635  1.00  0.00     0.293 HD
ENDBRANCH   7  25
TORSDOF 6
ENDMDL
MODEL 2
REMARK VINA RESULT:    -6.880      1.338      7.047
REMARK INTER + INTRA:          -8.609
REMARK INTER:                  -8.291
REMARK INTRA:                  -0.318
REMARK UNBOUND:                -0.322
REMARK SMILES Oc1cc(O)c2cc(O)c(-c3ccc(O)c(O)c3)[o+]c2c1
REMARK SMILES IDX 10 1 19 2 20 3 21 4 2 5 3 6 4 7 6 8 7 9 8 10 11 11 12 12
REMARK SMILES IDX 13 13 14 14 18 15 16 16 15 17 17 19 9 21 1 23 5 25
REMARK H PARENT 15 18 17 20 9 22 1 24 5 26
REMARK Flexibility Score: inf
ROOT
ATOM      1  C   UNL     1       4.574   0.093 -22.961  1.00  0.00     0.402 A 
ATOM      2  O   UNL     1       3.890  -0.613 -22.063  1.00  0.00    -0.202 OA
ATOM      3  C   UNL     1       3.793  -1.937 -22.098  1.00  0.00     0.368 A 
ATOM      4  C   UNL     1       3.053  -2.591 -21.108  1.00  0.00     0.162 A 
ATOM      5  C   UNL     1       2.936  -3.981 -21.118  1.00  0.00     0.128 A 
ATOM      6  C   UNL     1       3.563  -4.726 -22.123  1.00  0.00     0.093 A 
ATOM      7  C   UNL     1       4.309  -4.096 -23.125  1.00  0.00     0.136 A 
ATOM      8  C   UNL     1       4.429  -2.681 -23.120  1.00  0.00     0.125 A 
ATOM      9  C   UNL     1       5.145  -1.964 -24.092  1.00  0.00     0.078 A 
ATOM     10  C   UNL     1       5.215  -0.569 -24.024  1.00  0.00     0.223 A 
ENDROOT
BRANCH   1  11
ATOM     11  C   UNL     1       4.617   1.565 -22.808  1.00  0.00     0.087 A 
ATOM     12  C   UNL     1       5.474   2.182 -21.881  1.00  0.00     0.022 A 
ATOM     13  C   UNL     1       5.480   3.571 -21.740  1.00  0.00     0.051 A 
ATOM     14  C   UNL     1       4.622   4.365 -22.512  1.00  0.00     0.157 A 
ATOM     15  C   UNL     1       3.742   2.363 -23.565  1.00  0.00     0.068 A 
ATOM     16  C   UNL     1       3.747   3.756 -23.426  1.00  0.00     0.158 A 
BRANCH  14  17
ATOM     17  O   UNL     1       4.631   5.751 -22.369  1.00  0.00    -0.504 OA
ATOM     18  H   UNL     1       3.847   6.321 -22.667  1.00  0.00     0.293 HD
ENDBRANCH  14  17
BRANCH  16  19
ATOM     19  O   UNL     1       2.874   4.516 -24.204  1.00  0.00    -0.504 OA
ATOM     20  H   UNL     1       2.194   4.089 -24.823  1.00  0.00     0.293 HD
ENDBRANCH  16  19
ENDBRANCH   1  11
BRANCH  10  21
ATOM     21  O   UNL     1       5.884   0.147 -25.016  1.00  0.00    -0.500 OA
ATOM     22  H   UNL     1       6.428   0.975 -24.801  1.00  0.00     0.294 HD
ENDBRANCH  10  21
BRANCH   5  23
ATOM     23  O   UNL     1       2.194  -4.614 -20.122  1.00  0.00    -0.507 OA
ATOM     24  H   UNL     1       1.182  -4.652 -20.160  1.00  0.00     0.293 HD
ENDBRANCH   5  23
BRANCH   7  25
ATOM     25  O   UNL     1       4.908  -4.911 -24.091  1.00  0.00    -0.507 OA
ATOM     26  H   UNL     1       5.855  -5.258 -24.037  1.00  0.00     0.293 HD
ENDBRANCH   7  25
TORSDOF 6
ENDMDL
MODEL 3
REMARK VINA RESULT:    -6.813      4.758     10.032
REMARK INTER + INTRA:          -8.529
REMARK INTER:                  -8.187
REMARK INTRA:                  -0.342
REMARK UNBOUND:                -0.322
REMARK SMILES Oc1cc(O)c2cc(O)c(-c3ccc(O)c(O)c3)[o+]c2c1
REMARK SMILES IDX 10 1 19 2 20 3 21 4 2 5 3 6 4 7 6 8 7 9 8 10 11 11 12 12
REMARK SMILES IDX 13 13 14 14 18 15 16 16 15 17 17 19 9 21 1 23 5 25
REMARK H PARENT 15 18 17 20 9 22 1 24 5 26
REMARK Flexibility Score: inf
ROOT
ATOM      1  C   UNL     1       4.588   7.516 -23.000  1.00  0.00     0.402 A 
ATOM      2  O   UNL     1       4.438   6.719 -24.056  1.00  0.00    -0.202 OA
ATOM      3  C   UNL     1       4.193   5.417 -23.957  1.00  0.00     0.368 A 
ATOM      4  C   UNL     1       4.048   4.662 -25.124  1.00  0.00     0.162 A 
ATOM      5  C   UNL     1       3.787   3.293 -25.051  1.00  0.00     0.128 A 
ATOM      6  C   UNL     1       3.668   2.672 -23.802  1.00  0.00     0.093 A 
ATOM      7  C   UNL     1       3.808   3.406 -22.619  1.00  0.00     0.136 A 
ATOM      8  C   UNL     1       4.077   4.799 -22.689  1.00  0.00     0.125 A 
ATOM      9  C   UNL     1       4.245   5.610 -21.556  1.00  0.00     0.078 A 
ATOM     10  C   UNL     1       4.512   6.974 -21.704  1.00  0.00     0.223 A 
ENDROOT
BRANCH   1  11
ATOM     11  C   UNL     1       4.848   8.954 -23.240  1.00  0.00     0.087 A 
ATOM     12  C   UNL     1       6.151   9.439 -23.446  1.00  0.00     0.022 A 
ATOM     13  C   UNL     1       6.373  10.803 -23.648  1.00  0.00     0.051 A 
ATOM     14  C   UNL     1       5.301  11.704 -23.634  1.00  0.00     0.157 A 
ATOM     15  C   UNL     1       3.778   9.864 -23.206  1.00  0.00     0.068 A 
ATOM     16  C   UNL     1       3.998  11.232 -23.408  1.00  0.00     0.158 A 
BRANCH  14  17
ATOM     17  O   UNL     1       5.526  13.065 -23.836  1.00  0.00    -0.504 OA
ATOM     18  H   UNL     1       6.462  13.454 -23.838  1.00  0.00     0.293 HD
ENDBRANCH  14  17
BRANCH  16  19
ATOM     19  O   UNL     1       2.909  12.103 -23.381  1.00  0.00    -0.504 OA
ATOM     20  H   UNL     1       2.037  11.889 -23.852  1.00  0.00     0.293 HD
ENDBRANCH  16  19
ENDBRANCH   1  11
BRANCH  10  21
ATOM     21  O   UNL     1       4.730   7.771 -20.580  1.00  0.00    -0.500 OA
ATOM     22  H   UNL     1       4.136   7.709 -19.760  1.00  0.00     0.294 HD
ENDBRANCH  10  21
BRANCH   5  23
ATOM     23  O   UNL     1       3.646   2.558 -26.226  1.00  0.00    -0.507 OA
ATOM     24  H   UNL     1       4.042   1.630 -26.321  1.00  0.00     0.293 HD
ENDBRANCH   5  23
BRANCH   7  25
ATOM     25  O   UNL     1       3.672   2.713 -21.412  1.00  0.00    -0.507 OA
ATOM     26  H   UNL     1       3.992   1.768 -21.257  1.00  0.00     0.293 HD
ENDBRANCH   7  25
TORSDOF 6
ENDMDL
MODEL 4
REMARK VINA RESULT:    -6.774      1.027      2.615
REMARK INTER + INTRA:          -8.483
REMARK INTER:                  -8.272
REMARK INTRA:                  -0.211
REMARK UNBOUND:                -0.322
REMARK SMILES Oc1cc(O)c2cc(O)c(-c3ccc(O)c(O)c3)[o+]c2c1
REMARK SMILES IDX 10 1 19 2 20 3 21 4 2 5 3 6 4 7 6 8 7 9 8 10 11 11 12 12
REMARK SMILES IDX 13 13 14 14 18 15 16 16 15 17 17 19 9 21 1 23 5 25
REMARK H PARENT 15 18 17 20 9 22 1 24 5 26
REMARK Flexibility Score: inf
ROOT
ATOM      1  C   UNL     1       3.905  -0.661 -23.438  1.00  0.00     0.402 A 
ATOM      2  O   UNL     1       4.607   0.192 -22.697  1.00  0.00    -0.202 OA
ATOM      3  C   UNL     1       4.693   1.490 -22.963  1.00  0.00     0.368 A 
ATOM      4  C   UNL     1       5.454   2.308 -22.123  1.00  0.00     0.162 A 
ATOM      5  C   UNL     1       5.559   3.676 -22.377  1.00  0.00     0.128 A 
ATOM      6  C   UNL     1       4.898   4.234 -23.478  1.00  0.00     0.093 A 
ATOM      7  C   UNL     1       4.130   3.437 -24.334  1.00  0.00     0.136 A 
ATOM      8  C   UNL     1       4.022   2.043 -24.081  1.00  0.00     0.125 A 
ATOM      9  C   UNL     1       3.285   1.166 -24.892  1.00  0.00     0.078 A 
ATOM     10  C   UNL     1       3.229  -0.196 -24.582  1.00  0.00     0.223 A 
ENDROOT
BRANCH   1  11
ATOM     11  C   UNL     1       3.878  -2.085 -23.032  1.00  0.00     0.087 A 
ATOM     12  C   UNL     1       4.471  -3.084 -23.823  1.00  0.00     0.022 A 
ATOM     13  C   UNL     1       4.414  -4.423 -23.430  1.00  0.00     0.051 A 
ATOM     14  C   UNL     1       3.752  -4.787 -22.250  1.00  0.00     0.157 A 
ATOM     15  C   UNL     1       3.198  -2.456 -21.860  1.00  0.00     0.068 A 
ATOM     16  C   UNL     1       3.139  -3.798 -21.464  1.00  0.00     0.158 A 
BRANCH  14  17
ATOM     17  O   UNL     1       3.697  -6.124 -21.860  1.00  0.00    -0.504 OA
ATOM     18  H   UNL     1       2.935  -6.481 -21.295  1.00  0.00     0.293 HD
ENDBRANCH  14  17
BRANCH  16  19
ATOM     19  O   UNL     1       2.466  -4.126 -20.288  1.00  0.00    -0.504 OA
ATOM     20  H   UNL     1       2.205  -5.080 -20.064  1.00  0.00     0.293 HD
ENDBRANCH  16  19
ENDBRANCH   1  11
BRANCH  10  21
ATOM     21  O   UNL     1       2.539  -1.076 -25.415  1.00  0.00    -0.500 OA
ATOM     22  H   UNL     1       1.539  -1.221 -25.326  1.00  0.00     0.294 HD
ENDBRANCH  10  21
BRANCH   5  23
ATOM     23  O   UNL     1       6.323   4.474 -21.528  1.00  0.00    -0.507 OA
ATOM     24  H   UNL     1       6.453   5.463 -21.706  1.00  0.00     0.293 HD
ENDBRANCH   5  23
BRANCH   7  25
ATOM     25  O   UNL     1       3.498   4.069 -25.408  1.00  0.00    -0.507 OA
ATOM     26  H   UNL     1       3.749   3.935 -26.377  1.00  0.00     0.293 HD
ENDBRANCH   7  25
TORSDOF 6
ENDMDL
MODEL 5
REMARK VINA RESULT:    -6.745      6.428     11.471
REMARK INTER + INTRA:          -8.447
REMARK INTER:                  -8.242
REMARK INTRA:                  -0.205
REMARK UNBOUND:                -0.322
REMARK SMILES Oc1cc(O)c2cc(O)c(-c3ccc(O)c(O)c3)[o+]c2c1
REMARK SMILES IDX 10 1 19 2 20 3 21 4 2 5 3 6 4 7 6 8 7 9 8 10 11 11 12 12
REMARK SMILES IDX 13 13 14 14 18 15 16 16 15 17 17 19 9 21 1 23 5 25
REMARK H PARENT 15 18 17 20 9 22 1 24 5 26
REMARK Flexibility Score: inf
ROOT
ATOM      1  C   UNL     1       5.733   9.231 -24.010  1.00  0.00     0.402 A 
ATOM      2  O   UNL     1       4.739   8.580 -24.610  1.00  0.00    -0.202 OA
ATOM      3  C   UNL     1       4.230   7.442 -24.150  1.00  0.00     0.368 A 
ATOM      4  C   UNL     1       3.184   6.834 -24.849  1.00  0.00     0.162 A 
ATOM      5  C   UNL     1       2.629   5.640 -24.388  1.00  0.00     0.128 A 
ATOM      6  C   UNL     1       3.120   5.048 -23.219  1.00  0.00     0.093 A 
ATOM      7  C   UNL     1       4.167   5.637 -22.501  1.00  0.00     0.136 A 
ATOM      8  C   UNL     1       4.737   6.851 -22.968  1.00  0.00     0.125 A 
ATOM      9  C   UNL     1       5.797   7.505 -22.320  1.00  0.00     0.078 A 
ATOM     10  C   UNL     1       6.310   8.697 -22.843  1.00  0.00     0.223 A 
ENDROOT
BRANCH   1  11
ATOM     11  C   UNL     1       6.206  10.497 -24.615  1.00  0.00     0.087 A 
ATOM     12  C   UNL     1       6.855  10.516 -25.861  1.00  0.00     0.022 A 
ATOM     13  C   UNL     1       7.313  11.721 -26.400  1.00  0.00     0.051 A 
ATOM     14  C   UNL     1       7.143  12.921 -25.698  1.00  0.00     0.157 A 
ATOM     15  C   UNL     1       6.057  11.700 -23.904  1.00  0.00     0.068 A 
ATOM     16  C   UNL     1       6.514  12.909 -24.442  1.00  0.00     0.158 A 
BRANCH  14  17
ATOM     17  O   UNL     1       7.600  14.121 -26.239  1.00  0.00    -0.504 OA
ATOM     18  H   UNL     1       8.264  14.140 -27.005  1.00  0.00     0.293 HD
ENDBRANCH  14  17
BRANCH  16  19
ATOM     19  O   UNL     1       6.335  14.084 -23.714  1.00  0.00    -0.504 OA
ATOM     20  H   UNL     1       5.544  14.218 -23.094  1.00  0.00     0.293 HD
ENDBRANCH  16  19
ENDBRANCH   1  11
BRANCH  10  21
ATOM     21  O   UNL     1       7.395   9.320 -22.229  1.00  0.00    -0.500 OA
ATOM     22  H   UNL     1       7.275   9.942 -21.437  1.00  0.00     0.294 HD
ENDBRANCH  10  21
BRANCH   5  23
ATOM     23  O   UNL     1       1.586   5.049 -25.099  1.00  0.00    -0.507 OA
ATOM     24  H   UNL     1       1.287   4.100 -24.908  1.00  0.00     0.293 HD
ENDBRANCH   5  23
BRANCH   7  25
ATOM     25  O   UNL     1       4.599   4.986 -21.342  1.00  0.00    -0.507 OA
ATOM     26  H   UNL     1       3.990   4.697 -20.589  1.00  0.00     0.293 HD
ENDBRANCH   7  25
TORSDOF 6
ENDMDL
MODEL 6
REMARK VINA RESULT:    -6.563      4.585     10.261
REMARK INTER + INTRA:          -8.228
REMARK INTER:                  -7.876
REMARK INTRA:                  -0.352
REMARK UNBOUND:                -0.322
REMARK SMILES Oc1cc(O)c2cc(O)c(-c3ccc(O)c(O)c3)[o+]c2c1
REMARK SMILES IDX 10 1 19 2 20 3 21 4 2 5 3 6 4 7 6 8 7 9 8 10 11 11 12 12
REMARK SMILES IDX 13 13 14 14 18 15 16 16 15 17 17 19 9 21 1 23 5 25
REMARK H PARENT 15 18 17 20 9 22 1 24 5 26
REMARK Flexibility Score: inf
ROOT
ATOM      1  C   UNL     1       4.566   7.425 -24.197  1.00  0.00     0.402 A 
ATOM      2  O   UNL     1       4.728   6.637 -23.137  1.00  0.00    -0.202 OA
ATOM      3  C   UNL     1       4.485   5.331 -23.156  1.00  0.00     0.368 A 
ATOM      4  C   UNL     1       4.689   4.584 -21.992  1.00  0.00     0.162 A 
ATOM      5  C   UNL     1       4.444   3.211 -21.984  1.00  0.00     0.128 A 
ATOM      6  C   UNL     1       3.995   2.576 -23.147  1.00  0.00     0.093 A 
ATOM      7  C   UNL     1       3.784   3.300 -24.325  1.00  0.00     0.136 A 
ATOM      8  C   UNL     1       4.028   4.699 -24.337  1.00  0.00     0.125 A 
ATOM      9  C   UNL     1       3.832   5.507 -25.469  1.00  0.00     0.078 A 
ATOM     10  C   UNL     1       4.090   6.880 -25.403  1.00  0.00     0.223 A 
ENDROOT
BRANCH   1  11
ATOM     11  C   UNL     1       4.880   8.865 -24.053  1.00  0.00     0.087 A 
ATOM     12  C   UNL     1       6.173   9.361 -24.295  1.00  0.00     0.022 A 
ATOM     13  C   UNL     1       6.450  10.720 -24.131  1.00  0.00     0.051 A 
ATOM     14  C   UNL     1       5.447  11.602 -23.709  1.00  0.00     0.157 A 
ATOM     15  C   UNL     1       3.882   9.750 -23.610  1.00  0.00     0.068 A 
ATOM     16  C   UNL     1       4.158  11.112 -23.445  1.00  0.00     0.158 A 
BRANCH  14  17
ATOM     17  O   UNL     1       5.727  12.957 -23.547  1.00  0.00    -0.504 OA
ATOM     18  H   UNL     1       6.678  13.295 -23.451  1.00  0.00     0.293 HD
ENDBRANCH  14  17
BRANCH  16  19
ATOM     19  O   UNL     1       3.138  11.961 -23.017  1.00  0.00    -0.504 OA
ATOM     20  H   UNL     1       2.848  12.008 -22.047  1.00  0.00     0.293 HD
ENDBRANCH  16  19
ENDBRANCH   1  11
BRANCH  10  21
ATOM     21  O   UNL     1       3.847   7.691 -26.511  1.00  0.00    -0.500 OA
ATOM     22  H   UNL     1       2.910   7.830 -26.875  1.00  0.00     0.294 HD
ENDBRANCH  10  21
BRANCH   5  23
ATOM     23  O   UNL     1       4.653   2.485 -20.813  1.00  0.00    -0.507 OA
ATOM     24  H   UNL     1       4.355   1.520 -20.728  1.00  0.00     0.293 HD
ENDBRANCH   5  23
BRANCH   7  25
ATOM     25  O   UNL     1       3.337   2.593 -25.445  1.00  0.00    -0.507 OA
ATOM     26  H   UNL     1       3.718   2.696 -26.375  1.00  0.00     0.293 HD
ENDBRANCH   7  25
TORSDOF 6
ENDMDL
MODEL 7
REMARK VINA RESULT:    -6.537      2.056      6.764
REMARK INTER + INTRA:          -8.196
REMARK INTER:                  -7.895
REMARK INTRA:                  -0.302
REMARK UNBOUND:                -0.322
REMARK SMILES Oc1cc(O)c2cc(O)c(-c3ccc(O)c(O)c3)[o+]c2c1
REMARK SMILES IDX 10 1 19 2 20 3 21 4 2 5 3 6 4 7 6 8 7 9 8 10 11 11 12 12
REMARK SMILES IDX 13 13 14 14 18 15 16 16 15 17 17 19 9 21 1 23 5 25
REMARK H PARENT 15 18 17 20 9 22 1 24 5 26
REMARK Flexibility Score: inf
ROOT
ATOM      1  C   UNL     1       4.803   1.010 -22.774  1.00  0.00     0.402 A 
ATOM      2  O   UNL     1       5.007   0.481 -23.979  1.00  0.00    -0.202 OA
ATOM      3  C   UNL     1       4.902  -0.819 -24.230  1.00  0.00     0.368 A 
ATOM      4  C   UNL     1       5.133  -1.281 -25.529  1.00  0.00     0.162 A 
ATOM      5  C   UNL     1       5.028  -2.641 -25.824  1.00  0.00     0.128 A 
ATOM      6  C   UNL     1       4.688  -3.548 -24.814  1.00  0.00     0.093 A 
ATOM      7  C   UNL     1       4.452  -3.111 -23.505  1.00  0.00     0.136 A 
ATOM      8  C   UNL     1       4.561  -1.729 -23.201  1.00  0.00     0.125 A 
ATOM      9  C   UNL     1       4.355  -1.203 -21.915  1.00  0.00     0.078 A 
ATOM     10  C   UNL     1       4.484   0.171 -21.691  1.00  0.00     0.223 A 
ENDROOT
BRANCH   1  11
ATOM     11  C   UNL     1       4.939   2.477 -22.622  1.00  0.00     0.087 A 
ATOM     12  C   UNL     1       6.082   3.051 -22.039  1.00  0.00     0.022 A 
ATOM     13  C   UNL     1       6.177   4.435 -21.886  1.00  0.00     0.051 A 
ATOM     14  C   UNL     1       5.128   5.267 -22.299  1.00  0.00     0.157 A 
ATOM     15  C   UNL     1       3.880   3.313 -23.015  1.00  0.00     0.068 A 
ATOM     16  C   UNL     1       3.973   4.702 -22.863  1.00  0.00     0.158 A 
BRANCH  14  17
ATOM     17  O   UNL     1       5.226   6.649 -22.145  1.00  0.00    -0.504 OA
ATOM     18  H   UNL     1       4.690   7.144 -21.442  1.00  0.00     0.293 HD
ENDBRANCH  14  17
BRANCH  16  19
ATOM     19  O   UNL     1       2.908   5.499 -23.278  1.00  0.00    -0.504 OA
ATOM     20  H   UNL     1       3.050   6.389 -23.744  1.00  0.00     0.293 HD
ENDBRANCH  16  19
ENDBRANCH   1  11
BRANCH  10  21
ATOM     21  O   UNL     1       4.329   0.687 -20.404  1.00  0.00    -0.500 OA
ATOM     22  H   UNL     1       4.503   1.665 -20.198  1.00  0.00     0.294 HD
ENDBRANCH  10  21
BRANCH   5  23
ATOM     23  O   UNL     1       5.262  -3.080 -27.125  1.00  0.00    -0.507 OA
ATOM     24  H   UNL     1       6.125  -2.864 -27.609  1.00  0.00     0.293 HD
ENDBRANCH   5  23
BRANCH   7  25
ATOM     25  O   UNL     1       4.115  -4.079 -22.555  1.00  0.00    -0.507 OA
ATOM     26  H   UNL     1       3.859  -3.876 -21.599  1.00  0.00     0.293 HD
ENDBRANCH   7  25
TORSDOF 6
ENDMDL
MODEL 8
REMARK VINA RESULT:    -6.447      4.790      8.041
REMARK INTER + INTRA:          -8.088
REMARK INTER:                  -7.863
REMARK INTRA:                  -0.224
REMARK UNBOUND:                -0.322
REMARK SMILES Oc1cc(O)c2cc(O)c(-c3ccc(O)c(O)c3)[o+]c2c1
REMARK SMILES IDX 10 1 19 2 20 3 21 4 2 5 3 6 4 7 6 8 7 9 8 10 11 11 12 12
REMARK SMILES IDX 13 13 14 14 18 15 16 16 15 17 17 19 9 21 1 23 5 25
REMARK H PARENT 15 18 17 20 9 22 1 24 5 26
REMARK Flexibility Score: inf
ROOT
ATOM      1  C   UNL     1       4.701   6.975 -23.094  1.00  0.00     0.402 A 
ATOM      2  O   UNL     1       5.789   7.742 -23.098  1.00  0.00    -0.202 OA
ATOM      3  C   UNL     1       5.753   9.058 -23.273  1.00  0.00     0.368 A 
ATOM      4  C   UNL     1       6.950   9.779 -23.258  1.00  0.00     0.162 A 
ATOM      5  C   UNL     1       6.942  11.163 -23.437  1.00  0.00     0.128 A 
ATOM      6  C   UNL     1       5.729  11.833 -23.632  1.00  0.00     0.093 A 
ATOM      7  C   UNL     1       4.517  11.135 -23.650  1.00  0.00     0.136 A 
ATOM      8  C   UNL     1       4.521   9.726 -23.471  1.00  0.00     0.125 A 
ATOM      9  C   UNL     1       3.356   8.943 -23.488  1.00  0.00     0.078 A 
ATOM     10  C   UNL     1       3.439   7.559 -23.309  1.00  0.00     0.223 A 
ENDROOT
BRANCH   1  11
ATOM     11  C   UNL     1       4.870   5.520 -22.877  1.00  0.00     0.087 A 
ATOM     12  C   UNL     1       5.303   5.008 -21.642  1.00  0.00     0.022 A 
ATOM     13  C   UNL     1       5.476   3.633 -21.469  1.00  0.00     0.051 A 
ATOM     14  C   UNL     1       5.235   2.750 -22.529  1.00  0.00     0.157 A 
ATOM     15  C   UNL     1       4.650   4.633 -23.944  1.00  0.00     0.068 A 
ATOM     16  C   UNL     1       4.823   3.254 -23.774  1.00  0.00     0.158 A 
BRANCH  14  17
ATOM     17  O   UNL     1       5.409   1.379 -22.353  1.00  0.00    -0.504 OA
ATOM     18  H   UNL     1       4.624   0.738 -22.369  1.00  0.00     0.293 HD
ENDBRANCH  14  17
BRANCH  16  19
ATOM     19  O   UNL     1       4.582   2.404 -24.852  1.00  0.00    -0.504 OA
ATOM     20  H   UNL     1       3.647   2.095 -25.095  1.00  0.00     0.293 HD
ENDBRANCH  16  19
ENDBRANCH   1  11
BRANCH  10  21
ATOM     21  O   UNL     1       2.288   6.774 -23.376  1.00  0.00    -0.500 OA
ATOM     22  H   UNL     1       2.028   6.281 -24.224  1.00  0.00     0.294 HD
ENDBRANCH  10  21
BRANCH   5  23
ATOM     23  O   UNL     1       8.147  11.863 -23.420  1.00  0.00    -0.507 OA
ATOM     24  H   UNL     1       8.315  12.611 -22.756  1.00  0.00     0.293 HD
ENDBRANCH   5  23
BRANCH   7  25
ATOM     25  O   UNL     1       3.349  11.877 -23.846  1.00  0.00    -0.507 OA
ATOM     26  H   UNL     1       3.117  12.361 -24.701  1.00  0.00     0.293 HD
ENDBRANCH   7  25
TORSDOF 6
ENDMDL
MODEL 9
REMARK VINA RESULT:    -6.413      4.693     10.530
REMARK INTER + INTRA:          -8.047
REMARK INTER:                  -7.782
REMARK INTRA:                  -0.265
REMARK UNBOUND:                -0.322
REMARK SMILES Oc1cc(O)c2cc(O)c(-c3ccc(O)c(O)c3)[o+]c2c1
REMARK SMILES IDX 10 1 19 2 20 3 21 4 2 5 3 6 4 7 6 8 7 9 8 10 11 11 12 12
REMARK SMILES IDX 13 13 14 14 18 15 16 16 15 17 17 19 9 21 1 23 5 25
REMARK H PARENT 15 18 17 20 9 22 1 24 5 26
REMARK Flexibility Score: inf
ROOT
ATOM      1  C   UNL     1       4.531   7.671 -24.169  1.00  0.00     0.402 A 
ATOM      2  O   UNL     1       4.727   6.865 -23.128  1.00  0.00    -0.202 OA
ATOM      3  C   UNL     1       4.464   5.563 -23.156  1.00  0.00     0.368 A 
ATOM      4  C   UNL     1       4.705   4.797 -22.012  1.00  0.00     0.162 A 
ATOM      5  C   UNL     1       4.441   3.426 -22.013  1.00  0.00     0.128 A 
ATOM      6  C   UNL     1       3.933   2.815 -23.165  1.00  0.00     0.093 A 
ATOM      7  C   UNL     1       3.684   3.560 -24.323  1.00  0.00     0.136 A 
ATOM      8  C   UNL     1       3.948   4.955 -24.325  1.00  0.00     0.125 A 
ATOM      9  C   UNL     1       3.716   5.783 -25.436  1.00  0.00     0.078 A 
ATOM     10  C   UNL     1       3.997   7.150 -25.362  1.00  0.00     0.223 A 
ENDROOT
BRANCH   1  11
ATOM     11  C   UNL     1       4.873   9.104 -24.018  1.00  0.00     0.087 A 
ATOM     12  C   UNL     1       4.079   9.970 -23.247  1.00  0.00     0.022 A 
ATOM     13  C   UNL     1       4.410  11.322 -23.138  1.00  0.00     0.051 A 
ATOM     14  C   UNL     1       5.528  11.834 -23.809  1.00  0.00     0.157 A 
ATOM     15  C   UNL     1       5.982   9.626 -24.706  1.00  0.00     0.068 A 
ATOM     16  C   UNL     1       6.315  10.981 -24.599  1.00  0.00     0.158 A 
BRANCH  14  17
ATOM     17  O   UNL     1       5.856  13.184 -23.698  1.00  0.00    -0.504 OA
ATOM     18  H   UNL     1       5.174  13.873 -23.399  1.00  0.00     0.293 HD
ENDBRANCH  14  17
BRANCH  16  19
ATOM     19  O   UNL     1       7.431  11.459 -25.285  1.00  0.00    -0.504 OA
ATOM     20  H   UNL     1       7.758  12.413 -25.183  1.00  0.00     0.293 HD
ENDBRANCH  16  19
ENDBRANCH   1  11
BRANCH  10  21
ATOM     21  O   UNL     1       3.720   7.981 -26.447  1.00  0.00    -0.500 OA
ATOM     22  H   UNL     1       4.459   8.424 -26.982  1.00  0.00     0.294 HD
ENDBRANCH  10  21
BRANCH   5  23
ATOM     23  O   UNL     1       4.688   2.680 -20.862  1.00  0.00    -0.507 OA
ATOM     24  H   UNL     1       4.664   1.667 -20.873  1.00  0.00     0.293 HD
ENDBRANCH   5  23
BRANCH   7  25
ATOM     25  O   UNL     1       3.180   2.875 -25.432  1.00  0.00    -0.507 OA
ATOM     26  H   UNL     1       3.505   1.970 -25.740  1.00  0.00     0.293 HD
ENDBRANCH   7  25
TORSDOF 6
ENDMDL
