MODEL 1
REMARK VINA RESULT:    -5.205      0.000      0.000
REMARK INTER + INTRA:          -6.035
REMARK INTER:                  -5.814
REMARK INTRA:                  -0.221
REMARK UNBOUND:                -0.221
REMARK SMILES CC(C)c1ccc(C(=O)[O-])cc1
REMARK SMILES IDX 7 1 6 2 11 3 5 4 12 5 4 6 8 7 9 8 10 9 2 10 1 11 3 12
REMARK H PARENT
REMARK Flexibility Score: inf
ROOT
ATOM      1  C   UNL     1      36.231  19.137   8.133  1.00  0.00    -0.003 A 
ATOM      2  C   UNL     1      37.601  18.885   8.325  1.00  0.00     0.010 A 
ATOM      3  C   UNL     1      35.348  18.948   9.209  1.00  0.00     0.010 A 
ATOM      4  C   UNL     1      38.076  18.453   9.567  1.00  0.00     0.004 A 
ATOM      5  C   UNL     1      35.823  18.516  10.450  1.00  0.00     0.004 A 
ATOM      6  C   UNL     1      37.194  18.263  10.643  1.00  0.00    -0.045 A 
ENDROOT
BRANCH   1   7
ATOM      7  C   UNL     1      35.724  19.595   6.821  1.00  0.00     0.071 C 
ATOM      8  O   UNL     1      36.478  19.610   5.812  1.00  0.00    -0.545 OA
ATOM      9  O   UNL     1      34.405  20.014   6.683  1.00  0.00    -0.545 OA
ENDBRANCH   1   7
BRANCH   6  10
ATOM     10  C   UNL     1      37.724  17.795  11.985  1.00  0.00     0.013 C 
ATOM     11  C   UNL     1      37.010  18.508  13.141  1.00  0.00     0.012 C 
ATOM     12  C   UNL     1      39.243  17.982  12.077  1.00  0.00     0.012 C 
ENDBRANCH   6  10
TORSDOF 2
ENDMDL
MODEL 2
REMARK VINA RESULT:    -5.121      2.948      4.216
REMARK INTER + INTRA:          -5.941
REMARK INTER:                  -5.734
REMARK INTRA:                  -0.207
REMARK UNBOUND:                -0.221
REMARK SMILES CC(C)c1ccc(C(=O)[O-])cc1
REMARK SMILES IDX 7 1 6 2 11 3 5 4 12 5 4 6 8 7 9 8 10 9 2 10 1 11 3 12
REMARK H PARENT
REMARK Flexibility Score: inf
ROOT
ATOM      1  C   UNL     1      38.996  18.104  10.433  1.00  0.00    -0.003 A 
ATOM      2  C   UNL     1      37.759  18.155   9.768  1.00  0.00     0.010 A 
ATOM      3  C   UNL     1      39.014  18.085  11.837  1.00  0.00     0.010 A 
ATOM      4  C   UNL     1      36.564  18.186  10.494  1.00  0.00     0.004 A 
ATOM      5  C   UNL     1      37.819  18.115  12.562  1.00  0.00     0.004 A 
ATOM      6  C   UNL     1      36.580  18.167  11.897  1.00  0.00    -0.045 A 
ENDROOT
BRANCH   1   7
ATOM      7  C   UNL     1      40.263  18.071   9.668  1.00  0.00     0.071 C 
ATOM      8  O   UNL     1      40.360  17.380   8.620  1.00  0.00    -0.545 OA
ATOM      9  O   UNL     1      41.364  18.803  10.098  1.00  0.00    -0.545 OA
ENDBRANCH   1   7
BRANCH   6  10
ATOM     10  C   UNL     1      35.275  18.201  12.672  1.00  0.00     0.013 C 
ATOM     11  C   UNL     1      34.623  16.813  12.717  1.00  0.00     0.012 C 
ATOM     12  C   UNL     1      34.313  19.243  12.091  1.00  0.00     0.012 C 
ENDBRANCH   6  10
TORSDOF 2
ENDMDL
MODEL 3
REMARK VINA RESULT:    -5.101      3.054      4.364
REMARK INTER + INTRA:          -5.919
REMARK INTER:                  -5.708
REMARK INTRA:                  -0.211
REMARK UNBOUND:                -0.221
REMARK SMILES CC(C)c1ccc(C(=O)[O-])cc1
REMARK SMILES IDX 7 1 6 2 11 3 5 4 12 5 4 6 8 7 9 8 10 9 2 10 1 11 3 12
REMARK H PARENT
REMARK Flexibility Score: inf
ROOT
ATOM      1  C   UNL     1      38.961  18.121  10.650  1.00  0.00    -0.003 A 
ATOM      2  C   UNL     1      38.615  18.086  12.012  1.00  0.00     0.010 A 
ATOM      3  C   UNL     1      37.939  18.167   9.689  1.00  0.00     0.010 A 
ATOM      4  C   UNL     1      37.273  18.097  12.403  1.00  0.00     0.004 A 
ATOM      5  C   UNL     1      36.597  18.177  10.080  1.00  0.00     0.004 A 
ATOM      6  C   UNL     1      36.249  18.141  11.443  1.00  0.00    -0.045 A 
ENDROOT
BRANCH   1   7
ATOM      7  C   UNL     1      40.381  18.111  10.232  1.00  0.00     0.071 C 
ATOM      8  O   UNL     1      40.699  17.810   9.051  1.00  0.00    -0.545 OA
ATOM      9  O   UNL     1      41.384  18.435  11.139  1.00  0.00    -0.545 OA
ENDBRANCH   1   7
BRANCH   6  10
ATOM     10  C   UNL     1      34.796  18.152  11.882  1.00  0.00     0.013 C 
ATOM     11  C   UNL     1      34.299  19.585  12.112  1.00  0.00     0.012 C 
ATOM     12  C   UNL     1      34.590  17.290  13.133  1.00  0.00     0.012 C 
ENDBRANCH   6  10
TORSDOF 2
ENDMDL
MODEL 4
REMARK VINA RESULT:    -5.057      3.395      4.694
REMARK INTER + INTRA:          -5.869
REMARK INTER:                  -5.667
REMARK INTRA:                  -0.202
REMARK UNBOUND:                -0.221
REMARK SMILES CC(C)c1ccc(C(=O)[O-])cc1
REMARK SMILES IDX 7 1 6 2 11 3 5 4 12 5 4 6 8 7 9 8 10 9 2 10 1 11 3 12
REMARK H PARENT
REMARK Flexibility Score: inf
ROOT
ATOM      1  C   UNL     1      37.934  17.784  11.491  1.00  0.00    -0.003 A 
ATOM      2  C   UNL     1      37.153  16.824  10.824  1.00  0.00     0.010 A 
ATOM      3  C   UNL     1      37.385  18.462  12.591  1.00  0.00     0.010 A 
ATOM      4  C   UNL     1      35.850  16.549  11.250  1.00  0.00     0.004 A 
ATOM      5  C   UNL     1      36.083  18.187  13.017  1.00  0.00     0.004 A 
ATOM      6  C   UNL     1      35.300  17.227  12.350  1.00  0.00    -0.045 A 
ENDROOT
BRANCH   1   7
ATOM      7  C   UNL     1      39.314  18.076  11.043  1.00  0.00     0.071 C 
ATOM      8  O   UNL     1      39.555  18.331   9.834  1.00  0.00    -0.545 OA
ATOM      9  O   UNL     1      40.364  18.074  11.955  1.00  0.00    -0.545 OA
ENDBRANCH   1   7
BRANCH   6  10
ATOM     10  C   UNL     1      33.884  16.919  12.802  1.00  0.00     0.013 C 
ATOM     11  C   UNL     1      32.998  18.169  12.732  1.00  0.00     0.012 C 
ATOM     12  C   UNL     1      33.872  16.312  14.209  1.00  0.00     0.012 C 
ENDBRANCH   6  10
TORSDOF 2
ENDMDL
MODEL 5
REMARK VINA RESULT:    -5.027      3.833      5.111
REMARK INTER + INTRA:          -5.836
REMARK INTER:                  -5.634
REMARK INTRA:                  -0.203
REMARK UNBOUND:                -0.221
REMARK SMILES CC(C)c1ccc(C(=O)[O-])cc1
REMARK SMILES IDX 7 1 6 2 11 3 5 4 12 5 4 6 8 7 9 8 10 9 2 10 1 11 3 12
REMARK H PARENT
REMARK Flexibility Score: inf
ROOT
ATOM      1  C   UNL     1      40.593  18.140  10.679  1.00  0.00    -0.003 A 
ATOM      2  C   UNL     1      39.880  18.123  11.890  1.00  0.00     0.010 A 
ATOM      3  C   UNL     1      39.915  17.838   9.487  1.00  0.00     0.010 A 
ATOM      4  C   UNL     1      38.518  17.810  11.908  1.00  0.00     0.004 A 
ATOM      5  C   UNL     1      38.553  17.524   9.504  1.00  0.00     0.004 A 
ATOM      6  C   UNL     1      37.839  17.507  10.717  1.00  0.00    -0.045 A 
ENDROOT
BRANCH   1   7
ATOM      7  C   UNL     1      42.035  18.472  10.656  1.00  0.00     0.071 C 
ATOM      8  O   UNL     1      42.872  17.731  11.235  1.00  0.00    -0.545 OA
ATOM      9  O   UNL     1      42.484  19.609   9.995  1.00  0.00    -0.545 OA
ENDBRANCH   1   7
BRANCH   6  10
ATOM     10  C   UNL     1      36.360  17.169  10.751  1.00  0.00     0.013 C 
ATOM     11  C   UNL     1      35.534  18.354  11.266  1.00  0.00     0.012 C 
ATOM     12  C   UNL     1      36.099  15.910  11.586  1.00  0.00     0.012 C 
ENDBRANCH   6  10
TORSDOF 2
ENDMDL
MODEL 6
REMARK VINA RESULT:    -5.015      2.975      4.287
REMARK INTER + INTRA:          -5.823
REMARK INTER:                  -5.613
REMARK INTRA:                  -0.210
REMARK UNBOUND:                -0.221
REMARK SMILES CC(C)c1ccc(C(=O)[O-])cc1
REMARK SMILES IDX 7 1 6 2 11 3 5 4 12 5 4 6 8 7 9 8 10 9 2 10 1 11 3 12
REMARK H PARENT
REMARK Flexibility Score: inf
ROOT
ATOM      1  C   UNL     1      36.374  18.110  11.540  1.00  0.00    -0.003 A 
ATOM      2  C   UNL     1      36.555  18.251  10.153  1.00  0.00     0.010 A 
ATOM      3  C   UNL     1      37.506  18.028  12.368  1.00  0.00     0.010 A 
ATOM      4  C   UNL     1      37.840  18.309   9.607  1.00  0.00     0.004 A 
ATOM      5  C   UNL     1      38.791  18.086  11.822  1.00  0.00     0.004 A 
ATOM      6  C   UNL     1      38.972  18.227  10.433  1.00  0.00    -0.045 A 
ENDROOT
BRANCH   1   7
ATOM      7  C   UNL     1      35.015  18.049  12.122  1.00  0.00     0.071 C 
ATOM      8  O   UNL     1      34.355  19.103  12.320  1.00  0.00    -0.545 OA
ATOM      9  O   UNL     1      34.448  16.824  12.459  1.00  0.00    -0.545 OA
ENDBRANCH   1   7
BRANCH   6  10
ATOM     10  C   UNL     1      40.362  18.291   9.826  1.00  0.00     0.013 C 
ATOM     11  C   UNL     1      40.522  17.260   8.703  1.00  0.00     0.012 C 
ATOM     12  C   UNL     1      41.443  18.111  10.898  1.00  0.00     0.012 C 
ENDBRANCH   6  10
TORSDOF 2
ENDMDL
MODEL 7
REMARK VINA RESULT:    -5.011      3.061      4.414
REMARK INTER + INTRA:          -5.818
REMARK INTER:                  -5.607
REMARK INTRA:                  -0.211
REMARK UNBOUND:                -0.221
REMARK SMILES CC(C)c1ccc(C(=O)[O-])cc1
REMARK SMILES IDX 7 1 6 2 11 3 5 4 12 5 4 6 8 7 9 8 10 9 2 10 1 11 3 12
REMARK H PARENT
REMARK Flexibility Score: inf
ROOT
ATOM      1  C   UNL     1      37.951  18.125  10.869  1.00  0.00    -0.003 A 
ATOM      2  C   UNL     1      38.591  18.157   9.617  1.00  0.00     0.010 A 
ATOM      3  C   UNL     1      38.736  18.102  12.033  1.00  0.00     0.010 A 
ATOM      4  C   UNL     1      39.986  18.166   9.534  1.00  0.00     0.004 A 
ATOM      5  C   UNL     1      40.131  18.111  11.950  1.00  0.00     0.004 A 
ATOM      6  C   UNL     1      40.772  18.142  10.697  1.00  0.00    -0.045 A 
ENDROOT
BRANCH   1   7
ATOM      7  C   UNL     1      36.474  18.117  10.961  1.00  0.00     0.071 C 
ATOM      8  O   UNL     1      35.767  18.266   9.930  1.00  0.00    -0.545 OA
ATOM      9  O   UNL     1      35.848  17.943  12.190  1.00  0.00    -0.545 OA
ENDBRANCH   1   7
BRANCH   6  10
ATOM     10  C   UNL     1      42.286  18.152  10.591  1.00  0.00     0.013 C 
ATOM     11  C   UNL     1      42.802  19.538  10.183  1.00  0.00     0.012 C 
ATOM     12  C   UNL     1      42.780  17.073   9.622  1.00  0.00     0.012 C 
ENDBRANCH   6  10
TORSDOF 2
ENDMDL
MODEL 8
REMARK VINA RESULT:    -4.993      3.066      4.398
REMARK INTER + INTRA:          -5.798
REMARK INTER:                  -5.587
REMARK INTRA:                  -0.211
REMARK UNBOUND:                -0.221
REMARK SMILES CC(C)c1ccc(C(=O)[O-])cc1
REMARK SMILES IDX 7 1 6 2 11 3 5 4 12 5 4 6 8 7 9 8 10 9 2 10 1 11 3 12
REMARK H PARENT
REMARK Flexibility Score: inf
ROOT
ATOM      1  C   UNL     1      36.298  18.042  11.741  1.00  0.00    -0.003 A 
ATOM      2  C   UNL     1      37.491  18.034  12.486  1.00  0.00     0.010 A 
ATOM      3  C   UNL     1      36.371  18.140  10.342  1.00  0.00     0.010 A 
ATOM      4  C   UNL     1      38.729  18.123  11.844  1.00  0.00     0.004 A 
ATOM      5  C   UNL     1      37.609  18.229   9.700  1.00  0.00     0.004 A 
ATOM      6  C   UNL     1      38.803  18.222  10.445  1.00  0.00    -0.045 A 
ENDROOT
BRANCH   1   7
ATOM      7  C   UNL     1      34.986  17.947  12.418  1.00  0.00     0.071 C 
ATOM      8  O   UNL     1      34.166  18.902  12.364  1.00  0.00    -0.545 OA
ATOM      9  O   UNL     1      34.639  16.800  13.124  1.00  0.00    -0.545 OA
ENDBRANCH   1   7
BRANCH   6  10
ATOM     10  C   UNL     1      40.155  18.318   9.761  1.00  0.00     0.013 C 
ATOM     11  C   UNL     1      40.312  17.227   8.693  1.00  0.00     0.012 C 
ATOM     12  C   UNL     1      41.297  18.259  10.781  1.00  0.00     0.012 C 
ENDBRANCH   6  10
TORSDOF 2
ENDMDL
MODEL 9
REMARK VINA RESULT:    -4.950      9.087     10.459
REMARK INTER + INTRA:          -5.750
REMARK INTER:                  -5.539
REMARK INTRA:                  -0.210
REMARK UNBOUND:                -0.221
REMARK SMILES CC(C)c1ccc(C(=O)[O-])cc1
REMARK SMILES IDX 7 1 6 2 11 3 5 4 12 5 4 6 8 7 9 8 10 9 2 10 1 11 3 12
REMARK H PARENT
REMARK Flexibility Score: inf
ROOT
ATOM      1  C   UNL     1      32.407  13.849  14.924  1.00  0.00    -0.003 A 
ATOM      2  C   UNL     1      31.199  14.553  14.775  1.00  0.00     0.010 A 
ATOM      3  C   UNL     1      32.383  12.445  14.902  1.00  0.00     0.010 A 
ATOM      4  C   UNL     1      29.993  13.865  14.608  1.00  0.00     0.004 A 
ATOM      5  C   UNL     1      31.178  11.758  14.736  1.00  0.00     0.004 A 
ATOM      6  C   UNL     1      29.968  12.462  14.587  1.00  0.00    -0.045 A 
ENDROOT
BRANCH   1   7
ATOM      7  C   UNL     1      33.685  14.573  15.099  1.00  0.00     0.071 C 
ATOM      8  O   UNL     1      34.676  14.006  15.632  1.00  0.00    -0.545 OA
ATOM      9  O   UNL     1      33.810  15.893  14.678  1.00  0.00    -0.545 OA
ENDBRANCH   1   7
BRANCH   6  10
ATOM     10  C   UNL     1      28.651  11.728  14.405  1.00  0.00     0.013 C 
ATOM     11  C   UNL     1      27.803  12.381  13.306  1.00  0.00     0.012 C 
ATOM     12  C   UNL     1      27.876  11.648  15.725  1.00  0.00     0.012 C 
ENDBRANCH   6  10
TORSDOF 2
ENDMDL
