MODEL 1
REMARK VINA RESULT:    -3.643      0.000      0.000
REMARK INTER + INTRA:          -7.215
REMARK INTER:                  -6.305
REMARK INTRA:                  -0.910
REMARK UNBOUND:                -0.910
REMARK SMILES CCCCCCCCCCCCCCO
REMARK SMILES IDX 8 1 7 2 6 3 5 4 4 5 3 6 2 7 1 8 9 9 10 10 11 11 12 12 13 13
REMARK SMILES IDX 14 14 15 15
REMARK H PARENT 15 16
REMARK Flexibility Score: inf
ROOT
ATOM      1  C   UNL     1     163.984 164.667 166.126  1.00  0.00     0.000 C 
ENDROOT
BRANCH   1   2
ATOM      2  C   UNL     1     165.198 165.178 165.328  1.00  0.00    -0.000 C 
BRANCH   2   3
ATOM      3  C   UNL     1     166.212 166.005 166.139  1.00  0.00    -0.000 C 
BRANCH   3   4
ATOM      4  C   UNL     1     165.634 166.541 167.457  1.00  0.00    -0.000 C 
BRANCH   4   5
ATOM      5  C   UNL     1     166.687 166.501 168.575  1.00  0.00    -0.000 C 
BRANCH   5   6
ATOM      6  C   UNL     1     166.208 165.727 169.813  1.00  0.00    -0.000 C 
BRANCH   6   7
ATOM      7  C   UNL     1     164.945 164.898 169.540  1.00  0.00    -0.003 C 
ATOM      8  C   UNL     1     165.284 163.420 169.371  1.00  0.00     0.004 C 
ENDBRANCH   6   7
ENDBRANCH   5   6
ENDBRANCH   4   5
ENDBRANCH   3   4
ENDBRANCH   2   3
ENDBRANCH   1   2
BRANCH   1   9
ATOM      9  C   UNL     1     162.927 163.986 165.238  1.00  0.00     0.000 C 
BRANCH   9  10
ATOM     10  C   UNL     1     161.492 164.379 165.622  1.00  0.00     0.000 C 
BRANCH  10  11
ATOM     11  C   UNL     1     161.237 164.293 167.135  1.00  0.00     0.000 C 
BRANCH  11  12
ATOM     12  C   UNL     1     159.882 163.628 167.423  1.00  0.00     0.002 C 
BRANCH  12  13
ATOM     13  C   UNL     1     159.690 163.298 168.912  1.00  0.00     0.028 C 
BRANCH  13  14
ATOM     14  C   UNL     1     158.214 163.274 169.328  1.00  0.00     0.156 C 
BRANCH  14  15
ATOM     15  O   UNL     1     157.796 164.561 169.696  1.00  0.00    -0.396 OA
ATOM     16  H   UNL     1     157.363 164.476 170.586  1.00  0.00     0.210 HD
ENDBRANCH  14  15
ENDBRANCH  13  14
ENDBRANCH  12  13
ENDBRANCH  11  12
ENDBRANCH  10  11
ENDBRANCH   9  10
ENDBRANCH   1   9
TORSDOF 13
ENDMDL
MODEL 2
REMARK VINA RESULT:    -3.542      1.115      2.181
REMARK INTER + INTRA:          -7.041
REMARK INTER:                  -6.168
REMARK INTRA:                  -0.873
REMARK UNBOUND:                -0.910
REMARK SMILES CCCCCCCCCCCCCCO
REMARK SMILES IDX 8 1 7 2 6 3 5 4 4 5 3 6 2 7 1 8 9 9 10 10 11 11 12 12 13 13
REMARK SMILES IDX 14 14 15 15
REMARK H PARENT 15 16
REMARK Flexibility Score: inf
ROOT
ATOM      1  C   UNL     1     162.222 164.461 166.287  1.00  0.00     0.000 C 
ENDROOT
BRANCH   1   2
ATOM      2  C   UNL     1     163.010 164.149 165.001  1.00  0.00    -0.000 C 
BRANCH   2   3
ATOM      3  C   UNL     1     164.520 163.923 165.197  1.00  0.00    -0.000 C 
BRANCH   3   4
ATOM      4  C   UNL     1     165.342 165.214 165.071  1.00  0.00    -0.000 C 
BRANCH   4   5
ATOM      5  C   UNL     1     165.701 165.773 166.456  1.00  0.00    -0.000 C 
BRANCH   5   6
ATOM      6  C   UNL     1     165.598 164.717 167.567  1.00  0.00    -0.000 C 
BRANCH   6   7
ATOM      7  C   UNL     1     165.126 165.308 168.904  1.00  0.00    -0.003 C 
ATOM      8  C   UNL     1     164.002 164.473 169.508  1.00  0.00     0.004 C 
ENDBRANCH   6   7
ENDBRANCH   5   6
ENDBRANCH   4   5
ENDBRANCH   3   4
ENDBRANCH   2   3
ENDBRANCH   1   2
BRANCH   1   9
ATOM      9  C   UNL     1     160.719 164.158 166.158  1.00  0.00     0.000 C 
BRANCH   9  10
ATOM     10  C   UNL     1     160.063 163.840 167.510  1.00  0.00     0.000 C 
BRANCH  10  11
ATOM     11  C   UNL     1     158.528 163.816 167.435  1.00  0.00     0.000 C 
BRANCH  11  12
ATOM     12  C   UNL     1     157.931 163.131 168.674  1.00  0.00     0.002 C 
BRANCH  12  13
ATOM     13  C   UNL     1     158.933 163.033 169.836  1.00  0.00     0.028 C 
BRANCH  13  14
ATOM     14  C   UNL     1     158.567 163.943 171.013  1.00  0.00     0.156 C 
BRANCH  14  15
ATOM     15  O   UNL     1     157.725 164.977 170.581  1.00  0.00    -0.396 OA
ATOM     16  H   UNL     1     156.960 165.006 171.214  1.00  0.00     0.210 HD
ENDBRANCH  14  15
ENDBRANCH  13  14
ENDBRANCH  12  13
ENDBRANCH  11  12
ENDBRANCH  10  11
ENDBRANCH   9  10
ENDBRANCH   1   9
TORSDOF 13
ENDMDL
MODEL 3
REMARK VINA RESULT:    -3.438      5.786      9.287
REMARK INTER + INTRA:          -6.861
REMARK INTER:                  -5.862
REMARK INTRA:                  -0.999
REMARK UNBOUND:                -0.910
REMARK SMILES CCCCCCCCCCCCCCO
REMARK SMILES IDX 8 1 7 2 6 3 5 4 4 5 3 6 2 7 1 8 9 9 10 10 11 11 12 12 13 13
REMARK SMILES IDX 14 14 15 15
REMARK H PARENT 15 16
REMARK Flexibility Score: inf
ROOT
ATOM      1  C   UNL     1     169.771 166.900 166.904  1.00  0.00     0.000 C 
ENDROOT
BRANCH   1   2
ATOM      2  C   UNL     1     169.339 166.758 165.433  1.00  0.00    -0.000 C 
BRANCH   2   3
ATOM      3  C   UNL     1     168.010 167.447 165.072  1.00  0.00    -0.000 C 
BRANCH   3   4
ATOM      4  C   UNL     1     166.807 166.493 165.120  1.00  0.00    -0.000 C 
BRANCH   4   5
ATOM      5  C   UNL     1     165.945 166.759 166.363  1.00  0.00    -0.000 C 
BRANCH   5   6
ATOM      6  C   UNL     1     166.179 165.730 167.479  1.00  0.00    -0.000 C 
BRANCH   6   7
ATOM      7  C   UNL     1     166.473 166.386 168.836  1.00  0.00    -0.003 C 
ATOM      8  C   UNL     1     165.902 167.799 168.899  1.00  0.00     0.004 C 
ENDBRANCH   6   7
ENDBRANCH   5   6
ENDBRANCH   4   5
ENDBRANCH   3   4
ENDBRANCH   2   3
ENDBRANCH   1   2
BRANCH   1   9
ATOM      9  C   UNL     1     171.292 167.062 167.068  1.00  0.00     0.000 C 
BRANCH   9  10
ATOM     10  C   UNL     1     171.663 168.065 168.173  1.00  0.00     0.000 C 
BRANCH  10  11
ATOM     11  C   UNL     1     170.943 167.779 169.501  1.00  0.00     0.000 C 
BRANCH  11  12
ATOM     12  C   UNL     1     171.495 168.672 170.623  1.00  0.00     0.002 C 
BRANCH  12  13
ATOM     13  C   UNL     1     172.553 169.667 170.121  1.00  0.00     0.028 C 
BRANCH  13  14
ATOM     14  C   UNL     1     172.091 171.125 170.223  1.00  0.00     0.156 C 
BRANCH  14  15
ATOM     15  O   UNL     1     171.430 171.506 169.047  1.00  0.00    -0.396 OA
ATOM     16  H   UNL     1     171.450 172.499 169.016  1.00  0.00     0.210 HD
ENDBRANCH  14  15
ENDBRANCH  13  14
ENDBRANCH  12  13
ENDBRANCH  11  12
ENDBRANCH  10  11
ENDBRANCH   9  10
ENDBRANCH   1   9
TORSDOF 13
ENDMDL
MODEL 4
REMARK VINA RESULT:    -3.354      1.686      3.197
REMARK INTER + INTRA:          -6.714
REMARK INTER:                  -5.562
REMARK INTRA:                  -1.152
REMARK UNBOUND:                -0.910
REMARK SMILES CCCCCCCCCCCCCCO
REMARK SMILES IDX 8 1 7 2 6 3 5 4 4 5 3 6 2 7 1 8 9 9 10 10 11 11 12 12 13 13
REMARK SMILES IDX 14 14 15 15
REMARK H PARENT 15 16
REMARK Flexibility Score: inf
ROOT
ATOM      1  C   UNL     1     165.032 163.995 169.869  1.00  0.00     0.000 C 
ENDROOT
BRANCH   1   2
ATOM      2  C   UNL     1     165.291 163.782 168.366  1.00  0.00    -0.000 C 
BRANCH   2   3
ATOM      3  C   UNL     1     164.421 164.636 167.425  1.00  0.00    -0.000 C 
BRANCH   3   4
ATOM      4  C   UNL     1     165.235 165.339 166.329  1.00  0.00    -0.000 C 
BRANCH   4   5
ATOM      5  C   UNL     1     166.390 166.149 166.937  1.00  0.00    -0.000 C 
BRANCH   5   6
ATOM      6  C   UNL     1     165.912 167.436 167.627  1.00  0.00    -0.000 C 
BRANCH   6   7
ATOM      7  C   UNL     1     166.223 167.450 169.131  1.00  0.00    -0.003 C 
ATOM      8  C   UNL     1     165.563 168.642 169.817  1.00  0.00     0.004 C 
ENDBRANCH   6   7
ENDBRANCH   5   6
ENDBRANCH   4   5
ENDBRANCH   3   4
ENDBRANCH   2   3
ENDBRANCH   1   2
BRANCH   1   9
ATOM      9  C   UNL     1     163.779 164.844 170.147  1.00  0.00     0.000 C 
BRANCH   9  10
ATOM     10  C   UNL     1     162.604 164.006 170.676  1.00  0.00     0.000 C 
BRANCH  10  11
ATOM     11  C   UNL     1     161.373 164.061 169.758  1.00  0.00     0.000 C 
BRANCH  11  12
ATOM     12  C   UNL     1     160.160 163.402 170.431  1.00  0.00     0.002 C 
BRANCH  12  13
ATOM     13  C   UNL     1     159.355 162.518 169.465  1.00  0.00     0.028 C 
BRANCH  13  14
ATOM     14  C   UNL     1     158.414 163.328 168.565  1.00  0.00     0.156 C 
BRANCH  14  15
ATOM     15  O   UNL     1     157.774 164.327 169.312  1.00  0.00    -0.396 OA
ATOM     16  H   UNL     1     158.069 164.213 170.253  1.00  0.00     0.210 HD
ENDBRANCH  14  15
ENDBRANCH  13  14
ENDBRANCH  12  13
ENDBRANCH  11  12
ENDBRANCH  10  11
ENDBRANCH   9  10
ENDBRANCH   1   9
TORSDOF 13
ENDMDL
MODEL 5
REMARK VINA RESULT:    -3.346      1.904      3.106
REMARK INTER + INTRA:          -6.702
REMARK INTER:                  -5.195
REMARK INTRA:                  -1.507
REMARK UNBOUND:                -0.910
REMARK SMILES CCCCCCCCCCCCCCO
REMARK SMILES IDX 8 1 7 2 6 3 5 4 4 5 3 6 2 7 1 8 9 9 10 10 11 11 12 12 13 13
REMARK SMILES IDX 14 14 15 15
REMARK H PARENT 15 16
REMARK Flexibility Score: inf
ROOT
ATOM      1  C   UNL     1     164.104 164.453 166.500  1.00  0.00     0.000 C 
ENDROOT
BRANCH   1   2
ATOM      2  C   UNL     1     164.478 164.849 165.059  1.00  0.00    -0.000 C 
BRANCH   2   3
ATOM      3  C   UNL     1     165.895 165.424 164.886  1.00  0.00    -0.000 C 
BRANCH   3   4
ATOM      4  C   UNL     1     166.039 166.847 165.445  1.00  0.00    -0.000 C 
BRANCH   4   5
ATOM      5  C   UNL     1     166.757 166.833 166.803  1.00  0.00    -0.000 C 
BRANCH   5   6
ATOM      6  C   UNL     1     165.910 167.447 167.928  1.00  0.00    -0.000 C 
BRANCH   6   7
ATOM      7  C   UNL     1     166.529 167.234 169.317  1.00  0.00    -0.003 C 
ATOM      8  C   UNL     1     165.645 167.828 170.410  1.00  0.00     0.004 C 
ENDBRANCH   6   7
ENDBRANCH   5   6
ENDBRANCH   4   5
ENDBRANCH   3   4
ENDBRANCH   2   3
ENDBRANCH   1   2
BRANCH   1   9
ATOM      9  C   UNL     1     165.143 163.526 167.155  1.00  0.00     0.000 C 
BRANCH   9  10
ATOM     10  C   UNL     1     165.290 163.778 168.664  1.00  0.00     0.000 C 
BRANCH  10  11
ATOM     11  C   UNL     1     164.094 164.539 169.259  1.00  0.00     0.000 C 
BRANCH  11  12
ATOM     12  C   UNL     1     163.778 164.038 170.676  1.00  0.00     0.002 C 
BRANCH  12  13
ATOM     13  C   UNL     1     162.281 163.757 170.884  1.00  0.00     0.028 C 
BRANCH  13  14
ATOM     14  C   UNL     1     161.434 164.120 169.659  1.00  0.00     0.156 C 
BRANCH  14  15
ATOM     15  O   UNL     1     160.071 164.078 169.985  1.00  0.00    -0.396 OA
ATOM     16  H   UNL     1     159.977 163.433 170.734  1.00  0.00     0.210 HD
ENDBRANCH  14  15
ENDBRANCH  13  14
ENDBRANCH  12  13
ENDBRANCH  11  12
ENDBRANCH  10  11
ENDBRANCH   9  10
ENDBRANCH   1   9
TORSDOF 13
ENDMDL
MODEL 6
REMARK VINA RESULT:    -3.315      2.941      6.701
REMARK INTER + INTRA:          -6.647
REMARK INTER:                  -6.029
REMARK INTRA:                  -0.618
REMARK UNBOUND:                -0.910
REMARK SMILES CCCCCCCCCCCCCCO
REMARK SMILES IDX 8 1 7 2 6 3 5 4 4 5 3 6 2 7 1 8 9 9 10 10 11 11 12 12 13 13
REMARK SMILES IDX 14 14 15 15
REMARK H PARENT 15 16
REMARK Flexibility Score: inf
ROOT
ATOM      1  C   UNL     1     161.504 164.442 166.713  1.00  0.00     0.000 C 
ENDROOT
BRANCH   1   2
ATOM      2  C   UNL     1     160.046 163.975 166.877  1.00  0.00    -0.000 C 
BRANCH   2   3
ATOM      3  C   UNL     1     159.721 163.307 168.226  1.00  0.00    -0.000 C 
BRANCH   3   4
ATOM      4  C   UNL     1     158.217 163.273 168.533  1.00  0.00    -0.000 C 
BRANCH   4   5
ATOM      5  C   UNL     1     157.918 162.332 169.710  1.00  0.00    -0.000 C 
BRANCH   5   6
ATOM      6  C   UNL     1     159.026 161.291 169.933  1.00  0.00    -0.000 C 
BRANCH   6   7
ATOM      7  C   UNL     1     159.588 161.323 171.361  1.00  0.00    -0.003 C 
ATOM      8  C   UNL     1     161.104 161.147 171.360  1.00  0.00     0.004 C 
ENDBRANCH   6   7
ENDBRANCH   5   6
ENDBRANCH   4   5
ENDBRANCH   3   4
ENDBRANCH   2   3
ENDBRANCH   1   2
BRANCH   1   9
ATOM      9  C   UNL     1     161.976 164.425 165.248  1.00  0.00     0.000 C 
BRANCH   9  10
ATOM     10  C   UNL     1     163.356 163.769 165.081  1.00  0.00     0.000 C 
BRANCH  10  11
ATOM     11  C   UNL     1     164.513 164.763 165.270  1.00  0.00     0.000 C 
BRANCH  11  12
ATOM     12  C   UNL     1     165.193 164.557 166.632  1.00  0.00     0.002 C 
BRANCH  12  13
ATOM     13  C   UNL     1     165.524 165.883 167.335  1.00  0.00     0.028 C 
BRANCH  13  14
ATOM     14  C   UNL     1     166.696 166.625 166.680  1.00  0.00     0.156 C 
BRANCH  14  15
ATOM     15  O   UNL     1     166.242 167.804 166.073  1.00  0.00    -0.396 OA
ATOM     16  H   UNL     1     166.348 168.529 166.743  1.00  0.00     0.210 HD
ENDBRANCH  14  15
ENDBRANCH  13  14
ENDBRANCH  12  13
ENDBRANCH  11  12
ENDBRANCH  10  11
ENDBRANCH   9  10
ENDBRANCH   1   9
TORSDOF 13
ENDMDL
MODEL 7
REMARK VINA RESULT:    -3.313      4.304      7.314
REMARK INTER + INTRA:          -6.644
REMARK INTER:                  -5.157
REMARK INTRA:                  -1.487
REMARK UNBOUND:                -0.910
REMARK SMILES CCCCCCCCCCCCCCO
REMARK SMILES IDX 8 1 7 2 6 3 5 4 4 5 3 6 2 7 1 8 9 9 10 10 11 11 12 12 13 13
REMARK SMILES IDX 14 14 15 15
REMARK H PARENT 15 16
REMARK Flexibility Score: inf
ROOT
ATOM      1  C   UNL     1     165.996 167.502 167.213  1.00  0.00     0.000 C 
ENDROOT
BRANCH   1   2
ATOM      2  C   UNL     1     166.451 166.186 166.554  1.00  0.00    -0.000 C 
BRANCH   2   3
ATOM      3  C   UNL     1     165.350 165.417 165.801  1.00  0.00    -0.000 C 
BRANCH   3   4
ATOM      4  C   UNL     1     164.527 164.497 166.714  1.00  0.00    -0.000 C 
BRANCH   4   5
ATOM      5  C   UNL     1     165.445 163.614 167.574  1.00  0.00    -0.000 C 
BRANCH   5   6
ATOM      6  C   UNL     1     165.152 163.741 169.077  1.00  0.00    -0.000 C 
BRANCH   6   7
ATOM      7  C   UNL     1     163.870 164.536 169.364  1.00  0.00    -0.003 C 
ATOM      8  C   UNL     1     163.853 165.051 170.800  1.00  0.00     0.004 C 
ENDBRANCH   6   7
ENDBRANCH   5   6
ENDBRANCH   4   5
ENDBRANCH   3   4
ENDBRANCH   2   3
ENDBRANCH   1   2
BRANCH   1   9
ATOM      9  C   UNL     1     165.939 167.415 168.748  1.00  0.00     0.000 C 
BRANCH   9  10
ATOM     10  C   UNL     1     167.163 166.702 169.345  1.00  0.00     0.000 C 
BRANCH  10  11
ATOM     11  C   UNL     1     167.702 167.400 170.604  1.00  0.00     0.000 C 
BRANCH  11  12
ATOM     12  C   UNL     1     169.149 166.972 170.888  1.00  0.00     0.002 C 
BRANCH  12  13
ATOM     13  C   UNL     1     170.153 168.122 170.704  1.00  0.00     0.028 C 
BRANCH  13  14
ATOM     14  C   UNL     1     171.180 167.842 169.601  1.00  0.00     0.156 C 
BRANCH  14  15
ATOM     15  O   UNL     1     170.574 167.153 168.541  1.00  0.00    -0.396 OA
ATOM     16  H   UNL     1     171.229 166.472 168.232  1.00  0.00     0.210 HD
ENDBRANCH  14  15
ENDBRANCH  13  14
ENDBRANCH  12  13
ENDBRANCH  11  12
ENDBRANCH  10  11
ENDBRANCH   9  10
ENDBRANCH   1   9
TORSDOF 13
ENDMDL
MODEL 8
REMARK VINA RESULT:    -3.225      3.847      5.997
REMARK INTER + INTRA:          -6.491
REMARK INTER:                  -5.558
REMARK INTRA:                  -0.934
REMARK UNBOUND:                -0.910
REMARK SMILES CCCCCCCCCCCCCCO
REMARK SMILES IDX 8 1 7 2 6 3 5 4 4 5 3 6 2 7 1 8 9 9 10 10 11 11 12 12 13 13
REMARK SMILES IDX 14 14 15 15
REMARK H PARENT 15 16
REMARK Flexibility Score: inf
ROOT
ATOM      1  C   UNL     1     164.228 164.471 167.470  1.00  0.00     0.000 C 
ENDROOT
BRANCH   1   2
ATOM      2  C   UNL     1     165.209 164.388 166.285  1.00  0.00    -0.000 C 
BRANCH   2   3
ATOM      3  C   UNL     1     165.507 165.727 165.587  1.00  0.00    -0.000 C 
BRANCH   3   4
ATOM      4  C   UNL     1     166.083 166.786 166.540  1.00  0.00    -0.000 C 
BRANCH   4   5
ATOM      5  C   UNL     1     167.617 166.812 166.467  1.00  0.00    -0.000 C 
BRANCH   5   6
ATOM      6  C   UNL     1     168.142 166.901 165.026  1.00  0.00    -0.000 C 
BRANCH   6   7
ATOM      7  C   UNL     1     169.595 166.422 164.894  1.00  0.00    -0.003 C 
ATOM      8  C   UNL     1     170.445 166.920 166.060  1.00  0.00     0.004 C 
ENDBRANCH   6   7
ENDBRANCH   5   6
ENDBRANCH   4   5
ENDBRANCH   3   4
ENDBRANCH   2   3
ENDBRANCH   1   2
BRANCH   1   9
ATOM      9  C   UNL     1     164.906 164.217 168.827  1.00  0.00     0.000 C 
BRANCH   9  10
ATOM     10  C   UNL     1     164.966 165.480 169.702  1.00  0.00     0.000 C 
BRANCH  10  11
ATOM     11  C   UNL     1     166.397 165.839 170.131  1.00  0.00     0.000 C 
BRANCH  11  12
ATOM     12  C   UNL     1     166.394 166.586 171.473  1.00  0.00     0.002 C 
BRANCH  12  13
ATOM     13  C   UNL     1     165.427 167.781 171.483  1.00  0.00     0.028 C 
BRANCH  13  14
ATOM     14  C   UNL     1     165.837 168.883 170.499  1.00  0.00     0.156 C 
BRANCH  14  15
ATOM     15  O   UNL     1     166.152 170.059 171.195  1.00  0.00    -0.396 OA
ATOM     16  H   UNL     1     167.098 169.972 171.486  1.00  0.00     0.210 HD
ENDBRANCH  14  15
ENDBRANCH  13  14
ENDBRANCH  12  13
ENDBRANCH  11  12
ENDBRANCH  10  11
ENDBRANCH   9  10
ENDBRANCH   1   9
TORSDOF 13
ENDMDL
MODEL 9
REMARK VINA RESULT:    -3.143      2.214      3.245
REMARK INTER + INTRA:          -6.350
REMARK INTER:                  -4.688
REMARK INTRA:                  -1.662
REMARK UNBOUND:                -0.910
REMARK SMILES CCCCCCCCCCCCCCO
REMARK SMILES IDX 8 1 7 2 6 3 5 4 4 5 3 6 2 7 1 8 9 9 10 10 11 11 12 12 13 13
REMARK SMILES IDX 14 14 15 15
REMARK H PARENT 15 16
REMARK Flexibility Score: inf
ROOT
ATOM      1  C   UNL     1     165.235 165.237 165.914  1.00  0.00     0.000 C 
ENDROOT
BRANCH   1   2
ATOM      2  C   UNL     1     166.368 166.153 166.411  1.00  0.00    -0.000 C 
BRANCH   2   3
ATOM      3  C   UNL     1     165.947 167.213 167.446  1.00  0.00    -0.000 C 
BRANCH   3   4
ATOM      4  C   UNL     1     166.668 167.057 168.793  1.00  0.00    -0.000 C 
BRANCH   4   5
ATOM      5  C   UNL     1     165.902 167.781 169.911  1.00  0.00    -0.000 C 
BRANCH   5   6
ATOM      6  C   UNL     1     166.515 167.543 171.300  1.00  0.00    -0.000 C 
BRANCH   6   7
ATOM      7  C   UNL     1     167.377 166.273 171.356  1.00  0.00    -0.003 C 
ATOM      8  C   UNL     1     166.800 165.260 172.340  1.00  0.00     0.004 C 
ENDBRANCH   6   7
ENDBRANCH   5   6
ENDBRANCH   4   5
ENDBRANCH   3   4
ENDBRANCH   2   3
ENDBRANCH   1   2
BRANCH   1   9
ATOM      9  C   UNL     1     164.462 164.564 167.061  1.00  0.00     0.000 C 
BRANCH   9  10
ATOM     10  C   UNL     1     165.309 163.526 167.814  1.00  0.00     0.000 C 
BRANCH  10  11
ATOM     11  C   UNL     1     165.261 163.713 169.339  1.00  0.00     0.000 C 
BRANCH  11  12
ATOM     12  C   UNL     1     164.089 164.621 169.741  1.00  0.00     0.002 C 
BRANCH  12  13
ATOM     13  C   UNL     1     163.047 163.895 170.606  1.00  0.00     0.028 C 
BRANCH  13  14
ATOM     14  C   UNL     1     161.612 164.107 170.110  1.00  0.00     0.156 C 
BRANCH  14  15
ATOM     15  O   UNL     1     161.033 165.206 170.761  1.00  0.00    -0.396 OA
ATOM     16  H   UNL     1     161.121 165.038 171.736  1.00  0.00     0.210 HD
ENDBRANCH  14  15
ENDBRANCH  13  14
ENDBRANCH  12  13
ENDBRANCH  11  12
ENDBRANCH  10  11
ENDBRANCH   9  10
ENDBRANCH   1   9
TORSDOF 13
ENDMDL
