MODEL 1
REMARK VINA RESULT:    -1.037      0.000      0.000
REMARK INTER + INTRA:          -1.739
REMARK INTER:                  -1.522
REMARK INTRA:                  -0.217
REMARK UNBOUND:                -0.217
REMARK SMILES C=C1C=C[C@H](C(C)C)CCC(C)=CCC1
REMARK SMILES IDX 3 1 4 2 5 3 9 4 10 5 11 6 12 7 13 8 6 10 7 11 8 12 2 13 1 14
REMARK SMILES IDX 15 15 14 16
REMARK H PARENT
REMARK Flexibility Score: 70.00
ROOT
ATOM      1  C   UNL     1       4.379   6.050  11.312  1.00  0.00    -0.001 C 
ATOM      2  C   UNL     1       4.373   7.348  10.969  1.00  0.00    -0.023 C 
ENDROOT
BRANCH   2   3
ATOM      3  C   UNL     1       4.532   8.490  11.961  1.00  0.00     0.014 C 
BRANCH   3   4
ATOM      4  C   UNL     1       6.020   8.880  12.165  1.00  0.00     0.012 C 
BRANCH   4   5
ATOM      5  C   UNL     1       6.674   8.341  13.462  1.00  0.00     0.031 C 
BRANCH   5   6
ATOM      6  C   UNL     1       7.972   7.572  13.260  1.00  0.00    -0.077 C 
ATOM      7  C   UNL     1       9.261   8.247  13.665  1.00  0.00     0.039 C 
ATOM      8  C   UNL     1       8.074   6.369  12.639  1.00  0.00    -0.028 CG0
ATOM      9  G   UNL     1       6.960   5.405  12.299  1.00  0.00     0.000 G0
ENDBRANCH   5   6
ENDBRANCH   4   5
ENDBRANCH   3   4
BRANCH   3  10
ATOM     10  C   UNL     1       3.645   9.718  11.590  1.00  0.00    -0.010 C 
ATOM     11  C   UNL     1       2.778  10.253  12.745  1.00  0.00     0.008 C 
ATOM     12  C   UNL     1       4.502  10.859  11.017  1.00  0.00     0.008 C 
ENDBRANCH   3  10
ENDBRANCH   2   3
BRANCH   1  13
ATOM     13  C   UNL     1       4.479   5.569  12.703  1.00  0.00    -0.055 C 
ATOM     14  C   UNL     1       3.359   5.366  13.402  1.00  0.00     0.012 C 
BRANCH  13  15
ATOM     15  C   UNL     1       5.829   5.293  13.327  1.00  0.00     0.039 C 
BRANCH  15  16
ATOM     16  C   UNL     1       6.972   5.400  12.291  1.00  0.00     0.032 CG0
ATOM     17  G   UNL     1       8.084   6.365  12.635  1.00  0.00     0.000 G0
ENDBRANCH  15  16
ENDBRANCH  13  15
ENDBRANCH   1  13
TORSDOF 1
ENDMDL
MODEL 2
REMARK VINA RESULT:    -0.699      1.513      4.250
REMARK INTER + INTRA:          -1.242
REMARK INTER:                  -1.935
REMARK INTRA:                   0.693
REMARK UNBOUND:                -0.217
REMARK SMILES C=C1C=C[C@H](C(C)C)CCC(C)=CCC1
REMARK SMILES IDX 3 1 4 2 5 3 9 4 10 5 11 6 12 7 13 8 6 10 7 11 8 12 2 13 1 14
REMARK SMILES IDX 15 15 14 16
REMARK H PARENT
REMARK Flexibility Score: 70.00
ROOT
ATOM      1  C   UNL     1       7.138   5.621  12.177  1.00  0.00    -0.001 C 
ATOM      2  C   UNL     1       7.833   6.687  11.750  1.00  0.00    -0.023 C 
ENDROOT
BRANCH   2   3
ATOM      3  C   UNL     1       7.939   7.995  12.517  1.00  0.00     0.014 C 
BRANCH   3   4
ATOM      4  C   UNL     1       6.560   8.690  12.679  1.00  0.00     0.012 C 
BRANCH   4   5
ATOM      5  C   UNL     1       5.868   9.100  11.356  1.00  0.00     0.031 C 
BRANCH   5   6
ATOM      6  C   UNL     1       4.365   8.862  11.311  1.00  0.00    -0.077 C 
ATOM      7  C   UNL     1       3.481  10.014  10.896  1.00  0.00     0.039 C 
ATOM      8  C   UNL     1       3.745   7.727  11.725  1.00  0.00    -0.028 CG0
ATOM      9  G   UNL     1       4.374   6.382  12.015  1.00  0.00     0.000 G0
ENDBRANCH   5   6
ENDBRANCH   4   5
ENDBRANCH   3   4
BRANCH   3  10
ATOM     10  C   UNL     1       8.674   7.817  13.883  1.00  0.00    -0.010 C 
ATOM     11  C   UNL     1      10.152   8.250  13.875  1.00  0.00     0.008 C 
ATOM     12  C   UNL     1       7.926   8.554  15.007  1.00  0.00     0.008 C 
ENDBRANCH   3  10
ENDBRANCH   2   3
BRANCH   1  13
ATOM     13  C   UNL     1       6.339   5.604  13.417  1.00  0.00    -0.055 C 
ATOM     14  C   UNL     1       6.865   5.070  14.522  1.00  0.00     0.012 C 
BRANCH  13  15
ATOM     15  C   UNL     1       4.948   6.198  13.444  1.00  0.00     0.039 C 
BRANCH  15  16
ATOM     16  C   UNL     1       4.372   6.374  12.020  1.00  0.00     0.032 CG0
ATOM     17  G   UNL     1       3.744   7.717  11.725  1.00  0.00     0.000 G0
ENDBRANCH  15  16
ENDBRANCH  13  15
ENDBRANCH   1  13
TORSDOF 1
ENDMDL
MODEL 3
REMARK VINA RESULT:     1.294      1.907      4.704
REMARK INTER + INTRA:           1.682
REMARK INTER:                  -1.152
REMARK INTRA:                   2.835
REMARK UNBOUND:                -0.217
REMARK SMILES C=C1C=C[C@H](C(C)C)CCC(C)=CCC1
REMARK SMILES IDX 3 1 4 2 5 3 9 4 10 5 11 6 12 7 13 8 6 10 7 11 8 12 2 13 1 14
REMARK SMILES IDX 15 15 14 16
REMARK H PARENT
REMARK Flexibility Score: 70.00
ROOT
ATOM      1  C   UNL     1       7.675   7.075  13.704  1.00  0.00    -0.001 C 
ATOM      2  C   UNL     1       6.640   6.641  14.442  1.00  0.00    -0.023 C 
ENDROOT
BRANCH   2   3
ATOM      3  C   UNL     1       5.196   6.652  13.969  1.00  0.00     0.014 C 
BRANCH   3   4
ATOM      4  C   UNL     1       4.634   8.093  13.844  1.00  0.00     0.012 C 
BRANCH   4   5
ATOM      5  C   UNL     1       3.451   8.259  12.857  1.00  0.00     0.031 C 
BRANCH   5   6
ATOM      6  C   UNL     1       3.562   9.444  11.908  1.00  0.00    -0.077 C 
ATOM      7  C   UNL     1       2.432  10.447  11.900  1.00  0.00     0.039 C 
ATOM      8  C   UNL     1       4.542   9.612  10.985  1.00  0.00    -0.028 CG0
ATOM      9  G   UNL     1       5.861   8.877  10.891  1.00  0.00     0.000 G0
ENDBRANCH   5   6
ENDBRANCH   4   5
ENDBRANCH   3   4
BRANCH   3  10
ATOM     10  C   UNL     1       5.000   5.826  12.659  1.00  0.00    -0.010 C 
ATOM     11  C   UNL     1       6.164   4.875  12.322  1.00  0.00     0.008 C 
ATOM     12  C   UNL     1       3.682   5.034  12.703  1.00  0.00     0.008 C 
ENDBRANCH   3  10
ENDBRANCH   2   3
BRANCH   1  13
ATOM     13  C   UNL     1       7.532   7.676  12.364  1.00  0.00    -0.055 C 
ATOM     14  C   UNL     1       8.102   7.072  11.318  1.00  0.00     0.012 C 
BRANCH  13  15
ATOM     15  C   UNL     1       6.740   8.951  12.172  1.00  0.00     0.039 C 
BRANCH  15  16
ATOM     16  C   UNL     1       5.871   8.898  10.894  1.00  0.00     0.032 CG0
ATOM     17  G   UNL     1       4.536   9.604  10.975  1.00  0.00     0.000 G0
ENDBRANCH  15  16
ENDBRANCH  13  15
ENDBRANCH   1  13
TORSDOF 1
ENDMDL
MODEL 4
REMARK VINA RESULT:     1.294      4.859      6.815
REMARK INTER + INTRA:           1.682
REMARK INTER:                   2.004
REMARK INTRA:                  -0.321
REMARK UNBOUND:                -0.217
REMARK SMILES C=C1C=C[C@H](C(C)C)CCC(C)=CCC1
REMARK SMILES IDX 3 1 4 2 5 3 9 4 10 5 11 6 12 7 13 8 6 10 7 11 8 12 2 13 1 14
REMARK SMILES IDX 15 15 14 16
REMARK H PARENT
REMARK Flexibility Score: 70.00
ROOT
ATOM      1  C   UNL     1       0.841  11.210  13.302  1.00  0.00    -0.001 C 
ATOM      2  C   UNL     1       0.997  11.939  14.419  1.00  0.00    -0.023 C 
ENDROOT
BRANCH   2   3
ATOM      3  C   UNL     1       2.345  12.376  14.967  1.00  0.00     0.014 C 
BRANCH   3   4
ATOM      4  C   UNL     1       2.873  13.655  14.264  1.00  0.00     0.012 C 
BRANCH   4   5
ATOM      5  C   UNL     1       4.170  13.469  13.438  1.00  0.00     0.031 C 
BRANCH   5   6
ATOM      6  C   UNL     1       4.103  13.974  12.004  1.00  0.00    -0.077 C 
ATOM      7  C   UNL     1       4.344  15.446  11.764  1.00  0.00     0.039 C 
ATOM      8  C   UNL     1       3.729  13.228  10.934  1.00  0.00    -0.028 CG0
ATOM      9  G   UNL     1       3.606  11.723  10.853  1.00  0.00     0.000 G0
ENDBRANCH   5   6
ENDBRANCH   4   5
ENDBRANCH   3   4
BRANCH   3  10
ATOM     10  C   UNL     1       2.329  12.521  16.521  1.00  0.00    -0.010 C 
ATOM     11  C   UNL     1       2.953  13.826  17.049  1.00  0.00     0.008 C 
ATOM     12  C   UNL     1       0.899  12.374  17.069  1.00  0.00     0.008 C 
ENDBRANCH   3  10
ENDBRANCH   2   3
BRANCH   1  13
ATOM     13  C   UNL     1       1.964  10.687  12.501  1.00  0.00    -0.055 C 
ATOM     14  C   UNL     1       2.778   9.776  13.040  1.00  0.00     0.012 C 
BRANCH  13  15
ATOM     15  C   UNL     1       2.183  11.161  11.081  1.00  0.00     0.039 C 
BRANCH  15  16
ATOM     16  C   UNL     1       3.613  11.713  10.875  1.00  0.00     0.032 CG0
ATOM     17  G   UNL     1       3.750  13.219  10.912  1.00  0.00     0.000 G0
ENDBRANCH  15  16
ENDBRANCH  13  15
ENDBRANCH   1  13
TORSDOF 1
ENDMDL
MODEL 5
REMARK VINA RESULT:     1.945      2.705      4.991
REMARK INTER + INTRA:           2.638
REMARK INTER:                  -0.539
REMARK INTRA:                   3.177
REMARK UNBOUND:                -0.217
REMARK SMILES C=C1C=C[C@H](C(C)C)CCC(C)=CCC1
REMARK SMILES IDX 3 1 4 2 5 3 9 4 10 5 11 6 12 7 13 8 6 10 7 11 8 12 2 13 1 14
REMARK SMILES IDX 15 15 14 16
REMARK H PARENT
REMARK Flexibility Score: 70.00
ROOT
ATOM      1  C   UNL     1       3.955   6.697  12.815  1.00  0.00    -0.001 C 
ATOM      2  C   UNL     1       5.068   6.634  12.068  1.00  0.00    -0.023 C 
ENDROOT
BRANCH   2   3
ATOM      3  C   UNL     1       5.925   7.840  11.716  1.00  0.00     0.014 C 
BRANCH   3   4
ATOM      4  C   UNL     1       5.265   9.173  12.159  1.00  0.00     0.012 C 
BRANCH   4   5
ATOM      5  C   UNL     1       4.535   9.954  11.039  1.00  0.00     0.031 C 
BRANCH   5   6
ATOM      6  C   UNL     1       3.838  11.231  11.488  1.00  0.00    -0.077 C 
ATOM      7  C   UNL     1       4.300  12.535  10.883  1.00  0.00     0.039 C 
ATOM      8  C   UNL     1       2.911  11.304  12.477  1.00  0.00    -0.028 CG0
ATOM      9  G   UNL     1       2.151  10.164  13.119  1.00  0.00     0.000 G0
ENDBRANCH   5   6
ENDBRANCH   4   5
ENDBRANCH   3   4
BRANCH   3  10
ATOM     10  C   UNL     1       7.385   7.698  12.248  1.00  0.00    -0.010 C 
ATOM     11  C   UNL     1       7.640   8.379  13.606  1.00  0.00     0.008 C 
ATOM     12  C   UNL     1       7.798   6.219  12.327  1.00  0.00     0.008 C 
ENDBRANCH   3  10
ENDBRANCH   2   3
BRANCH   1  13
ATOM     13  C   UNL     1       3.387   7.954  13.338  1.00  0.00    -0.055 C 
ATOM     14  C   UNL     1       3.761   8.382  14.546  1.00  0.00     0.012 C 
BRANCH  13  15
ATOM     15  C   UNL     1       2.406   8.758  12.512  1.00  0.00     0.039 C 
BRANCH  15  16
ATOM     16  C   UNL     1       2.155  10.156  13.123  1.00  0.00     0.032 CG0
ATOM     17  G   UNL     1       2.912  11.299  12.486  1.00  0.00     0.000 G0
ENDBRANCH  15  16
ENDBRANCH  13  15
ENDBRANCH   1  13
TORSDOF 1
ENDMDL
