MODEL 1
REMARK VINA RESULT:    -4.483      0.000      0.000
REMARK INTER + INTRA:          -7.062
REMARK INTER:                  -6.580
REMARK INTRA:                  -0.483
REMARK UNBOUND:                -0.483
REMARK SMILES O=C([O-])CCCCCCCC(=O)[O-]
REMARK SMILES IDX 7 1 6 2 5 3 4 4 2 5 1 6 3 7 8 8 9 9 10 10 11 11 12 12 13 13
REMARK H PARENT
REMARK Flexibility Score: inf
ROOT
ATOM      1  C   UNL     1      -2.504 -36.070  20.780  1.00  0.00     0.000 C 
ENDROOT
BRANCH   1   2
ATOM      2  C   UNL     1      -2.367 -37.604  20.790  1.00  0.00     0.000 C 
BRANCH   2   3
ATOM      3  C   UNL     1      -0.994 -38.076  20.290  1.00  0.00     0.006 C 
BRANCH   3   4
ATOM      4  C   UNL     1       0.116 -37.865  21.329  1.00  0.00     0.053 C 
BRANCH   4   5
ATOM      5  C   UNL     1       1.178 -36.963  20.782  1.00  0.00     0.041 C 
ATOM      6  O   UNL     1       1.272 -35.775  21.191  1.00  0.00    -0.550 OA
ATOM      7  O   UNL     1       2.032 -37.418  19.787  1.00  0.00    -0.550 OA
ENDBRANCH   4   5
ENDBRANCH   3   4
ENDBRANCH   2   3
ENDBRANCH   1   2
BRANCH   1   8
ATOM      8  C   UNL     1      -2.752 -35.491  22.182  1.00  0.00     0.000 C 
BRANCH   8   9
ATOM      9  C   UNL     1      -1.676 -34.477  22.602  1.00  0.00     0.006 C 
BRANCH   9  10
ATOM     10  C   UNL     1      -2.314 -33.200  23.156  1.00  0.00     0.053 C 
BRANCH  10  11
ATOM     11  C   UNL     1      -1.493 -32.650  24.279  1.00  0.00     0.041 C 
ATOM     12  O   UNL     1      -1.554 -33.169  25.424  1.00  0.00    -0.550 OA
ATOM     13  O   UNL     1      -0.697 -31.529  24.074  1.00  0.00    -0.550 OA
ENDBRANCH  10  11
ENDBRANCH   9  10
ENDBRANCH   8   9
ENDBRANCH   1   8
TORSDOF 8
ENDMDL
MODEL 2
REMARK VINA RESULT:    -4.449      1.041      5.278
REMARK INTER + INTRA:          -7.012
REMARK INTER:                  -6.496
REMARK INTRA:                  -0.516
REMARK UNBOUND:                -0.483
REMARK SMILES O=C([O-])CCCCCCCC(=O)[O-]
REMARK SMILES IDX 7 1 6 2 5 3 4 4 2 5 1 6 3 7 8 8 9 9 10 10 11 11 12 12 13 13
REMARK H PARENT
REMARK Flexibility Score: inf
ROOT
ATOM      1  C   UNL     1      -2.644 -37.094  21.076  1.00  0.00     0.000 C 
ENDROOT
BRANCH   1   2
ATOM      2  C   UNL     1      -2.191 -35.624  21.138  1.00  0.00     0.000 C 
BRANCH   2   3
ATOM      3  C   UNL     1      -2.469 -34.979  22.504  1.00  0.00     0.006 C 
BRANCH   3   4
ATOM      4  C   UNL     1      -1.456 -33.881  22.854  1.00  0.00     0.053 C 
BRANCH   4   5
ATOM      5  C   UNL     1      -2.042 -32.926  23.844  1.00  0.00     0.041 C 
ATOM      6  O   UNL     1      -2.983 -32.160  23.505  1.00  0.00    -0.550 OA
ATOM      7  O   UNL     1      -1.520 -32.846  25.128  1.00  0.00    -0.550 OA
ENDBRANCH   4   5
ENDBRANCH   3   4
ENDBRANCH   2   3
ENDBRANCH   1   2
BRANCH   1   8
ATOM      8  C   UNL     1      -1.578 -38.015  20.463  1.00  0.00     0.000 C 
BRANCH   8   9
ATOM      9  C   UNL     1      -0.224 -37.913  21.182  1.00  0.00     0.006 C 
BRANCH   9  10
ATOM     10  C   UNL     1       0.907 -37.645  20.185  1.00  0.00     0.053 C 
BRANCH  10  11
ATOM     11  C   UNL     1       1.415 -36.246  20.333  1.00  0.00     0.041 C 
ATOM     12  O   UNL     1       1.960 -35.662  19.360  1.00  0.00    -0.550 OA
ATOM     13  O   UNL     1       1.332 -35.603  21.562  1.00  0.00    -0.550 OA
ENDBRANCH  10  11
ENDBRANCH   9  10
ENDBRANCH   8   9
ENDBRANCH   1   8
TORSDOF 8
ENDMDL
MODEL 3
REMARK VINA RESULT:    -4.406      1.794      5.364
REMARK INTER + INTRA:          -6.950
REMARK INTER:                  -6.525
REMARK INTRA:                  -0.425
REMARK UNBOUND:                -0.483
REMARK SMILES O=C([O-])CCCCCCCC(=O)[O-]
REMARK SMILES IDX 7 1 6 2 5 3 4 4 2 5 1 6 3 7 8 8 9 9 10 10 11 11 12 12 13 13
REMARK H PARENT
REMARK Flexibility Score: inf
ROOT
ATOM      1  C   UNL     1      -0.656 -35.762  20.971  1.00  0.00     0.000 C 
ENDROOT
BRANCH   1   2
ATOM      2  C   UNL     1      -2.156 -35.801  21.315  1.00  0.00     0.000 C 
BRANCH   2   3
ATOM      3  C   UNL     1      -2.501 -34.950  22.547  1.00  0.00     0.006 C 
BRANCH   3   4
ATOM      4  C   UNL     1      -1.457 -33.859  22.821  1.00  0.00     0.053 C 
BRANCH   4   5
ATOM      5  C   UNL     1      -1.982 -32.872  23.814  1.00  0.00     0.041 C 
ATOM      6  O   UNL     1      -2.976 -32.153  23.527  1.00  0.00    -0.550 OA
ATOM      7  O   UNL     1      -1.345 -32.710  25.037  1.00  0.00    -0.550 OA
ENDBRANCH   4   5
ENDBRANCH   3   4
ENDBRANCH   2   3
ENDBRANCH   1   2
BRANCH   1   8
ATOM      8  C   UNL     1      -0.015 -37.159  20.968  1.00  0.00     0.000 C 
BRANCH   8   9
ATOM      9  C   UNL     1       1.517 -37.106  21.071  1.00  0.00     0.006 C 
BRANCH   9  10
ATOM     10  C   UNL     1       1.987 -35.734  21.561  1.00  0.00     0.053 C 
BRANCH  10  11
ATOM     11  C   UNL     1       3.449 -35.760  21.873  1.00  0.00     0.041 C 
ATOM     12  O   UNL     1       3.858 -35.462  23.025  1.00  0.00    -0.550 OA
ATOM     13  O   UNL     1       4.367 -36.067  20.876  1.00  0.00    -0.550 OA
ENDBRANCH  10  11
ENDBRANCH   9  10
ENDBRANCH   8   9
ENDBRANCH   1   8
TORSDOF 8
ENDMDL
MODEL 4
REMARK VINA RESULT:    -4.325      1.707      2.189
REMARK INTER + INTRA:          -6.830
REMARK INTER:                  -6.452
REMARK INTRA:                  -0.378
REMARK UNBOUND:                -0.483
REMARK SMILES O=C([O-])CCCCCCCC(=O)[O-]
REMARK SMILES IDX 7 1 6 2 5 3 4 4 2 5 1 6 3 7 8 8 9 9 10 10 11 11 12 12 13 13
REMARK H PARENT
REMARK Flexibility Score: inf
ROOT
ATOM      1  C   UNL     1      -0.575 -35.863  21.107  1.00  0.00     0.000 C 
ENDROOT
BRANCH   1   2
ATOM      2  C   UNL     1      -0.027 -37.279  20.851  1.00  0.00     0.000 C 
BRANCH   2   3
ATOM      3  C   UNL     1       1.500 -37.356  21.001  1.00  0.00     0.006 C 
BRANCH   3   4
ATOM      4  C   UNL     1       2.185 -36.004  20.762  1.00  0.00     0.053 C 
BRANCH   4   5
ATOM      5  C   UNL     1       3.294 -35.799  21.744  1.00  0.00     0.041 C 
ATOM      6  O   UNL     1       3.122 -35.058  22.748  1.00  0.00    -0.550 OA
ATOM      7  O   UNL     1       4.533 -36.386  21.526  1.00  0.00    -0.550 OA
ENDBRANCH   4   5
ENDBRANCH   3   4
ENDBRANCH   2   3
ENDBRANCH   1   2
BRANCH   1   8
ATOM      8  C   UNL     1      -2.098 -35.848  21.307  1.00  0.00     0.000 C 
BRANCH   8   9
ATOM      9  C   UNL     1      -2.528 -34.991  22.509  1.00  0.00     0.006 C 
BRANCH   9  10
ATOM     10  C   UNL     1      -1.452 -33.961  22.860  1.00  0.00     0.053 C 
BRANCH  10  11
ATOM     11  C   UNL     1      -1.981 -32.963  23.841  1.00  0.00     0.041 C 
ATOM     12  O   UNL     1      -2.915 -32.185  23.513  1.00  0.00    -0.550 OA
ATOM     13  O   UNL     1      -1.409 -32.858  25.103  1.00  0.00    -0.550 OA
ENDBRANCH  10  11
ENDBRANCH   9  10
ENDBRANCH   8   9
ENDBRANCH   1   8
TORSDOF 8
ENDMDL
MODEL 5
REMARK VINA RESULT:    -4.202      1.582      6.100
REMARK INTER + INTRA:          -6.650
REMARK INTER:                  -6.329
REMARK INTRA:                  -0.321
REMARK UNBOUND:                -0.483
REMARK SMILES O=C([O-])CCCCCCCC(=O)[O-]
REMARK SMILES IDX 7 1 6 2 5 3 4 4 2 5 1 6 3 7 8 8 9 9 10 10 11 11 12 12 13 13
REMARK H PARENT
REMARK Flexibility Score: inf
ROOT
ATOM      1  C   UNL     1      -0.793 -35.591  20.976  1.00  0.00     0.000 C 
ENDROOT
BRANCH   1   2
ATOM      2  C   UNL     1      -2.205 -35.836  21.539  1.00  0.00     0.000 C 
BRANCH   2   3
ATOM      3  C   UNL     1      -2.543 -34.899  22.708  1.00  0.00     0.006 C 
BRANCH   3   4
ATOM      4  C   UNL     1      -1.585 -33.704  22.802  1.00  0.00     0.053 C 
BRANCH   4   5
ATOM      5  C   UNL     1      -2.036 -32.756  23.868  1.00  0.00     0.041 C 
ATOM      6  O   UNL     1      -1.590 -32.865  25.041  1.00  0.00    -0.550 OA
ATOM      7  O   UNL     1      -2.984 -31.784  23.579  1.00  0.00    -0.550 OA
ENDBRANCH   4   5
ENDBRANCH   3   4
ENDBRANCH   2   3
ENDBRANCH   1   2
BRANCH   1   8
ATOM      8  C   UNL     1       0.058 -36.870  20.938  1.00  0.00     0.000 C 
BRANCH   8   9
ATOM      9  C   UNL     1       1.566 -36.577  20.917  1.00  0.00     0.006 C 
BRANCH   9  10
ATOM     10  C   UNL     1       1.952 -35.785  19.665  1.00  0.00     0.053 C 
BRANCH  10  11
ATOM     11  C   UNL     1       2.734 -36.644  18.722  1.00  0.00     0.041 C 
ATOM     12  O   UNL     1       2.145 -37.489  17.998  1.00  0.00    -0.550 OA
ATOM     13  O   UNL     1       4.119 -36.545  18.677  1.00  0.00    -0.550 OA
ENDBRANCH  10  11
ENDBRANCH   9  10
ENDBRANCH   8   9
ENDBRANCH   1   8
TORSDOF 8
ENDMDL
MODEL 6
REMARK VINA RESULT:    -4.147      2.616      5.040
REMARK INTER + INTRA:          -6.569
REMARK INTER:                  -6.003
REMARK INTRA:                  -0.567
REMARK UNBOUND:                -0.483
REMARK SMILES O=C([O-])CCCCCCCC(=O)[O-]
REMARK SMILES IDX 7 1 6 2 5 3 4 4 2 5 1 6 3 7 8 8 9 9 10 10 11 11 12 12 13 13
REMARK H PARENT
REMARK Flexibility Score: inf
ROOT
ATOM      1  C   UNL     1       0.860 -35.749  20.058  1.00  0.00     0.000 C 
ENDROOT
BRANCH   1   2
ATOM      2  C   UNL     1       0.552 -36.914  21.017  1.00  0.00     0.000 C 
BRANCH   2   3
ATOM      3  C   UNL     1      -0.930 -37.317  20.997  1.00  0.00     0.006 C 
BRANCH   3   4
ATOM      4  C   UNL     1      -1.856 -36.144  20.644  1.00  0.00     0.053 C 
BRANCH   4   5
ATOM      5  C   UNL     1      -2.511 -35.608  21.877  1.00  0.00     0.041 C 
ATOM      6  O   UNL     1      -3.637 -36.043  22.237  1.00  0.00    -0.550 OA
ATOM      7  O   UNL     1      -1.903 -34.593  22.603  1.00  0.00    -0.550 OA
ENDBRANCH   4   5
ENDBRANCH   3   4
ENDBRANCH   2   3
ENDBRANCH   1   2
BRANCH   1   8
ATOM      8  C   UNL     1       2.287 -35.813  19.492  1.00  0.00     0.000 C 
BRANCH   8   9
ATOM      9  C   UNL     1       3.241 -36.622  20.384  1.00  0.00     0.006 C 
BRANCH   9  10
ATOM     10  C   UNL     1       4.190 -35.697  21.151  1.00  0.00     0.053 C 
BRANCH  10  11
ATOM     11  C   UNL     1       3.739 -35.542  22.568  1.00  0.00     0.041 C 
ATOM     12  O   UNL     1       4.270 -36.227  23.482  1.00  0.00    -0.550 OA
ATOM     13  O   UNL     1       2.696 -34.677  22.875  1.00  0.00    -0.550 OA
ENDBRANCH  10  11
ENDBRANCH   9  10
ENDBRANCH   8   9
ENDBRANCH   1   8
TORSDOF 8
ENDMDL
MODEL 7
REMARK VINA RESULT:    -4.097      1.385      1.999
REMARK INTER + INTRA:          -6.496
REMARK INTER:                  -6.173
REMARK INTRA:                  -0.323
REMARK UNBOUND:                -0.483
REMARK SMILES O=C([O-])CCCCCCCC(=O)[O-]
REMARK SMILES IDX 7 1 6 2 5 3 4 4 2 5 1 6 3 7 8 8 9 9 10 10 11 11 12 12 13 13
REMARK H PARENT
REMARK Flexibility Score: inf
ROOT
ATOM      1  C   UNL     1      -1.634 -36.132  21.203  1.00  0.00     0.000 C 
ENDROOT
BRANCH   1   2
ATOM      2  C   UNL     1      -0.372 -36.983  20.975  1.00  0.00     0.000 C 
BRANCH   2   3
ATOM      3  C   UNL     1       0.914 -36.143  20.979  1.00  0.00     0.006 C 
BRANCH   3   4
ATOM      4  C   UNL     1       2.182 -37.005  20.915  1.00  0.00     0.053 C 
BRANCH   4   5
ATOM      5  C   UNL     1       3.323 -36.215  20.358  1.00  0.00     0.041 C 
ATOM      6  O   UNL     1       4.331 -35.967  21.072  1.00  0.00    -0.550 OA
ATOM      7  O   UNL     1       3.254 -35.708  19.067  1.00  0.00    -0.550 OA
ENDBRANCH   4   5
ENDBRANCH   3   4
ENDBRANCH   2   3
ENDBRANCH   1   2
BRANCH   1   8
ATOM      8  C   UNL     1      -1.322 -34.780  21.865  1.00  0.00     0.000 C 
BRANCH   8   9
ATOM      9  C   UNL     1      -2.367 -34.384  22.920  1.00  0.00     0.006 C 
BRANCH   9  10
ATOM     10  C   UNL     1      -2.311 -32.881  23.209  1.00  0.00     0.053 C 
BRANCH  10  11
ATOM     11  C   UNL     1      -1.379 -32.600  24.344  1.00  0.00     0.041 C 
ATOM     12  O   UNL     1      -0.371 -31.865  24.171  1.00  0.00    -0.550 OA
ATOM     13  O   UNL     1      -1.595 -33.190  25.584  1.00  0.00    -0.550 OA
ENDBRANCH  10  11
ENDBRANCH   9  10
ENDBRANCH   8   9
ENDBRANCH   1   8
TORSDOF 8
ENDMDL
MODEL 8
REMARK VINA RESULT:    -4.048      2.787      4.044
REMARK INTER + INTRA:          -6.424
REMARK INTER:                  -6.015
REMARK INTRA:                  -0.409
REMARK UNBOUND:                -0.483
REMARK SMILES O=C([O-])CCCCCCCC(=O)[O-]
REMARK SMILES IDX 7 1 6 2 5 3 4 4 2 5 1 6 3 7 8 8 9 9 10 10 11 11 12 12 13 13
REMARK H PARENT
REMARK Flexibility Score: inf
ROOT
ATOM      1  C   UNL     1       1.203 -36.076  20.376  1.00  0.00     0.000 C 
ENDROOT
BRANCH   1   2
ATOM      2  C   UNL     1       2.502 -36.315  19.586  1.00  0.00     0.000 C 
BRANCH   2   3
ATOM      3  C   UNL     1       3.758 -35.961  20.396  1.00  0.00     0.006 C 
BRANCH   3   4
ATOM      4  C   UNL     1       3.443 -35.646  21.865  1.00  0.00     0.053 C 
BRANCH   4   5
ATOM      5  C   UNL     1       4.318 -36.453  22.771  1.00  0.00     0.041 C 
ATOM      6  O   UNL     1       5.253 -35.898  23.408  1.00  0.00    -0.550 OA
ATOM      7  O   UNL     1       4.134 -37.825  22.875  1.00  0.00    -0.550 OA
ENDBRANCH   4   5
ENDBRANCH   3   4
ENDBRANCH   2   3
ENDBRANCH   1   2
BRANCH   1   8
ATOM      8  C   UNL     1       0.403 -37.369  20.603  1.00  0.00     0.000 C 
BRANCH   8   9
ATOM      9  C   UNL     1      -1.073 -37.101  20.937  1.00  0.00     0.006 C 
BRANCH   9  10
ATOM     10  C   UNL     1      -1.369 -35.599  20.941  1.00  0.00     0.053 C 
BRANCH  10  11
ATOM     11  C   UNL     1      -2.246 -35.242  22.099  1.00  0.00     0.041 C 
ATOM     12  O   UNL     1      -3.323 -35.863  22.295  1.00  0.00    -0.550 OA
ATOM     13  O   UNL     1      -1.899 -34.187  22.935  1.00  0.00    -0.550 OA
ENDBRANCH  10  11
ENDBRANCH   9  10
ENDBRANCH   8   9
ENDBRANCH   1   8
TORSDOF 8
ENDMDL
