MODEL 1
REMARK VINA RESULT:    -2.824      0.000      0.000
REMARK INTER + INTRA:         -12.949
REMARK INTER:                  -7.446
REMARK INTRA:                  -5.503
REMARK UNBOUND:                -5.503
REMARK SMILES CCCCCCCCCCCCCCCCCCCCCCCCCCCCCC(=O)[O-]
REMARK SMILES IDX 16 1 17 2 18 3 19 4 20 5 21 6 22 7 23 8 24 9 25 10 26 11
REMARK SMILES IDX 27 12 28 13 29 14 30 15 31 16 32 17 15 18 14 19 13 20 12 21
REMARK SMILES IDX 11 22 10 23 9 24 8 25 7 26 6 27 5 28 4 29 3 30 2 31 1 32
REMARK H PARENT
REMARK Flexibility Score: inf
ROOT
ATOM      1  C   UNL     1       8.542 -18.530  22.016  1.00  0.00     0.000 C 
ENDROOT
BRANCH   1   2
ATOM      2  C   UNL     1       7.392 -19.164  21.211  1.00  0.00     0.000 C 
BRANCH   2   3
ATOM      3  C   UNL     1       7.673 -20.581  20.681  1.00  0.00     0.000 C 
BRANCH   3   4
ATOM      4  C   UNL     1       8.354 -20.573  19.302  1.00  0.00     0.000 C 
BRANCH   4   5
ATOM      5  C   UNL     1       7.871 -19.420  18.403  1.00  0.00     0.000 C 
BRANCH   5   6
ATOM      6  C   UNL     1       8.980 -18.483  17.881  1.00  0.00     0.000 C 
BRANCH   6   7
ATOM      7  C   UNL     1       8.634 -16.984  17.890  1.00  0.00     0.000 C 
BRANCH   7   8
ATOM      8  C   UNL     1       9.086 -16.271  19.176  1.00  0.00     0.000 C 
BRANCH   8   9
ATOM      9  C   UNL     1       8.134 -15.135  19.584  1.00  0.00     0.000 C 
BRANCH   9  10
ATOM     10  C   UNL     1       6.878 -15.069  18.701  1.00  0.00     0.000 C 
BRANCH  10  11
ATOM     11  C   UNL     1       5.668 -15.680  19.423  1.00  0.00     0.000 C 
BRANCH  11  12
ATOM     12  C   UNL     1       4.330 -15.290  18.775  1.00  0.00     0.000 C 
BRANCH  12  13
ATOM     13  C   UNL     1       3.629 -16.483  18.103  1.00  0.00     0.006 C 
BRANCH  13  14
ATOM     14  C   UNL     1       2.824 -17.322  19.103  1.00  0.00     0.053 C 
BRANCH  14  15
ATOM     15  C   UNL     1       3.204 -18.771  19.053  1.00  0.00     0.041 C 
ATOM     16  O   UNL     1       2.337 -19.644  18.783  1.00  0.00    -0.550 OA
ATOM     17  O   UNL     1       4.509 -19.159  19.325  1.00  0.00    -0.550 OA
ENDBRANCH  14  15
ENDBRANCH  13  14
ENDBRANCH  12  13
ENDBRANCH  11  12
ENDBRANCH  10  11
ENDBRANCH   9  10
ENDBRANCH   8   9
ENDBRANCH   7   8
ENDBRANCH   6   7
ENDBRANCH   5   6
ENDBRANCH   4   5
ENDBRANCH   3   4
ENDBRANCH   2   3
ENDBRANCH   1   2
BRANCH   1  18
ATOM     18  C   UNL     1       9.466 -19.560  22.701  1.00  0.00     0.000 C 
BRANCH  18  19
ATOM     19  C   UNL     1      10.938 -19.398  22.280  1.00  0.00     0.000 C 
BRANCH  19  20
ATOM     20  C   UNL     1      11.084 -18.902  20.825  1.00  0.00     0.000 C 
BRANCH  20  21
ATOM     21  C   UNL     1      12.519 -18.484  20.451  1.00  0.00     0.000 C 
BRANCH  21  22
ATOM     22  C   UNL     1      13.548 -18.583  21.593  1.00  0.00     0.000 C 
BRANCH  22  23
ATOM     23  C   UNL     1      14.535 -17.404  21.690  1.00  0.00     0.000 C 
BRANCH  23  24
ATOM     24  C   UNL     1      14.884 -17.033  23.141  1.00  0.00    -0.000 C 
BRANCH  24  25
ATOM     25  C   UNL     1      13.677 -17.130  24.093  1.00  0.00    -0.000 C 
BRANCH  25  26
ATOM     26  C   UNL     1      12.749 -15.901  24.116  1.00  0.00    -0.000 C 
BRANCH  26  27
ATOM     27  C   UNL     1      11.284 -16.247  23.796  1.00  0.00    -0.000 C 
BRANCH  27  28
ATOM     28  C   UNL     1      10.787 -15.599  22.490  1.00  0.00    -0.000 C 
BRANCH  28  29
ATOM     29  C   UNL     1      11.691 -14.484  21.923  1.00  0.00    -0.000 C 
BRANCH  29  30
ATOM     30  C   UNL     1      12.278 -14.763  20.525  1.00  0.00    -0.000 C 
BRANCH  30  31
ATOM     31  C   UNL     1      12.210 -13.577  19.548  1.00  0.00    -0.003 C 
ATOM     32  C   UNL     1      12.843 -12.305  20.111  1.00  0.00     0.004 C 
ENDBRANCH  30  31
ENDBRANCH  29  30
ENDBRANCH  28  29
ENDBRANCH  27  28
ENDBRANCH  26  27
ENDBRANCH  25  26
ENDBRANCH  24  25
ENDBRANCH  23  24
ENDBRANCH  22  23
ENDBRANCH  21  22
ENDBRANCH  20  21
ENDBRANCH  19  20
ENDBRANCH  18  19
ENDBRANCH   1  18
TORSDOF 28
ENDMDL
MODEL 2
REMARK VINA RESULT:    -2.773      1.538      3.594
REMARK INTER + INTRA:         -12.814
REMARK INTER:                  -6.670
REMARK INTRA:                  -6.144
REMARK UNBOUND:                -5.503
REMARK SMILES CCCCCCCCCCCCCCCCCCCCCCCCCCCCCC(=O)[O-]
REMARK SMILES IDX 16 1 17 2 18 3 19 4 20 5 21 6 22 7 23 8 24 9 25 10 26 11
REMARK SMILES IDX 27 12 28 13 29 14 30 15 31 16 32 17 15 18 14 19 13 20 12 21
REMARK SMILES IDX 11 22 10 23 9 24 8 25 7 26 6 27 5 28 4 29 3 30 2 31 1 32
REMARK H PARENT
REMARK Flexibility Score: inf
ROOT
ATOM      1  C   UNL     1       8.456 -17.108  22.054  1.00  0.00     0.000 C 
ENDROOT
BRANCH   1   2
ATOM      2  C   UNL     1       7.668 -18.360  22.483  1.00  0.00     0.000 C 
BRANCH   2   3
ATOM      3  C   UNL     1       7.384 -19.368  21.355  1.00  0.00     0.000 C 
BRANCH   3   4
ATOM      4  C   UNL     1       8.469 -19.359  20.265  1.00  0.00     0.000 C 
BRANCH   4   5
ATOM      5  C   UNL     1       7.907 -19.647  18.861  1.00  0.00     0.000 C 
BRANCH   5   6
ATOM      6  C   UNL     1       7.939 -18.456  17.881  1.00  0.00     0.000 C 
BRANCH   6   7
ATOM      7  C   UNL     1       8.658 -17.197  18.398  1.00  0.00     0.000 C 
BRANCH   7   8
ATOM      8  C   UNL     1       7.706 -16.007  18.610  1.00  0.00     0.000 C 
BRANCH   8   9
ATOM      9  C   UNL     1       6.226 -16.412  18.505  1.00  0.00     0.000 C 
BRANCH   9  10
ATOM     10  C   UNL     1       5.479 -16.275  19.841  1.00  0.00     0.000 C 
BRANCH  10  11
ATOM     11  C   UNL     1       4.606 -17.511  20.108  1.00  0.00     0.000 C 
BRANCH  11  12
ATOM     12  C   UNL     1       4.339 -18.337  18.840  1.00  0.00     0.000 C 
BRANCH  12  13
ATOM     13  C   UNL     1       3.099 -19.238  18.971  1.00  0.00     0.006 C 
BRANCH  13  14
ATOM     14  C   UNL     1       1.929 -18.519  19.655  1.00  0.00     0.053 C 
BRANCH  14  15
ATOM     15  C   UNL     1       1.591 -19.134  20.979  1.00  0.00     0.041 C 
ATOM     16  O   UNL     1       0.995 -18.458  21.858  1.00  0.00    -0.550 OA
ATOM     17  O   UNL     1       1.956 -20.447  21.251  1.00  0.00    -0.550 OA
ENDBRANCH  14  15
ENDBRANCH  13  14
ENDBRANCH  12  13
ENDBRANCH  11  12
ENDBRANCH  10  11
ENDBRANCH   9  10
ENDBRANCH   8   9
ENDBRANCH   7   8
ENDBRANCH   6   7
ENDBRANCH   5   6
ENDBRANCH   4   5
ENDBRANCH   3   4
ENDBRANCH   2   3
ENDBRANCH   1   2
BRANCH   1  18
ATOM     18  C   UNL     1       9.171 -16.391  23.219  1.00  0.00     0.000 C 
BRANCH  18  19
ATOM     19  C   UNL     1       9.896 -15.112  22.764  1.00  0.00     0.000 C 
BRANCH  19  20
ATOM     20  C   UNL     1       9.229 -14.464  21.531  1.00  0.00     0.000 C 
BRANCH  20  21
ATOM     21  C   UNL     1      10.229 -13.835  20.542  1.00  0.00     0.000 C 
BRANCH  21  22
ATOM     22  C   UNL     1      11.103 -14.839  19.766  1.00  0.00     0.000 C 
BRANCH  22  23
ATOM     23  C   UNL     1      12.555 -14.968  20.265  1.00  0.00     0.000 C 
BRANCH  23  24
ATOM     24  C   UNL     1      12.984 -16.427  20.490  1.00  0.00    -0.000 C 
BRANCH  24  25
ATOM     25  C   UNL     1      11.798 -17.409  20.498  1.00  0.00    -0.000 C 
BRANCH  25  26
ATOM     26  C   UNL     1      12.160 -18.886  20.739  1.00  0.00    -0.000 C 
BRANCH  26  27
ATOM     27  C   UNL     1      11.520 -19.462  22.014  1.00  0.00    -0.000 C 
BRANCH  27  28
ATOM     28  C   UNL     1      12.561 -19.979  23.025  1.00  0.00    -0.000 C 
BRANCH  28  29
ATOM     29  C   UNL     1      14.018 -19.557  22.744  1.00  0.00    -0.000 C 
BRANCH  29  30
ATOM     30  C   UNL     1      14.503 -18.318  23.524  1.00  0.00    -0.000 C 
BRANCH  30  31
ATOM     31  C   UNL     1      13.456 -17.693  24.460  1.00  0.00    -0.003 C 
ATOM     32  C   UNL     1      13.178 -16.223  24.146  1.00  0.00     0.004 C 
ENDBRANCH  30  31
ENDBRANCH  29  30
ENDBRANCH  28  29
ENDBRANCH  27  28
ENDBRANCH  26  27
ENDBRANCH  25  26
ENDBRANCH  24  25
ENDBRANCH  23  24
ENDBRANCH  22  23
ENDBRANCH  21  22
ENDBRANCH  20  21
ENDBRANCH  19  20
ENDBRANCH  18  19
ENDBRANCH   1  18
TORSDOF 28
ENDMDL
MODEL 3
REMARK VINA RESULT:    -2.759      1.687      3.174
REMARK INTER + INTRA:         -12.778
REMARK INTER:                  -7.130
REMARK INTRA:                  -5.648
REMARK UNBOUND:                -5.503
REMARK SMILES CCCCCCCCCCCCCCCCCCCCCCCCCCCCCC(=O)[O-]
REMARK SMILES IDX 16 1 17 2 18 3 19 4 20 5 21 6 22 7 23 8 24 9 25 10 26 11
REMARK SMILES IDX 27 12 28 13 29 14 30 15 31 16 32 17 15 18 14 19 13 20 12 21
REMARK SMILES IDX 11 22 10 23 9 24 8 25 7 26 6 27 5 28 4 29 3 30 2 31 1 32
REMARK H PARENT
REMARK Flexibility Score: inf
ROOT
ATOM      1  C   UNL     1       8.866 -16.616  22.891  1.00  0.00     0.000 C 
ENDROOT
BRANCH   1   2
ATOM      2  C   UNL     1       9.944 -15.965  22.003  1.00  0.00     0.000 C 
BRANCH   2   3
ATOM      3  C   UNL     1       9.471 -15.566  20.594  1.00  0.00     0.000 C 
BRANCH   3   4
ATOM      4  C   UNL     1      10.168 -16.373  19.485  1.00  0.00     0.000 C 
BRANCH   4   5
ATOM      5  C   UNL     1      11.197 -17.378  20.033  1.00  0.00     0.000 C 
BRANCH   5   6
ATOM      6  C   UNL     1      11.188 -18.765  19.357  1.00  0.00     0.000 C 
BRANCH   6   7
ATOM      7  C   UNL     1      10.020 -19.018  18.388  1.00  0.00     0.000 C 
BRANCH   7   8
ATOM      8  C   UNL     1       8.952 -19.960  18.970  1.00  0.00     0.000 C 
BRANCH   8   9
ATOM      9  C   UNL     1       7.524 -19.542  18.580  1.00  0.00     0.000 C 
BRANCH   9  10
ATOM     10  C   UNL     1       7.460 -18.117  18.008  1.00  0.00     0.000 C 
BRANCH  10  11
ATOM     11  C   UNL     1       6.189 -17.394  18.481  1.00  0.00     0.000 C 
BRANCH  11  12
ATOM     12  C   UNL     1       5.299 -18.277  19.369  1.00  0.00     0.000 C 
BRANCH  12  13
ATOM     13  C   UNL     1       3.878 -18.442  18.803  1.00  0.00     0.006 C 
BRANCH  13  14
ATOM     14  C   UNL     1       3.001 -19.338  19.687  1.00  0.00     0.053 C 
BRANCH  14  15
ATOM     15  C   UNL     1       1.792 -18.614  20.194  1.00  0.00     0.041 C 
ATOM     16  O   UNL     1       1.719 -18.272  21.404  1.00  0.00    -0.550 OA
ATOM     17  O   UNL     1       0.735 -18.336  19.336  1.00  0.00    -0.550 OA
ENDBRANCH  14  15
ENDBRANCH  13  14
ENDBRANCH  12  13
ENDBRANCH  11  12
ENDBRANCH  10  11
ENDBRANCH   9  10
ENDBRANCH   8   9
ENDBRANCH   7   8
ENDBRANCH   6   7
ENDBRANCH   5   6
ENDBRANCH   4   5
ENDBRANCH   3   4
ENDBRANCH   2   3
ENDBRANCH   1   2
BRANCH   1  18
ATOM     18  C   UNL     1       7.769 -17.358  22.097  1.00  0.00     0.000 C 
BRANCH  18  19
ATOM     19  C   UNL     1       7.828 -18.882  22.300  1.00  0.00     0.000 C 
BRANCH  19  20
ATOM     20  C   UNL     1       9.003 -19.311  23.207  1.00  0.00     0.000 C 
BRANCH  20  21
ATOM     21  C   UNL     1       9.912 -20.385  22.580  1.00  0.00     0.000 C 
BRANCH  21  22
ATOM     22  C   UNL     1      11.424 -20.113  22.696  1.00  0.00     0.000 C 
BRANCH  22  23
ATOM     23  C   UNL     1      11.849 -19.290  23.927  1.00  0.00     0.000 C 
BRANCH  23  24
ATOM     24  C   UNL     1      12.859 -18.181  23.587  1.00  0.00    -0.000 C 
BRANCH  24  25
ATOM     25  C   UNL     1      13.784 -18.550  22.413  1.00  0.00    -0.000 C 
BRANCH  25  26
ATOM     26  C   UNL     1      14.479 -17.364  21.716  1.00  0.00    -0.000 C 
BRANCH  26  27
ATOM     27  C   UNL     1      13.901 -16.000  22.131  1.00  0.00    -0.000 C 
BRANCH  27  28
ATOM     28  C   UNL     1      14.729 -14.814  21.603  1.00  0.00    -0.000 C 
BRANCH  28  29
ATOM     29  C   UNL     1      13.909 -13.586  21.157  1.00  0.00    -0.000 C 
BRANCH  29  30
ATOM     30  C   UNL     1      12.824 -13.869  20.099  1.00  0.00    -0.000 C 
BRANCH  30  31
ATOM     31  C   UNL     1      11.802 -12.737  19.902  1.00  0.00    -0.003 C 
ATOM     32  C   UNL     1      12.452 -11.355  19.828  1.00  0.00     0.004 C 
ENDBRANCH  30  31
ENDBRANCH  29  30
ENDBRANCH  28  29
ENDBRANCH  27  28
ENDBRANCH  26  27
ENDBRANCH  25  26
ENDBRANCH  24  25
ENDBRANCH  23  24
ENDBRANCH  22  23
ENDBRANCH  21  22
ENDBRANCH  20  21
ENDBRANCH  19  20
ENDBRANCH  18  19
ENDBRANCH   1  18
TORSDOF 28
ENDMDL
MODEL 4
REMARK VINA RESULT:    -2.749      3.265      6.307
REMARK INTER + INTRA:         -12.753
REMARK INTER:                  -6.320
REMARK INTRA:                  -6.433
REMARK UNBOUND:                -5.503
REMARK SMILES CCCCCCCCCCCCCCCCCCCCCCCCCCCCCC(=O)[O-]
REMARK SMILES IDX 16 1 17 2 18 3 19 4 20 5 21 6 22 7 23 8 24 9 25 10 26 11
REMARK SMILES IDX 27 12 28 13 29 14 30 15 31 16 32 17 15 18 14 19 13 20 12 21
REMARK SMILES IDX 11 22 10 23 9 24 8 25 7 26 6 27 5 28 4 29 3 30 2 31 1 32
REMARK H PARENT
REMARK Flexibility Score: inf
ROOT
ATOM      1  C   UNL     1       6.503 -16.871  22.662  1.00  0.00     0.000 C 
ENDROOT
BRANCH   1   2
ATOM      2  C   UNL     1       5.549 -18.079  22.723  1.00  0.00     0.000 C 
BRANCH   2   3
ATOM      3  C   UNL     1       4.417 -18.067  21.680  1.00  0.00     0.000 C 
BRANCH   3   4
ATOM      4  C   UNL     1       4.860 -18.627  20.318  1.00  0.00     0.000 C 
BRANCH   4   5
ATOM      5  C   UNL     1       4.083 -18.015  19.138  1.00  0.00     0.000 C 
BRANCH   5   6
ATOM      6  C   UNL     1       4.916 -17.127  18.191  1.00  0.00     0.000 C 
BRANCH   6   7
ATOM      7  C   UNL     1       6.245 -16.611  18.770  1.00  0.00     0.000 C 
BRANCH   7   8
ATOM      8  C   UNL     1       6.113 -15.230  19.436  1.00  0.00     0.000 C 
BRANCH   8   9
ATOM      9  C   UNL     1       7.478 -14.606  19.770  1.00  0.00     0.000 C 
BRANCH   9  10
ATOM     10  C   UNL     1       8.656 -15.441  19.243  1.00  0.00     0.000 C 
BRANCH  10  11
ATOM     11  C   UNL     1       9.784 -15.514  20.283  1.00  0.00     0.000 C 
BRANCH  11  12
ATOM     12  C   UNL     1      11.123 -14.983  19.746  1.00  0.00     0.000 C 
BRANCH  12  13
ATOM     13  C   UNL     1      11.351 -13.501  20.090  1.00  0.00     0.006 C 
BRANCH  13  14
ATOM     14  C   UNL     1      12.827 -13.098  19.971  1.00  0.00     0.053 C 
BRANCH  14  15
ATOM     15  C   UNL     1      13.321 -12.410  21.207  1.00  0.00     0.041 C 
ATOM     16  O   UNL     1      14.519 -12.030  21.284  1.00  0.00    -0.550 OA
ATOM     17  O   UNL     1      12.465 -12.210  22.283  1.00  0.00    -0.550 OA
ENDBRANCH  14  15
ENDBRANCH  13  14
ENDBRANCH  12  13
ENDBRANCH  11  12
ENDBRANCH  10  11
ENDBRANCH   9  10
ENDBRANCH   8   9
ENDBRANCH   7   8
ENDBRANCH   6   7
ENDBRANCH   5   6
ENDBRANCH   4   5
ENDBRANCH   3   4
ENDBRANCH   2   3
ENDBRANCH   1   2
BRANCH   1  18
ATOM     18  C   UNL     1       7.949 -17.196  23.092  1.00  0.00     0.000 C 
BRANCH  18  19
ATOM     19  C   UNL     1       8.641 -18.176  22.128  1.00  0.00     0.000 C 
BRANCH  19  20
ATOM     20  C   UNL     1       9.019 -19.508  22.812  1.00  0.00     0.000 C 
BRANCH  20  21
ATOM     21  C   UNL     1       8.815 -20.746  21.919  1.00  0.00     0.000 C 
BRANCH  21  22
ATOM     22  C   UNL     1       7.734 -20.598  20.831  1.00  0.00     0.000 C 
BRANCH  22  23
ATOM     23  C   UNL     1       8.219 -20.830  19.388  1.00  0.00     0.000 C 
BRANCH  23  24
ATOM     24  C   UNL     1       8.027 -19.599  18.486  1.00  0.00    -0.000 C 
BRANCH  24  25
ATOM     25  C   UNL     1       9.331 -18.814  18.254  1.00  0.00    -0.000 C 
BRANCH  25  26
ATOM     26  C   UNL     1      10.632 -19.584  18.551  1.00  0.00    -0.000 C 
BRANCH  26  27
ATOM     27  C   UNL     1      11.724 -18.701  19.179  1.00  0.00    -0.000 C 
BRANCH  27  28
ATOM     28  C   UNL     1      11.902 -18.952  20.688  1.00  0.00    -0.000 C 
BRANCH  28  29
ATOM     29  C   UNL     1      12.811 -17.944  21.420  1.00  0.00    -0.000 C 
BRANCH  29  30
ATOM     30  C   UNL     1      12.273 -17.437  22.773  1.00  0.00    -0.000 C 
BRANCH  30  31
ATOM     31  C   UNL     1      12.422 -15.923  23.001  1.00  0.00    -0.003 C 
ATOM     32  C   UNL     1      11.221 -15.308  23.720  1.00  0.00     0.004 C 
ENDBRANCH  30  31
ENDBRANCH  29  30
ENDBRANCH  28  29
ENDBRANCH  27  28
ENDBRANCH  26  27
ENDBRANCH  25  26
ENDBRANCH  24  25
ENDBRANCH  23  24
ENDBRANCH  22  23
ENDBRANCH  21  22
ENDBRANCH  20  21
ENDBRANCH  19  20
ENDBRANCH  18  19
ENDBRANCH   1  18
TORSDOF 28
ENDMDL
MODEL 5
REMARK VINA RESULT:    -2.746      1.579      3.053
REMARK INTER + INTRA:         -12.744
REMARK INTER:                  -6.368
REMARK INTRA:                  -6.376
REMARK UNBOUND:                -5.503
REMARK SMILES CCCCCCCCCCCCCCCCCCCCCCCCCCCCCC(=O)[O-]
REMARK SMILES IDX 16 1 17 2 18 3 19 4 20 5 21 6 22 7 23 8 24 9 25 10 26 11
REMARK SMILES IDX 27 12 28 13 29 14 30 15 31 16 32 17 15 18 14 19 13 20 12 21
REMARK SMILES IDX 11 22 10 23 9 24 8 25 7 26 6 27 5 28 4 29 3 30 2 31 1 32
REMARK H PARENT
REMARK Flexibility Score: inf
ROOT
ATOM      1  C   UNL     1       8.676 -18.424  23.886  1.00  0.00     0.000 C 
ENDROOT
BRANCH   1   2
ATOM      2  C   UNL     1       8.231 -17.312  22.916  1.00  0.00     0.000 C 
BRANCH   2   3
ATOM      3  C   UNL     1       9.258 -16.947  21.829  1.00  0.00     0.000 C 
BRANCH   3   4
ATOM      4  C   UNL     1       8.752 -15.847  20.882  1.00  0.00     0.000 C 
BRANCH   4   5
ATOM      5  C   UNL     1       9.361 -15.946  19.471  1.00  0.00     0.000 C 
BRANCH   5   6
ATOM      6  C   UNL     1       8.409 -16.473  18.378  1.00  0.00     0.000 C 
BRANCH   6   7
ATOM      7  C   UNL     1       8.696 -17.904  17.889  1.00  0.00     0.000 C 
BRANCH   7   8
ATOM      8  C   UNL     1       9.914 -18.541  18.580  1.00  0.00     0.000 C 
BRANCH   8   9
ATOM      9  C   UNL     1       9.518 -19.675  19.541  1.00  0.00     0.000 C 
BRANCH   9  10
ATOM     10  C   UNL     1       8.020 -20.009  19.477  1.00  0.00     0.000 C 
BRANCH  10  11
ATOM     11  C   UNL     1       7.461 -20.288  20.880  1.00  0.00     0.000 C 
BRANCH  11  12
ATOM     12  C   UNL     1       6.092 -19.629  21.117  1.00  0.00     0.000 C 
BRANCH  12  13
ATOM     13  C   UNL     1       5.906 -18.342  20.294  1.00  0.00     0.006 C 
BRANCH  13  14
ATOM     14  C   UNL     1       4.981 -18.554  19.088  1.00  0.00     0.053 C 
BRANCH  14  15
ATOM     15  C   UNL     1       3.552 -18.730  19.503  1.00  0.00     0.041 C 
ATOM     16  O   UNL     1       3.075 -18.039  20.441  1.00  0.00    -0.550 OA
ATOM     17  O   UNL     1       2.754 -19.675  18.870  1.00  0.00    -0.550 OA
ENDBRANCH  14  15
ENDBRANCH  13  14
ENDBRANCH  12  13
ENDBRANCH  11  12
ENDBRANCH  10  11
ENDBRANCH   9  10
ENDBRANCH   8   9
ENDBRANCH   7   8
ENDBRANCH   6   7
ENDBRANCH   5   6
ENDBRANCH   4   5
ENDBRANCH   3   4
ENDBRANCH   2   3
ENDBRANCH   1   2
BRANCH   1  18
ATOM     18  C   UNL     1       9.822 -18.004  24.832  1.00  0.00     0.000 C 
BRANCH  18  19
ATOM     19  C   UNL     1      11.125 -18.773  24.552  1.00  0.00     0.000 C 
BRANCH  19  20
ATOM     20  C   UNL     1      10.901 -20.002  23.645  1.00  0.00     0.000 C 
BRANCH  20  21
ATOM     21  C   UNL     1      12.103 -20.336  22.741  1.00  0.00     0.000 C 
BRANCH  21  22
ATOM     22  C   UNL     1      13.349 -19.457  22.957  1.00  0.00     0.000 C 
BRANCH  22  23
ATOM     23  C   UNL     1      13.873 -18.740  21.698  1.00  0.00     0.000 C 
BRANCH  23  24
ATOM     24  C   UNL     1      12.747 -18.136  20.841  1.00  0.00    -0.000 C 
BRANCH  24  25
ATOM     25  C   UNL     1      12.773 -16.597  20.811  1.00  0.00    -0.000 C 
BRANCH  25  26
ATOM     26  C   UNL     1      13.920 -15.936  21.598  1.00  0.00    -0.000 C 
BRANCH  26  27
ATOM     27  C   UNL     1      13.447 -15.250  22.891  1.00  0.00    -0.000 C 
BRANCH  27  28
ATOM     28  C   UNL     1      11.916 -15.279  23.058  1.00  0.00    -0.000 C 
BRANCH  28  29
ATOM     29  C   UNL     1      11.214 -13.911  22.941  1.00  0.00    -0.000 C 
BRANCH  29  30
ATOM     30  C   UNL     1      11.941 -12.874  22.061  1.00  0.00    -0.000 C 
BRANCH  30  31
ATOM     31  C   UNL     1      11.342 -12.684  20.657  1.00  0.00    -0.003 C 
ATOM     32  C   UNL     1      12.226 -13.259  19.551  1.00  0.00     0.004 C 
ENDBRANCH  30  31
ENDBRANCH  29  30
ENDBRANCH  28  29
ENDBRANCH  27  28
ENDBRANCH  26  27
ENDBRANCH  25  26
ENDBRANCH  24  25
ENDBRANCH  23  24
ENDBRANCH  22  23
ENDBRANCH  21  22
ENDBRANCH  20  21
ENDBRANCH  19  20
ENDBRANCH  18  19
ENDBRANCH   1  18
TORSDOF 28
ENDMDL
MODEL 6
REMARK VINA RESULT:    -2.733      1.649      3.346
REMARK INTER + INTRA:         -12.710
REMARK INTER:                  -6.136
REMARK INTRA:                  -6.574
REMARK UNBOUND:                -5.503
REMARK SMILES CCCCCCCCCCCCCCCCCCCCCCCCCCCCCC(=O)[O-]
REMARK SMILES IDX 16 1 17 2 18 3 19 4 20 5 21 6 22 7 23 8 24 9 25 10 26 11
REMARK SMILES IDX 27 12 28 13 29 14 30 15 31 16 32 17 15 18 14 19 13 20 12 21
REMARK SMILES IDX 11 22 10 23 9 24 8 25 7 26 6 27 5 28 4 29 3 30 2 31 1 32
REMARK H PARENT
REMARK Flexibility Score: inf
ROOT
ATOM      1  C   UNL     1       8.888 -17.869  23.260  1.00  0.00     0.000 C 
ENDROOT
BRANCH   1   2
ATOM      2  C   UNL     1       7.810 -18.957  23.092  1.00  0.00     0.000 C 
BRANCH   2   3
ATOM      3  C   UNL     1       6.652 -18.585  22.151  1.00  0.00     0.000 C 
BRANCH   3   4
ATOM      4  C   UNL     1       6.448 -19.615  21.026  1.00  0.00     0.000 C 
BRANCH   4   5
ATOM      5  C   UNL     1       7.497 -20.741  21.050  1.00  0.00     0.000 C 
BRANCH   5   6
ATOM      6  C   UNL     1       8.291 -20.929  19.740  1.00  0.00     0.000 C 
BRANCH   6   7
ATOM      7  C   UNL     1       8.045 -19.859  18.661  1.00  0.00     0.000 C 
BRANCH   7   8
ATOM      8  C   UNL     1       9.318 -19.078  18.291  1.00  0.00     0.000 C 
BRANCH   8   9
ATOM      9  C   UNL     1       9.839 -18.219  19.455  1.00  0.00     0.000 C 
BRANCH   9  10
ATOM     10  C   UNL     1       8.962 -16.986  19.720  1.00  0.00     0.000 C 
BRANCH  10  11
ATOM     11  C   UNL     1       8.670 -16.231  18.414  1.00  0.00     0.000 C 
BRANCH  11  12
ATOM     12  C   UNL     1       7.254 -15.636  18.375  1.00  0.00     0.000 C 
BRANCH  12  13
ATOM     13  C   UNL     1       6.222 -16.519  19.098  1.00  0.00     0.006 C 
BRANCH  13  14
ATOM     14  C   UNL     1       5.399 -17.369  18.122  1.00  0.00     0.053 C 
BRANCH  14  15
ATOM     15  C   UNL     1       4.053 -17.719  18.680  1.00  0.00     0.041 C 
ATOM     16  O   UNL     1       3.727 -18.925  18.838  1.00  0.00    -0.550 OA
ATOM     17  O   UNL     1       3.150 -16.714  19.003  1.00  0.00    -0.550 OA
ENDBRANCH  14  15
ENDBRANCH  13  14
ENDBRANCH  12  13
ENDBRANCH  11  12
ENDBRANCH  10  11
ENDBRANCH   9  10
ENDBRANCH   8   9
ENDBRANCH   7   8
ENDBRANCH   6   7
ENDBRANCH   5   6
ENDBRANCH   4   5
ENDBRANCH   3   4
ENDBRANCH   2   3
ENDBRANCH   1   2
BRANCH   1  18
ATOM     18  C   UNL     1      10.300 -18.427  23.540  1.00  0.00     0.000 C 
BRANCH  18  19
ATOM     19  C   UNL     1      10.462 -19.879  23.057  1.00  0.00     0.000 C 
BRANCH  19  20
ATOM     20  C   UNL     1      11.905 -20.191  22.604  1.00  0.00     0.000 C 
BRANCH  20  21
ATOM     21  C   UNL     1      12.792 -18.942  22.446  1.00  0.00     0.000 C 
BRANCH  21  22
ATOM     22  C   UNL     1      12.973 -18.445  20.999  1.00  0.00     0.000 C 
BRANCH  22  23
ATOM     23  C   UNL     1      13.117 -16.919  20.843  1.00  0.00     0.000 C 
BRANCH  23  24
ATOM     24  C   UNL     1      12.674 -16.144  22.095  1.00  0.00    -0.000 C 
BRANCH  24  25
ATOM     25  C   UNL     1      12.210 -14.709  21.781  1.00  0.00    -0.000 C 
BRANCH  25  26
ATOM     26  C   UNL     1      11.638 -14.490  20.368  1.00  0.00    -0.000 C 
BRANCH  26  27
ATOM     27  C   UNL     1      10.929 -13.135  20.209  1.00  0.00    -0.000 C 
BRANCH  27  28
ATOM     28  C   UNL     1       9.393 -13.254  20.245  1.00  0.00    -0.000 C 
BRANCH  28  29
ATOM     29  C   UNL     1       8.764 -13.240  21.653  1.00  0.00    -0.000 C 
BRANCH  29  30
ATOM     30  C   UNL     1       7.797 -14.403  21.952  1.00  0.00    -0.000 C 
BRANCH  30  31
ATOM     31  C   UNL     1       6.329 -13.989  22.147  1.00  0.00    -0.003 C 
ATOM     32  C   UNL     1       5.414 -15.171  22.465  1.00  0.00     0.004 C 
ENDBRANCH  30  31
ENDBRANCH  29  30
ENDBRANCH  28  29
ENDBRANCH  27  28
ENDBRANCH  26  27
ENDBRANCH  25  26
ENDBRANCH  24  25
ENDBRANCH  23  24
ENDBRANCH  22  23
ENDBRANCH  21  22
ENDBRANCH  20  21
ENDBRANCH  19  20
ENDBRANCH  18  19
ENDBRANCH   1  18
TORSDOF 28
ENDMDL
MODEL 7
REMARK VINA RESULT:    -2.730      4.100      7.789
REMARK INTER + INTRA:         -12.701
REMARK INTER:                  -7.179
REMARK INTRA:                  -5.522
REMARK UNBOUND:                -5.503
REMARK SMILES CCCCCCCCCCCCCCCCCCCCCCCCCCCCCC(=O)[O-]
REMARK SMILES IDX 16 1 17 2 18 3 19 4 20 5 21 6 22 7 23 8 24 9 25 10 26 11
REMARK SMILES IDX 27 12 28 13 29 14 30 15 31 16 32 17 15 18 14 19 13 20 12 21
REMARK SMILES IDX 11 22 10 23 9 24 8 25 7 26 6 27 5 28 4 29 3 30 2 31 1 32
REMARK H PARENT
REMARK Flexibility Score: inf
ROOT
ATOM      1  C   UNL     1      13.743 -15.428  21.019  1.00  0.00     0.000 C 
ENDROOT
BRANCH   1   2
ATOM      2  C   UNL     1      12.627 -15.195  22.055  1.00  0.00     0.000 C 
BRANCH   2   3
ATOM      3  C   UNL     1      11.194 -15.320  21.508  1.00  0.00     0.000 C 
BRANCH   3   4
ATOM      4  C   UNL     1      11.148 -15.356  19.971  1.00  0.00     0.000 C 
BRANCH   4   5
ATOM      5  C   UNL     1       9.729 -15.591  19.421  1.00  0.00     0.000 C 
BRANCH   5   6
ATOM      6  C   UNL     1       8.580 -15.168  20.360  1.00  0.00     0.000 C 
BRANCH   6   7
ATOM      7  C   UNL     1       7.863 -13.862  19.977  1.00  0.00     0.000 C 
BRANCH   7   8
ATOM      8  C   UNL     1       8.225 -12.686  20.901  1.00  0.00     0.000 C 
BRANCH   8   9
ATOM      9  C   UNL     1       9.289 -11.761  20.287  1.00  0.00     0.000 C 
BRANCH   9  10
ATOM     10  C   UNL     1      10.575 -11.699  21.126  1.00  0.00     0.000 C 
BRANCH  10  11
ATOM     11  C   UNL     1      11.819 -11.757  20.226  1.00  0.00     0.000 C 
BRANCH  11  12
ATOM     12  C   UNL     1      13.131 -11.622  21.016  1.00  0.00     0.000 C 
BRANCH  12  13
ATOM     13  C   UNL     1      14.033 -10.498  20.477  1.00  0.00     0.006 C 
BRANCH  13  14
ATOM     14  C   UNL     1      13.224  -9.368  19.825  1.00  0.00     0.053 C 
BRANCH  14  15
ATOM     15  C   UNL     1      12.699  -8.399  20.840  1.00  0.00     0.041 C 
ATOM     16  O   UNL     1      11.768  -7.607  20.536  1.00  0.00    -0.550 OA
ATOM     17  O   UNL     1      13.253  -8.354  22.113  1.00  0.00    -0.550 OA
ENDBRANCH  14  15
ENDBRANCH  13  14
ENDBRANCH  12  13
ENDBRANCH  11  12
ENDBRANCH  10  11
ENDBRANCH   9  10
ENDBRANCH   8   9
ENDBRANCH   7   8
ENDBRANCH   6   7
ENDBRANCH   5   6
ENDBRANCH   4   5
ENDBRANCH   3   4
ENDBRANCH   2   3
ENDBRANCH   1   2
BRANCH   1  18
ATOM     18  C   UNL     1      14.694 -16.590  21.378  1.00  0.00     0.000 C 
BRANCH  18  19
ATOM     19  C   UNL     1      14.146 -17.465  22.519  1.00  0.00     0.000 C 
BRANCH  19  20
ATOM     20  C   UNL     1      13.856 -18.912  22.065  1.00  0.00     0.000 C 
BRANCH  20  21
ATOM     21  C   UNL     1      12.377 -19.171  21.723  1.00  0.00     0.000 C 
BRANCH  21  22
ATOM     22  C   UNL     1      11.987 -18.903  20.257  1.00  0.00     0.000 C 
BRANCH  22  23
ATOM     23  C   UNL     1      10.474 -18.931  19.965  1.00  0.00     0.000 C 
BRANCH  23  24
ATOM     24  C   UNL     1      10.152 -19.302  18.508  1.00  0.00    -0.000 C 
BRANCH  24  25
ATOM     25  C   UNL     1       8.670 -19.661  18.292  1.00  0.00    -0.000 C 
BRANCH  25  26
ATOM     26  C   UNL     1       7.735 -18.472  17.999  1.00  0.00    -0.000 C 
BRANCH  26  27
ATOM     27  C   UNL     1       6.768 -18.168  19.157  1.00  0.00    -0.000 C 
BRANCH  27  28
ATOM     28  C   UNL     1       6.628 -19.342  20.144  1.00  0.00    -0.000 C 
BRANCH  28  29
ATOM     29  C   UNL     1       6.829 -18.980  21.630  1.00  0.00    -0.000 C 
BRANCH  29  30
ATOM     30  C   UNL     1       7.724 -19.950  22.427  1.00  0.00    -0.000 C 
BRANCH  30  31
ATOM     31  C   UNL     1       8.877 -19.282  23.195  1.00  0.00    -0.003 C 
ATOM     32  C   UNL     1       8.883 -17.760  23.054  1.00  0.00     0.004 C 
ENDBRANCH  30  31
ENDBRANCH  29  30
ENDBRANCH  28  29
ENDBRANCH  27  28
ENDBRANCH  26  27
ENDBRANCH  25  26
ENDBRANCH  24  25
ENDBRANCH  23  24
ENDBRANCH  22  23
ENDBRANCH  21  22
ENDBRANCH  20  21
ENDBRANCH  19  20
ENDBRANCH  18  19
ENDBRANCH   1  18
TORSDOF 28
ENDMDL
MODEL 8
REMARK VINA RESULT:    -2.715      2.040      5.834
REMARK INTER + INTRA:         -12.662
REMARK INTER:                  -6.230
REMARK INTRA:                  -6.432
REMARK UNBOUND:                -5.503
REMARK SMILES CCCCCCCCCCCCCCCCCCCCCCCCCCCCCC(=O)[O-]
REMARK SMILES IDX 16 1 17 2 18 3 19 4 20 5 21 6 22 7 23 8 24 9 25 10 26 11
REMARK SMILES IDX 27 12 28 13 29 14 30 15 31 16 32 17 15 18 14 19 13 20 12 21
REMARK SMILES IDX 11 22 10 23 9 24 8 25 7 26 6 27 5 28 4 29 3 30 2 31 1 32
REMARK H PARENT
REMARK Flexibility Score: inf
ROOT
ATOM      1  C   UNL     1      11.779 -15.712  22.549  1.00  0.00     0.000 C 
ENDROOT
BRANCH   1   2
ATOM      2  C   UNL     1      11.928 -17.048  23.302  1.00  0.00     0.000 C 
BRANCH   2   3
ATOM      3  C   UNL     1      13.130 -17.907  22.870  1.00  0.00     0.000 C 
BRANCH   3   4
ATOM      4  C   UNL     1      13.196 -18.111  21.347  1.00  0.00     0.000 C 
BRANCH   4   5
ATOM      5  C   UNL     1      12.217 -19.187  20.845  1.00  0.00     0.000 C 
BRANCH   5   6
ATOM      6  C   UNL     1      11.347 -18.775  19.639  1.00  0.00     0.000 C 
BRANCH   6   7
ATOM      7  C   UNL     1      10.712 -17.377  19.732  1.00  0.00     0.000 C 
BRANCH   7   8
ATOM      8  C   UNL     1       9.307 -17.313  19.109  1.00  0.00     0.000 C 
BRANCH   8   9
ATOM      9  C   UNL     1       9.084 -18.405  18.050  1.00  0.00     0.000 C 
BRANCH   9  10
ATOM     10  C   UNL     1       7.802 -19.217  18.298  1.00  0.00     0.000 C 
BRANCH  10  11
ATOM     11  C   UNL     1       7.486 -19.295  19.799  1.00  0.00     0.000 C 
BRANCH  11  12
ATOM     12  C   UNL     1       7.979 -20.600  20.443  1.00  0.00     0.000 C 
BRANCH  12  13
ATOM     13  C   UNL     1       8.785 -20.356  21.731  1.00  0.00     0.006 C 
BRANCH  13  14
ATOM     14  C   UNL     1       8.428 -19.019  22.394  1.00  0.00     0.053 C 
BRANCH  14  15
ATOM     15  C   UNL     1       7.526 -19.204  23.576  1.00  0.00     0.041 C 
ATOM     16  O   UNL     1       7.801 -18.653  24.675  1.00  0.00    -0.550 OA
ATOM     17  O   UNL     1       6.395 -20.003  23.472  1.00  0.00    -0.550 OA
ENDBRANCH  14  15
ENDBRANCH  13  14
ENDBRANCH  12  13
ENDBRANCH  11  12
ENDBRANCH  10  11
ENDBRANCH   9  10
ENDBRANCH   8   9
ENDBRANCH   7   8
ENDBRANCH   6   7
ENDBRANCH   5   6
ENDBRANCH   4   5
ENDBRANCH   3   4
ENDBRANCH   2   3
ENDBRANCH   1   2
BRANCH   1  18
ATOM     18  C   UNL     1      12.809 -14.641  22.969  1.00  0.00     0.000 C 
BRANCH  18  19
ATOM     19  C   UNL     1      13.597 -14.084  21.771  1.00  0.00     0.000 C 
BRANCH  19  20
ATOM     20  C   UNL     1      13.153 -14.710  20.431  1.00  0.00     0.000 C 
BRANCH  20  21
ATOM     21  C   UNL     1      12.413 -13.729  19.502  1.00  0.00     0.000 C 
BRANCH  21  22
ATOM     22  C   UNL     1      12.227 -12.307  20.064  1.00  0.00     0.000 C 
BRANCH  22  23
ATOM     23  C   UNL     1      10.765 -11.848  20.219  1.00  0.00     0.000 C 
BRANCH  23  24
ATOM     24  C   UNL     1      10.169 -12.198  21.593  1.00  0.00    -0.000 C 
BRANCH  24  25
ATOM     25  C   UNL     1       9.172 -13.371  21.536  1.00  0.00    -0.000 C 
BRANCH  25  26
ATOM     26  C   UNL     1       8.817 -13.872  20.124  1.00  0.00    -0.000 C 
BRANCH  26  27
ATOM     27  C   UNL     1       7.360 -13.577  19.729  1.00  0.00    -0.000 C 
BRANCH  27  28
ATOM     28  C   UNL     1       6.849 -14.491  18.599  1.00  0.00    -0.000 C 
BRANCH  28  29
ATOM     29  C   UNL     1       6.076 -15.742  19.062  1.00  0.00    -0.000 C 
BRANCH  29  30
ATOM     30  C   UNL     1       5.347 -15.600  20.414  1.00  0.00    -0.000 C 
BRANCH  30  31
ATOM     31  C   UNL     1       5.883 -16.507  21.535  1.00  0.00    -0.003 C 
ATOM     32  C   UNL     1       6.496 -15.721  22.693  1.00  0.00     0.004 C 
ENDBRANCH  30  31
ENDBRANCH  29  30
ENDBRANCH  28  29
ENDBRANCH  27  28
ENDBRANCH  26  27
ENDBRANCH  25  26
ENDBRANCH  24  25
ENDBRANCH  23  24
ENDBRANCH  22  23
ENDBRANCH  21  22
ENDBRANCH  20  21
ENDBRANCH  19  20
ENDBRANCH  18  19
ENDBRANCH   1  18
TORSDOF 28
ENDMDL
MODEL 9
REMARK VINA RESULT:    -2.706      3.659      6.258
REMARK INTER + INTRA:         -12.638
REMARK INTER:                  -6.532
REMARK INTRA:                  -6.106
REMARK UNBOUND:                -5.503
REMARK SMILES CCCCCCCCCCCCCCCCCCCCCCCCCCCCCC(=O)[O-]
REMARK SMILES IDX 16 1 17 2 18 3 19 4 20 5 21 6 22 7 23 8 24 9 25 10 26 11
REMARK SMILES IDX 27 12 28 13 29 14 30 15 31 16 32 17 15 18 14 19 13 20 12 21
REMARK SMILES IDX 11 22 10 23 9 24 8 25 7 26 6 27 5 28 4 29 3 30 2 31 1 32
REMARK H PARENT
REMARK Flexibility Score: inf
ROOT
ATOM      1  C   UNL     1       5.333 -17.208  20.893  1.00  0.00     0.000 C 
ENDROOT
BRANCH   1   2
ATOM      2  C   UNL     1       5.165 -17.729  19.453  1.00  0.00     0.000 C 
BRANCH   2   3
ATOM      3  C   UNL     1       6.305 -18.633  18.952  1.00  0.00     0.000 C 
BRANCH   3   4
ATOM      4  C   UNL     1       7.254 -17.908  17.983  1.00  0.00     0.000 C 
BRANCH   4   5
ATOM      5  C   UNL     1       8.681 -17.759  18.543  1.00  0.00     0.000 C 
BRANCH   5   6
ATOM      6  C   UNL     1       9.016 -16.373  19.131  1.00  0.00     0.000 C 
BRANCH   6   7
ATOM      7  C   UNL     1       7.904 -15.316  19.002  1.00  0.00     0.000 C 
BRANCH   7   8
ATOM      8  C   UNL     1       7.784 -14.418  20.246  1.00  0.00     0.000 C 
BRANCH   8   9
ATOM      9  C   UNL     1       8.515 -13.076  20.074  1.00  0.00     0.000 C 
BRANCH   9  10
ATOM     10  C   UNL     1       9.088 -12.541  21.396  1.00  0.00     0.000 C 
BRANCH  10  11
ATOM     11  C   UNL     1      10.590 -12.250  21.263  1.00  0.00     0.000 C 
BRANCH  11  12
ATOM     12  C   UNL     1      11.247 -13.028  20.112  1.00  0.00     0.000 C 
BRANCH  12  13
ATOM     13  C   UNL     1      12.506 -12.330  19.569  1.00  0.00     0.006 C 
BRANCH  13  14
ATOM     14  C   UNL     1      13.037 -11.261  20.532  1.00  0.00     0.053 C 
BRANCH  14  15
ATOM     15  C   UNL     1      13.230  -9.939  19.852  1.00  0.00     0.041 C 
ATOM     16  O   UNL     1      12.468  -9.595  18.911  1.00  0.00    -0.550 OA
ATOM     17  O   UNL     1      14.265  -9.099  20.242  1.00  0.00    -0.550 OA
ENDBRANCH  14  15
ENDBRANCH  13  14
ENDBRANCH  12  13
ENDBRANCH  11  12
ENDBRANCH  10  11
ENDBRANCH   9  10
ENDBRANCH   8   9
ENDBRANCH   7   8
ENDBRANCH   6   7
ENDBRANCH   5   6
ENDBRANCH   4   5
ENDBRANCH   3   4
ENDBRANCH   2   3
ENDBRANCH   1   2
BRANCH   1  18
ATOM     18  C   UNL     1       6.490 -17.875  21.667  1.00  0.00     0.000 C 
BRANCH  18  19
ATOM     19  C   UNL     1       6.049 -19.163  22.385  1.00  0.00     0.000 C 
BRANCH  19  20
ATOM     20  C   UNL     1       7.129 -20.265  22.334  1.00  0.00     0.000 C 
BRANCH  20  21
ATOM     21  C   UNL     1       8.504 -19.767  21.850  1.00  0.00     0.000 C 
BRANCH  21  22
ATOM     22  C   UNL     1       9.611 -19.753  22.922  1.00  0.00     0.000 C 
BRANCH  22  23
ATOM     23  C   UNL     1      11.045 -19.599  22.381  1.00  0.00     0.000 C 
BRANCH  23  24
ATOM     24  C   UNL     1      11.087 -19.244  20.885  1.00  0.00    -0.000 C 
BRANCH  24  25
ATOM     25  C   UNL     1      12.402 -18.561  20.466  1.00  0.00    -0.000 C 
BRANCH  25  26
ATOM     26  C   UNL     1      13.512 -18.544  21.534  1.00  0.00    -0.000 C 
BRANCH  26  27
ATOM     27  C   UNL     1      14.308 -17.228  21.553  1.00  0.00    -0.000 C 
BRANCH  27  28
ATOM     28  C   UNL     1      13.422 -15.988  21.327  1.00  0.00    -0.000 C 
BRANCH  28  29
ATOM     29  C   UNL     1      13.225 -15.086  22.562  1.00  0.00    -0.000 C 
BRANCH  29  30
ATOM     30  C   UNL     1      11.828 -15.160  23.212  1.00  0.00    -0.000 C 
BRANCH  30  31
ATOM     31  C   UNL     1      10.757 -15.865  22.363  1.00  0.00    -0.003 C 
ATOM     32  C   UNL     1       9.443 -16.074  23.115  1.00  0.00     0.004 C 
ENDBRANCH  30  31
ENDBRANCH  29  30
ENDBRANCH  28  29
ENDBRANCH  27  28
ENDBRANCH  26  27
ENDBRANCH  25  26
ENDBRANCH  24  25
ENDBRANCH  23  24
ENDBRANCH  22  23
ENDBRANCH  21  22
ENDBRANCH  20  21
ENDBRANCH  19  20
ENDBRANCH  18  19
ENDBRANCH   1  18
TORSDOF 28
ENDMDL
