MODEL 1
REMARK VINA RESULT:    -3.836      0.000      0.000
REMARK INTER + INTRA:          -4.456
REMARK INTER:                  -4.397
REMARK INTRA:                  -0.059
REMARK UNBOUND:                -0.059
REMARK SMILES COc1cc(C=O)ccc1O
REMARK SMILES IDX 3 1 10 2 9 3 8 4 5 5 4 6 2 7 1 8 11 9 6 11 7 12
REMARK H PARENT 11 10
REMARK Flexibility Score: inf
ROOT
ATOM      1  C   UNL     1      -1.428   6.691   0.146  1.00  0.00     0.161 A 
ATOM      2  C   UNL     1      -1.202   7.200   1.439  1.00  0.00     0.157 A 
ATOM      3  C   UNL     1      -0.452   8.368   1.611  1.00  0.00     0.051 A 
ATOM      4  C   UNL     1       0.079   9.037   0.508  1.00  0.00     0.015 A 
ATOM      5  C   UNL     1      -0.136   8.545  -0.789  1.00  0.00     0.018 A 
ATOM      6  C   UNL     1      -0.888   7.373  -0.964  1.00  0.00     0.062 A 
ENDROOT
BRANCH   1   7
ATOM      7  O   UNL     1      -2.184   5.518   0.003  1.00  0.00    -0.493 OA
ATOM      8  C   UNL     1      -3.600   5.481  -0.147  1.00  0.00     0.278 C 
ENDBRANCH   1   7
BRANCH   2   9
ATOM      9  O   UNL     1      -1.716   6.559   2.566  1.00  0.00    -0.504 OA
ATOM     10  H   UNL     1      -1.728   5.550   2.654  1.00  0.00     0.293 HD
ENDBRANCH   2   9
BRANCH   5  11
ATOM     11  C   UNL     1       0.417   9.238  -1.967  1.00  0.00     0.260 C 
ATOM     12  O   UNL     1       1.647   9.190  -2.233  1.00  0.00    -0.298 OA
ENDBRANCH   5  11
TORSDOF 3
ENDMDL
MODEL 2
REMARK VINA RESULT:    -3.510     10.335     11.427
REMARK INTER + INTRA:          -4.082
REMARK INTER:                  -4.012
REMARK INTRA:                  -0.069
REMARK UNBOUND:                -0.059
REMARK SMILES COc1cc(C=O)ccc1O
REMARK SMILES IDX 3 1 10 2 9 3 8 4 5 5 4 6 2 7 1 8 11 9 6 11 7 12
REMARK H PARENT 11 10
REMARK Flexibility Score: inf
ROOT
ATOM      1  C   UNL     1       7.114   4.071   5.359  1.00  0.00     0.161 A 
ATOM      2  C   UNL     1       5.932   4.097   6.123  1.00  0.00     0.157 A 
ATOM      3  C   UNL     1       5.544   2.968   6.852  1.00  0.00     0.051 A 
ATOM      4  C   UNL     1       6.321   1.809   6.828  1.00  0.00     0.015 A 
ATOM      5  C   UNL     1       7.502   1.764   6.072  1.00  0.00     0.018 A 
ATOM      6  C   UNL     1       7.894   2.896   5.340  1.00  0.00     0.062 A 
ENDROOT
BRANCH   1   7
ATOM      7  O   UNL     1       7.480   5.218   4.638  1.00  0.00    -0.493 OA
ATOM      8  C   UNL     1       8.353   6.234   5.122  1.00  0.00     0.278 C 
ENDBRANCH   1   7
BRANCH   2   9
ATOM      9  O   UNL     1       5.130   5.237   6.171  1.00  0.00    -0.504 OA
ATOM     10  H   UNL     1       5.290   5.981   6.839  1.00  0.00     0.293 HD
ENDBRANCH   2   9
BRANCH   5  11
ATOM     11  C   UNL     1       8.336   0.549   6.035  1.00  0.00     0.260 C 
ATOM     12  O   UNL     1       8.570  -0.048   4.951  1.00  0.00    -0.298 OA
ENDBRANCH   5  11
TORSDOF 3
ENDMDL
MODEL 3
REMARK VINA RESULT:    -3.508     10.918     11.891
REMARK INTER + INTRA:          -4.079
REMARK INTER:                  -4.026
REMARK INTRA:                  -0.053
REMARK UNBOUND:                -0.059
REMARK SMILES COc1cc(C=O)ccc1O
REMARK SMILES IDX 3 1 10 2 9 3 8 4 5 5 4 6 2 7 1 8 11 9 6 11 7 12
REMARK H PARENT 11 10
REMARK Flexibility Score: inf
ROOT
ATOM      1  C   UNL     1       8.255   2.054   5.615  1.00  0.00     0.161 A 
ATOM      2  C   UNL     1       7.776   1.116   6.549  1.00  0.00     0.157 A 
ATOM      3  C   UNL     1       6.567   1.343   7.213  1.00  0.00     0.051 A 
ATOM      4  C   UNL     1       5.826   2.499   6.960  1.00  0.00     0.015 A 
ATOM      5  C   UNL     1       6.288   3.446   6.032  1.00  0.00     0.018 A 
ATOM      6  C   UNL     1       7.502   3.219   5.365  1.00  0.00     0.062 A 
ENDROOT
BRANCH   1   7
ATOM      7  O   UNL     1       9.471   1.800   4.963  1.00  0.00    -0.493 OA
ATOM      8  C   UNL     1      10.751   2.171   5.465  1.00  0.00     0.278 C 
ENDBRANCH   1   7
BRANCH   2   9
ATOM      9  O   UNL     1       8.488  -0.050   6.829  1.00  0.00    -0.504 OA
ATOM     10  H   UNL     1       8.032  -0.948   6.936  1.00  0.00     0.293 HD
ENDBRANCH   2   9
BRANCH   5  11
ATOM     11  C   UNL     1       5.520   4.672   5.751  1.00  0.00     0.260 C 
ATOM     12  O   UNL     1       4.435   4.629   5.112  1.00  0.00    -0.298 OA
ENDBRANCH   5  11
TORSDOF 3
ENDMDL
MODEL 4
REMARK VINA RESULT:    -3.495      1.516      4.382
REMARK INTER + INTRA:          -4.064
REMARK INTER:                  -4.008
REMARK INTRA:                  -0.056
REMARK UNBOUND:                -0.059
REMARK SMILES COc1cc(C=O)ccc1O
REMARK SMILES IDX 3 1 10 2 9 3 8 4 5 5 4 6 2 7 1 8 11 9 6 11 7 12
REMARK H PARENT 11 10
REMARK Flexibility Score: inf
ROOT
ATOM      1  C   UNL     1      -0.840   7.828  -0.736  1.00  0.00     0.161 A 
ATOM      2  C   UNL     1      -1.828   6.925  -1.171  1.00  0.00     0.157 A 
ATOM      3  C   UNL     1      -2.761   6.416  -0.261  1.00  0.00     0.051 A 
ATOM      4  C   UNL     1      -2.720   6.796   1.081  1.00  0.00     0.015 A 
ATOM      5  C   UNL     1      -1.741   7.695   1.533  1.00  0.00     0.018 A 
ATOM      6  C   UNL     1      -0.805   8.207   0.621  1.00  0.00     0.062 A 
ENDROOT
BRANCH   1   7
ATOM      7  O   UNL     1       0.082   8.323  -1.671  1.00  0.00    -0.493 OA
ATOM      8  C   UNL     1       1.331   8.921  -1.337  1.00  0.00     0.278 C 
ENDBRANCH   1   7
BRANCH   2   9
ATOM      9  O   UNL     1      -1.900   6.522  -2.504  1.00  0.00    -0.504 OA
ATOM     10  H   UNL     1      -2.715   6.054  -2.883  1.00  0.00     0.293 HD
ENDBRANCH   2   9
BRANCH   5  11
ATOM     11  C   UNL     1      -1.683   8.108   2.947  1.00  0.00     0.260 C 
ATOM     12  O   UNL     1      -2.152   7.377   3.859  1.00  0.00    -0.298 OA
ENDBRANCH   5  11
TORSDOF 3
ENDMDL
MODEL 5
REMARK VINA RESULT:    -3.473     10.998     11.924
REMARK INTER + INTRA:          -4.040
REMARK INTER:                  -3.987
REMARK INTRA:                  -0.052
REMARK UNBOUND:                -0.059
REMARK SMILES COc1cc(C=O)ccc1O
REMARK SMILES IDX 3 1 10 2 9 3 8 4 5 5 4 6 2 7 1 8 11 9 6 11 7 12
REMARK H PARENT 11 10
REMARK Flexibility Score: inf
ROOT
ATOM      1  C   UNL     1       6.148   2.388   6.939  1.00  0.00     0.161 A 
ATOM      2  C   UNL     1       6.420   3.439   6.043  1.00  0.00     0.157 A 
ATOM      3  C   UNL     1       7.485   3.333   5.142  1.00  0.00     0.051 A 
ATOM      4  C   UNL     1       8.286   2.190   5.124  1.00  0.00     0.015 A 
ATOM      5  C   UNL     1       8.029   1.132   6.010  1.00  0.00     0.018 A 
ATOM      6  C   UNL     1       6.961   1.237   6.915  1.00  0.00     0.062 A 
ENDROOT
BRANCH   1   7
ATOM      7  O   UNL     1       5.073   2.521   7.831  1.00  0.00    -0.493 OA
ATOM      8  C   UNL     1       4.649   1.513   8.743  1.00  0.00     0.278 C 
ENDBRANCH   1   7
BRANCH   2   9
ATOM      9  O   UNL     1       5.643   4.597   6.032  1.00  0.00    -0.504 OA
ATOM     10  H   UNL     1       4.874   4.736   6.677  1.00  0.00     0.293 HD
ENDBRANCH   2   9
BRANCH   5  11
ATOM     11  C   UNL     1       8.863  -0.083   6.005  1.00  0.00     0.260 C 
ATOM     12  O   UNL     1       8.949  -0.810   4.980  1.00  0.00    -0.298 OA
ENDBRANCH   5  11
TORSDOF 3
ENDMDL
MODEL 6
REMARK VINA RESULT:    -3.421      2.156      4.820
REMARK INTER + INTRA:          -3.979
REMARK INTER:                  -3.915
REMARK INTRA:                  -0.065
REMARK UNBOUND:                -0.059
REMARK SMILES COc1cc(C=O)ccc1O
REMARK SMILES IDX 3 1 10 2 9 3 8 4 5 5 4 6 2 7 1 8 11 9 6 11 7 12
REMARK H PARENT 11 10
REMARK Flexibility Score: inf
ROOT
ATOM      1  C   UNL     1      -2.502   6.456   0.441  1.00  0.00     0.161 A 
ATOM      2  C   UNL     1      -3.773   5.894   0.219  1.00  0.00     0.157 A 
ATOM      3  C   UNL     1      -4.760   5.984   1.206  1.00  0.00     0.051 A 
ATOM      4  C   UNL     1      -4.496   6.626   2.416  1.00  0.00     0.015 A 
ATOM      5  C   UNL     1      -3.233   7.192   2.655  1.00  0.00     0.018 A 
ATOM      6  C   UNL     1      -2.241   7.103   1.667  1.00  0.00     0.062 A 
ENDROOT
BRANCH   1   7
ATOM      7  O   UNL     1      -1.530   6.352  -0.566  1.00  0.00    -0.493 OA
ATOM      8  C   UNL     1      -0.872   7.460  -1.172  1.00  0.00     0.278 C 
ENDBRANCH   1   7
BRANCH   2   9
ATOM      9  O   UNL     1      -4.075   5.244  -0.977  1.00  0.00    -0.504 OA
ATOM     10  H   UNL     1      -3.383   4.712  -1.491  1.00  0.00     0.293 HD
ENDBRANCH   2   9
BRANCH   5  11
ATOM     11  C   UNL     1      -2.935   7.875   3.928  1.00  0.00     0.260 C 
ATOM     12  O   UNL     1      -2.810   7.228   5.001  1.00  0.00    -0.298 OA
ENDBRANCH   5  11
TORSDOF 3
ENDMDL
MODEL 7
REMARK VINA RESULT:    -3.367      2.552      4.540
REMARK INTER + INTRA:          -3.918
REMARK INTER:                  -3.855
REMARK INTRA:                  -0.063
REMARK UNBOUND:                -0.059
REMARK SMILES COc1cc(C=O)ccc1O
REMARK SMILES IDX 3 1 10 2 9 3 8 4 5 5 4 6 2 7 1 8 11 9 6 11 7 12
REMARK H PARENT 11 10
REMARK Flexibility Score: inf
ROOT
ATOM      1  C   UNL     1      -3.034   6.632   0.981  1.00  0.00     0.161 A 
ATOM      2  C   UNL     1      -1.634   6.754   0.922  1.00  0.00     0.157 A 
ATOM      3  C   UNL     1      -0.922   7.200   2.042  1.00  0.00     0.051 A 
ATOM      4  C   UNL     1      -1.592   7.526   3.222  1.00  0.00     0.015 A 
ATOM      5  C   UNL     1      -2.989   7.410   3.298  1.00  0.00     0.018 A 
ATOM      6  C   UNL     1      -3.704   6.964   2.176  1.00  0.00     0.062 A 
ENDROOT
BRANCH   1   7
ATOM      7  O   UNL     1      -3.722   6.182  -0.157  1.00  0.00    -0.493 OA
ATOM      8  C   UNL     1      -4.665   5.115  -0.163  1.00  0.00     0.278 C 
ENDBRANCH   1   7
BRANCH   2   9
ATOM      9  O   UNL     1      -0.930   6.438  -0.239  1.00  0.00    -0.504 OA
ATOM     10  H   UNL     1      -0.417   7.135  -0.765  1.00  0.00     0.293 HD
ENDBRANCH   2   9
BRANCH   5  11
ATOM     11  C   UNL     1      -3.714   7.750   4.536  1.00  0.00     0.260 C 
ATOM     12  O   UNL     1      -3.319   7.333   5.657  1.00  0.00    -0.298 OA
ENDBRANCH   5  11
TORSDOF 3
ENDMDL
MODEL 8
REMARK VINA RESULT:    -3.364      2.246      5.289
REMARK INTER + INTRA:          -3.915
REMARK INTER:                  -3.840
REMARK INTRA:                  -0.075
REMARK UNBOUND:                -0.059
REMARK SMILES COc1cc(C=O)ccc1O
REMARK SMILES IDX 3 1 10 2 9 3 8 4 5 5 4 6 2 7 1 8 11 9 6 11 7 12
REMARK H PARENT 11 10
REMARK Flexibility Score: inf
ROOT
ATOM      1  C   UNL     1      -2.024   7.058   1.684  1.00  0.00     0.161 A 
ATOM      2  C   UNL     1      -2.042   6.369   0.457  1.00  0.00     0.157 A 
ATOM      3  C   UNL     1      -3.231   5.799  -0.008  1.00  0.00     0.051 A 
ATOM      4  C   UNL     1      -4.407   5.905   0.736  1.00  0.00     0.015 A 
ATOM      5  C   UNL     1      -4.407   6.588   1.962  1.00  0.00     0.018 A 
ATOM      6  C   UNL     1      -3.215   7.161   2.432  1.00  0.00     0.062 A 
ENDROOT
BRANCH   1   7
ATOM      7  O   UNL     1      -0.817   7.621   2.127  1.00  0.00    -0.493 OA
ATOM      8  C   UNL     1      -0.434   8.977   1.923  1.00  0.00     0.278 C 
ENDBRANCH   1   7
BRANCH   2   9
ATOM      9  O   UNL     1      -0.888   6.242  -0.315  1.00  0.00    -0.504 OA
ATOM     10  H   UNL     1      -0.086   6.848  -0.190  1.00  0.00     0.293 HD
ENDBRANCH   2   9
BRANCH   5  11
ATOM     11  C   UNL     1      -5.639   6.712   2.763  1.00  0.00     0.260 C 
ATOM     12  O   UNL     1      -5.593   6.816   4.018  1.00  0.00    -0.298 OA
ENDBRANCH   5  11
TORSDOF 3
ENDMDL
MODEL 9
REMARK VINA RESULT:    -3.346     11.959     12.992
REMARK INTER + INTRA:          -3.894
REMARK INTER:                  -3.818
REMARK INTRA:                  -0.075
REMARK UNBOUND:                -0.059
REMARK SMILES COc1cc(C=O)ccc1O
REMARK SMILES IDX 3 1 10 2 9 3 8 4 5 5 4 6 2 7 1 8 11 9 6 11 7 12
REMARK H PARENT 11 10
REMARK Flexibility Score: inf
ROOT
ATOM      1  C   UNL     1       1.201  -2.286  -7.757  1.00  0.00     0.161 A 
ATOM      2  C   UNL     1       1.885  -1.119  -7.370  1.00  0.00     0.157 A 
ATOM      3  C   UNL     1       1.737   0.058  -8.111  1.00  0.00     0.051 A 
ATOM      4  C   UNL     1       0.914   0.086  -9.238  1.00  0.00     0.015 A 
ATOM      5  C   UNL     1       0.225  -1.068  -9.639  1.00  0.00     0.018 A 
ATOM      6  C   UNL     1       0.372  -2.250  -8.897  1.00  0.00     0.062 A 
ENDROOT
BRANCH   1   7
ATOM      7  O   UNL     1       1.368  -3.453  -6.995  1.00  0.00    -0.493 OA
ATOM      8  C   UNL     1       2.191  -4.553  -7.369  1.00  0.00     0.278 C 
ENDBRANCH   1   7
BRANCH   2   9
ATOM      9  O   UNL     1       2.717  -1.108  -6.251  1.00  0.00    -0.504 OA
ATOM     10  H   UNL     1       3.542  -1.691  -6.186  1.00  0.00     0.293 HD
ENDBRANCH   2   9
BRANCH   5  11
ATOM     11  C   UNL     1      -0.650  -1.058 -10.826  1.00  0.00     0.260 C 
ATOM     12  O   UNL     1      -1.624  -1.850 -10.924  1.00  0.00    -0.298 OA
ENDBRANCH   5  11
TORSDOF 3
ENDMDL
