MODEL 1
REMARK VINA RESULT:    20.412      0.000      0.000
REMARK INTER + INTRA:          50.388
REMARK INTER:                  51.437
REMARK INTRA:                  -1.049
REMARK UNBOUND:                -1.049
REMARK SMILES CCCCCCCCCCCCCCCCCCCCCCCCCCCC(=O)[O-]
REMARK SMILES IDX 15 1 16 2 17 3 18 4 19 5 20 6 21 7 22 8 23 9 24 10 25 11
REMARK SMILES IDX 26 12 27 13 28 14 29 15 30 16 14 17 13 18 12 19 11 20 10 21
REMARK SMILES IDX 9 22 8 23 7 24 6 25 5 26 4 27 3 28 2 29 1 30
REMARK H PARENT
REMARK Flexibility Score: inf
ROOT
ATOM      1  C   UNL     1     -32.244  16.779 -10.426  1.00  0.00     0.000 C 
ENDROOT
BRANCH   1   2
ATOM      2  C   UNL     1     -30.841  17.397 -10.605  1.00  0.00     0.000 C 
BRANCH   2   3
ATOM      3  C   UNL     1     -29.919  16.582 -11.531  1.00  0.00     0.000 C 
BRANCH   3   4
ATOM      4  C   UNL     1     -29.087  17.468 -12.471  1.00  0.00     0.000 C 
BRANCH   4   5
ATOM      5  C   UNL     1     -29.251  17.083 -13.953  1.00  0.00     0.000 C 
BRANCH   5   6
ATOM      6  C   UNL     1     -29.504  15.585 -14.207  1.00  0.00     0.000 C 
BRANCH   6   7
ATOM      7  C   UNL     1     -28.325  14.890 -14.905  1.00  0.00     0.000 C 
BRANCH   7   8
ATOM      8  C   UNL     1     -28.481  13.362 -14.868  1.00  0.00     0.000 C 
BRANCH   8   9
ATOM      9  C   UNL     1     -27.149  12.622 -14.645  1.00  0.00     0.000 C 
BRANCH   9  10
ATOM     10  C   UNL     1     -25.890  13.385 -15.097  1.00  0.00     0.000 C 
BRANCH  10  11
ATOM     11  C   UNL     1     -24.584  12.675 -14.705  1.00  0.00     0.000 C 
BRANCH  11  12
ATOM     12  C   UNL     1     -24.369  11.359 -15.474  1.00  0.00     0.006 C 
BRANCH  12  13
ATOM     13  C   UNL     1     -22.996  10.706 -15.250  1.00  0.00     0.053 C 
BRANCH  13  14
ATOM     14  C   UNL     1     -22.576   9.867 -16.417  1.00  0.00     0.041 C 
ATOM     15  O   UNL     1     -21.354   9.654 -16.638  1.00  0.00    -0.550 OA
ATOM     16  O   UNL     1     -23.532   9.346 -17.279  1.00  0.00    -0.550 OA
ENDBRANCH  13  14
ENDBRANCH  12  13
ENDBRANCH  11  12
ENDBRANCH  10  11
ENDBRANCH   9  10
ENDBRANCH   8   9
ENDBRANCH   7   8
ENDBRANCH   6   7
ENDBRANCH   5   6
ENDBRANCH   4   5
ENDBRANCH   3   4
ENDBRANCH   2   3
ENDBRANCH   1   2
BRANCH   1  17
ATOM     17  C   UNL     1     -33.284  17.826  -9.997  1.00  0.00     0.000 C 
BRANCH  17  18
ATOM     18  C   UNL     1     -33.128  19.125 -10.799  1.00  0.00     0.000 C 
BRANCH  18  19
ATOM     19  C   UNL     1     -32.809  20.343  -9.911  1.00  0.00     0.000 C 
BRANCH  19  20
ATOM     20  C   UNL     1     -33.114  21.717 -10.543  1.00  0.00     0.000 C 
BRANCH  20  21
ATOM     21  C   UNL     1     -32.012  22.772 -10.360  1.00  0.00     0.000 C 
BRANCH  21  22
ATOM     22  C   UNL     1     -30.717  22.406 -11.104  1.00  0.00    -0.000 C 
BRANCH  22  23
ATOM     23  C   UNL     1     -29.959  21.260 -10.414  1.00  0.00    -0.000 C 
BRANCH  23  24
ATOM     24  C   UNL     1     -28.452  21.552 -10.310  1.00  0.00    -0.000 C 
BRANCH  24  25
ATOM     25  C   UNL     1     -27.945  21.591  -8.853  1.00  0.00    -0.000 C 
BRANCH  25  26
ATOM     26  C   UNL     1     -26.412  21.656  -8.722  1.00  0.00    -0.000 C 
BRANCH  26  27
ATOM     27  C   UNL     1     -25.879  20.903  -7.491  1.00  0.00    -0.000 C 
BRANCH  27  28
ATOM     28  C   UNL     1     -24.373  21.126  -7.271  1.00  0.00    -0.000 C 
BRANCH  28  29
ATOM     29  C   UNL     1     -24.056  21.626  -5.854  1.00  0.00    -0.003 C 
ATOM     30  C   UNL     1     -22.890  22.610  -5.867  1.00  0.00     0.004 C 
ENDBRANCH  28  29
ENDBRANCH  27  28
ENDBRANCH  26  27
ENDBRANCH  25  26
ENDBRANCH  24  25
ENDBRANCH  23  24
ENDBRANCH  22  23
ENDBRANCH  21  22
ENDBRANCH  20  21
ENDBRANCH  19  20
ENDBRANCH  18  19
ENDBRANCH  17  18
ENDBRANCH   1  17
TORSDOF 26
ENDMDL
MODEL 2
REMARK VINA RESULT:    20.841      1.001      1.980
REMARK INTER + INTRA:          51.470
REMARK INTER:                  53.159
REMARK INTRA:                  -1.688
REMARK UNBOUND:                -1.049
REMARK SMILES CCCCCCCCCCCCCCCCCCCCCCCCCCCC(=O)[O-]
REMARK SMILES IDX 15 1 16 2 17 3 18 4 19 5 20 6 21 7 22 8 23 9 24 10 25 11
REMARK SMILES IDX 26 12 27 13 28 14 29 15 30 16 14 17 13 18 12 19 11 20 10 21
REMARK SMILES IDX 9 22 8 23 7 24 6 25 5 26 4 27 3 28 2 29 1 30
REMARK H PARENT
REMARK Flexibility Score: inf
ROOT
ATOM      1  C   UNL     1     -30.468  16.077 -11.277  1.00  0.00     0.000 C 
ENDROOT
BRANCH   1   2
ATOM      2  C   UNL     1     -29.493  17.146 -11.818  1.00  0.00     0.000 C 
BRANCH   2   3
ATOM      3  C   UNL     1     -29.166  16.986 -13.314  1.00  0.00     0.000 C 
BRANCH   3   4
ATOM      4  C   UNL     1     -29.721  15.682 -13.907  1.00  0.00     0.000 C 
BRANCH   4   5
ATOM      5  C   UNL     1     -28.691  14.937 -14.777  1.00  0.00     0.000 C 
BRANCH   5   6
ATOM      6  C   UNL     1     -28.388  13.496 -14.324  1.00  0.00     0.000 C 
BRANCH   6   7
ATOM      7  C   UNL     1     -27.315  12.813 -15.187  1.00  0.00     0.000 C 
BRANCH   7   8
ATOM      8  C   UNL     1     -26.004  13.613 -15.178  1.00  0.00     0.000 C 
BRANCH   8   9
ATOM      9  C   UNL     1     -24.798  12.795 -14.678  1.00  0.00     0.000 C 
BRANCH   9  10
ATOM     10  C   UNL     1     -24.415  11.588 -15.554  1.00  0.00     0.000 C 
BRANCH  10  11
ATOM     11  C   UNL     1     -23.012  11.042 -15.243  1.00  0.00     0.000 C 
BRANCH  11  12
ATOM     12  C   UNL     1     -22.365  10.342 -16.452  1.00  0.00     0.006 C 
BRANCH  12  13
ATOM     13  C   UNL     1     -23.069   9.049 -16.892  1.00  0.00     0.053 C 
BRANCH  13  14
ATOM     14  C   UNL     1     -23.840   9.233 -18.164  1.00  0.00     0.041 C 
ATOM     15  O   UNL     1     -24.749   8.420 -18.478  1.00  0.00    -0.550 OA
ATOM     16  O   UNL     1     -23.531  10.284 -19.017  1.00  0.00    -0.550 OA
ENDBRANCH  13  14
ENDBRANCH  12  13
ENDBRANCH  11  12
ENDBRANCH  10  11
ENDBRANCH   9  10
ENDBRANCH   8   9
ENDBRANCH   7   8
ENDBRANCH   6   7
ENDBRANCH   5   6
ENDBRANCH   4   5
ENDBRANCH   3   4
ENDBRANCH   2   3
ENDBRANCH   1   2
BRANCH   1  17
ATOM     17  C   UNL     1     -31.716  16.705 -10.638  1.00  0.00     0.000 C 
BRANCH  17  18
ATOM     18  C   UNL     1     -31.628  18.238 -10.637  1.00  0.00     0.000 C 
BRANCH  18  19
ATOM     19  C   UNL     1     -33.011  18.917 -10.659  1.00  0.00     0.000 C 
BRANCH  19  20
ATOM     20  C   UNL     1     -33.103  20.248  -9.885  1.00  0.00     0.000 C 
BRANCH  20  21
ATOM     21  C   UNL     1     -32.646  21.487 -10.672  1.00  0.00     0.000 C 
BRANCH  21  22
ATOM     22  C   UNL     1     -31.317  22.057 -10.151  1.00  0.00    -0.000 C 
BRANCH  22  23
ATOM     23  C   UNL     1     -30.161  21.822 -11.138  1.00  0.00    -0.000 C 
BRANCH  23  24
ATOM     24  C   UNL     1     -29.035  20.982 -10.512  1.00  0.00    -0.000 C 
BRANCH  24  25
ATOM     25  C   UNL     1     -28.379  21.666  -9.295  1.00  0.00    -0.000 C 
BRANCH  25  26
ATOM     26  C   UNL     1     -27.646  20.697  -8.348  1.00  0.00    -0.000 C 
BRANCH  26  27
ATOM     27  C   UNL     1     -26.665  21.407  -7.399  1.00  0.00    -0.000 C 
BRANCH  27  28
ATOM     28  C   UNL     1     -25.225  20.890  -7.546  1.00  0.00    -0.000 C 
BRANCH  28  29
ATOM     29  C   UNL     1     -24.329  21.310  -6.371  1.00  0.00    -0.003 C 
ATOM     30  C   UNL     1     -23.174  22.186  -6.848  1.00  0.00     0.004 C 
ENDBRANCH  28  29
ENDBRANCH  27  28
ENDBRANCH  26  27
ENDBRANCH  25  26
ENDBRANCH  24  25
ENDBRANCH  23  24
ENDBRANCH  22  23
ENDBRANCH  21  22
ENDBRANCH  20  21
ENDBRANCH  19  20
ENDBRANCH  18  19
ENDBRANCH  17  18
ENDBRANCH   1  17
TORSDOF 26
ENDMDL
MODEL 3
REMARK VINA RESULT:    20.994      4.651      5.840
REMARK INTER + INTRA:          51.855
REMARK INTER:                  53.084
REMARK INTRA:                  -1.229
REMARK UNBOUND:                -1.049
REMARK SMILES CCCCCCCCCCCCCCCCCCCCCCCCCCCC(=O)[O-]
REMARK SMILES IDX 15 1 16 2 17 3 18 4 19 5 20 6 21 7 22 8 23 9 24 10 25 11
REMARK SMILES IDX 26 12 27 13 28 14 29 15 30 16 14 17 13 18 12 19 11 20 10 21
REMARK SMILES IDX 9 22 8 23 7 24 6 25 5 26 4 27 3 28 2 29 1 30
REMARK H PARENT
REMARK Flexibility Score: inf
ROOT
ATOM      1  C   UNL     1     -32.587  20.577 -10.443  1.00  0.00     0.000 C 
ENDROOT
BRANCH   1   2
ATOM      2  C   UNL     1     -33.688  19.684  -9.830  1.00  0.00     0.000 C 
BRANCH   2   3
ATOM      3  C   UNL     1     -33.446  18.177 -10.031  1.00  0.00     0.000 C 
BRANCH   3   4
ATOM      4  C   UNL     1     -32.098  17.876 -10.703  1.00  0.00     0.000 C 
BRANCH   4   5
ATOM      5  C   UNL     1     -31.757  16.374 -10.708  1.00  0.00     0.000 C 
BRANCH   5   6
ATOM      6  C   UNL     1     -30.384  16.027 -11.316  1.00  0.00     0.000 C 
BRANCH   6   7
ATOM      7  C   UNL     1     -29.285  17.024 -10.917  1.00  0.00     0.000 C 
BRANCH   7   8
ATOM      8  C   UNL     1     -29.119  18.120 -11.980  1.00  0.00     0.000 C 
BRANCH   8   9
ATOM      9  C   UNL     1     -29.665  17.711 -13.361  1.00  0.00     0.000 C 
BRANCH   9  10
ATOM     10  C   UNL     1     -29.160  16.357 -13.892  1.00  0.00     0.000 C 
BRANCH  10  11
ATOM     11  C   UNL     1     -29.863  15.920 -15.188  1.00  0.00     0.000 C 
BRANCH  11  12
ATOM     12  C   UNL     1     -30.626  17.072 -15.868  1.00  0.00     0.006 C 
BRANCH  12  13
ATOM     13  C   UNL     1     -29.916  17.673 -17.090  1.00  0.00     0.053 C 
BRANCH  13  14
ATOM     14  C   UNL     1     -30.537  18.966 -17.521  1.00  0.00     0.041 C 
ATOM     15  O   UNL     1     -29.810  19.936 -17.865  1.00  0.00    -0.550 OA
ATOM     16  O   UNL     1     -31.918  19.110 -17.512  1.00  0.00    -0.550 OA
ENDBRANCH  13  14
ENDBRANCH  12  13
ENDBRANCH  11  12
ENDBRANCH  10  11
ENDBRANCH   9  10
ENDBRANCH   8   9
ENDBRANCH   7   8
ENDBRANCH   6   7
ENDBRANCH   5   6
ENDBRANCH   4   5
ENDBRANCH   3   4
ENDBRANCH   2   3
ENDBRANCH   1   2
BRANCH   1  17
ATOM     17  C   UNL     1     -32.704  22.037  -9.980  1.00  0.00     0.000 C 
BRANCH  17  18
ATOM     18  C   UNL     1     -31.584  22.900 -10.575  1.00  0.00     0.000 C 
BRANCH  18  19
ATOM     19  C   UNL     1     -30.927  22.259 -11.813  1.00  0.00     0.000 C 
BRANCH  19  20
ATOM     20  C   UNL     1     -29.557  22.848 -12.210  1.00  0.00     0.000 C 
BRANCH  20  21
ATOM     21  C   UNL     1     -28.344  22.000 -11.795  1.00  0.00     0.000 C 
BRANCH  21  22
ATOM     22  C   UNL     1     -27.093  22.314 -12.631  1.00  0.00    -0.000 C 
BRANCH  22  23
ATOM     23  C   UNL     1     -25.888  22.686 -11.752  1.00  0.00    -0.000 C 
BRANCH  23  24
ATOM     24  C   UNL     1     -26.321  23.125 -10.343  1.00  0.00    -0.000 C 
BRANCH  24  25
ATOM     25  C   UNL     1     -25.664  22.292  -9.223  1.00  0.00    -0.000 C 
BRANCH  25  26
ATOM     26  C   UNL     1     -26.656  21.451  -8.399  1.00  0.00    -0.000 C 
BRANCH  26  27
ATOM     27  C   UNL     1     -25.990  20.704  -7.230  1.00  0.00    -0.000 C 
BRANCH  27  28
ATOM     28  C   UNL     1     -24.462  20.879  -7.215  1.00  0.00    -0.000 C 
BRANCH  28  29
ATOM     29  C   UNL     1     -24.025  22.148  -6.469  1.00  0.00    -0.003 C 
ATOM     30  C   UNL     1     -22.545  22.087  -6.103  1.00  0.00     0.004 C 
ENDBRANCH  28  29
ENDBRANCH  27  28
ENDBRANCH  26  27
ENDBRANCH  25  26
ENDBRANCH  24  25
ENDBRANCH  23  24
ENDBRANCH  22  23
ENDBRANCH  21  22
ENDBRANCH  20  21
ENDBRANCH  19  20
ENDBRANCH  18  19
ENDBRANCH  17  18
ENDBRANCH   1  17
TORSDOF 26
ENDMDL
MODEL 4
REMARK VINA RESULT:    21.104      3.340      6.384
REMARK INTER + INTRA:          52.132
REMARK INTER:                  53.049
REMARK INTRA:                  -0.918
REMARK UNBOUND:                -1.049
REMARK SMILES CCCCCCCCCCCCCCCCCCCCCCCCCCCC(=O)[O-]
REMARK SMILES IDX 15 1 16 2 17 3 18 4 19 5 20 6 21 7 22 8 23 9 24 10 25 11
REMARK SMILES IDX 26 12 27 13 28 14 29 15 30 16 14 17 13 18 12 19 11 20 10 21
REMARK SMILES IDX 9 22 8 23 7 24 6 25 5 26 4 27 3 28 2 29 1 30
REMARK H PARENT
REMARK Flexibility Score: inf
ROOT
ATOM      1  C   UNL     1     -28.018  15.268 -14.544  1.00  0.00     0.000 C 
ENDROOT
BRANCH   1   2
ATOM      2  C   UNL     1     -28.470  13.801 -14.711  1.00  0.00     0.000 C 
BRANCH   2   3
ATOM      3  C   UNL     1     -27.462  12.927 -15.479  1.00  0.00     0.000 C 
BRANCH   3   4
ATOM      4  C   UNL     1     -26.015  13.135 -15.008  1.00  0.00     0.000 C 
BRANCH   4   5
ATOM      5  C   UNL     1     -24.987  12.420 -15.906  1.00  0.00     0.000 C 
BRANCH   5   6
ATOM      6  C   UNL     1     -24.446  11.095 -15.337  1.00  0.00     0.000 C 
BRANCH   6   7
ATOM      7  C   UNL     1     -23.220  10.573 -16.104  1.00  0.00     0.000 C 
BRANCH   7   8
ATOM      8  C   UNL     1     -23.531  10.404 -17.598  1.00  0.00     0.000 C 
BRANCH   8   9
ATOM      9  C   UNL     1     -23.529   8.933 -18.055  1.00  0.00     0.000 C 
BRANCH   9  10
ATOM     10  C   UNL     1     -22.181   8.203 -17.910  1.00  0.00     0.000 C 
BRANCH  10  11
ATOM     11  C   UNL     1     -21.709   7.549 -19.219  1.00  0.00     0.000 C 
BRANCH  11  12
ATOM     12  C   UNL     1     -20.529   6.582 -19.009  1.00  0.00     0.006 C 
BRANCH  12  13
ATOM     13  C   UNL     1     -20.514   5.377 -19.962  1.00  0.00     0.053 C 
BRANCH  13  14
ATOM     14  C   UNL     1     -20.213   4.097 -19.244  1.00  0.00     0.041 C 
ATOM     15  O   UNL     1     -19.200   3.417 -19.558  1.00  0.00    -0.550 OA
ATOM     16  O   UNL     1     -21.069   3.639 -18.251  1.00  0.00    -0.550 OA
ENDBRANCH  13  14
ENDBRANCH  12  13
ENDBRANCH  11  12
ENDBRANCH  10  11
ENDBRANCH   9  10
ENDBRANCH   8   9
ENDBRANCH   7   8
ENDBRANCH   6   7
ENDBRANCH   5   6
ENDBRANCH   4   5
ENDBRANCH   3   4
ENDBRANCH   2   3
ENDBRANCH   1   2
BRANCH   1  17
ATOM     17  C   UNL     1     -29.052  16.106 -13.777  1.00  0.00     0.000 C 
BRANCH  17  18
ATOM     18  C   UNL     1     -30.194  15.229 -13.245  1.00  0.00     0.000 C 
BRANCH  18  19
ATOM     19  C   UNL     1     -30.159  15.065 -11.713  1.00  0.00     0.000 C 
BRANCH  19  20
ATOM     20  C   UNL     1     -30.657  16.284 -10.909  1.00  0.00     0.000 C 
BRANCH  20  21
ATOM     21  C   UNL     1     -30.045  17.630 -11.329  1.00  0.00     0.000 C 
BRANCH  21  22
ATOM     22  C   UNL     1     -30.742  18.827 -10.663  1.00  0.00    -0.000 C 
BRANCH  22  23
ATOM     23  C   UNL     1     -32.267  18.785 -10.851  1.00  0.00    -0.000 C 
BRANCH  23  24
ATOM     24  C   UNL     1     -32.979  19.844  -9.992  1.00  0.00    -0.000 C 
BRANCH  24  25
ATOM     25  C   UNL     1     -32.984  21.243 -10.642  1.00  0.00    -0.000 C 
BRANCH  25  26
ATOM     26  C   UNL     1     -31.948  22.216 -10.049  1.00  0.00    -0.000 C 
BRANCH  26  27
ATOM     27  C   UNL     1     -30.875  22.649 -11.063  1.00  0.00    -0.000 C 
BRANCH  27  28
ATOM     28  C   UNL     1     -29.721  21.638 -11.167  1.00  0.00    -0.000 C 
BRANCH  28  29
ATOM     29  C   UNL     1     -28.745  21.978 -12.304  1.00  0.00    -0.003 C 
ATOM     30  C   UNL     1     -28.457  20.751 -13.164  1.00  0.00     0.004 C 
ENDBRANCH  28  29
ENDBRANCH  27  28
ENDBRANCH  26  27
ENDBRANCH  25  26
ENDBRANCH  24  25
ENDBRANCH  23  24
ENDBRANCH  22  23
ENDBRANCH  21  22
ENDBRANCH  20  21
ENDBRANCH  19  20
ENDBRANCH  18  19
ENDBRANCH  17  18
ENDBRANCH   1  17
TORSDOF 26
ENDMDL
MODEL 5
REMARK VINA RESULT:    21.264      4.286     10.608
REMARK INTER + INTRA:          52.535
REMARK INTER:                  54.426
REMARK INTRA:                  -1.890
REMARK UNBOUND:                -1.049
REMARK SMILES CCCCCCCCCCCCCCCCCCCCCCCCCCCC(=O)[O-]
REMARK SMILES IDX 15 1 16 2 17 3 18 4 19 5 20 6 21 7 22 8 23 9 24 10 25 11
REMARK SMILES IDX 26 12 27 13 28 14 29 15 30 16 14 17 13 18 12 19 11 20 10 21
REMARK SMILES IDX 9 22 8 23 7 24 6 25 5 26 4 27 3 28 2 29 1 30
REMARK H PARENT
REMARK Flexibility Score: inf
ROOT
ATOM      1  C   UNL     1     -32.015  17.196 -10.396  1.00  0.00     0.000 C 
ENDROOT
BRANCH   1   2
ATOM      2  C   UNL     1     -31.793  18.721 -10.502  1.00  0.00     0.000 C 
BRANCH   2   3
ATOM      3  C   UNL     1     -33.096  19.529 -10.634  1.00  0.00     0.000 C 
BRANCH   3   4
ATOM      4  C   UNL     1     -33.139  20.746  -9.697  1.00  0.00     0.000 C 
BRANCH   4   5
ATOM      5  C   UNL     1     -32.996  22.082 -10.448  1.00  0.00     0.000 C 
BRANCH   5   6
ATOM      6  C   UNL     1     -31.566  22.655 -10.478  1.00  0.00     0.000 C 
BRANCH   6   7
ATOM      7  C   UNL     1     -30.712  22.074 -11.616  1.00  0.00     0.000 C 
BRANCH   7   8
ATOM      8  C   UNL     1     -29.283  21.775 -11.140  1.00  0.00     0.000 C 
BRANCH   8   9
ATOM      9  C   UNL     1     -29.229  20.757  -9.986  1.00  0.00     0.000 C 
BRANCH   9  10
ATOM     10  C   UNL     1     -28.547  21.259  -8.699  1.00  0.00     0.000 C 
BRANCH  10  11
ATOM     11  C   UNL     1     -27.047  21.540  -8.885  1.00  0.00     0.000 C 
BRANCH  11  12
ATOM     12  C   UNL     1     -26.256  21.443  -7.568  1.00  0.00     0.006 C 
BRANCH  12  13
ATOM     13  C   UNL     1     -24.784  21.036  -7.737  1.00  0.00     0.053 C 
BRANCH  13  14
ATOM     14  C   UNL     1     -23.970  21.354  -6.521  1.00  0.00     0.041 C 
ATOM     15  O   UNL     1     -24.316  20.913  -5.393  1.00  0.00    -0.550 OA
ATOM     16  O   UNL     1     -22.847  22.163  -6.628  1.00  0.00    -0.550 OA
ENDBRANCH  13  14
ENDBRANCH  12  13
ENDBRANCH  11  12
ENDBRANCH  10  11
ENDBRANCH   9  10
ENDBRANCH   8   9
ENDBRANCH   7   8
ENDBRANCH   6   7
ENDBRANCH   5   6
ENDBRANCH   4   5
ENDBRANCH   3   4
ENDBRANCH   2   3
ENDBRANCH   1   2
BRANCH   1  17
ATOM     17  C   UNL     1     -30.790  16.401 -10.872  1.00  0.00     0.000 C 
BRANCH  17  18
ATOM     18  C   UNL     1     -29.645  17.336 -11.283  1.00  0.00     0.000 C 
BRANCH  18  19
ATOM     19  C   UNL     1     -29.236  17.170 -12.759  1.00  0.00     0.000 C 
BRANCH  19  20
ATOM     20  C   UNL     1     -29.742  15.882 -13.441  1.00  0.00     0.000 C 
BRANCH  20  21
ATOM     21  C   UNL     1     -29.208  15.650 -14.863  1.00  0.00     0.000 C 
BRANCH  21  22
ATOM     22  C   UNL     1     -27.882  14.873 -14.874  1.00  0.00    -0.000 C 
BRANCH  22  23
ATOM     23  C   UNL     1     -28.101  13.359 -15.033  1.00  0.00    -0.000 C 
BRANCH  23  24
ATOM     24  C   UNL     1     -26.854  12.554 -14.626  1.00  0.00    -0.000 C 
BRANCH  24  25
ATOM     25  C   UNL     1     -25.534  13.236 -15.041  1.00  0.00    -0.000 C 
BRANCH  25  26
ATOM     26  C   UNL     1     -24.274  12.402 -14.745  1.00  0.00    -0.000 C 
BRANCH  26  27
ATOM     27  C   UNL     1     -24.153  11.153 -15.636  1.00  0.00    -0.000 C 
BRANCH  27  28
ATOM     28  C   UNL     1     -22.813  10.423 -15.447  1.00  0.00    -0.000 C 
BRANCH  28  29
ATOM     29  C   UNL     1     -22.464   9.523 -16.641  1.00  0.00    -0.003 C 
ATOM     30  C   UNL     1     -23.448   9.727 -17.789  1.00  0.00     0.004 C 
ENDBRANCH  28  29
ENDBRANCH  27  28
ENDBRANCH  26  27
ENDBRANCH  25  26
ENDBRANCH  24  25
ENDBRANCH  23  24
ENDBRANCH  22  23
ENDBRANCH  21  22
ENDBRANCH  20  21
ENDBRANCH  19  20
ENDBRANCH  18  19
ENDBRANCH  17  18
ENDBRANCH   1  17
TORSDOF 26
ENDMDL
MODEL 6
REMARK VINA RESULT:    21.338      4.773      5.900
REMARK INTER + INTRA:          52.722
REMARK INTER:                  52.438
REMARK INTRA:                   0.284
REMARK UNBOUND:                -1.049
REMARK SMILES CCCCCCCCCCCCCCCCCCCCCCCCCCCC(=O)[O-]
REMARK SMILES IDX 15 1 16 2 17 3 18 4 19 5 20 6 21 7 22 8 23 9 24 10 25 11
REMARK SMILES IDX 26 12 27 13 28 14 29 15 30 16 14 17 13 18 12 19 11 20 10 21
REMARK SMILES IDX 9 22 8 23 7 24 6 25 5 26 4 27 3 28 2 29 1 30
REMARK H PARENT
REMARK Flexibility Score: inf
ROOT
ATOM      1  C   UNL     1     -32.667  20.016 -10.778  1.00  0.00     0.000 C 
ENDROOT
BRANCH   1   2
ATOM      2  C   UNL     1     -32.915  18.539 -10.403  1.00  0.00     0.000 C 
BRANCH   2   3
ATOM      3  C   UNL     1     -31.640  17.676 -10.409  1.00  0.00     0.000 C 
BRANCH   3   4
ATOM      4  C   UNL     1     -31.909  16.221 -10.820  1.00  0.00     0.000 C 
BRANCH   4   5
ATOM      5  C   UNL     1     -30.621  15.382 -10.922  1.00  0.00     0.000 C 
BRANCH   5   6
ATOM      6  C   UNL     1     -29.356  16.184 -11.280  1.00  0.00     0.000 C 
BRANCH   6   7
ATOM      7  C   UNL     1     -29.673  17.535 -11.942  1.00  0.00     0.000 C 
BRANCH   7   8
ATOM      8  C   UNL     1     -29.275  17.532 -13.425  1.00  0.00     0.000 C 
BRANCH   8   9
ATOM      9  C   UNL     1     -29.971  16.424 -14.237  1.00  0.00     0.000 C 
BRANCH   9  10
ATOM     10  C   UNL     1     -29.716  16.463 -15.755  1.00  0.00     0.000 C 
BRANCH  10  11
ATOM     11  C   UNL     1     -30.750  17.308 -16.517  1.00  0.00     0.000 C 
BRANCH  11  12
ATOM     12  C   UNL     1     -30.103  18.262 -17.538  1.00  0.00     0.006 C 
BRANCH  12  13
ATOM     13  C   UNL     1     -30.435  19.746 -17.323  1.00  0.00     0.053 C 
BRANCH  13  14
ATOM     14  C   UNL     1     -29.656  20.635 -18.242  1.00  0.00     0.041 C 
ATOM     15  O   UNL     1     -30.182  21.072 -19.300  1.00  0.00    -0.550 OA
ATOM     16  O   UNL     1     -28.337  20.955 -17.946  1.00  0.00    -0.550 OA
ENDBRANCH  13  14
ENDBRANCH  12  13
ENDBRANCH  11  12
ENDBRANCH  10  11
ENDBRANCH   9  10
ENDBRANCH   8   9
ENDBRANCH   7   8
ENDBRANCH   6   7
ENDBRANCH   5   6
ENDBRANCH   4   5
ENDBRANCH   3   4
ENDBRANCH   2   3
ENDBRANCH   1   2
BRANCH   1  17
ATOM     17  C   UNL     1     -33.325  20.982  -9.780  1.00  0.00     0.000 C 
BRANCH  17  18
ATOM     18  C   UNL     1     -33.146  22.441 -10.219  1.00  0.00     0.000 C 
BRANCH  18  19
ATOM     19  C   UNL     1     -31.694  22.936 -10.076  1.00  0.00     0.000 C 
BRANCH  19  20
ATOM     20  C   UNL     1     -30.715  22.424 -11.153  1.00  0.00     0.000 C 
BRANCH  20  21
ATOM     21  C   UNL     1     -29.980  21.123 -10.793  1.00  0.00     0.000 C 
BRANCH  21  22
ATOM     22  C   UNL     1     -28.636  20.984 -11.527  1.00  0.00    -0.000 C 
BRANCH  22  23
ATOM     23  C   UNL     1     -27.947  22.343 -11.732  1.00  0.00    -0.000 C 
BRANCH  23  24
ATOM     24  C   UNL     1     -26.452  22.286 -11.375  1.00  0.00    -0.000 C 
BRANCH  24  25
ATOM     25  C   UNL     1     -26.183  22.503  -9.871  1.00  0.00    -0.000 C 
BRANCH  25  26
ATOM     26  C   UNL     1     -27.159  21.757  -8.943  1.00  0.00    -0.000 C 
BRANCH  26  27
ATOM     27  C   UNL     1     -26.541  21.398  -7.581  1.00  0.00    -0.000 C 
BRANCH  27  28
ATOM     28  C   UNL     1     -25.035  21.105  -7.677  1.00  0.00    -0.000 C 
BRANCH  28  29
ATOM     29  C   UNL     1     -24.294  21.413  -6.367  1.00  0.00    -0.003 C 
ATOM     30  C   UNL     1     -22.909  21.993  -6.643  1.00  0.00     0.004 C 
ENDBRANCH  28  29
ENDBRANCH  27  28
ENDBRANCH  26  27
ENDBRANCH  25  26
ENDBRANCH  24  25
ENDBRANCH  23  24
ENDBRANCH  22  23
ENDBRANCH  21  22
ENDBRANCH  20  21
ENDBRANCH  19  20
ENDBRANCH  18  19
ENDBRANCH  17  18
ENDBRANCH   1  17
TORSDOF 26
ENDMDL
MODEL 7
REMARK VINA RESULT:    21.663      5.457      6.254
REMARK INTER + INTRA:          53.542
REMARK INTER:                  53.008
REMARK INTRA:                   0.534
REMARK UNBOUND:                -1.049
REMARK SMILES CCCCCCCCCCCCCCCCCCCCCCCCCCCC(=O)[O-]
REMARK SMILES IDX 15 1 16 2 17 3 18 4 19 5 20 6 21 7 22 8 23 9 24 10 25 11
REMARK SMILES IDX 26 12 27 13 28 14 29 15 30 16 14 17 13 18 12 19 11 20 10 21
REMARK SMILES IDX 9 22 8 23 7 24 6 25 5 26 4 27 3 28 2 29 1 30
REMARK H PARENT
REMARK Flexibility Score: inf
ROOT
ATOM      1  C   UNL     1     -32.223  17.448 -10.377  1.00  0.00     0.000 C 
ENDROOT
BRANCH   1   2
ATOM      2  C   UNL     1     -30.915  17.938 -11.037  1.00  0.00     0.000 C 
BRANCH   2   3
ATOM      3  C   UNL     1     -29.815  16.863 -11.104  1.00  0.00     0.000 C 
BRANCH   3   4
ATOM      4  C   UNL     1     -30.333  15.516 -11.632  1.00  0.00     0.000 C 
BRANCH   4   5
ATOM      5  C   UNL     1     -31.481  14.943 -10.780  1.00  0.00     0.000 C 
BRANCH   5   6
ATOM      6  C   UNL     1     -31.922  13.519 -11.166  1.00  0.00     0.000 C 
BRANCH   6   7
ATOM      7  C   UNL     1     -30.869  12.454 -10.821  1.00  0.00     0.000 C 
BRANCH   7   8
ATOM      8  C   UNL     1     -31.531  11.113 -10.469  1.00  0.00     0.000 C 
BRANCH   8   9
ATOM      9  C   UNL     1     -31.459  10.777  -8.968  1.00  0.00     0.000 C 
BRANCH   9  10
ATOM     10  C   UNL     1     -32.294   9.560  -8.526  1.00  0.00     0.000 C 
BRANCH  10  11
ATOM     11  C   UNL     1     -31.483   8.254  -8.495  1.00  0.00     0.000 C 
BRANCH  11  12
ATOM     12  C   UNL     1     -32.376   7.002  -8.421  1.00  0.00     0.006 C 
BRANCH  12  13
ATOM     13  C   UNL     1     -31.613   5.670  -8.483  1.00  0.00     0.053 C 
BRANCH  13  14
ATOM     14  C   UNL     1     -30.568   5.571  -7.414  1.00  0.00     0.041 C 
ATOM     15  O   UNL     1     -30.897   5.623  -6.199  1.00  0.00    -0.550 OA
ATOM     16  O   UNL     1     -29.229   5.453  -7.761  1.00  0.00    -0.550 OA
ENDBRANCH  13  14
ENDBRANCH  12  13
ENDBRANCH  11  12
ENDBRANCH  10  11
ENDBRANCH   9  10
ENDBRANCH   8   9
ENDBRANCH   7   8
ENDBRANCH   6   7
ENDBRANCH   5   6
ENDBRANCH   4   5
ENDBRANCH   3   4
ENDBRANCH   2   3
ENDBRANCH   1   2
BRANCH   1  17
ATOM     17  C   UNL     1     -33.270  18.567 -10.272  1.00  0.00     0.000 C 
BRANCH  17  18
ATOM     18  C   UNL     1     -32.630  19.948 -10.472  1.00  0.00     0.000 C 
BRANCH  18  19
ATOM     19  C   UNL     1     -33.307  21.049  -9.632  1.00  0.00     0.000 C 
BRANCH  19  20
ATOM     20  C   UNL     1     -32.985  22.495 -10.062  1.00  0.00     0.000 C 
BRANCH  20  21
ATOM     21  C   UNL     1     -31.639  22.672 -10.782  1.00  0.00     0.000 C 
BRANCH  21  22
ATOM     22  C   UNL     1     -30.645  21.546 -10.455  1.00  0.00    -0.000 C 
BRANCH  22  23
ATOM     23  C   UNL     1     -29.428  21.559 -11.395  1.00  0.00    -0.000 C 
BRANCH  23  24
ATOM     24  C   UNL     1     -28.107  21.400 -10.623  1.00  0.00    -0.000 C 
BRANCH  24  25
ATOM     25  C   UNL     1     -28.313  21.234  -9.103  1.00  0.00    -0.000 C 
BRANCH  25  26
ATOM     26  C   UNL     1     -27.197  21.857  -8.244  1.00  0.00    -0.000 C 
BRANCH  26  27
ATOM     27  C   UNL     1     -26.451  20.825  -7.381  1.00  0.00    -0.000 C 
BRANCH  27  28
ATOM     28  C   UNL     1     -24.926  20.896  -7.566  1.00  0.00    -0.000 C 
BRANCH  28  29
ATOM     29  C   UNL     1     -24.198  21.305  -6.277  1.00  0.00    -0.003 C 
ATOM     30  C   UNL     1     -23.044  22.256  -6.577  1.00  0.00     0.004 C 
ENDBRANCH  28  29
ENDBRANCH  27  28
ENDBRANCH  26  27
ENDBRANCH  25  26
ENDBRANCH  24  25
ENDBRANCH  23  24
ENDBRANCH  22  23
ENDBRANCH  21  22
ENDBRANCH  20  21
ENDBRANCH  19  20
ENDBRANCH  18  19
ENDBRANCH  17  18
ENDBRANCH   1  17
TORSDOF 26
ENDMDL
MODEL 8
REMARK VINA RESULT:    21.690      5.334      9.640
REMARK INTER + INTRA:          53.609
REMARK INTER:                  54.707
REMARK INTRA:                  -1.099
REMARK UNBOUND:                -1.049
REMARK SMILES CCCCCCCCCCCCCCCCCCCCCCCCCCCC(=O)[O-]
REMARK SMILES IDX 15 1 16 2 17 3 18 4 19 5 20 6 21 7 22 8 23 9 24 10 25 11
REMARK SMILES IDX 26 12 27 13 28 14 29 15 30 16 14 17 13 18 12 19 11 20 10 21
REMARK SMILES IDX 9 22 8 23 7 24 6 25 5 26 4 27 3 28 2 29 1 30
REMARK H PARENT
REMARK Flexibility Score: inf
ROOT
ATOM      1  C   UNL     1     -32.135  19.251 -10.529  1.00  0.00     0.000 C 
ENDROOT
BRANCH   1   2
ATOM      2  C   UNL     1     -32.978  20.532 -10.350  1.00  0.00     0.000 C 
BRANCH   2   3
ATOM      3  C   UNL     1     -32.195  21.708  -9.740  1.00  0.00     0.000 C 
BRANCH   3   4
ATOM      4  C   UNL     1     -31.977  22.857 -10.736  1.00  0.00     0.000 C 
BRANCH   4   5
ATOM      5  C   UNL     1     -30.700  22.682 -11.579  1.00  0.00     0.000 C 
BRANCH   5   6
ATOM      6  C   UNL     1     -29.713  21.628 -11.042  1.00  0.00     0.000 C 
BRANCH   6   7
ATOM      7  C   UNL     1     -28.503  21.417 -11.967  1.00  0.00     0.000 C 
BRANCH   7   8
ATOM      8  C   UNL     1     -27.510  22.584 -11.855  1.00  0.00     0.000 C 
BRANCH   8   9
ATOM      9  C   UNL     1     -26.299  22.264 -10.959  1.00  0.00     0.000 C 
BRANCH   9  10
ATOM     10  C   UNL     1     -26.459  22.645  -9.476  1.00  0.00     0.000 C 
BRANCH  10  11
ATOM     11  C   UNL     1     -26.948  21.476  -8.604  1.00  0.00     0.000 C 
BRANCH  11  12
ATOM     12  C   UNL     1     -26.040  21.222  -7.388  1.00  0.00     0.006 C 
BRANCH  12  13
ATOM     13  C   UNL     1     -24.545  21.104  -7.721  1.00  0.00     0.053 C 
BRANCH  13  14
ATOM     14  C   UNL     1     -23.683  21.732  -6.670  1.00  0.00     0.041 C 
ATOM     15  O   UNL     1     -22.504  22.083  -6.942  1.00  0.00    -0.550 OA
ATOM     16  O   UNL     1     -24.171  21.900  -5.381  1.00  0.00    -0.550 OA
ENDBRANCH  13  14
ENDBRANCH  12  13
ENDBRANCH  11  12
ENDBRANCH  10  11
ENDBRANCH   9  10
ENDBRANCH   8   9
ENDBRANCH   7   8
ENDBRANCH   6   7
ENDBRANCH   5   6
ENDBRANCH   4   5
ENDBRANCH   3   4
ENDBRANCH   2   3
ENDBRANCH   1   2
BRANCH   1  17
ATOM     17  C   UNL     1     -33.001  17.982 -10.503  1.00  0.00     0.000 C 
BRANCH  17  18
ATOM     18  C   UNL     1     -32.300  16.846  -9.747  1.00  0.00     0.000 C 
BRANCH  18  19
ATOM     19  C   UNL     1     -32.074  15.596 -10.619  1.00  0.00     0.000 C 
BRANCH  19  20
ATOM     20  C   UNL     1     -30.858  15.666 -11.567  1.00  0.00     0.000 C 
BRANCH  20  21
ATOM     21  C   UNL     1     -29.686  16.517 -11.054  1.00  0.00     0.000 C 
BRANCH  21  22
ATOM     22  C   UNL     1     -29.664  17.924 -11.673  1.00  0.00    -0.000 C 
BRANCH  22  23
ATOM     23  C   UNL     1     -28.919  17.951 -13.018  1.00  0.00    -0.000 C 
BRANCH  23  24
ATOM     24  C   UNL     1     -29.061  16.622 -13.778  1.00  0.00    -0.000 C 
BRANCH  24  25
ATOM     25  C   UNL     1     -30.184  16.648 -14.835  1.00  0.00    -0.000 C 
BRANCH  25  26
ATOM     26  C   UNL     1     -29.997  17.719 -15.926  1.00  0.00    -0.000 C 
BRANCH  26  27
ATOM     27  C   UNL     1     -31.080  17.665 -17.017  1.00  0.00    -0.000 C 
BRANCH  27  28
ATOM     28  C   UNL     1     -30.807  18.650 -18.166  1.00  0.00    -0.000 C 
BRANCH  28  29
ATOM     29  C   UNL     1     -29.806  19.747 -17.772  1.00  0.00    -0.003 C 
ATOM     30  C   UNL     1     -30.458  20.784 -16.862  1.00  0.00     0.004 C 
ENDBRANCH  28  29
ENDBRANCH  27  28
ENDBRANCH  26  27
ENDBRANCH  25  26
ENDBRANCH  24  25
ENDBRANCH  23  24
ENDBRANCH  22  23
ENDBRANCH  21  22
ENDBRANCH  20  21
ENDBRANCH  19  20
ENDBRANCH  18  19
ENDBRANCH  17  18
ENDBRANCH   1  17
TORSDOF 26
ENDMDL
MODEL 9
REMARK VINA RESULT:    21.956      2.924      4.569
REMARK INTER + INTRA:          54.279
REMARK INTER:                  56.235
REMARK INTRA:                  -1.957
REMARK UNBOUND:                -1.049
REMARK SMILES CCCCCCCCCCCCCCCCCCCCCCCCCCCC(=O)[O-]
REMARK SMILES IDX 15 1 16 2 17 3 18 4 19 5 20 6 21 7 22 8 23 9 24 10 25 11
REMARK SMILES IDX 26 12 27 13 28 14 29 15 30 16 14 17 13 18 12 19 11 20 10 21
REMARK SMILES IDX 9 22 8 23 7 24 6 25 5 26 4 27 3 28 2 29 1 30
REMARK H PARENT
REMARK Flexibility Score: inf
ROOT
ATOM      1  C   UNL     1     -29.618  15.953 -11.692  1.00  0.00     0.000 C 
ENDROOT
BRANCH   1   2
ATOM      2  C   UNL     1     -29.932  15.071 -12.920  1.00  0.00     0.000 C 
BRANCH   2   3
ATOM      3  C   UNL     1     -29.184  15.497 -14.196  1.00  0.00     0.000 C 
BRANCH   3   4
ATOM      4  C   UNL     1     -28.388  14.346 -14.830  1.00  0.00     0.000 C 
BRANCH   4   5
ATOM      5  C   UNL     1     -27.105  14.825 -15.533  1.00  0.00     0.000 C 
BRANCH   5   6
ATOM      6  C   UNL     1     -25.975  13.780 -15.595  1.00  0.00     0.000 C 
BRANCH   6   7
ATOM      7  C   UNL     1     -25.875  13.087 -16.963  1.00  0.00     0.000 C 
BRANCH   7   8
ATOM      8  C   UNL     1     -24.476  13.264 -17.573  1.00  0.00     0.000 C 
BRANCH   8   9
ATOM      9  C   UNL     1     -24.388  12.787 -19.035  1.00  0.00     0.000 C 
BRANCH   9  10
ATOM     10  C   UNL     1     -23.410  11.624 -19.288  1.00  0.00     0.000 C 
BRANCH  10  11
ATOM     11  C   UNL     1     -24.086  10.245 -19.218  1.00  0.00     0.000 C 
BRANCH  11  12
ATOM     12  C   UNL     1     -23.441   9.320 -18.169  1.00  0.00     0.006 C 
BRANCH  12  13
ATOM     13  C   UNL     1     -23.520   9.841 -16.726  1.00  0.00     0.053 C 
BRANCH  13  14
ATOM     14  C   UNL     1     -22.230   9.649 -15.988  1.00  0.00     0.041 C 
ATOM     15  O   UNL     1     -21.223  10.348 -16.279  1.00  0.00    -0.550 OA
ATOM     16  O   UNL     1     -22.132   8.676 -15.002  1.00  0.00    -0.550 OA
ENDBRANCH  13  14
ENDBRANCH  12  13
ENDBRANCH  11  12
ENDBRANCH  10  11
ENDBRANCH   9  10
ENDBRANCH   8   9
ENDBRANCH   7   8
ENDBRANCH   6   7
ENDBRANCH   5   6
ENDBRANCH   4   5
ENDBRANCH   3   4
ENDBRANCH   2   3
ENDBRANCH   1   2
BRANCH   1  17
ATOM     17  C   UNL     1     -29.687  17.451 -12.025  1.00  0.00     0.000 C 
BRANCH  17  18
ATOM     18  C   UNL     1     -29.481  18.310 -10.769  1.00  0.00     0.000 C 
BRANCH  18  19
ATOM     19  C   UNL     1     -30.797  18.616 -10.030  1.00  0.00     0.000 C 
BRANCH  19  20
ATOM     20  C   UNL     1     -32.041  17.879 -10.570  1.00  0.00     0.000 C 
BRANCH  20  21
ATOM     21  C   UNL     1     -33.373  18.618 -10.358  1.00  0.00     0.000 C 
BRANCH  21  22
ATOM     22  C   UNL     1     -33.299  20.095 -10.776  1.00  0.00    -0.000 C 
BRANCH  22  23
ATOM     23  C   UNL     1     -33.337  21.041  -9.565  1.00  0.00    -0.000 C 
BRANCH  23  24
ATOM     24  C   UNL     1     -32.921  22.473  -9.943  1.00  0.00    -0.000 C 
BRANCH  24  25
ATOM     25  C   UNL     1     -32.050  22.532 -11.215  1.00  0.00    -0.000 C 
BRANCH  25  26
ATOM     26  C   UNL     1     -30.562  22.221 -10.974  1.00  0.00    -0.000 C 
BRANCH  26  27
ATOM     27  C   UNL     1     -29.708  22.326 -12.250  1.00  0.00    -0.000 C 
BRANCH  27  28
ATOM     28  C   UNL     1     -28.301  21.733 -12.067  1.00  0.00    -0.000 C 
BRANCH  28  29
ATOM     29  C   UNL     1     -27.685  21.268 -13.395  1.00  0.00    -0.003 C 
ATOM     30  C   UNL     1     -28.141  19.855 -13.747  1.00  0.00     0.004 C 
ENDBRANCH  28  29
ENDBRANCH  27  28
ENDBRANCH  26  27
ENDBRANCH  25  26
ENDBRANCH  24  25
ENDBRANCH  23  24
ENDBRANCH  22  23
ENDBRANCH  21  22
ENDBRANCH  20  21
ENDBRANCH  19  20
ENDBRANCH  18  19
ENDBRANCH  17  18
ENDBRANCH   1  17
TORSDOF 26
ENDMDL
