MODEL 1
REMARK VINA RESULT:    -4.936      0.000      0.000
REMARK INTER + INTRA:          -6.291
REMARK INTER:                  -6.090
REMARK INTRA:                  -0.201
REMARK UNBOUND:                -0.201
REMARK SMILES CCCCC=CC(C)=O
REMARK SMILES IDX 4 1 3 2 2 3 1 4 5 5 6 6 7 7 9 8 8 9
REMARK H PARENT
REMARK Flexibility Score: inf
ROOT
ATOM      1  C   UNL     1      83.855   5.927  26.452  1.00  0.00     0.027 C 
ENDROOT
BRANCH   1   2
ATOM      2  C   UNL     1      82.384   5.605  26.167  1.00  0.00     0.004 C 
BRANCH   2   3
ATOM      3  C   UNL     1      81.504   5.939  27.377  1.00  0.00    -0.003 C 
ATOM      4  C   UNL     1      80.956   7.361  27.285  1.00  0.00     0.004 C 
ENDBRANCH   2   3
ENDBRANCH   1   2
BRANCH   1   5
ATOM      5  C   UNL     1      84.360   5.158  27.639  1.00  0.00    -0.023 C 
ATOM      6  C   UNL     1      84.716   3.872  27.539  1.00  0.00     0.042 C 
BRANCH   6   7
ATOM      7  C   UNL     1      85.202   3.096  28.695  1.00  0.00     0.152 C 
ATOM      8  O   UNL     1      84.393   2.561  29.499  1.00  0.00    -0.295 OA
ATOM      9  C   UNL     1      86.673   2.945  28.919  1.00  0.00     0.093 C 
ENDBRANCH   6   7
ENDBRANCH   1   5
TORSDOF 4
ENDMDL
MODEL 2
REMARK VINA RESULT:    -4.829      2.208      5.168
REMARK INTER + INTRA:          -6.160
REMARK INTER:                  -5.975
REMARK INTRA:                  -0.185
REMARK UNBOUND:                -0.201
REMARK SMILES CCCCC=CC(C)=O
REMARK SMILES IDX 4 1 3 2 2 3 1 4 5 5 6 6 7 7 9 8 8 9
REMARK H PARENT
REMARK Flexibility Score: inf
ROOT
ATOM      1  C   UNL     1      83.001   3.922  29.650  1.00  0.00     0.027 C 
ENDROOT
BRANCH   1   2
ATOM      2  C   UNL     1      83.849   2.692  29.308  1.00  0.00     0.004 C 
BRANCH   2   3
ATOM      3  C   UNL     1      84.952   3.047  28.304  1.00  0.00    -0.003 C 
ATOM      4  C   UNL     1      86.332   2.979  28.954  1.00  0.00     0.004 C 
ENDBRANCH   2   3
ENDBRANCH   1   2
BRANCH   1   5
ATOM      5  C   UNL     1      82.878   4.843  28.471  1.00  0.00    -0.023 C 
ATOM      6  C   UNL     1      81.798   5.613  28.295  1.00  0.00     0.042 C 
BRANCH   6   7
ATOM      7  C   UNL     1      81.652   6.515  27.137  1.00  0.00     0.152 C 
ATOM      8  O   UNL     1      82.324   6.332  26.087  1.00  0.00    -0.295 OA
ATOM      9  C   UNL     1      80.696   7.662  27.210  1.00  0.00     0.093 C 
ENDBRANCH   6   7
ENDBRANCH   1   5
TORSDOF 4
ENDMDL
MODEL 3
REMARK VINA RESULT:    -4.613      2.898      4.878
REMARK INTER + INTRA:          -5.893
REMARK INTER:                  -5.621
REMARK INTRA:                  -0.272
REMARK UNBOUND:                -0.201
REMARK SMILES CCCCC=CC(C)=O
REMARK SMILES IDX 4 1 3 2 2 3 1 4 5 5 6 6 7 7 9 8 8 9
REMARK H PARENT
REMARK Flexibility Score: inf
ROOT
ATOM      1  C   UNL     1      82.818   4.708  30.387  1.00  0.00     0.027 C 
ENDROOT
BRANCH   1   2
ATOM      2  C   UNL     1      82.621   3.239  29.994  1.00  0.00     0.004 C 
BRANCH   2   3
ATOM      3  C   UNL     1      83.750   2.761  29.074  1.00  0.00    -0.003 C 
ATOM      4  C   UNL     1      83.231   2.466  27.670  1.00  0.00     0.004 C 
ENDBRANCH   2   3
ENDBRANCH   1   2
BRANCH   1   5
ATOM      5  C   UNL     1      82.744   5.607  29.188  1.00  0.00    -0.023 C 
ATOM      6  C   UNL     1      81.618   5.729  28.474  1.00  0.00     0.042 C 
BRANCH   6   7
ATOM      7  C   UNL     1      81.528   6.597  27.285  1.00  0.00     0.152 C 
ATOM      8  O   UNL     1      80.804   7.629  27.292  1.00  0.00    -0.295 OA
ATOM      9  C   UNL     1      82.303   6.249  26.055  1.00  0.00     0.093 C 
ENDBRANCH   6   7
ENDBRANCH   1   5
TORSDOF 4
ENDMDL
MODEL 4
REMARK VINA RESULT:    -4.576      1.718      4.743
REMARK INTER + INTRA:          -5.847
REMARK INTER:                  -5.656
REMARK INTRA:                  -0.191
REMARK UNBOUND:                -0.201
REMARK SMILES CCCCC=CC(C)=O
REMARK SMILES IDX 4 1 3 2 2 3 1 4 5 5 6 6 7 7 9 8 8 9
REMARK H PARENT
REMARK Flexibility Score: inf
ROOT
ATOM      1  C   UNL     1      84.705   4.519  26.194  1.00  0.00     0.027 C 
ENDROOT
BRANCH   1   2
ATOM      2  C   UNL     1      85.070   3.202  26.889  1.00  0.00     0.004 C 
BRANCH   2   3
ATOM      3  C   UNL     1      85.190   3.398  28.405  1.00  0.00    -0.003 C 
ATOM      4  C   UNL     1      86.579   3.005  28.904  1.00  0.00     0.004 C 
ENDBRANCH   2   3
ENDBRANCH   1   2
BRANCH   1   5
ATOM      5  C   UNL     1      83.884   5.399  27.091  1.00  0.00    -0.023 C 
ATOM      6  C   UNL     1      82.575   5.581  26.885  1.00  0.00     0.042 C 
BRANCH   6   7
ATOM      7  C   UNL     1      81.753   6.451  27.747  1.00  0.00     0.152 C 
ATOM      8  O   UNL     1      81.882   6.424  29.000  1.00  0.00    -0.295 OA
ATOM      9  C   UNL     1      80.754   7.375  27.128  1.00  0.00     0.093 C 
ENDBRANCH   6   7
ENDBRANCH   1   5
TORSDOF 4
ENDMDL
MODEL 5
REMARK VINA RESULT:    -4.505      2.125      2.523
REMARK INTER + INTRA:          -5.760
REMARK INTER:                  -5.526
REMARK INTRA:                  -0.234
REMARK UNBOUND:                -0.201
REMARK SMILES CCCCC=CC(C)=O
REMARK SMILES IDX 4 1 3 2 2 3 1 4 5 5 6 6 7 7 9 8 8 9
REMARK H PARENT
REMARK Flexibility Score: inf
ROOT
ATOM      1  C   UNL     1      84.308   5.630  27.950  1.00  0.00     0.027 C 
ENDROOT
BRANCH   1   2
ATOM      2  C   UNL     1      83.852   5.828  26.500  1.00  0.00     0.004 C 
BRANCH   2   3
ATOM      3  C   UNL     1      82.349   5.558  26.356  1.00  0.00    -0.003 C 
ATOM      4  C   UNL     1      81.527   6.760  26.813  1.00  0.00     0.004 C 
ENDBRANCH   2   3
ENDBRANCH   1   2
BRANCH   1   5
ATOM      5  C   UNL     1      83.676   4.411  28.557  1.00  0.00    -0.023 C 
ATOM      6  C   UNL     1      83.046   4.464  29.737  1.00  0.00     0.042 C 
BRANCH   6   7
ATOM      7  C   UNL     1      82.430   3.276  30.356  1.00  0.00     0.152 C 
ATOM      8  O   UNL     1      81.724   3.383  31.395  1.00  0.00    -0.295 OA
ATOM      9  C   UNL     1      82.646   1.928  29.747  1.00  0.00     0.093 C 
ENDBRANCH   6   7
ENDBRANCH   1   5
TORSDOF 4
ENDMDL
MODEL 6
REMARK VINA RESULT:    -4.428      1.471      1.739
REMARK INTER + INTRA:          -5.665
REMARK INTER:                  -5.475
REMARK INTRA:                  -0.190
REMARK UNBOUND:                -0.201
REMARK SMILES CCCCC=CC(C)=O
REMARK SMILES IDX 4 1 3 2 2 3 1 4 5 5 6 6 7 7 9 8 8 9
REMARK H PARENT
REMARK Flexibility Score: inf
ROOT
ATOM      1  C   UNL     1      82.592   5.975  29.123  1.00  0.00     0.027 C 
ENDROOT
BRANCH   1   2
ATOM      2  C   UNL     1      81.391   5.652  28.228  1.00  0.00     0.004 C 
BRANCH   2   3
ATOM      3  C   UNL     1      81.450   6.452  26.921  1.00  0.00    -0.003 C 
ATOM      4  C   UNL     1      80.755   7.803  27.069  1.00  0.00     0.004 C 
ENDBRANCH   2   3
ENDBRANCH   1   2
BRANCH   1   5
ATOM      5  C   UNL     1      83.856   5.379  28.574  1.00  0.00    -0.023 C 
ATOM      6  C   UNL     1      84.058   4.057  28.563  1.00  0.00     0.042 C 
BRANCH   6   7
ATOM      7  C   UNL     1      85.297   3.452  28.039  1.00  0.00     0.152 C 
ATOM      8  O   UNL     1      85.491   3.349  26.798  1.00  0.00    -0.295 OA
ATOM      9  C   UNL     1      86.336   2.952  28.991  1.00  0.00     0.093 C 
ENDBRANCH   6   7
ENDBRANCH   1   5
TORSDOF 4
ENDMDL
MODEL 7
REMARK VINA RESULT:    -4.317      2.196      4.675
REMARK INTER + INTRA:          -5.528
REMARK INTER:                  -5.384
REMARK INTRA:                  -0.144
REMARK UNBOUND:                -0.201
REMARK SMILES CCCCC=CC(C)=O
REMARK SMILES IDX 4 1 3 2 2 3 1 4 5 5 6 6 7 7 9 8 8 9
REMARK H PARENT
REMARK Flexibility Score: inf
ROOT
ATOM      1  C   UNL     1      84.962   4.644  28.336  1.00  0.00     0.027 C 
ENDROOT
BRANCH   1   2
ATOM      2  C   UNL     1      85.038   3.141  28.627  1.00  0.00     0.004 C 
BRANCH   2   3
ATOM      3  C   UNL     1      83.668   2.477  28.445  1.00  0.00    -0.003 C 
ATOM      4  C   UNL     1      82.905   2.416  29.765  1.00  0.00     0.004 C 
ENDBRANCH   2   3
ENDBRANCH   1   2
BRANCH   1   5
ATOM      5  C   UNL     1      83.759   4.977  27.502  1.00  0.00    -0.023 C 
ATOM      6  C   UNL     1      82.904   5.941  27.861  1.00  0.00     0.042 C 
BRANCH   6   7
ATOM      7  C   UNL     1      81.709   6.275  27.062  1.00  0.00     0.152 C 
ATOM      8  O   UNL     1      81.347   5.540  26.105  1.00  0.00    -0.295 OA
ATOM      9  C   UNL     1      80.920   7.501  27.390  1.00  0.00     0.093 C 
ENDBRANCH   6   7
ENDBRANCH   1   5
TORSDOF 4
ENDMDL
MODEL 8
REMARK VINA RESULT:    -4.275      2.189      3.316
REMARK INTER + INTRA:          -5.476
REMARK INTER:                  -5.176
REMARK INTRA:                  -0.300
REMARK UNBOUND:                -0.201
REMARK SMILES CCCCC=CC(C)=O
REMARK SMILES IDX 4 1 3 2 2 3 1 4 5 5 6 6 7 7 9 8 8 9
REMARK H PARENT
REMARK Flexibility Score: inf
ROOT
ATOM      1  C   UNL     1      82.544   6.244  27.385  1.00  0.00     0.027 C 
ENDROOT
BRANCH   1   2
ATOM      2  C   UNL     1      83.971   6.009  26.877  1.00  0.00     0.004 C 
BRANCH   2   3
ATOM      3  C   UNL     1      84.012   4.845  25.880  1.00  0.00    -0.003 C 
ATOM      4  C   UNL     1      84.786   3.658  26.448  1.00  0.00     0.004 C 
ENDBRANCH   2   3
ENDBRANCH   1   2
BRANCH   1   5
ATOM      5  C   UNL     1      82.144   5.200  28.387  1.00  0.00    -0.023 C 
ATOM      6  C   UNL     1      82.919   4.907  29.438  1.00  0.00     0.042 C 
BRANCH   6   7
ATOM      7  C   UNL     1      82.550   3.876  30.426  1.00  0.00     0.152 C 
ATOM      8  O   UNL     1      82.242   4.194  31.606  1.00  0.00    -0.295 OA
ATOM      9  C   UNL     1      82.545   2.436  30.026  1.00  0.00     0.093 C 
ENDBRANCH   6   7
ENDBRANCH   1   5
TORSDOF 4
ENDMDL
MODEL 9
REMARK VINA RESULT:    -3.963      1.573      2.392
REMARK INTER + INTRA:          -5.091
REMARK INTER:                  -5.088
REMARK INTRA:                  -0.003
REMARK UNBOUND:                -0.201
REMARK SMILES CCCCC=CC(C)=O
REMARK SMILES IDX 4 1 3 2 2 3 1 4 5 5 6 6 7 7 9 8 8 9
REMARK H PARENT
REMARK Flexibility Score: inf
ROOT
ATOM      1  C   UNL     1      82.113   6.413  28.750  1.00  0.00     0.027 C 
ENDROOT
BRANCH   1   2
ATOM      2  C   UNL     1      81.339   6.649  27.448  1.00  0.00     0.004 C 
BRANCH   2   3
ATOM      3  C   UNL     1      81.595   5.519  26.445  1.00  0.00    -0.003 C 
ATOM      4  C   UNL     1      82.959   5.673  25.776  1.00  0.00     0.004 C 
ENDBRANCH   2   3
ENDBRANCH   1   2
BRANCH   1   5
ATOM      5  C   UNL     1      82.382   4.953  28.966  1.00  0.00    -0.023 C 
ATOM      6  C   UNL     1      83.623   4.492  29.164  1.00  0.00     0.042 C 
BRANCH   6   7
ATOM      7  C   UNL     1      83.910   3.059  29.366  1.00  0.00     0.152 C 
ATOM      8  O   UNL     1      85.079   2.609  29.225  1.00  0.00    -0.295 OA
ATOM      9  C   UNL     1      82.802   2.129  29.741  1.00  0.00     0.093 C 
ENDBRANCH   6   7
ENDBRANCH   1   5
TORSDOF 4
ENDMDL
