MODEL 1
REMARK VINA RESULT:    -2.239      0.000      0.000
REMARK INTER + INTRA:          -3.164
REMARK INTER:                  -2.894
REMARK INTRA:                  -0.271
REMARK UNBOUND:                -0.271
REMARK SMILES CCCCCCC(=O)[O-]
REMARK SMILES IDX 5 1 6 2 7 3 8 4 9 5 4 6 3 7 2 8 1 9
REMARK H PARENT
REMARK Flexibility Score: inf
ROOT
ATOM      1  C   UNL     1     177.384 208.125 200.196  1.00  0.00     0.006 C 
ENDROOT
BRANCH   1   2
ATOM      2  C   UNL     1     178.703 207.354 200.088  1.00  0.00     0.053 C 
BRANCH   2   3
ATOM      3  C   UNL     1     179.137 207.256 198.659  1.00  0.00     0.041 C 
ATOM      4  O   UNL     1     180.344 207.041 198.376  1.00  0.00    -0.550 OA
ATOM      5  O   UNL     1     178.198 207.356 197.639  1.00  0.00    -0.550 OA
ENDBRANCH   2   3
ENDBRANCH   1   2
BRANCH   1   6
ATOM      6  C   UNL     1     176.554 207.631 201.386  1.00  0.00     0.000 C 
BRANCH   6   7
ATOM      7  C   UNL     1     176.587 206.101 201.484  1.00  0.00    -0.000 C 
BRANCH   7   8
ATOM      8  C   UNL     1     176.833 205.648 202.928  1.00  0.00    -0.003 C 
ATOM      9  C   UNL     1     178.235 205.069 203.092  1.00  0.00     0.004 C 
ENDBRANCH   7   8
ENDBRANCH   6   7
ENDBRANCH   1   6
TORSDOF 5
ENDMDL
MODEL 2
REMARK VINA RESULT:    -2.220      1.457      2.616
REMARK INTER + INTRA:          -3.140
REMARK INTER:                  -2.863
REMARK INTRA:                  -0.277
REMARK UNBOUND:                -0.271
REMARK SMILES CCCCCCC(=O)[O-]
REMARK SMILES IDX 5 1 6 2 7 3 8 4 9 5 4 6 3 7 2 8 1 9
REMARK H PARENT
REMARK Flexibility Score: inf
ROOT
ATOM      1  C   UNL     1     177.882 206.313 200.957  1.00  0.00     0.006 C 
ENDROOT
BRANCH   1   2
ATOM      2  C   UNL     1     178.252 207.509 200.075  1.00  0.00     0.053 C 
BRANCH   2   3
ATOM      3  C   UNL     1     179.649 207.365 199.557  1.00  0.00     0.041 C 
ATOM      4  O   UNL     1     180.626 207.388 200.351  1.00  0.00    -0.550 OA
ATOM      5  O   UNL     1     179.869 207.158 198.200  1.00  0.00    -0.550 OA
ENDBRANCH   2   3
ENDBRANCH   1   2
BRANCH   1   6
ATOM      6  C   UNL     1     176.715 206.657 201.889  1.00  0.00     0.000 C 
BRANCH   6   7
ATOM      7  C   UNL     1     176.157 208.052 201.582  1.00  0.00    -0.000 C 
BRANCH   7   8
ATOM      8  C   UNL     1     174.672 207.979 201.208  1.00  0.00    -0.003 C 
ATOM      9  C   UNL     1     174.486 207.453 199.788  1.00  0.00     0.004 C 
ENDBRANCH   7   8
ENDBRANCH   6   7
ENDBRANCH   1   6
TORSDOF 5
ENDMDL
MODEL 3
REMARK VINA RESULT:    -2.194      1.447      2.501
REMARK INTER + INTRA:          -3.106
REMARK INTER:                  -2.938
REMARK INTRA:                  -0.168
REMARK UNBOUND:                -0.271
REMARK SMILES CCCCCCC(=O)[O-]
REMARK SMILES IDX 5 1 6 2 7 3 8 4 9 5 4 6 3 7 2 8 1 9
REMARK H PARENT
REMARK Flexibility Score: inf
ROOT
ATOM      1  C   UNL     1     178.592 206.797 198.969  1.00  0.00     0.006 C 
ENDROOT
BRANCH   1   2
ATOM      2  C   UNL     1     179.996 206.973 198.383  1.00  0.00     0.053 C 
BRANCH   2   3
ATOM      3  C   UNL     1     179.926 207.127 196.896  1.00  0.00     0.041 C 
ATOM      4  O   UNL     1     178.812 207.134 196.310  1.00  0.00    -0.550 OA
ATOM      5  O   UNL     1     181.092 207.312 196.161  1.00  0.00    -0.550 OA
ENDBRANCH   2   3
ENDBRANCH   1   2
BRANCH   1   6
ATOM      6  C   UNL     1     178.261 207.927 199.952  1.00  0.00     0.000 C 
BRANCH   6   7
ATOM      7  C   UNL     1     176.746 208.125 200.074  1.00  0.00    -0.000 C 
BRANCH   7   8
ATOM      8  C   UNL     1     176.301 208.076 201.540  1.00  0.00    -0.003 C 
ATOM      9  C   UNL     1     176.465 206.674 202.119  1.00  0.00     0.004 C 
ENDBRANCH   7   8
ENDBRANCH   6   7
ENDBRANCH   1   6
TORSDOF 5
ENDMDL
MODEL 4
REMARK VINA RESULT:    -2.184      2.196      3.820
REMARK INTER + INTRA:          -3.093
REMARK INTER:                  -2.718
REMARK INTRA:                  -0.375
REMARK UNBOUND:                -0.271
REMARK SMILES CCCCCCC(=O)[O-]
REMARK SMILES IDX 5 1 6 2 7 3 8 4 9 5 4 6 3 7 2 8 1 9
REMARK H PARENT
REMARK Flexibility Score: inf
ROOT
ATOM      1  C   UNL     1     175.918 206.528 201.865  1.00  0.00     0.006 C 
ENDROOT
BRANCH   1   2
ATOM      2  C   UNL     1     176.981 205.930 202.792  1.00  0.00     0.053 C 
BRANCH   2   3
ATOM      3  C   UNL     1     178.007 205.185 201.998  1.00  0.00     0.041 C 
ATOM      4  O   UNL     1     177.657 204.452 201.037  1.00  0.00    -0.550 OA
ATOM      5  O   UNL     1     179.358 205.339 202.290  1.00  0.00    -0.550 OA
ENDBRANCH   2   3
ENDBRANCH   1   2
BRANCH   1   6
ATOM      6  C   UNL     1     176.244 207.987 201.523  1.00  0.00     0.000 C 
BRANCH   6   7
ATOM      7  C   UNL     1     176.681 208.125 200.060  1.00  0.00    -0.000 C 
BRANCH   7   8
ATOM      8  C   UNL     1     178.207 208.048 199.932  1.00  0.00    -0.003 C 
ATOM      9  C   UNL     1     178.617 207.209 198.726  1.00  0.00     0.004 C 
ENDBRANCH   7   8
ENDBRANCH   6   7
ENDBRANCH   1   6
TORSDOF 5
ENDMDL
MODEL 5
REMARK VINA RESULT:    -2.182      1.427      1.847
REMARK INTER + INTRA:          -3.090
REMARK INTER:                  -2.895
REMARK INTRA:                  -0.195
REMARK UNBOUND:                -0.271
REMARK SMILES CCCCCCC(=O)[O-]
REMARK SMILES IDX 5 1 6 2 7 3 8 4 9 5 4 6 3 7 2 8 1 9
REMARK H PARENT
REMARK Flexibility Score: inf
ROOT
ATOM      1  C   UNL     1     178.077 207.855 200.118  1.00  0.00     0.006 C 
ENDROOT
BRANCH   1   2
ATOM      2  C   UNL     1     178.644 207.362 198.784  1.00  0.00     0.053 C 
BRANCH   2   3
ATOM      3  C   UNL     1     180.108 207.077 198.911  1.00  0.00     0.041 C 
ATOM      4  O   UNL     1     180.739 206.557 197.954  1.00  0.00    -0.550 OA
ATOM      5  O   UNL     1     180.787 207.432 200.071  1.00  0.00    -0.550 OA
ENDBRANCH   2   3
ENDBRANCH   1   2
BRANCH   1   6
ATOM      6  C   UNL     1     176.571 208.124 200.010  1.00  0.00     0.000 C 
BRANCH   6   7
ATOM      7  C   UNL     1     175.853 207.768 201.316  1.00  0.00    -0.000 C 
BRANCH   7   8
ATOM      8  C   UNL     1     176.617 206.685 202.087  1.00  0.00    -0.003 C 
ATOM      9  C   UNL     1     175.770 205.428 202.259  1.00  0.00     0.004 C 
ENDBRANCH   7   8
ENDBRANCH   6   7
ENDBRANCH   1   6
TORSDOF 5
ENDMDL
MODEL 6
REMARK VINA RESULT:    -2.127      2.705      4.416
REMARK INTER + INTRA:          -3.020
REMARK INTER:                  -2.793
REMARK INTRA:                  -0.227
REMARK UNBOUND:                -0.271
REMARK SMILES CCCCCCC(=O)[O-]
REMARK SMILES IDX 5 1 6 2 7 3 8 4 9 5 4 6 3 7 2 8 1 9
REMARK H PARENT
REMARK Flexibility Score: inf
ROOT
ATOM      1  C   UNL     1     177.489 207.063 200.599  1.00  0.00     0.006 C 
ENDROOT
BRANCH   1   2
ATOM      2  C   UNL     1     176.523 208.125 201.132  1.00  0.00     0.053 C 
BRANCH   2   3
ATOM      3  C   UNL     1     175.179 207.977 200.492  1.00  0.00     0.041 C 
ATOM      4  O   UNL     1     174.154 207.797 201.201  1.00  0.00    -0.550 OA
ATOM      5  O   UNL     1     175.050 208.088 199.112  1.00  0.00    -0.550 OA
ENDBRANCH   2   3
ENDBRANCH   1   2
BRANCH   1   6
ATOM      6  C   UNL     1     178.601 207.702 199.759  1.00  0.00     0.000 C 
BRANCH   6   7
ATOM      7  C   UNL     1     178.473 207.308 198.283  1.00  0.00    -0.000 C 
BRANCH   7   8
ATOM      8  C   UNL     1     179.798 206.757 197.744  1.00  0.00    -0.003 C 
ATOM      9  C   UNL     1     180.929 206.963 198.747  1.00  0.00     0.004 C 
ENDBRANCH   7   8
ENDBRANCH   6   7
ENDBRANCH   1   6
TORSDOF 5
ENDMDL
MODEL 7
REMARK VINA RESULT:    -2.120      2.631      4.147
REMARK INTER + INTRA:          -3.010
REMARK INTER:                  -2.767
REMARK INTRA:                  -0.244
REMARK UNBOUND:                -0.271
REMARK SMILES CCCCCCC(=O)[O-]
REMARK SMILES IDX 5 1 6 2 7 3 8 4 9 5 4 6 3 7 2 8 1 9
REMARK H PARENT
REMARK Flexibility Score: inf
ROOT
ATOM      1  C   UNL     1     176.600 208.063 200.140  1.00  0.00     0.006 C 
ENDROOT
BRANCH   1   2
ATOM      2  C   UNL     1     176.294 207.791 201.616  1.00  0.00     0.053 C 
BRANCH   2   3
ATOM      3  C   UNL     1     176.410 206.330 201.914  1.00  0.00     0.041 C 
ATOM      4  O   UNL     1     175.469 205.546 201.624  1.00  0.00    -0.550 OA
ATOM      5  O   UNL     1     177.580 205.825 202.469  1.00  0.00    -0.550 OA
ENDBRANCH   2   3
ENDBRANCH   1   2
BRANCH   1   6
ATOM      6  C   UNL     1     178.112 208.125 199.894  1.00  0.00     0.000 C 
BRANCH   6   7
ATOM      7  C   UNL     1     178.514 207.244 198.706  1.00  0.00    -0.000 C 
BRANCH   7   8
ATOM      8  C   UNL     1     179.987 206.830 198.801  1.00  0.00    -0.003 C 
ATOM      9  C   UNL     1     180.565 207.162 200.174  1.00  0.00     0.004 C 
ENDBRANCH   7   8
ENDBRANCH   6   7
ENDBRANCH   1   6
TORSDOF 5
ENDMDL
MODEL 8
REMARK VINA RESULT:    -2.076      2.852      4.633
REMARK INTER + INTRA:          -2.953
REMARK INTER:                  -2.746
REMARK INTRA:                  -0.207
REMARK UNBOUND:                -0.271
REMARK SMILES CCCCCCC(=O)[O-]
REMARK SMILES IDX 5 1 6 2 7 3 8 4 9 5 4 6 3 7 2 8 1 9
REMARK H PARENT
REMARK Flexibility Score: inf
ROOT
ATOM      1  C   UNL     1     176.836 207.797 200.041  1.00  0.00     0.006 C 
ENDROOT
BRANCH   1   2
ATOM      2  C   UNL     1     176.373 207.924 201.495  1.00  0.00     0.053 C 
BRANCH   2   3
ATOM      3  C   UNL     1     176.188 206.571 202.105  1.00  0.00     0.041 C 
ATOM      4  O   UNL     1     177.121 206.037 202.760  1.00  0.00    -0.550 OA
ATOM      5  O   UNL     1     174.966 205.918 201.992  1.00  0.00    -0.550 OA
ENDBRANCH   2   3
ENDBRANCH   1   2
BRANCH   1   6
ATOM      6  C   UNL     1     178.367 207.795 199.949  1.00  0.00     0.000 C 
BRANCH   6   7
ATOM      7  C   UNL     1     178.836 207.326 198.567  1.00  0.00    -0.000 C 
BRANCH   7   8
ATOM      8  C   UNL     1     177.649 206.872 197.709  1.00  0.00    -0.003 C 
ATOM      9  C   UNL     1     177.715 207.481 196.312  1.00  0.00     0.004 C 
ENDBRANCH   7   8
ENDBRANCH   6   7
ENDBRANCH   1   6
TORSDOF 5
ENDMDL
MODEL 9
REMARK VINA RESULT:    -2.050      1.504      2.402
REMARK INTER + INTRA:          -2.919
REMARK INTER:                  -2.510
REMARK INTRA:                  -0.410
REMARK UNBOUND:                -0.271
REMARK SMILES CCCCCCC(=O)[O-]
REMARK SMILES IDX 5 1 6 2 7 3 8 4 9 5 4 6 3 7 2 8 1 9
REMARK H PARENT
REMARK Flexibility Score: inf
ROOT
ATOM      1  C   UNL     1     175.859 206.853 201.670  1.00  0.00     0.006 C 
ENDROOT
BRANCH   1   2
ATOM      2  C   UNL     1     176.563 208.124 201.186  1.00  0.00     0.053 C 
BRANCH   2   3
ATOM      3  C   UNL     1     177.349 207.846 199.944  1.00  0.00     0.041 C 
ATOM      4  O   UNL     1     176.761 207.702 198.840  1.00  0.00    -0.550 OA
ATOM      5  O   UNL     1     178.737 207.792 199.997  1.00  0.00    -0.550 OA
ENDBRANCH   2   3
ENDBRANCH   1   2
BRANCH   1   6
ATOM      6  C   UNL     1     176.801 205.993 202.521  1.00  0.00     0.000 C 
BRANCH   6   7
ATOM      7  C   UNL     1     177.111 204.662 201.825  1.00  0.00    -0.000 C 
BRANCH   7   8
ATOM      8  C   UNL     1     178.604 204.550 201.494  1.00  0.00    -0.003 C 
ATOM      9  C   UNL     1     179.456 205.245 202.552  1.00  0.00     0.004 C 
ENDBRANCH   7   8
ENDBRANCH   6   7
ENDBRANCH   1   6
TORSDOF 5
ENDMDL
