MODEL 1
REMARK VINA RESULT:    -5.016      0.000      0.000
REMARK INTER + INTRA:          -8.192
REMARK INTER:                  -7.655
REMARK INTRA:                  -0.536
REMARK UNBOUND:                -0.536
REMARK SMILES CCCCCCCCCCC(=O)[O-]
REMARK SMILES IDX 7 1 8 2 9 3 10 4 11 5 12 6 13 7 6 8 5 9 4 10 3 11 2 12 1 13
REMARK H PARENT
REMARK Flexibility Score: inf
ROOT
ATOM      1  C   UNL     1       1.928  43.598  10.752  1.00  0.00     0.000 C 
ENDROOT
BRANCH   1   2
ATOM      2  C   UNL     1       1.927  42.769  12.046  1.00  0.00     0.000 C 
BRANCH   2   3
ATOM      3  C   UNL     1       2.917  41.595  11.997  1.00  0.00     0.006 C 
BRANCH   3   4
ATOM      4  C   UNL     1       2.427  40.429  12.860  1.00  0.00     0.053 C 
BRANCH   4   5
ATOM      5  C   UNL     1       3.389  39.286  12.792  1.00  0.00     0.041 C 
ATOM      6  O   UNL     1       2.995  38.148  12.424  1.00  0.00    -0.550 OA
ATOM      7  O   UNL     1       4.731  39.489  13.085  1.00  0.00    -0.550 OA
ENDBRANCH   4   5
ENDBRANCH   3   4
ENDBRANCH   2   3
ENDBRANCH   1   2
BRANCH   1   8
ATOM      8  C   UNL     1       3.036  43.165   9.776  1.00  0.00     0.000 C 
BRANCH   8   9
ATOM      9  C   UNL     1       3.986  44.318   9.405  1.00  0.00    -0.000 C 
BRANCH   9  10
ATOM     10  C   UNL     1       4.491  45.151  10.601  1.00  0.00    -0.000 C 
BRANCH  10  11
ATOM     11  C   UNL     1       4.436  46.679  10.407  1.00  0.00    -0.000 C 
BRANCH  11  12
ATOM     12  C   UNL     1       5.080  47.188   9.106  1.00  0.00    -0.003 C 
ATOM     13  C   UNL     1       6.452  47.826   9.330  1.00  0.00     0.004 C 
ENDBRANCH  11  12
ENDBRANCH  10  11
ENDBRANCH   9  10
ENDBRANCH   8   9
ENDBRANCH   1   8
TORSDOF 9
ENDMDL
MODEL 2
REMARK VINA RESULT:    -4.970      0.940      1.376
REMARK INTER + INTRA:          -8.121
REMARK INTER:                  -7.519
REMARK INTRA:                  -0.602
REMARK UNBOUND:                -0.536
REMARK SMILES CCCCCCCCCCC(=O)[O-]
REMARK SMILES IDX 7 1 8 2 9 3 10 4 11 5 12 6 13 7 6 8 5 9 4 10 3 11 2 12 1 13
REMARK H PARENT
REMARK Flexibility Score: inf
ROOT
ATOM      1  C   UNL     1       1.287  44.011  11.253  1.00  0.00     0.000 C 
ENDROOT
BRANCH   1   2
ATOM      2  C   UNL     1       1.994  43.006  12.178  1.00  0.00     0.000 C 
BRANCH   2   3
ATOM      3  C   UNL     1       2.850  41.993  11.404  1.00  0.00     0.006 C 
BRANCH   3   4
ATOM      4  C   UNL     1       4.103  41.614  12.199  1.00  0.00     0.053 C 
BRANCH   4   5
ATOM      5  C   UNL     1       3.943  40.262  12.817  1.00  0.00     0.041 C 
ATOM      6  O   UNL     1       4.869  39.771  13.515  1.00  0.00    -0.550 OA
ATOM      7  O   UNL     1       2.751  39.565  12.667  1.00  0.00    -0.550 OA
ENDBRANCH   4   5
ENDBRANCH   3   4
ENDBRANCH   2   3
ENDBRANCH   1   2
BRANCH   1   8
ATOM      8  C   UNL     1       1.827  43.967   9.813  1.00  0.00     0.000 C 
BRANCH   8   9
ATOM      9  C   UNL     1       2.653  45.215   9.450  1.00  0.00    -0.000 C 
BRANCH   9  10
ATOM     10  C   UNL     1       4.154  45.120   9.790  1.00  0.00    -0.000 C 
BRANCH  10  11
ATOM     11  C   UNL     1       4.811  46.443  10.237  1.00  0.00    -0.000 C 
BRANCH  11  12
ATOM     12  C   UNL     1       5.288  47.347   9.087  1.00  0.00    -0.003 C 
ATOM     13  C   UNL     1       6.727  47.831   9.270  1.00  0.00     0.004 C 
ENDBRANCH  11  12
ENDBRANCH  10  11
ENDBRANCH   9  10
ENDBRANCH   8   9
ENDBRANCH   1   8
TORSDOF 9
ENDMDL
MODEL 3
REMARK VINA RESULT:    -4.814      4.610      6.693
REMARK INTER + INTRA:          -7.883
REMARK INTER:                  -6.527
REMARK INTRA:                  -1.355
REMARK UNBOUND:                -0.536
REMARK SMILES CCCCCCCCCCC(=O)[O-]
REMARK SMILES IDX 7 1 8 2 9 3 10 4 11 5 12 6 13 7 6 8 5 9 4 10 3 11 2 12 1 13
REMARK H PARENT
REMARK Flexibility Score: inf
ROOT
ATOM      1  C   UNL     1       3.966  45.770  11.378  1.00  0.00     0.000 C 
ENDROOT
BRANCH   1   2
ATOM      2  C   UNL     1       4.937  45.905  10.194  1.00  0.00     0.000 C 
BRANCH   2   3
ATOM      3  C   UNL     1       4.229  46.307   8.891  1.00  0.00     0.006 C 
BRANCH   3   4
ATOM      4  C   UNL     1       3.187  47.399   9.149  1.00  0.00     0.053 C 
BRANCH   4   5
ATOM      5  C   UNL     1       2.669  47.945   7.856  1.00  0.00     0.041 C 
ATOM      6  O   UNL     1       3.366  48.752   7.186  1.00  0.00    -0.550 OA
ATOM      7  O   UNL     1       1.440  47.524   7.366  1.00  0.00    -0.550 OA
ENDBRANCH   4   5
ENDBRANCH   3   4
ENDBRANCH   2   3
ENDBRANCH   1   2
BRANCH   1   8
ATOM      8  C   UNL     1       4.038  44.387  12.046  1.00  0.00     0.000 C 
BRANCH   8   9
ATOM      9  C   UNL     1       3.995  43.231  11.028  1.00  0.00    -0.000 C 
BRANCH   9  10
ATOM     10  C   UNL     1       2.584  42.856  10.533  1.00  0.00    -0.000 C 
BRANCH  10  11
ATOM     11  C   UNL     1       2.279  43.237   9.070  1.00  0.00    -0.000 C 
BRANCH  11  12
ATOM     12  C   UNL     1       1.141  44.257   8.892  1.00  0.00    -0.003 C 
ATOM     13  C   UNL     1       0.644  44.832  10.219  1.00  0.00     0.004 C 
ENDBRANCH  11  12
ENDBRANCH  10  11
ENDBRANCH   9  10
ENDBRANCH   8   9
ENDBRANCH   1   8
TORSDOF 9
ENDMDL
MODEL 4
REMARK VINA RESULT:    -4.794      3.724      6.727
REMARK INTER + INTRA:          -7.853
REMARK INTER:                  -7.253
REMARK INTRA:                  -0.600
REMARK UNBOUND:                -0.536
REMARK SMILES CCCCCCCCCCC(=O)[O-]
REMARK SMILES IDX 7 1 8 2 9 3 10 4 11 5 12 6 13 7 6 8 5 9 4 10 3 11 2 12 1 13
REMARK H PARENT
REMARK Flexibility Score: inf
ROOT
ATOM      1  C   UNL     1       2.892  42.985   9.579  1.00  0.00     0.000 C 
ENDROOT
BRANCH   1   2
ATOM      2  C   UNL     1       3.977  43.984   9.144  1.00  0.00     0.000 C 
BRANCH   2   3
ATOM      3  C   UNL     1       4.260  45.050  10.214  1.00  0.00     0.006 C 
BRANCH   3   4
ATOM      4  C   UNL     1       4.715  46.363   9.572  1.00  0.00     0.053 C 
BRANCH   4   5
ATOM      5  C   UNL     1       3.543  47.113   9.024  1.00  0.00     0.041 C 
ATOM      6  O   UNL     1       2.480  47.203   9.692  1.00  0.00    -0.550 OA
ATOM      7  O   UNL     1       3.641  47.757   7.797  1.00  0.00    -0.550 OA
ENDBRANCH   4   5
ENDBRANCH   3   4
ENDBRANCH   2   3
ENDBRANCH   1   2
BRANCH   1   8
ATOM      8  C   UNL     1       1.888  43.598  10.569  1.00  0.00     0.000 C 
BRANCH   8   9
ATOM      9  C   UNL     1       1.888  42.885  11.934  1.00  0.00    -0.000 C 
BRANCH   9  10
ATOM     10  C   UNL     1       2.978  41.807  12.102  1.00  0.00    -0.000 C 
BRANCH  10  11
ATOM     11  C   UNL     1       2.531  40.532  12.846  1.00  0.00    -0.000 C 
BRANCH  11  12
ATOM     12  C   UNL     1       3.530  39.364  12.782  1.00  0.00    -0.003 C 
ATOM     13  C   UNL     1       4.874  39.695  13.431  1.00  0.00     0.004 C 
ENDBRANCH  11  12
ENDBRANCH  10  11
ENDBRANCH   9  10
ENDBRANCH   8   9
ENDBRANCH   1   8
TORSDOF 9
ENDMDL
MODEL 5
REMARK VINA RESULT:    -4.793      4.308      6.462
REMARK INTER + INTRA:          -7.851
REMARK INTER:                  -6.861
REMARK INTRA:                  -0.990
REMARK UNBOUND:                -0.536
REMARK SMILES CCCCCCCCCCC(=O)[O-]
REMARK SMILES IDX 7 1 8 2 9 3 10 4 11 5 12 6 13 7 6 8 5 9 4 10 3 11 2 12 1 13
REMARK H PARENT
REMARK Flexibility Score: inf
ROOT
ATOM      1  C   UNL     1       1.559  46.506   8.917  1.00  0.00     0.000 C 
ENDROOT
BRANCH   1   2
ATOM      2  C   UNL     1       2.754  47.349   9.390  1.00  0.00     0.000 C 
BRANCH   2   3
ATOM      3  C   UNL     1       4.085  46.876   8.788  1.00  0.00     0.006 C 
BRANCH   3   4
ATOM      4  C   UNL     1       5.214  46.963   9.819  1.00  0.00     0.053 C 
BRANCH   4   5
ATOM      5  C   UNL     1       6.378  47.717   9.260  1.00  0.00     0.041 C 
ATOM      6  O   UNL     1       7.553  47.397   9.580  1.00  0.00    -0.550 OA
ATOM      7  O   UNL     1       6.169  48.742   8.346  1.00  0.00    -0.550 OA
ENDBRANCH   4   5
ENDBRANCH   3   4
ENDBRANCH   2   3
ENDBRANCH   1   2
BRANCH   1   8
ATOM      8  C   UNL     1       1.415  45.193   9.705  1.00  0.00     0.000 C 
BRANCH   8   9
ATOM      9  C   UNL     1       1.531  43.946   8.810  1.00  0.00    -0.000 C 
BRANCH   9  10
ATOM     10  C   UNL     1       2.586  42.917   9.266  1.00  0.00    -0.000 C 
BRANCH  10  11
ATOM     11  C   UNL     1       3.743  43.493  10.107  1.00  0.00    -0.000 C 
BRANCH  11  12
ATOM     12  C   UNL     1       3.658  43.193  11.614  1.00  0.00    -0.003 C 
ATOM     13  C   UNL     1       4.224  44.321  12.478  1.00  0.00     0.004 C 
ENDBRANCH  11  12
ENDBRANCH  10  11
ENDBRANCH   9  10
ENDBRANCH   8   9
ENDBRANCH   1   8
TORSDOF 9
ENDMDL
MODEL 6
REMARK VINA RESULT:    -4.760      1.327      2.275
REMARK INTER + INTRA:          -7.801
REMARK INTER:                  -6.850
REMARK INTRA:                  -0.951
REMARK UNBOUND:                -0.536
REMARK SMILES CCCCCCCCCCC(=O)[O-]
REMARK SMILES IDX 7 1 8 2 9 3 10 4 11 5 12 6 13 7 6 8 5 9 4 10 3 11 2 12 1 13
REMARK H PARENT
REMARK Flexibility Score: inf
ROOT
ATOM      1  C   UNL     1       2.813  42.934   9.776  1.00  0.00     0.000 C 
ENDROOT
BRANCH   1   2
ATOM      2  C   UNL     1       2.274  43.166  11.197  1.00  0.00     0.000 C 
BRANCH   2   3
ATOM      3  C   UNL     1       2.380  41.913  12.080  1.00  0.00     0.006 C 
BRANCH   3   4
ATOM      4  C   UNL     1       3.824  41.406  12.141  1.00  0.00     0.053 C 
BRANCH   4   5
ATOM      5  C   UNL     1       3.882  40.065  12.801  1.00  0.00     0.041 C 
ATOM      6  O   UNL     1       4.900  39.728  13.461  1.00  0.00    -0.550 OA
ATOM      7  O   UNL     1       2.791  39.208  12.731  1.00  0.00    -0.550 OA
ENDBRANCH   4   5
ENDBRANCH   3   4
ENDBRANCH   2   3
ENDBRANCH   1   2
BRANCH   1   8
ATOM      8  C   UNL     1       3.956  43.898   9.414  1.00  0.00     0.000 C 
BRANCH   8   9
ATOM      9  C   UNL     1       4.386  44.782  10.599  1.00  0.00    -0.000 C 
BRANCH   9  10
ATOM     10  C   UNL     1       4.566  46.276  10.262  1.00  0.00    -0.000 C 
BRANCH  10  11
ATOM     11  C   UNL     1       3.504  46.866   9.312  1.00  0.00    -0.000 C 
BRANCH  11  12
ATOM     12  C   UNL     1       2.110  47.048   9.935  1.00  0.00    -0.003 C 
ATOM     13  C   UNL     1       1.024  46.256   9.206  1.00  0.00     0.004 C 
ENDBRANCH  11  12
ENDBRANCH  10  11
ENDBRANCH   9  10
ENDBRANCH   8   9
ENDBRANCH   1   8
TORSDOF 9
ENDMDL
MODEL 7
REMARK VINA RESULT:    -4.736      2.345      3.994
REMARK INTER + INTRA:          -7.765
REMARK INTER:                  -6.552
REMARK INTRA:                  -1.213
REMARK UNBOUND:                -0.536
REMARK SMILES CCCCCCCCCCC(=O)[O-]
REMARK SMILES IDX 7 1 8 2 9 3 10 4 11 5 12 6 13 7 6 8 5 9 4 10 3 11 2 12 1 13
REMARK H PARENT
REMARK Flexibility Score: inf
ROOT
ATOM      1  C   UNL     1       4.102  46.318  10.712  1.00  0.00     0.000 C 
ENDROOT
BRANCH   1   2
ATOM      2  C   UNL     1       4.046  44.847  11.155  1.00  0.00     0.000 C 
BRANCH   2   3
ATOM      3  C   UNL     1       4.047  43.873   9.967  1.00  0.00     0.006 C 
BRANCH   3   4
ATOM      4  C   UNL     1       2.883  42.883  10.071  1.00  0.00     0.053 C 
BRANCH   4   5
ATOM      5  C   UNL     1       2.779  42.339  11.461  1.00  0.00     0.041 C 
ATOM      6  O   UNL     1       3.699  41.618  11.929  1.00  0.00    -0.550 OA
ATOM      7  O   UNL     1       1.692  42.671  12.258  1.00  0.00    -0.550 OA
ENDBRANCH   4   5
ENDBRANCH   3   4
ENDBRANCH   2   3
ENDBRANCH   1   2
BRANCH   1   8
ATOM      8  C   UNL     1       4.656  46.484   9.287  1.00  0.00     0.000 C 
BRANCH   8   9
ATOM      9  C   UNL     1       3.764  47.375   8.402  1.00  0.00    -0.000 C 
BRANCH   9  10
ATOM     10  C   UNL     1       2.335  47.597   8.939  1.00  0.00    -0.000 C 
BRANCH  10  11
ATOM     11  C   UNL     1       1.217  46.902   8.137  1.00  0.00    -0.000 C 
BRANCH  11  12
ATOM     12  C   UNL     1       0.750  45.555   8.713  1.00  0.00    -0.003 C 
ATOM     13  C   UNL     1       0.427  45.626  10.206  1.00  0.00     0.004 C 
ENDBRANCH  11  12
ENDBRANCH  10  11
ENDBRANCH   9  10
ENDBRANCH   8   9
ENDBRANCH   1   8
TORSDOF 9
ENDMDL
MODEL 8
REMARK VINA RESULT:    -4.733      4.371      7.046
REMARK INTER + INTRA:          -7.760
REMARK INTER:                  -7.232
REMARK INTRA:                  -0.528
REMARK UNBOUND:                -0.536
REMARK SMILES CCCCCCCCCCC(=O)[O-]
REMARK SMILES IDX 7 1 8 2 9 3 10 4 11 5 12 6 13 7 6 8 5 9 4 10 3 11 2 12 1 13
REMARK H PARENT
REMARK Flexibility Score: inf
ROOT
ATOM      1  C   UNL     1       3.545  43.765   9.156  1.00  0.00     0.000 C 
ENDROOT
BRANCH   1   2
ATOM      2  C   UNL     1       4.173  44.890   9.995  1.00  0.00     0.000 C 
BRANCH   2   3
ATOM      3  C   UNL     1       4.274  46.215   9.224  1.00  0.00     0.006 C 
BRANCH   3   4
ATOM      4  C   UNL     1       2.942  46.969   9.254  1.00  0.00     0.053 C 
BRANCH   4   5
ATOM      5  C   UNL     1       2.778  47.792   8.015  1.00  0.00     0.041 C 
ATOM      6  O   UNL     1       3.790  48.183   7.377  1.00  0.00    -0.550 OA
ATOM      7  O   UNL     1       1.507  48.083   7.537  1.00  0.00    -0.550 OA
ENDBRANCH   4   5
ENDBRANCH   3   4
ENDBRANCH   2   3
ENDBRANCH   1   2
BRANCH   1   8
ATOM      8  C   UNL     1       2.158  43.348   9.671  1.00  0.00     0.000 C 
BRANCH   8   9
ATOM      9  C   UNL     1       1.939  43.711  11.152  1.00  0.00    -0.000 C 
BRANCH   9  10
ATOM     10  C   UNL     1       2.039  42.525  12.132  1.00  0.00    -0.000 C 
BRANCH  10  11
ATOM     11  C   UNL     1       3.259  41.604  11.925  1.00  0.00    -0.000 C 
BRANCH  11  12
ATOM     12  C   UNL     1       3.135  40.213  12.571  1.00  0.00    -0.003 C 
ATOM     13  C   UNL     1       4.431  39.748  13.235  1.00  0.00     0.004 C 
ENDBRANCH  11  12
ENDBRANCH  10  11
ENDBRANCH   9  10
ENDBRANCH   8   9
ENDBRANCH   1   8
TORSDOF 9
ENDMDL
MODEL 9
REMARK VINA RESULT:    -4.609      3.259      6.200
REMARK INTER + INTRA:          -7.570
REMARK INTER:                  -6.963
REMARK INTRA:                  -0.608
REMARK UNBOUND:                -0.536
REMARK SMILES CCCCCCCCCCC(=O)[O-]
REMARK SMILES IDX 7 1 8 2 9 3 10 4 11 5 12 6 13 7 6 8 5 9 4 10 3 11 2 12 1 13
REMARK H PARENT
REMARK Flexibility Score: inf
ROOT
ATOM      1  C   UNL     1       1.349  44.454   9.792  1.00  0.00     0.000 C 
ENDROOT
BRANCH   1   2
ATOM      2  C   UNL     1       1.192  45.857   9.183  1.00  0.00     0.000 C 
BRANCH   2   3
ATOM      3  C   UNL     1       2.226  46.856   9.727  1.00  0.00     0.006 C 
BRANCH   3   4
ATOM      4  C   UNL     1       3.558  46.725   8.984  1.00  0.00     0.053 C 
BRANCH   4   5
ATOM      5  C   UNL     1       4.665  46.422   9.943  1.00  0.00     0.041 C 
ATOM      6  O   UNL     1       4.465  45.650  10.918  1.00  0.00    -0.550 OA
ATOM      7  O   UNL     1       5.932  46.949   9.731  1.00  0.00    -0.550 OA
ENDBRANCH   4   5
ENDBRANCH   3   4
ENDBRANCH   2   3
ENDBRANCH   1   2
BRANCH   1   8
ATOM      8  C   UNL     1       1.017  44.423  11.294  1.00  0.00     0.000 C 
BRANCH   8   9
ATOM      9  C   UNL     1       1.564  43.167  11.998  1.00  0.00    -0.000 C 
BRANCH   9  10
ATOM     10  C   UNL     1       2.659  42.412  11.217  1.00  0.00    -0.000 C 
BRANCH  10  11
ATOM     11  C   UNL     1       3.823  41.874  12.074  1.00  0.00    -0.000 C 
BRANCH  11  12
ATOM     12  C   UNL     1       3.631  40.439  12.595  1.00  0.00    -0.003 C 
ATOM     13  C   UNL     1       4.869  39.895  13.310  1.00  0.00     0.004 C 
ENDBRANCH  11  12
ENDBRANCH  10  11
ENDBRANCH   9  10
ENDBRANCH   8   9
ENDBRANCH   1   8
TORSDOF 9
ENDMDL
