MODEL 1
REMARK VINA RESULT:    -4.947      0.000      0.000
REMARK INTER + INTRA:          -8.028
REMARK INTER:                  -7.549
REMARK INTRA:                  -0.479
REMARK UNBOUND:                -0.479
REMARK SMILES CCCCCCCCCCC(=O)[O-]
REMARK SMILES IDX 7 1 8 2 9 3 10 4 11 5 12 6 13 7 6 8 5 9 4 10 3 11 2 12 1 13
REMARK H PARENT
REMARK Flexibility Score: inf
ROOT
ATOM      1  C   UNL     1     -12.956  -6.856  39.041  1.00  0.00     0.000 C 
ENDROOT
BRANCH   1   2
ATOM      2  C   UNL     1     -11.855  -7.927  39.071  1.00  0.00     0.000 C 
BRANCH   2   3
ATOM      3  C   UNL     1     -11.649  -8.541  37.678  1.00  0.00     0.006 C 
BRANCH   3   4
ATOM      4  C   UNL     1     -10.907  -9.882  37.738  1.00  0.00     0.053 C 
BRANCH   4   5
ATOM      5  C   UNL     1      -9.752  -9.836  38.690  1.00  0.00     0.041 C 
ATOM      6  O   UNL     1      -8.712  -9.189  38.395  1.00  0.00    -0.550 OA
ATOM      7  O   UNL     1      -9.837 -10.481  39.917  1.00  0.00    -0.550 OA
ENDBRANCH   4   5
ENDBRANCH   3   4
ENDBRANCH   2   3
ENDBRANCH   1   2
BRANCH   1   8
ATOM      8  C   UNL     1     -13.738  -6.846  37.717  1.00  0.00     0.000 C 
BRANCH   8   9
ATOM      9  C   UNL     1     -14.817  -5.748  37.677  1.00  0.00    -0.000 C 
BRANCH   9  10
ATOM     10  C   UNL     1     -15.447  -5.489  39.056  1.00  0.00    -0.000 C 
BRANCH  10  11
ATOM     11  C   UNL     1     -16.983  -5.583  39.030  1.00  0.00    -0.000 C 
BRANCH  11  12
ATOM     12  C   UNL     1     -17.480  -7.030  38.892  1.00  0.00    -0.003 C 
ATOM     13  C   UNL     1     -17.984  -7.614  40.212  1.00  0.00     0.004 C 
ENDBRANCH  11  12
ENDBRANCH  10  11
ENDBRANCH   9  10
ENDBRANCH   8   9
ENDBRANCH   1   8
TORSDOF 9
ENDMDL
MODEL 2
REMARK VINA RESULT:    -4.901      3.895      6.424
REMARK INTER + INTRA:          -7.959
REMARK INTER:                  -7.418
REMARK INTRA:                  -0.541
REMARK UNBOUND:                -0.479
REMARK SMILES CCCCCCCCCCC(=O)[O-]
REMARK SMILES IDX 7 1 8 2 9 3 10 4 11 5 12 6 13 7 6 8 5 9 4 10 3 11 2 12 1 13
REMARK H PARENT
REMARK Flexibility Score: inf
ROOT
ATOM      1  C   UNL     1     -17.745  -7.250  39.526  1.00  0.00     0.000 C 
ENDROOT
BRANCH   1   2
ATOM      2  C   UNL     1     -17.945  -6.600  40.903  1.00  0.00     0.000 C 
BRANCH   2   3
ATOM      3  C   UNL     1     -18.065  -7.669  42.000  1.00  0.00     0.006 C 
BRANCH   3   4
ATOM      4  C   UNL     1     -17.260  -7.306  43.255  1.00  0.00     0.053 C 
BRANCH   4   5
ATOM      5  C   UNL     1     -16.870  -8.523  44.036  1.00  0.00     0.041 C 
ATOM      6  O   UNL     1     -16.097  -8.422  45.025  1.00  0.00    -0.550 OA
ATOM      7  O   UNL     1     -17.387  -9.766  43.690  1.00  0.00    -0.550 OA
ENDBRANCH   4   5
ENDBRANCH   3   4
ENDBRANCH   2   3
ENDBRANCH   1   2
BRANCH   1   8
ATOM      8  C   UNL     1     -16.928  -6.368  38.566  1.00  0.00     0.000 C 
BRANCH   8   9
ATOM      9  C   UNL     1     -15.871  -5.521  39.298  1.00  0.00    -0.000 C 
BRANCH   9  10
ATOM     10  C   UNL     1     -14.442  -5.805  38.805  1.00  0.00    -0.000 C 
BRANCH  10  11
ATOM     11  C   UNL     1     -14.398  -6.197  37.318  1.00  0.00    -0.000 C 
BRANCH  11  12
ATOM     12  C   UNL     1     -13.319  -7.251  37.020  1.00  0.00    -0.003 C 
ATOM     13  C   UNL     1     -12.484  -7.609  38.250  1.00  0.00     0.004 C 
ENDBRANCH  11  12
ENDBRANCH  10  11
ENDBRANCH   9  10
ENDBRANCH   8   9
ENDBRANCH   1   8
TORSDOF 9
ENDMDL
MODEL 3
REMARK VINA RESULT:    -4.865      1.614      2.095
REMARK INTER + INTRA:          -7.904
REMARK INTER:                  -7.350
REMARK INTRA:                  -0.554
REMARK UNBOUND:                -0.479
REMARK SMILES CCCCCCCCCCC(=O)[O-]
REMARK SMILES IDX 7 1 8 2 9 3 10 4 11 5 12 6 13 7 6 8 5 9 4 10 3 11 2 12 1 13
REMARK H PARENT
REMARK Flexibility Score: inf
ROOT
ATOM      1  C   UNL     1     -12.062  -7.639  38.616  1.00  0.00     0.000 C 
ENDROOT
BRANCH   1   2
ATOM      2  C   UNL     1     -11.089  -8.757  39.019  1.00  0.00     0.000 C 
BRANCH   2   3
ATOM      3  C   UNL     1     -10.881  -9.747  37.863  1.00  0.00     0.006 C 
BRANCH   3   4
ATOM      4  C   UNL     1      -9.425  -9.783  37.383  1.00  0.00     0.053 C 
BRANCH   4   5
ATOM      5  C   UNL     1      -9.046  -8.527  36.660  1.00  0.00     0.041 C 
ATOM      6  O   UNL     1      -9.524  -8.282  35.521  1.00  0.00    -0.550 OA
ATOM      7  O   UNL     1      -8.191  -7.611  37.260  1.00  0.00    -0.550 OA
ENDBRANCH   4   5
ENDBRANCH   3   4
ENDBRANCH   2   3
ENDBRANCH   1   2
BRANCH   1   8
ATOM      8  C   UNL     1     -12.627  -7.826  37.198  1.00  0.00     0.000 C 
BRANCH   8   9
ATOM      9  C   UNL     1     -13.715  -6.793  36.854  1.00  0.00    -0.000 C 
BRANCH   9  10
ATOM     10  C   UNL     1     -14.352  -6.169  38.107  1.00  0.00    -0.000 C 
BRANCH  10  11
ATOM     11  C   UNL     1     -15.889  -6.260  38.096  1.00  0.00    -0.000 C 
BRANCH  11  12
ATOM     12  C   UNL     1     -16.529  -5.515  39.277  1.00  0.00    -0.003 C 
ATOM     13  C   UNL     1     -17.589  -6.347  39.999  1.00  0.00     0.004 C 
ENDBRANCH  11  12
ENDBRANCH  10  11
ENDBRANCH   9  10
ENDBRANCH   8   9
ENDBRANCH   1   8
TORSDOF 9
ENDMDL
MODEL 4
REMARK VINA RESULT:    -4.852      3.803      6.753
REMARK INTER + INTRA:          -7.884
REMARK INTER:                  -7.525
REMARK INTRA:                  -0.359
REMARK UNBOUND:                -0.479
REMARK SMILES CCCCCCCCCCC(=O)[O-]
REMARK SMILES IDX 7 1 8 2 9 3 10 4 11 5 12 6 13 7 6 8 5 9 4 10 3 11 2 12 1 13
REMARK H PARENT
REMARK Flexibility Score: inf
ROOT
ATOM      1  C   UNL     1     -15.663  -5.828  38.687  1.00  0.00     0.000 C 
ENDROOT
BRANCH   1   2
ATOM      2  C   UNL     1     -17.029  -6.419  38.305  1.00  0.00     0.000 C 
BRANCH   2   3
ATOM      3  C   UNL     1     -17.610  -7.246  39.461  1.00  0.00     0.006 C 
BRANCH   3   4
ATOM      4  C   UNL     1     -17.942  -6.383  40.685  1.00  0.00     0.053 C 
BRANCH   4   5
ATOM      5  C   UNL     1     -18.037  -7.204  41.934  1.00  0.00     0.041 C 
ATOM      6  O   UNL     1     -18.124  -8.458  41.865  1.00  0.00    -0.550 OA
ATOM      7  O   UNL     1     -17.995  -6.584  43.177  1.00  0.00    -0.550 OA
ENDBRANCH   4   5
ENDBRANCH   3   4
ENDBRANCH   2   3
ENDBRANCH   1   2
BRANCH   1   8
ATOM      8  C   UNL     1     -14.566  -6.155  37.660  1.00  0.00     0.000 C 
BRANCH   8   9
ATOM      9  C   UNL     1     -13.361  -6.875  38.291  1.00  0.00    -0.000 C 
BRANCH   9  10
ATOM     10  C   UNL     1     -12.516  -7.632  37.253  1.00  0.00    -0.000 C 
BRANCH  10  11
ATOM     11  C   UNL     1     -11.182  -8.136  37.832  1.00  0.00    -0.000 C 
BRANCH  11  12
ATOM     12  C   UNL     1     -11.222  -8.281  39.361  1.00  0.00    -0.003 C 
ATOM     13  C   UNL     1     -10.461  -9.509  39.861  1.00  0.00     0.004 C 
ENDBRANCH  11  12
ENDBRANCH  10  11
ENDBRANCH   9  10
ENDBRANCH   8   9
ENDBRANCH   1   8
TORSDOF 9
ENDMDL
MODEL 5
REMARK VINA RESULT:    -4.841      3.489      6.470
REMARK INTER + INTRA:          -7.867
REMARK INTER:                  -7.342
REMARK INTRA:                  -0.525
REMARK UNBOUND:                -0.479
REMARK SMILES CCCCCCCCCCC(=O)[O-]
REMARK SMILES IDX 7 1 8 2 9 3 10 4 11 5 12 6 13 7 6 8 5 9 4 10 3 11 2 12 1 13
REMARK H PARENT
REMARK Flexibility Score: inf
ROOT
ATOM      1  C   UNL     1     -12.933  -7.326  37.671  1.00  0.00     0.000 C 
ENDROOT
BRANCH   1   2
ATOM      2  C   UNL     1     -13.942  -6.806  36.637  1.00  0.00     0.000 C 
BRANCH   2   3
ATOM      3  C   UNL     1     -14.847  -5.727  37.249  1.00  0.00     0.006 C 
BRANCH   3   4
ATOM      4  C   UNL     1     -14.872  -5.789  38.782  1.00  0.00     0.053 C 
BRANCH   4   5
ATOM      5  C   UNL     1     -16.242  -6.097  39.304  1.00  0.00     0.041 C 
ATOM      6  O   UNL     1     -17.192  -6.310  38.505  1.00  0.00    -0.550 OA
ATOM      7  O   UNL     1     -16.461  -6.181  40.673  1.00  0.00    -0.550 OA
ENDBRANCH   4   5
ENDBRANCH   3   4
ENDBRANCH   2   3
ENDBRANCH   1   2
BRANCH   1   8
ATOM      8  C   UNL     1     -12.030  -8.438  37.114  1.00  0.00     0.000 C 
BRANCH   8   9
ATOM      9  C   UNL     1     -11.070  -9.008  38.174  1.00  0.00    -0.000 C 
BRANCH   9  10
ATOM     10  C   UNL     1     -11.129  -8.232  39.501  1.00  0.00    -0.000 C 
BRANCH  10  11
ATOM     11  C   UNL     1     -10.540  -9.030  40.678  1.00  0.00    -0.000 C 
BRANCH  11  12
ATOM     12  C   UNL     1      -9.880 -10.342  40.226  1.00  0.00    -0.003 C 
ATOM     13  C   UNL     1      -8.824 -10.845  41.211  1.00  0.00     0.004 C 
ENDBRANCH  11  12
ENDBRANCH  10  11
ENDBRANCH   9  10
ENDBRANCH   8   9
ENDBRANCH   1   8
TORSDOF 9
ENDMDL
MODEL 6
REMARK VINA RESULT:    -4.809      1.537      2.261
REMARK INTER + INTRA:          -7.818
REMARK INTER:                  -7.420
REMARK INTRA:                  -0.398
REMARK UNBOUND:                -0.479
REMARK SMILES CCCCCCCCCCC(=O)[O-]
REMARK SMILES IDX 7 1 8 2 9 3 10 4 11 5 12 6 13 7 6 8 5 9 4 10 3 11 2 12 1 13
REMARK H PARENT
REMARK Flexibility Score: inf
ROOT
ATOM      1  C   UNL     1     -11.741  -8.324  38.097  1.00  0.00     0.000 C 
ENDROOT
BRANCH   1   2
ATOM      2  C   UNL     1     -11.030  -8.653  39.418  1.00  0.00     0.000 C 
BRANCH   2   3
ATOM      3  C   UNL     1     -10.135  -9.892  39.264  1.00  0.00     0.006 C 
BRANCH   3   4
ATOM      4  C   UNL     1      -9.795 -10.534  40.615  1.00  0.00     0.053 C 
BRANCH   4   5
ATOM      5  C   UNL     1      -8.316 -10.582  40.850  1.00  0.00     0.041 C 
ATOM      6  O   UNL     1      -7.532  -9.956  40.089  1.00  0.00    -0.550 OA
ATOM      7  O   UNL     1      -7.807 -11.291  41.931  1.00  0.00    -0.550 OA
ENDBRANCH   4   5
ENDBRANCH   3   4
ENDBRANCH   2   3
ENDBRANCH   1   2
BRANCH   1   8
ATOM      8  C   UNL     1     -12.823  -7.243  38.257  1.00  0.00     0.000 C 
BRANCH   8   9
ATOM      9  C   UNL     1     -13.556  -6.940  36.938  1.00  0.00    -0.000 C 
BRANCH   9  10
ATOM     10  C   UNL     1     -14.764  -6.009  37.135  1.00  0.00    -0.000 C 
BRANCH  10  11
ATOM     11  C   UNL     1     -14.791  -5.363  38.531  1.00  0.00    -0.000 C 
BRANCH  11  12
ATOM     12  C   UNL     1     -16.175  -5.451  39.193  1.00  0.00    -0.003 C 
ATOM     13  C   UNL     1     -17.019  -6.605  38.650  1.00  0.00     0.004 C 
ENDBRANCH  11  12
ENDBRANCH  10  11
ENDBRANCH   9  10
ENDBRANCH   8   9
ENDBRANCH   1   8
TORSDOF 9
ENDMDL
MODEL 7
REMARK VINA RESULT:    -4.756      4.872      7.109
REMARK INTER + INTRA:          -7.737
REMARK INTER:                  -7.323
REMARK INTRA:                  -0.414
REMARK UNBOUND:                -0.479
REMARK SMILES CCCCCCCCCCC(=O)[O-]
REMARK SMILES IDX 7 1 8 2 9 3 10 4 11 5 12 6 13 7 6 8 5 9 4 10 3 11 2 12 1 13
REMARK H PARENT
REMARK Flexibility Score: inf
ROOT
ATOM      1  C   UNL     1     -17.295  -7.010  41.209  1.00  0.00     0.000 C 
ENDROOT
BRANCH   1   2
ATOM      2  C   UNL     1     -18.124  -7.822  42.215  1.00  0.00     0.000 C 
BRANCH   2   3
ATOM      3  C   UNL     1     -17.501  -7.756  43.617  1.00  0.00     0.006 C 
BRANCH   3   4
ATOM      4  C   UNL     1     -17.340  -9.146  44.248  1.00  0.00     0.053 C 
BRANCH   4   5
ATOM      5  C   UNL     1     -17.384  -9.085  45.744  1.00  0.00     0.041 C 
ATOM      6  O   UNL     1     -17.210 -10.129  46.427  1.00  0.00    -0.550 OA
ATOM      7  O   UNL     1     -17.586  -7.869  46.385  1.00  0.00    -0.550 OA
ENDBRANCH   4   5
ENDBRANCH   3   4
ENDBRANCH   2   3
ENDBRANCH   1   2
BRANCH   1   8
ATOM      8  C   UNL     1     -17.823  -7.131  39.770  1.00  0.00     0.000 C 
BRANCH   8   9
ATOM      9  C   UNL     1     -17.113  -6.171  38.797  1.00  0.00    -0.000 C 
BRANCH   9  10
ATOM     10  C   UNL     1     -15.942  -5.423  39.456  1.00  0.00    -0.000 C 
BRANCH  10  11
ATOM     11  C   UNL     1     -14.606  -5.662  38.732  1.00  0.00    -0.000 C 
BRANCH  11  12
ATOM     12  C   UNL     1     -14.789  -5.897  37.224  1.00  0.00    -0.003 C 
ATOM     13  C   UNL     1     -13.864  -6.984  36.676  1.00  0.00     0.004 C 
ENDBRANCH  11  12
ENDBRANCH  10  11
ENDBRANCH   9  10
ENDBRANCH   8   9
ENDBRANCH   1   8
TORSDOF 9
ENDMDL
MODEL 8
REMARK VINA RESULT:    -4.743      1.890      2.696
REMARK INTER + INTRA:          -7.717
REMARK INTER:                  -7.168
REMARK INTRA:                  -0.549
REMARK UNBOUND:                -0.479
REMARK SMILES CCCCCCCCCCC(=O)[O-]
REMARK SMILES IDX 7 1 8 2 9 3 10 4 11 5 12 6 13 7 6 8 5 9 4 10 3 11 2 12 1 13
REMARK H PARENT
REMARK Flexibility Score: inf
ROOT
ATOM      1  C   UNL     1     -11.851  -8.456  37.444  1.00  0.00     0.000 C 
ENDROOT
BRANCH   1   2
ATOM      2  C   UNL     1     -11.056  -9.024  38.629  1.00  0.00     0.000 C 
BRANCH   2   3
ATOM      3  C   UNL     1     -11.384  -8.265  39.923  1.00  0.00     0.006 C 
BRANCH   3   4
ATOM      4  C   UNL     1     -10.197  -8.231  40.895  1.00  0.00     0.053 C 
BRANCH   4   5
ATOM      5  C   UNL     1     -10.438  -9.091  42.097  1.00  0.00     0.041 C 
ATOM      6  O   UNL     1     -10.001 -10.271  42.132  1.00  0.00    -0.550 OA
ATOM      7  O   UNL     1     -11.120  -8.577  43.194  1.00  0.00    -0.550 OA
ENDBRANCH   4   5
ENDBRANCH   3   4
ENDBRANCH   2   3
ENDBRANCH   1   2
BRANCH   1   8
ATOM      8  C   UNL     1     -12.870  -7.386  37.871  1.00  0.00     0.000 C 
BRANCH   8   9
ATOM      9  C   UNL     1     -13.684  -6.839  36.684  1.00  0.00    -0.000 C 
BRANCH   9  10
ATOM     10  C   UNL     1     -14.875  -5.976  37.133  1.00  0.00    -0.000 C 
BRANCH  10  11
ATOM     11  C   UNL     1     -14.772  -5.548  38.608  1.00  0.00    -0.000 C 
BRANCH  11  12
ATOM     12  C   UNL     1     -16.142  -5.496  39.302  1.00  0.00    -0.003 C 
ATOM     13  C   UNL     1     -17.132  -6.517  38.739  1.00  0.00     0.004 C 
ENDBRANCH  11  12
ENDBRANCH  10  11
ENDBRANCH   9  10
ENDBRANCH   8   9
ENDBRANCH   1   8
TORSDOF 9
ENDMDL
MODEL 9
REMARK VINA RESULT:    -4.699      1.927      3.345
REMARK INTER + INTRA:          -7.650
REMARK INTER:                  -7.056
REMARK INTRA:                  -0.594
REMARK UNBOUND:                -0.479
REMARK SMILES CCCCCCCCCCC(=O)[O-]
REMARK SMILES IDX 7 1 8 2 9 3 10 4 11 5 12 6 13 7 6 8 5 9 4 10 3 11 2 12 1 13
REMARK H PARENT
REMARK Flexibility Score: inf
ROOT
ATOM      1  C   UNL     1     -15.816  -5.813  38.791  1.00  0.00     0.000 C 
ENDROOT
BRANCH   1   2
ATOM      2  C   UNL     1     -14.741  -6.052  37.719  1.00  0.00     0.000 C 
BRANCH   2   3
ATOM      3  C   UNL     1     -13.531  -6.789  38.312  1.00  0.00     0.006 C 
BRANCH   3   4
ATOM      4  C   UNL     1     -12.737  -7.555  37.247  1.00  0.00     0.053 C 
BRANCH   4   5
ATOM      5  C   UNL     1     -11.575  -8.290  37.841  1.00  0.00     0.041 C 
ATOM      6  O   UNL     1     -10.860  -7.741  38.720  1.00  0.00    -0.550 OA
ATOM      7  O   UNL     1     -11.302  -9.594  37.446  1.00  0.00    -0.550 OA
ENDBRANCH   4   5
ENDBRANCH   3   4
ENDBRANCH   2   3
ENDBRANCH   1   2
BRANCH   1   8
ATOM      8  C   UNL     1     -17.145  -6.513  38.465  1.00  0.00     0.000 C 
BRANCH   8   9
ATOM      9  C   UNL     1     -17.744  -7.239  39.683  1.00  0.00    -0.000 C 
BRANCH   9  10
ATOM     10  C   UNL     1     -17.645  -6.408  40.973  1.00  0.00    -0.000 C 
BRANCH  10  11
ATOM     11  C   UNL     1     -17.382  -7.277  42.216  1.00  0.00    -0.000 C 
BRANCH  11  12
ATOM     12  C   UNL     1     -16.293  -6.686  43.126  1.00  0.00    -0.003 C 
ATOM     13  C   UNL     1     -15.153  -6.036  42.342  1.00  0.00     0.004 C 
ENDBRANCH  11  12
ENDBRANCH  10  11
ENDBRANCH   9  10
ENDBRANCH   8   9
ENDBRANCH   1   8
TORSDOF 9
ENDMDL
