MODEL 1
REMARK VINA RESULT:    -5.312      0.000      0.000
REMARK INTER + INTRA:          -6.381
REMARK INTER:                  -6.089
REMARK INTRA:                  -0.292
REMARK UNBOUND:                -0.292
REMARK SMILES O=C1C[C@H](c2ccc(O)cc2)Oc2cc(O)cc(O)c21
REMARK SMILES IDX 3 1 4 2 12 3 13 4 14 5 15 6 17 7 18 8 20 9 2 10 1 11 5 12
REMARK SMILES IDX 6 13 11 14 7 15 10 16 8 17 9 18 19 20 16 22
REMARK H PARENT 9 19 19 21 16 23
REMARK Flexibility Score: inf
ROOT
ATOM      1  C   UNL     1      14.876 -12.151  29.757  1.00  0.00     0.131 C 
ATOM      2  C   UNL     1      13.995 -13.383  29.506  1.00  0.00     0.211 C 
ATOM      3  O   UNL     1      12.739 -12.996  28.943  1.00  0.00    -0.484 OA
ATOM      4  C   UNL     1      12.046 -11.849  29.354  1.00  0.00     0.138 A 
ATOM      5  C   UNL     1      10.714 -11.686  28.968  1.00  0.00     0.093 A 
ATOM      6  C   UNL     1       9.994 -10.563  29.373  1.00  0.00     0.123 A 
ATOM      7  C   UNL     1      10.619  -9.579  30.148  1.00  0.00     0.093 A 
ATOM      8  C   UNL     1      11.965  -9.701  30.513  1.00  0.00     0.133 A 
ATOM      9  C   UNL     1      12.686 -10.867  30.142  1.00  0.00     0.102 A 
ATOM     10  C   UNL     1      14.092 -11.135  30.533  1.00  0.00     0.174 C 
ATOM     11  O   UNL     1      14.622 -10.575  31.528  1.00  0.00    -0.294 OA
ENDROOT
BRANCH   2  12
ATOM     12  C   UNL     1      14.691 -14.361  28.592  1.00  0.00    -0.007 A 
ATOM     13  C   UNL     1      14.965 -14.011  27.258  1.00  0.00     0.011 A 
ATOM     14  C   UNL     1      15.023 -15.651  29.043  1.00  0.00     0.011 A 
ATOM     15  C   UNL     1      15.583 -14.926  26.401  1.00  0.00     0.046 A 
ATOM     16  C   UNL     1      15.640 -16.563  28.183  1.00  0.00     0.046 A 
ATOM     17  C   UNL     1      15.923 -16.205  26.862  1.00  0.00     0.115 A 
BRANCH  17  18
ATOM     18  O   UNL     1      16.539 -17.125  26.016  1.00  0.00    -0.508 OA
ATOM     19  H   UNL     1      16.160 -17.338  25.100  1.00  0.00     0.293 HD
ENDBRANCH  17  18
ENDBRANCH   2  12
BRANCH   8  20
ATOM     20  O   UNL     1      12.541  -8.635  31.205  1.00  0.00    -0.507 OA
ATOM     21  H   UNL     1      12.732  -7.732  30.795  1.00  0.00     0.293 HD
ENDBRANCH   8  20
BRANCH   6  22
ATOM     22  O   UNL     1       8.660 -10.429  28.996  1.00  0.00    -0.508 OA
ATOM     23  H   UNL     1       8.051 -11.234  28.907  1.00  0.00     0.293 HD
ENDBRANCH   6  22
TORSDOF 4
ENDMDL
MODEL 2
REMARK VINA RESULT:    -3.973     11.037     14.009
REMARK INTER + INTRA:          -4.846
REMARK INTER:                  -4.555
REMARK INTRA:                  -0.292
REMARK UNBOUND:                -0.292
REMARK SMILES O=C1C[C@H](c2ccc(O)cc2)Oc2cc(O)cc(O)c21
REMARK SMILES IDX 3 1 4 2 12 3 13 4 14 5 15 6 17 7 18 8 20 9 2 10 1 11 5 12
REMARK SMILES IDX 6 13 11 14 7 15 10 16 8 17 9 18 19 20 16 22
REMARK H PARENT 9 19 19 21 16 23
REMARK Flexibility Score: inf
ROOT
ATOM      1  C   UNL     1      15.356  -0.972  28.017  1.00  0.00     0.131 C 
ATOM      2  C   UNL     1      16.285   0.119  27.466  1.00  0.00     0.211 C 
ATOM      3  O   UNL     1      17.495  -0.457  26.965  1.00  0.00    -0.484 OA
ATOM      4  C   UNL     1      18.147  -1.521  27.603  1.00  0.00     0.138 A 
ATOM      5  C   UNL     1      19.451  -1.843  27.221  1.00  0.00     0.093 A 
ATOM      6  C   UNL     1      20.131  -2.888  27.847  1.00  0.00     0.123 A 
ATOM      7  C   UNL     1      19.494  -3.635  28.843  1.00  0.00     0.093 A 
ATOM      8  C   UNL     1      18.173  -3.355  29.214  1.00  0.00     0.133 A 
ATOM      9  C   UNL     1      17.495  -2.263  28.612  1.00  0.00     0.102 A 
ATOM     10  C   UNL     1      16.122  -1.832  28.978  1.00  0.00     0.174 C 
ATOM     11  O   UNL     1      15.609  -2.123  30.090  1.00  0.00    -0.294 OA
ENDROOT
BRANCH   2  12
ATOM     12  C   UNL     1      15.598   0.906  26.377  1.00  0.00    -0.007 A 
ATOM     13  C   UNL     1      15.242   0.281  25.170  1.00  0.00     0.011 A 
ATOM     14  C   UNL     1      15.359   2.283  26.532  1.00  0.00     0.011 A 
ATOM     15  C   UNL     1      14.632   1.015  24.148  1.00  0.00     0.046 A 
ATOM     16  C   UNL     1      14.750   3.014  25.508  1.00  0.00     0.046 A 
ATOM     17  C   UNL     1      14.384   2.384  24.315  1.00  0.00     0.115 A 
BRANCH  17  18
ATOM     18  O   UNL     1      13.778   3.125  23.303  1.00  0.00    -0.508 OA
ATOM     19  H   UNL     1      13.697   4.134  23.360  1.00  0.00     0.293 HD
ENDBRANCH  17  18
ENDBRANCH   2  12
BRANCH   8  20
ATOM     20  O   UNL     1      17.575  -4.204  30.148  1.00  0.00    -0.507 OA
ATOM     21  H   UNL     1      18.060  -4.606  30.938  1.00  0.00     0.293 HD
ENDBRANCH   8  20
BRANCH   6  22
ATOM     22  O   UNL     1      21.440  -3.180  27.467  1.00  0.00    -0.508 OA
ATOM     23  H   UNL     1      22.162  -3.362  28.154  1.00  0.00     0.293 HD
ENDBRANCH   6  22
TORSDOF 4
ENDMDL
