MODEL 1
REMARK VINA RESULT:    -7.053      0.000      0.000
REMARK INTER + INTRA:          -8.589
REMARK INTER:                  -8.290
REMARK INTRA:                  -0.299
REMARK UNBOUND:                -0.299
REMARK SMILES O=c1cc(-c2ccc(O)c(O)c2)oc2cc(O)cc(O)c12
REMARK SMILES IDX 4 1 3 2 2 3 1 4 21 5 19 6 18 7 16 8 15 9 14 10 13 11 5 12
REMARK SMILES IDX 6 13 7 14 8 15 12 16 10 17 9 18 11 20 20 22 17 24
REMARK H PARENT 9 19 11 21 20 23 17 25
REMARK Flexibility Score: inf
ROOT
ATOM      1  C   UNL     1      26.581   9.301 -32.598  1.00  0.00     0.138 A 
ATOM      2  C   UNL     1      26.587  10.580 -32.023  1.00  0.00     0.100 A 
ATOM      3  C   UNL     1      27.659  11.440 -32.264  1.00  0.00     0.197 A 
ATOM      4  O   UNL     1      27.605  12.603 -31.786  1.00  0.00    -0.289 OA
ATOM      5  C   UNL     1      28.744  11.006 -33.062  1.00  0.00     0.107 A 
ATOM      6  C   UNL     1      29.908  11.783 -33.342  1.00  0.00     0.134 A 
ATOM      7  C   UNL     1      30.865  11.293 -34.239  1.00  0.00     0.093 A 
ATOM      8  C   UNL     1      30.729  10.028 -34.818  1.00  0.00     0.123 A 
ATOM      9  C   UNL     1      29.624   9.240 -34.508  1.00  0.00     0.094 A 
ATOM     10  C   UNL     1      28.634   9.716 -33.644  1.00  0.00     0.146 A 
ATOM     11  O   UNL     1      27.588   8.938 -33.386  1.00  0.00    -0.456 OA
ENDROOT
BRANCH   1  12
ATOM     12  C   UNL     1      25.469   8.345 -32.373  1.00  0.00     0.021 A 
ATOM     13  C   UNL     1      24.853   8.209 -31.114  1.00  0.00     0.016 A 
ATOM     14  C   UNL     1      23.814   7.293 -30.928  1.00  0.00     0.051 A 
ATOM     15  C   UNL     1      23.377   6.493 -31.990  1.00  0.00     0.157 A 
ATOM     16  C   UNL     1      25.032   7.528 -33.431  1.00  0.00     0.062 A 
ATOM     17  C   UNL     1      23.992   6.611 -33.248  1.00  0.00     0.158 A 
BRANCH  15  18
ATOM     18  O   UNL     1      22.340   5.583 -31.801  1.00  0.00    -0.504 OA
ATOM     19  H   UNL     1      21.368   5.865 -31.855  1.00  0.00     0.293 HD
ENDBRANCH  15  18
BRANCH  17  20
ATOM     20  O   UNL     1      23.583   5.827 -34.325  1.00  0.00    -0.504 OA
ATOM     21  H   UNL     1      22.912   5.074 -34.220  1.00  0.00     0.293 HD
ENDBRANCH  17  20
ENDBRANCH   1  12
BRANCH   6  22
ATOM     22  O   UNL     1      30.182  13.020 -32.751  1.00  0.00    -0.507 OA
ATOM     23  H   UNL     1      29.983  13.258 -31.792  1.00  0.00     0.293 HD
ENDBRANCH   6  22
BRANCH   8  24
ATOM     24  O   UNL     1      31.694   9.542 -35.697  1.00  0.00    -0.508 OA
ATOM     25  H   UNL     1      32.546   9.107 -35.361  1.00  0.00     0.293 HD
ENDBRANCH   8  24
TORSDOF 5
ENDMDL
MODEL 2
REMARK VINA RESULT:    -6.386      1.994      7.115
REMARK INTER + INTRA:          -7.806
REMARK INTER:                  -7.538
REMARK INTRA:                  -0.268
REMARK UNBOUND:                -0.299
REMARK SMILES O=c1cc(-c2ccc(O)c(O)c2)oc2cc(O)cc(O)c12
REMARK SMILES IDX 4 1 3 2 2 3 1 4 21 5 19 6 18 7 16 8 15 9 14 10 13 11 5 12
REMARK SMILES IDX 6 13 7 14 8 15 12 16 10 17 9 18 11 20 20 22 17 24
REMARK H PARENT 9 19 11 21 20 23 17 25
REMARK Flexibility Score: inf
ROOT
ATOM      1  C   UNL     1      26.469   8.553 -32.369  1.00  0.00     0.138 A 
ATOM      2  C   UNL     1      25.102   8.795 -32.565  1.00  0.00     0.100 A 
ATOM      3  C   UNL     1      24.178   7.780 -32.313  1.00  0.00     0.197 A 
ATOM      4  O   UNL     1      22.955   8.047 -32.438  1.00  0.00    -0.289 OA
ATOM      5  C   UNL     1      24.629   6.506 -31.891  1.00  0.00     0.107 A 
ATOM      6  C   UNL     1      23.781   5.386 -31.643  1.00  0.00     0.134 A 
ATOM      7  C   UNL     1      24.330   4.209 -31.117  1.00  0.00     0.093 A 
ATOM      8  C   UNL     1      25.704   4.094 -30.888  1.00  0.00     0.123 A 
ATOM      9  C   UNL     1      26.546   5.164 -31.178  1.00  0.00     0.094 A 
ATOM     10  C   UNL     1      26.025   6.363 -31.671  1.00  0.00     0.146 A 
ATOM     11  O   UNL     1      26.861   7.365 -31.921  1.00  0.00    -0.456 OA
ENDROOT
BRANCH   1  12
ATOM     12  C   UNL     1      27.494   9.595 -32.624  1.00  0.00     0.021 A 
ATOM     13  C   UNL     1      28.588   9.365 -33.480  1.00  0.00     0.016 A 
ATOM     14  C   UNL     1      29.543  10.361 -33.693  1.00  0.00     0.051 A 
ATOM     15  C   UNL     1      29.430  11.600 -33.052  1.00  0.00     0.157 A 
ATOM     16  C   UNL     1      27.395  10.838 -31.973  1.00  0.00     0.062 A 
ATOM     17  C   UNL     1      28.350  11.838 -32.186  1.00  0.00     0.158 A 
BRANCH  15  18
ATOM     18  O   UNL     1      30.385  12.591 -33.268  1.00  0.00    -0.504 OA
ATOM     19  H   UNL     1      31.145  12.749 -32.617  1.00  0.00     0.293 HD
ENDBRANCH  15  18
BRANCH  17  20
ATOM     20  O   UNL     1      28.210  13.059 -31.528  1.00  0.00    -0.504 OA
ATOM     21  H   UNL     1      28.867  13.368 -30.820  1.00  0.00     0.293 HD
ENDBRANCH  17  20
ENDBRANCH   1  12
BRANCH   6  22
ATOM     22  O   UNL     1      22.411   5.367 -31.917  1.00  0.00    -0.507 OA
ATOM     23  H   UNL     1      21.980   4.853 -32.670  1.00  0.00     0.293 HD
ENDBRANCH   6  22
BRANCH   8  24
ATOM     24  O   UNL     1      26.242   2.914 -30.379  1.00  0.00    -0.508 OA
ATOM     25  H   UNL     1      26.635   2.870 -29.446  1.00  0.00     0.293 HD
ENDBRANCH   8  24
TORSDOF 5
ENDMDL
MODEL 3
REMARK VINA RESULT:    -6.333      2.359      7.008
REMARK INTER + INTRA:          -7.743
REMARK INTER:                  -7.446
REMARK INTRA:                  -0.296
REMARK UNBOUND:                -0.299
REMARK SMILES O=c1cc(-c2ccc(O)c(O)c2)oc2cc(O)cc(O)c12
REMARK SMILES IDX 4 1 3 2 2 3 1 4 21 5 19 6 18 7 16 8 15 9 14 10 13 11 5 12
REMARK SMILES IDX 6 13 7 14 8 15 12 16 10 17 9 18 11 20 20 22 17 24
REMARK H PARENT 9 19 11 21 20 23 17 25
REMARK Flexibility Score: inf
ROOT
ATOM      1  C   UNL     1      27.184   8.344 -32.089  1.00  0.00     0.138 A 
ATOM      2  C   UNL     1      25.869   8.822 -31.999  1.00  0.00     0.100 A 
ATOM      3  C   UNL     1      24.901   8.061 -31.343  1.00  0.00     0.197 A 
ATOM      4  O   UNL     1      23.746   8.544 -31.225  1.00  0.00    -0.289 OA
ATOM      5  C   UNL     1      25.246   6.800 -30.800  1.00  0.00     0.107 A 
ATOM      6  C   UNL     1      24.333   5.920 -30.146  1.00  0.00     0.134 A 
ATOM      7  C   UNL     1      24.813   4.749 -29.547  1.00  0.00     0.093 A 
ATOM      8  C   UNL     1      26.163   4.397 -29.631  1.00  0.00     0.123 A 
ATOM      9  C   UNL     1      27.052   5.223 -30.314  1.00  0.00     0.094 A 
ATOM     10  C   UNL     1      26.610   6.416 -30.893  1.00  0.00     0.146 A 
ATOM     11  O   UNL     1      27.494   7.182 -31.523  1.00  0.00    -0.456 OA
ENDROOT
BRANCH   1  12
ATOM     12  C   UNL     1      28.252   9.112 -32.776  1.00  0.00     0.021 A 
ATOM     13  C   UNL     1      28.354  10.511 -32.654  1.00  0.00     0.016 A 
ATOM     14  C   UNL     1      29.363  11.209 -33.321  1.00  0.00     0.051 A 
ATOM     15  C   UNL     1      30.284  10.527 -34.126  1.00  0.00     0.157 A 
ATOM     16  C   UNL     1      29.172   8.436 -33.597  1.00  0.00     0.062 A 
ATOM     17  C   UNL     1      30.185   9.133 -34.265  1.00  0.00     0.158 A 
BRANCH  15  18
ATOM     18  O   UNL     1      31.290  11.227 -34.788  1.00  0.00    -0.504 OA
ATOM     19  H   UNL     1      31.598  12.140 -34.473  1.00  0.00     0.293 HD
ENDBRANCH  15  18
BRANCH  17  20
ATOM     20  O   UNL     1      31.083   8.424 -35.062  1.00  0.00    -0.504 OA
ATOM     21  H   UNL     1      31.639   8.875 -35.780  1.00  0.00     0.293 HD
ENDBRANCH  17  20
ENDBRANCH   1  12
BRANCH   6  22
ATOM     22  O   UNL     1      22.953   6.134 -30.079  1.00  0.00    -0.507 OA
ATOM     23  H   UNL     1      22.441   6.780 -30.661  1.00  0.00     0.293 HD
ENDBRANCH   6  22
BRANCH   8  24
ATOM     24  O   UNL     1      26.629   3.222 -29.045  1.00  0.00    -0.508 OA
ATOM     25  H   UNL     1      26.584   2.334 -29.530  1.00  0.00     0.293 HD
ENDBRANCH   8  24
TORSDOF 5
ENDMDL
MODEL 4
REMARK VINA RESULT:    -6.268     12.970     14.555
REMARK INTER + INTRA:          -7.667
REMARK INTER:                  -7.402
REMARK INTRA:                  -0.264
REMARK UNBOUND:                -0.299
REMARK SMILES O=c1cc(-c2ccc(O)c(O)c2)oc2cc(O)cc(O)c12
REMARK SMILES IDX 4 1 3 2 2 3 1 4 21 5 19 6 18 7 16 8 15 9 14 10 13 11 5 12
REMARK SMILES IDX 6 13 7 14 8 15 12 16 10 17 9 18 11 20 20 22 17 24
REMARK H PARENT 9 19 11 21 20 23 17 25
REMARK Flexibility Score: inf
ROOT
ATOM      1  C   UNL     1      34.938   6.190 -22.388  1.00  0.00     0.138 A 
ATOM      2  C   UNL     1      34.688   7.288 -21.554  1.00  0.00     0.100 A 
ATOM      3  C   UNL     1      33.378   7.733 -21.372  1.00  0.00     0.197 A 
ATOM      4  O   UNL     1      33.179   8.681 -20.569  1.00  0.00    -0.289 OA
ATOM      5  C   UNL     1      32.316   7.092 -22.054  1.00  0.00     0.107 A 
ATOM      6  C   UNL     1      30.946   7.485 -21.976  1.00  0.00     0.134 A 
ATOM      7  C   UNL     1      29.968   6.704 -22.604  1.00  0.00     0.093 A 
ATOM      8  C   UNL     1      30.317   5.580 -23.357  1.00  0.00     0.123 A 
ATOM      9  C   UNL     1      31.656   5.220 -23.484  1.00  0.00     0.094 A 
ATOM     10  C   UNL     1      32.653   5.958 -22.840  1.00  0.00     0.146 A 
ATOM     11  O   UNL     1      33.917   5.572 -22.975  1.00  0.00    -0.456 OA
ENDROOT
BRANCH   1  12
ATOM     12  C   UNL     1      36.311   5.676 -22.619  1.00  0.00     0.021 A 
ATOM     13  C   UNL     1      36.736   4.439 -22.097  1.00  0.00     0.016 A 
ATOM     14  C   UNL     1      38.038   3.985 -22.321  1.00  0.00     0.051 A 
ATOM     15  C   UNL     1      38.941   4.759 -23.060  1.00  0.00     0.157 A 
ATOM     16  C   UNL     1      37.228   6.453 -23.349  1.00  0.00     0.062 A 
ATOM     17  C   UNL     1      38.532   6.000 -23.575  1.00  0.00     0.158 A 
BRANCH  15  18
ATOM     18  O   UNL     1      40.238   4.302 -23.283  1.00  0.00    -0.504 OA
ATOM     19  H   UNL     1      40.483   3.324 -23.174  1.00  0.00     0.293 HD
ENDBRANCH  15  18
BRANCH  17  20
ATOM     20  O   UNL     1      39.407   6.797 -24.313  1.00  0.00    -0.504 OA
ATOM     21  H   UNL     1      39.545   6.666 -25.309  1.00  0.00     0.293 HD
ENDBRANCH  17  20
ENDBRANCH   1  12
BRANCH   6  22
ATOM     22  O   UNL     1      30.500   8.637 -21.322  1.00  0.00    -0.507 OA
ATOM     23  H   UNL     1      30.022   8.648 -20.435  1.00  0.00     0.293 HD
ENDBRANCH   6  22
BRANCH   8  24
ATOM     24  O   UNL     1      29.338   4.818 -23.992  1.00  0.00    -0.508 OA
ATOM     25  H   UNL     1      29.577   4.006 -24.549  1.00  0.00     0.293 HD
ENDBRANCH   8  24
TORSDOF 5
ENDMDL
MODEL 5
REMARK VINA RESULT:    -6.076     13.437     14.725
REMARK INTER + INTRA:          -7.441
REMARK INTER:                  -7.163
REMARK INTRA:                  -0.278
REMARK UNBOUND:                -0.299
REMARK SMILES O=c1cc(-c2ccc(O)c(O)c2)oc2cc(O)cc(O)c12
REMARK SMILES IDX 4 1 3 2 2 3 1 4 21 5 19 6 18 7 16 8 15 9 14 10 13 11 5 12
REMARK SMILES IDX 6 13 7 14 8 15 12 16 10 17 9 18 11 20 20 22 17 24
REMARK H PARENT 9 19 11 21 20 23 17 25
REMARK Flexibility Score: inf
ROOT
ATOM      1  C   UNL     1      34.680   5.025 -22.216  1.00  0.00     0.138 A 
ATOM      2  C   UNL     1      34.816   6.078 -21.301  1.00  0.00     0.100 A 
ATOM      3  C   UNL     1      33.718   6.889 -21.013  1.00  0.00     0.197 A 
ATOM      4  O   UNL     1      33.855   7.786 -20.141  1.00  0.00    -0.289 OA
ATOM      5  C   UNL     1      32.484   6.663 -21.669  1.00  0.00     0.107 A 
ATOM      6  C   UNL     1      31.309   7.452 -21.485  1.00  0.00     0.134 A 
ATOM      7  C   UNL     1      30.114   7.063 -22.101  1.00  0.00     0.093 A 
ATOM      8  C   UNL     1      30.066   5.948 -22.943  1.00  0.00     0.123 A 
ATOM      9  C   UNL     1      31.221   5.204 -23.172  1.00  0.00     0.094 A 
ATOM     10  C   UNL     1      32.421   5.546 -22.544  1.00  0.00     0.146 A 
ATOM     11  O   UNL     1      33.496   4.801 -22.778  1.00  0.00    -0.456 OA
ENDROOT
BRANCH   1  12
ATOM     12  C   UNL     1      35.815   4.133 -22.560  1.00  0.00     0.021 A 
ATOM     13  C   UNL     1      35.653   2.738 -22.670  1.00  0.00     0.016 A 
ATOM     14  C   UNL     1      36.742   1.922 -22.985  1.00  0.00     0.051 A 
ATOM     15  C   UNL     1      38.010   2.478 -23.188  1.00  0.00     0.157 A 
ATOM     16  C   UNL     1      37.095   4.683 -22.753  1.00  0.00     0.062 A 
ATOM     17  C   UNL     1      38.186   3.867 -23.069  1.00  0.00     0.158 A 
BRANCH  15  18
ATOM     18  O   UNL     1      39.093   1.660 -23.504  1.00  0.00    -0.504 OA
ATOM     19  H   UNL     1      39.319   0.841 -22.951  1.00  0.00     0.293 HD
ENDBRANCH  15  18
BRANCH  17  20
ATOM     20  O   UNL     1      39.437   4.453 -23.261  1.00  0.00    -0.504 OA
ATOM     21  H   UNL     1      39.542   5.385 -23.645  1.00  0.00     0.293 HD
ENDBRANCH  17  20
ENDBRANCH   1  12
BRANCH   6  22
ATOM     22  O   UNL     1      31.270   8.630 -20.734  1.00  0.00    -0.507 OA
ATOM     23  H   UNL     1      30.599   9.373 -20.861  1.00  0.00     0.293 HD
ENDBRANCH   6  22
BRANCH   8  24
ATOM     24  O   UNL     1      28.876   5.577 -23.565  1.00  0.00    -0.508 OA
ATOM     25  H   UNL     1      28.661   5.864 -24.513  1.00  0.00     0.293 HD
ENDBRANCH   8  24
TORSDOF 5
ENDMDL
MODEL 6
REMARK VINA RESULT:    -5.873     13.854     15.119
REMARK INTER + INTRA:          -7.202
REMARK INTER:                  -6.917
REMARK INTRA:                  -0.285
REMARK UNBOUND:                -0.299
REMARK SMILES O=c1cc(-c2ccc(O)c(O)c2)oc2cc(O)cc(O)c12
REMARK SMILES IDX 4 1 3 2 2 3 1 4 21 5 19 6 18 7 16 8 15 9 14 10 13 11 5 12
REMARK SMILES IDX 6 13 7 14 8 15 12 16 10 17 9 18 11 20 20 22 17 24
REMARK H PARENT 9 19 11 21 20 23 17 25
REMARK Flexibility Score: inf
ROOT
ATOM      1  C   UNL     1      34.128   3.751 -22.005  1.00  0.00     0.138 A 
ATOM      2  C   UNL     1      33.112   2.971 -21.435  1.00  0.00     0.100 A 
ATOM      3  C   UNL     1      31.949   3.586 -20.969  1.00  0.00     0.197 A 
ATOM      4  O   UNL     1      31.030   2.854 -20.519  1.00  0.00    -0.289 OA
ATOM      5  C   UNL     1      31.817   4.993 -21.048  1.00  0.00     0.107 A 
ATOM      6  C   UNL     1      30.693   5.731 -20.569  1.00  0.00     0.134 A 
ATOM      7  C   UNL     1      30.622   7.110 -20.806  1.00  0.00     0.093 A 
ATOM      8  C   UNL     1      31.661   7.785 -21.452  1.00  0.00     0.123 A 
ATOM      9  C   UNL     1      32.786   7.082 -21.876  1.00  0.00     0.094 A 
ATOM     10  C   UNL     1      32.871   5.700 -21.684  1.00  0.00     0.146 A 
ATOM     11  O   UNL     1      33.956   5.065 -22.116  1.00  0.00    -0.456 OA
ENDROOT
BRANCH   1  12
ATOM     12  C   UNL     1      35.386   3.150 -22.514  1.00  0.00     0.021 A 
ATOM     13  C   UNL     1      36.596   3.870 -22.535  1.00  0.00     0.016 A 
ATOM     14  C   UNL     1      37.762   3.282 -23.030  1.00  0.00     0.051 A 
ATOM     15  C   UNL     1      37.742   1.971 -23.519  1.00  0.00     0.157 A 
ATOM     16  C   UNL     1      35.372   1.837 -23.019  1.00  0.00     0.062 A 
ATOM     17  C   UNL     1      36.539   1.246 -23.514  1.00  0.00     0.158 A 
BRANCH  15  18
ATOM     18  O   UNL     1      38.908   1.388 -24.009  1.00  0.00    -0.504 OA
ATOM     19  H   UNL     1      39.629   1.036 -23.389  1.00  0.00     0.293 HD
ENDBRANCH  15  18
BRANCH  17  20
ATOM     20  O   UNL     1      36.484  -0.061 -23.997  1.00  0.00    -0.504 OA
ATOM     21  H   UNL     1      36.686  -0.862 -23.408  1.00  0.00     0.293 HD
ENDBRANCH  17  20
ENDBRANCH   1  12
BRANCH   6  22
ATOM     22  O   UNL     1      29.643   5.169 -19.838  1.00  0.00    -0.507 OA
ATOM     23  H   UNL     1      29.305   5.515 -18.953  1.00  0.00     0.293 HD
ENDBRANCH   6  22
BRANCH   8  24
ATOM     24  O   UNL     1      31.588   9.159 -21.671  1.00  0.00    -0.508 OA
ATOM     25  H   UNL     1      31.082   9.544 -22.460  1.00  0.00     0.293 HD
ENDBRANCH   8  24
TORSDOF 5
ENDMDL
MODEL 7
REMARK VINA RESULT:    -5.871     13.856     15.219
REMARK INTER + INTRA:          -7.200
REMARK INTER:                  -6.892
REMARK INTRA:                  -0.308
REMARK UNBOUND:                -0.299
REMARK SMILES O=c1cc(-c2ccc(O)c(O)c2)oc2cc(O)cc(O)c12
REMARK SMILES IDX 4 1 3 2 2 3 1 4 21 5 19 6 18 7 16 8 15 9 14 10 13 11 5 12
REMARK SMILES IDX 6 13 7 14 8 15 12 16 10 17 9 18 11 20 20 22 17 24
REMARK H PARENT 9 19 11 21 20 23 17 25
REMARK Flexibility Score: inf
ROOT
ATOM      1  C   UNL     1      34.153   3.618 -22.101  1.00  0.00     0.138 A 
ATOM      2  C   UNL     1      33.121   2.863 -21.526  1.00  0.00     0.100 A 
ATOM      3  C   UNL     1      31.980   3.507 -21.045  1.00  0.00     0.197 A 
ATOM      4  O   UNL     1      31.045   2.798 -20.592  1.00  0.00    -0.289 OA
ATOM      5  C   UNL     1      31.886   4.918 -21.114  1.00  0.00     0.107 A 
ATOM      6  C   UNL     1      30.788   5.684 -20.619  1.00  0.00     0.134 A 
ATOM      7  C   UNL     1      30.753   7.065 -20.847  1.00  0.00     0.093 A 
ATOM      8  C   UNL     1      31.805   7.716 -21.498  1.00  0.00     0.123 A 
ATOM      9  C   UNL     1      32.906   6.984 -21.937  1.00  0.00     0.094 A 
ATOM     10  C   UNL     1      32.955   5.599 -21.755  1.00  0.00     0.146 A 
ATOM     11  O   UNL     1      34.016   4.937 -22.202  1.00  0.00    -0.456 OA
ENDROOT
BRANCH   1  12
ATOM     12  C   UNL     1      35.389   2.985 -22.626  1.00  0.00     0.021 A 
ATOM     13  C   UNL     1      35.406   1.648 -23.066  1.00  0.00     0.016 A 
ATOM     14  C   UNL     1      36.586   1.075 -23.546  1.00  0.00     0.051 A 
ATOM     15  C   UNL     1      37.770   1.821 -23.588  1.00  0.00     0.157 A 
ATOM     16  C   UNL     1      36.585   3.723 -22.659  1.00  0.00     0.062 A 
ATOM     17  C   UNL     1      37.768   3.152 -23.140  1.00  0.00     0.158 A 
BRANCH  15  18
ATOM     18  O   UNL     1      38.944   1.246 -24.069  1.00  0.00    -0.504 OA
ATOM     19  H   UNL     1      39.784   1.199 -23.503  1.00  0.00     0.293 HD
ENDBRANCH  15  18
BRANCH  17  20
ATOM     20  O   UNL     1      38.930   3.921 -23.165  1.00  0.00    -0.504 OA
ATOM     21  H   UNL     1      39.384   4.240 -22.316  1.00  0.00     0.293 HD
ENDBRANCH  17  20
ENDBRANCH   1  12
BRANCH   6  22
ATOM     22  O   UNL     1      29.730   5.146 -19.882  1.00  0.00    -0.507 OA
ATOM     23  H   UNL     1      29.177   5.655 -19.210  1.00  0.00     0.293 HD
ENDBRANCH   6  22
BRANCH   8  24
ATOM     24  O   UNL     1      31.769   9.092 -21.706  1.00  0.00    -0.508 OA
ATOM     25  H   UNL     1      31.072   9.520 -22.306  1.00  0.00     0.293 HD
ENDBRANCH   8  24
TORSDOF 5
ENDMDL
MODEL 8
REMARK VINA RESULT:    -5.828     13.929     14.530
REMARK INTER + INTRA:          -7.149
REMARK INTER:                  -6.831
REMARK INTRA:                  -0.318
REMARK UNBOUND:                -0.299
REMARK SMILES O=c1cc(-c2ccc(O)c(O)c2)oc2cc(O)cc(O)c12
REMARK SMILES IDX 4 1 3 2 2 3 1 4 21 5 19 6 18 7 16 8 15 9 14 10 13 11 5 12
REMARK SMILES IDX 6 13 7 14 8 15 12 16 10 17 9 18 11 20 20 22 17 24
REMARK H PARENT 9 19 11 21 20 23 17 25
REMARK Flexibility Score: inf
ROOT
ATOM      1  C   UNL     1      34.480   6.290 -22.219  1.00  0.00     0.138 A 
ATOM      2  C   UNL     1      35.428   6.315 -23.251  1.00  0.00     0.100 A 
ATOM      3  C   UNL     1      36.786   6.397 -22.939  1.00  0.00     0.197 A 
ATOM      4  O   UNL     1      37.615   6.355 -23.884  1.00  0.00    -0.289 OA
ATOM      5  C   UNL     1      37.193   6.484 -21.586  1.00  0.00     0.107 A 
ATOM      6  C   UNL     1      38.547   6.611 -21.152  1.00  0.00     0.134 A 
ATOM      7  C   UNL     1      38.839   6.572 -19.783  1.00  0.00     0.093 A 
ATOM      8  C   UNL     1      37.820   6.471 -18.831  1.00  0.00     0.123 A 
ATOM      9  C   UNL     1      36.492   6.401 -19.244  1.00  0.00     0.094 A 
ATOM     10  C   UNL     1      36.171   6.402 -20.604  1.00  0.00     0.146 A 
ATOM     11  O   UNL     1      34.892   6.319 -20.955  1.00  0.00    -0.456 OA
ENDROOT
BRANCH   1  12
ATOM     12  C   UNL     1      33.024   6.206 -22.494  1.00  0.00     0.021 A 
ATOM     13  C   UNL     1      32.515   6.242 -23.806  1.00  0.00     0.016 A 
ATOM     14  C   UNL     1      31.139   6.172 -24.035  1.00  0.00     0.051 A 
ATOM     15  C   UNL     1      30.246   6.072 -22.961  1.00  0.00     0.157 A 
ATOM     16  C   UNL     1      32.120   6.120 -21.420  1.00  0.00     0.062 A 
ATOM     17  C   UNL     1      30.741   6.048 -21.647  1.00  0.00     0.158 A 
BRANCH  15  18
ATOM     18  O   UNL     1      28.874   6.001 -23.194  1.00  0.00    -0.504 OA
ATOM     19  H   UNL     1      28.201   6.155 -22.453  1.00  0.00     0.293 HD
ENDBRANCH  15  18
BRANCH  17  20
ATOM     20  O   UNL     1      29.879   5.953 -20.555  1.00  0.00    -0.504 OA
ATOM     21  H   UNL     1      29.348   5.112 -20.359  1.00  0.00     0.293 HD
ENDBRANCH  17  20
ENDBRANCH   1  12
BRANCH   6  22
ATOM     22  O   UNL     1      39.629   6.803 -22.015  1.00  0.00    -0.507 OA
ATOM     23  H   UNL     1      40.349   6.121 -22.199  1.00  0.00     0.293 HD
ENDBRANCH   6  22
BRANCH   8  24
ATOM     24  O   UNL     1      38.118   6.448 -17.471  1.00  0.00    -0.508 OA
ATOM     25  H   UNL     1      39.076   6.435 -17.138  1.00  0.00     0.293 HD
ENDBRANCH   8  24
TORSDOF 5
ENDMDL
MODEL 9
REMARK VINA RESULT:    -5.807     13.653     14.094
REMARK INTER + INTRA:          -7.124
REMARK INTER:                  -6.830
REMARK INTRA:                  -0.295
REMARK UNBOUND:                -0.299
REMARK SMILES O=c1cc(-c2ccc(O)c(O)c2)oc2cc(O)cc(O)c12
REMARK SMILES IDX 4 1 3 2 2 3 1 4 21 5 19 6 18 7 16 8 15 9 14 10 13 11 5 12
REMARK SMILES IDX 6 13 7 14 8 15 12 16 10 17 9 18 11 20 20 22 17 24
REMARK H PARENT 9 19 11 21 20 23 17 25
REMARK Flexibility Score: inf
ROOT
ATOM      1  C   UNL     1      34.420   6.302 -21.847  1.00  0.00     0.138 A 
ATOM      2  C   UNL     1      34.800   6.433 -20.504  1.00  0.00     0.100 A 
ATOM      3  C   UNL     1      36.154   6.503 -20.173  1.00  0.00     0.197 A 
ATOM      4  O   UNL     1      36.462   6.683 -18.967  1.00  0.00    -0.289 OA
ATOM      5  C   UNL     1      37.133   6.412 -21.192  1.00  0.00     0.107 A 
ATOM      6  C   UNL     1      38.542   6.432 -20.968  1.00  0.00     0.134 A 
ATOM      7  C   UNL     1      39.414   6.451 -22.064  1.00  0.00     0.093 A 
ATOM      8  C   UNL     1      38.928   6.391 -23.373  1.00  0.00     0.123 A 
ATOM      9  C   UNL     1      37.556   6.316 -23.600  1.00  0.00     0.094 A 
ATOM     10  C   UNL     1      36.659   6.330 -22.528  1.00  0.00     0.146 A 
ATOM     11  O   UNL     1      35.358   6.272 -22.789  1.00  0.00    -0.456 OA
ENDROOT
BRANCH   1  12
ATOM     12  C   UNL     1      32.995   6.220 -22.254  1.00  0.00     0.021 A 
ATOM     13  C   UNL     1      32.608   6.262 -23.607  1.00  0.00     0.016 A 
ATOM     14  C   UNL     1      31.258   6.194 -23.961  1.00  0.00     0.051 A 
ATOM     15  C   UNL     1      30.271   6.091 -22.973  1.00  0.00     0.157 A 
ATOM     16  C   UNL     1      31.997   6.130 -21.267  1.00  0.00     0.062 A 
ATOM     17  C   UNL     1      30.644   6.060 -21.619  1.00  0.00     0.158 A 
BRANCH  15  18
ATOM     18  O   UNL     1      28.927   6.021 -23.330  1.00  0.00    -0.504 OA
ATOM     19  H   UNL     1      28.624   5.546 -24.173  1.00  0.00     0.293 HD
ENDBRANCH  15  18
BRANCH  17  20
ATOM     20  O   UNL     1      29.686   5.962 -20.611  1.00  0.00    -0.504 OA
ATOM     21  H   UNL     1      29.348   6.774 -20.108  1.00  0.00     0.293 HD
ENDBRANCH  17  20
ENDBRANCH   1  12
BRANCH   6  22
ATOM     22  O   UNL     1      39.132   6.407 -19.702  1.00  0.00    -0.507 OA
ATOM     23  H   UNL     1      40.075   6.103 -19.510  1.00  0.00     0.293 HD
ENDBRANCH   6  22
BRANCH   8  24
ATOM     24  O   UNL     1      39.804   6.395 -24.457  1.00  0.00    -0.508 OA
ATOM     25  H   UNL     1      39.468   6.481 -25.409  1.00  0.00     0.293 HD
ENDBRANCH   8  24
TORSDOF 5
ENDMDL
