MODEL 1
REMARK VINA RESULT:    -3.756      0.000      0.000
REMARK INTER + INTRA:          -4.464
REMARK INTER:                  -4.415
REMARK INTRA:                  -0.049
REMARK UNBOUND:                -0.049
REMARK SMILES CCCCC(=O)[O-]
REMARK SMILES IDX 4 1 5 2 6 3 7 4 3 5 2 6 1 7
REMARK H PARENT
REMARK Flexibility Score: inf
ROOT
ATOM      1  C   UNL     1      17.787   1.429  25.437  1.00  0.00     0.053 C 
ENDROOT
BRANCH   1   2
ATOM      2  C   UNL     1      19.041   1.586  26.241  1.00  0.00     0.041 C 
ATOM      3  O   UNL     1      19.026   2.234  27.321  1.00  0.00    -0.550 OA
ATOM      4  O   UNL     1      20.220   0.990  25.813  1.00  0.00    -0.550 OA
ENDBRANCH   1   2
BRANCH   1   5
ATOM      5  C   UNL     1      17.157   2.785  25.084  1.00  0.00     0.006 C 
BRANCH   5   6
ATOM      6  C   UNL     1      15.867   3.101  25.863  1.00  0.00    -0.003 C 
ATOM      7  C   UNL     1      14.601   2.778  25.071  1.00  0.00     0.004 C 
ENDBRANCH   5   6
ENDBRANCH   1   5
TORSDOF 3
ENDMDL
MODEL 2
REMARK VINA RESULT:    -3.605     14.758     15.191
REMARK INTER + INTRA:          -4.285
REMARK INTER:                  -4.266
REMARK INTRA:                  -0.019
REMARK UNBOUND:                -0.049
REMARK SMILES CCCCC(=O)[O-]
REMARK SMILES IDX 4 1 5 2 6 3 7 4 3 5 2 6 1 7
REMARK H PARENT
REMARK Flexibility Score: inf
ROOT
ATOM      1  C   UNL     1      29.119  -0.169  34.749  1.00  0.00     0.053 C 
ENDROOT
BRANCH   1   2
ATOM      2  C   UNL     1      30.433   0.073  34.072  1.00  0.00     0.041 C 
ATOM      3  O   UNL     1      31.022   1.178  34.207  1.00  0.00    -0.550 OA
ATOM      4  O   UNL     1      31.022  -0.933  33.318  1.00  0.00    -0.550 OA
ENDBRANCH   1   2
BRANCH   1   5
ATOM      5  C   UNL     1      28.748  -1.660  34.765  1.00  0.00     0.006 C 
BRANCH   5   6
ATOM      6  C   UNL     1      27.426  -1.971  35.490  1.00  0.00    -0.003 C 
ATOM      7  C   UNL     1      27.599  -2.125  37.001  1.00  0.00     0.004 C 
ENDBRANCH   5   6
ENDBRANCH   1   5
TORSDOF 3
ENDMDL
MODEL 3
REMARK VINA RESULT:    -3.094      3.220      4.360
REMARK INTER + INTRA:          -3.685
REMARK INTER:                  -3.669
REMARK INTRA:                  -0.016
REMARK UNBOUND:                -0.049
REMARK SMILES CCCCC(=O)[O-]
REMARK SMILES IDX 4 1 5 2 6 3 7 4 3 5 2 6 1 7
REMARK H PARENT
REMARK Flexibility Score: inf
ROOT
ATOM      1  C   UNL     1      15.977   3.174  25.739  1.00  0.00     0.053 C 
ENDROOT
BRANCH   1   2
ATOM      2  C   UNL     1      14.697   2.761  25.080  1.00  0.00     0.041 C 
ATOM      3  O   UNL     1      13.873   2.032  25.694  1.00  0.00    -0.550 OA
ATOM      4  O   UNL     1      14.400   3.207  23.799  1.00  0.00    -0.550 OA
ENDBRANCH   1   2
BRANCH   1   5
ATOM      5  C   UNL     1      17.178   2.370  25.218  1.00  0.00     0.006 C 
BRANCH   5   6
ATOM      6  C   UNL     1      18.372   2.322  26.188  1.00  0.00    -0.003 C 
ATOM      7  C   UNL     1      19.374   1.220  25.843  1.00  0.00     0.004 C 
ENDBRANCH   5   6
ENDBRANCH   1   5
TORSDOF 3
ENDMDL
MODEL 4
REMARK VINA RESULT:    -2.708      2.341      3.889
REMARK INTER + INTRA:          -3.232
REMARK INTER:                  -3.191
REMARK INTRA:                  -0.040
REMARK UNBOUND:                -0.049
REMARK SMILES CCCCC(=O)[O-]
REMARK SMILES IDX 4 1 5 2 6 3 7 4 3 5 2 6 1 7
REMARK H PARENT
REMARK Flexibility Score: inf
ROOT
ATOM      1  C   UNL     1      18.523   2.574  26.482  1.00  0.00     0.053 C 
ENDROOT
BRANCH   1   2
ATOM      2  C   UNL     1      17.480   2.265  25.452  1.00  0.00     0.041 C 
ATOM      3  O   UNL     1      17.596   1.251  24.714  1.00  0.00    -0.550 OA
ATOM      4  O   UNL     1      16.362   3.081  25.329  1.00  0.00    -0.550 OA
ENDBRANCH   1   2
BRANCH   1   5
ATOM      5  C   UNL     1      19.121   1.298  27.094  1.00  0.00     0.006 C 
BRANCH   5   6
ATOM      6  C   UNL     1      19.465   1.420  28.590  1.00  0.00    -0.003 C 
ATOM      7  C   UNL     1      19.056   2.766  29.186  1.00  0.00     0.004 C 
ENDBRANCH   5   6
ENDBRANCH   1   5
TORSDOF 3
ENDMDL
MODEL 5
REMARK VINA RESULT:    -2.564     15.693     16.337
REMARK INTER + INTRA:          -3.062
REMARK INTER:                  -2.960
REMARK INTRA:                  -0.102
REMARK UNBOUND:                -0.049
REMARK SMILES CCCCC(=O)[O-]
REMARK SMILES IDX 4 1 5 2 6 3 7 4 3 5 2 6 1 7
REMARK H PARENT
REMARK Flexibility Score: inf
ROOT
ATOM      1  C   UNL     1      11.212  16.724  24.195  1.00  0.00     0.053 C 
ENDROOT
BRANCH   1   2
ATOM      2  C   UNL     1      12.358  16.987  25.122  1.00  0.00     0.041 C 
ATOM      3  O   UNL     1      12.542  16.254  26.129  1.00  0.00    -0.550 OA
ATOM      4  O   UNL     1      13.243  18.024  24.855  1.00  0.00    -0.550 OA
ENDBRANCH   1   2
BRANCH   1   5
ATOM      5  C   UNL     1      11.253  17.632  22.957  1.00  0.00     0.006 C 
BRANCH   5   6
ATOM      6  C   UNL     1      11.865  16.967  21.710  1.00  0.00    -0.003 C 
ATOM      7  C   UNL     1      13.064  17.736  21.155  1.00  0.00     0.004 C 
ENDBRANCH   5   6
ENDBRANCH   1   5
TORSDOF 3
ENDMDL
MODEL 6
REMARK VINA RESULT:    -2.516     14.878     15.990
REMARK INTER + INTRA:          -3.006
REMARK INTER:                  -2.965
REMARK INTRA:                  -0.041
REMARK UNBOUND:                -0.049
REMARK SMILES CCCCC(=O)[O-]
REMARK SMILES IDX 4 1 5 2 6 3 7 4 3 5 2 6 1 7
REMARK H PARENT
REMARK Flexibility Score: inf
ROOT
ATOM      1  C   UNL     1      10.981  17.174  23.683  1.00  0.00     0.053 C 
ENDROOT
BRANCH   1   2
ATOM      2  C   UNL     1      12.402  17.647  23.674  1.00  0.00     0.041 C 
ATOM      3  O   UNL     1      12.927  18.061  22.607  1.00  0.00    -0.550 OA
ATOM      4  O   UNL     1      13.137  17.660  24.852  1.00  0.00    -0.550 OA
ENDBRANCH   1   2
BRANCH   1   5
ATOM      5  C   UNL     1      10.875  15.669  23.392  1.00  0.00     0.006 C 
BRANCH   5   6
ATOM      6  C   UNL     1      10.875  15.317  21.892  1.00  0.00    -0.003 C 
ATOM      7  C   UNL     1      10.984  13.815  21.635  1.00  0.00     0.004 C 
ENDBRANCH   5   6
ENDBRANCH   1   5
TORSDOF 3
ENDMDL
MODEL 7
REMARK VINA RESULT:    -2.336     19.804     20.338
REMARK INTER + INTRA:          -2.794
REMARK INTER:                  -2.734
REMARK INTRA:                  -0.060
REMARK UNBOUND:                -0.049
REMARK SMILES CCCCC(=O)[O-]
REMARK SMILES IDX 4 1 5 2 6 3 7 4 3 5 2 6 1 7
REMARK H PARENT
REMARK Flexibility Score: inf
ROOT
ATOM      1  C   UNL     1      29.255  16.761  20.386  1.00  0.00     0.053 C 
ENDROOT
BRANCH   1   2
ATOM      2  C   UNL     1      29.490  17.677  21.548  1.00  0.00     0.041 C 
ATOM      3  O   UNL     1      30.654  18.070  21.822  1.00  0.00    -0.550 OA
ATOM      4  O   UNL     1      28.416  18.123  22.308  1.00  0.00    -0.550 OA
ENDBRANCH   1   2
BRANCH   1   5
ATOM      5  C   UNL     1      28.570  17.481  19.215  1.00  0.00     0.006 C 
BRANCH   5   6
ATOM      6  C   UNL     1      29.351  17.410  17.890  1.00  0.00    -0.003 C 
ATOM      7  C   UNL     1      30.567  16.487  17.965  1.00  0.00     0.004 C 
ENDBRANCH   5   6
ENDBRANCH   1   5
TORSDOF 3
ENDMDL
