MODEL 1
REMARK VINA RESULT:    -4.357      0.000      0.000
REMARK INTER + INTRA:          -4.954
REMARK INTER:                  -4.866
REMARK INTRA:                  -0.089
REMARK UNBOUND:                -0.089
REMARK SMILES CCc1ccc(O)cc1O
REMARK SMILES IDX 3 1 9 2 8 3 6 4 5 5 4 6 2 7 1 8 10 9 7 11
REMARK H PARENT 10 10 7 12
REMARK Flexibility Score: inf
ROOT
ATOM      1  C   UNL     1      17.842 -44.466  32.845  1.00  0.00    -0.006 A 
ATOM      2  C   UNL     1      17.477 -43.126  33.078  1.00  0.00     0.122 A 
ATOM      3  C   UNL     1      16.125 -42.789  33.247  1.00  0.00     0.092 A 
ATOM      4  C   UNL     1      15.135 -43.777  33.173  1.00  0.00     0.119 A 
ATOM      5  C   UNL     1      15.497 -45.104  32.927  1.00  0.00     0.047 A 
ATOM      6  C   UNL     1      16.840 -45.448  32.759  1.00  0.00     0.011 A 
ENDROOT
BRANCH   1   7
ATOM      7  C   UNL     1      19.284 -44.851  32.630  1.00  0.00     0.036 C 
ATOM      8  C   UNL     1      19.643 -46.086  33.450  1.00  0.00     0.009 C 
ENDBRANCH   1   7
BRANCH   2   9
ATOM      9  O   UNL     1      18.455 -42.132  33.139  1.00  0.00    -0.508 OA
ATOM     10  H   UNL     1      18.995 -41.970  33.981  1.00  0.00     0.293 HD
ENDBRANCH   2   9
BRANCH   4  11
ATOM     11  O   UNL     1      13.791 -43.450  33.340  1.00  0.00    -0.508 OA
ATOM     12  H   UNL     1      13.315 -43.603  34.220  1.00  0.00     0.293 HD
ENDBRANCH   4  11
TORSDOF 3
ENDMDL
MODEL 2
REMARK VINA RESULT:    -4.296      3.682      4.177
REMARK INTER + INTRA:          -4.887
REMARK INTER:                  -4.779
REMARK INTRA:                  -0.108
REMARK UNBOUND:                -0.089
REMARK SMILES CCc1ccc(O)cc1O
REMARK SMILES IDX 3 1 9 2 8 3 6 4 5 5 4 6 2 7 1 8 10 9 7 11
REMARK H PARENT 10 10 7 12
REMARK Flexibility Score: inf
ROOT
ATOM      1  C   UNL     1      16.548 -45.313  28.935  1.00  0.00    -0.006 A 
ATOM      2  C   UNL     1      17.368 -45.063  30.053  1.00  0.00     0.122 A 
ATOM      3  C   UNL     1      16.789 -44.899  31.321  1.00  0.00     0.092 A 
ATOM      4  C   UNL     1      15.400 -44.970  31.479  1.00  0.00     0.119 A 
ATOM      5  C   UNL     1      14.586 -45.204  30.367  1.00  0.00     0.047 A 
ATOM      6  C   UNL     1      15.154 -45.370  29.103  1.00  0.00     0.011 A 
ENDROOT
BRANCH   1   7
ATOM      7  C   UNL     1      17.141 -45.463  27.557  1.00  0.00     0.036 C 
ATOM      8  C   UNL     1      17.074 -44.145  26.792  1.00  0.00     0.009 C 
ENDBRANCH   1   7
BRANCH   2   9
ATOM      9  O   UNL     1      18.753 -44.976  29.904  1.00  0.00    -0.508 OA
ATOM     10  H   UNL     1      19.356 -44.722  30.677  1.00  0.00     0.293 HD
ENDBRANCH   2   9
BRANCH   4  11
ATOM     11  O   UNL     1      14.819 -44.808  32.735  1.00  0.00    -0.508 OA
ATOM     12  H   UNL     1      15.265 -45.160  33.574  1.00  0.00     0.293 HD
ENDBRANCH   4  11
TORSDOF 3
ENDMDL
MODEL 3
REMARK VINA RESULT:    -4.241      3.549      4.914
REMARK INTER + INTRA:          -4.825
REMARK INTER:                  -4.724
REMARK INTRA:                  -0.101
REMARK UNBOUND:                -0.089
REMARK SMILES CCc1ccc(O)cc1O
REMARK SMILES IDX 3 1 9 2 8 3 6 4 5 5 4 6 2 7 1 8 10 9 7 11
REMARK H PARENT 10 10 7 12
REMARK Flexibility Score: inf
ROOT
ATOM      1  C   UNL     1      15.710 -44.996  31.019  1.00  0.00    -0.006 A 
ATOM      2  C   UNL     1      14.976 -45.285  29.851  1.00  0.00     0.122 A 
ATOM      3  C   UNL     1      15.638 -45.396  28.619  1.00  0.00     0.092 A 
ATOM      4  C   UNL     1      17.024 -45.210  28.541  1.00  0.00     0.119 A 
ATOM      5  C   UNL     1      17.750 -44.910  29.697  1.00  0.00     0.047 A 
ATOM      6  C   UNL     1      17.098 -44.798  30.927  1.00  0.00     0.011 A 
ENDROOT
BRANCH   1   7
ATOM      7  C   UNL     1      15.020 -44.840  32.350  1.00  0.00     0.036 C 
ATOM      8  C   UNL     1      15.305 -46.038  33.251  1.00  0.00     0.009 C 
ENDBRANCH   1   7
BRANCH   2   9
ATOM      9  O   UNL     1      13.593 -45.458  29.917  1.00  0.00    -0.508 OA
ATOM     10  H   UNL     1      13.180 -46.345  30.180  1.00  0.00     0.293 HD
ENDBRANCH   2   9
BRANCH   4  11
ATOM     11  O   UNL     1      17.688 -45.321  27.321  1.00  0.00    -0.508 OA
ATOM     12  H   UNL     1      17.992 -44.502  26.809  1.00  0.00     0.293 HD
ENDBRANCH   4  11
TORSDOF 3
ENDMDL
MODEL 4
REMARK VINA RESULT:    -4.217      2.561      2.880
REMARK INTER + INTRA:          -4.799
REMARK INTER:                  -4.698
REMARK INTRA:                  -0.100
REMARK UNBOUND:                -0.089
REMARK SMILES CCc1ccc(O)cc1O
REMARK SMILES IDX 3 1 9 2 8 3 6 4 5 5 4 6 2 7 1 8 10 9 7 11
REMARK H PARENT 10 10 7 12
REMARK Flexibility Score: inf
ROOT
ATOM      1  C   UNL     1      17.421 -44.963  31.707  1.00  0.00    -0.006 A 
ATOM      2  C   UNL     1      17.355 -45.092  30.305  1.00  0.00     0.122 A 
ATOM      3  C   UNL     1      16.112 -45.265  29.677  1.00  0.00     0.092 A 
ATOM      4  C   UNL     1      14.937 -45.322  30.437  1.00  0.00     0.119 A 
ATOM      5  C   UNL     1      15.004 -45.209  31.828  1.00  0.00     0.047 A 
ATOM      6  C   UNL     1      16.237 -45.035  32.461  1.00  0.00     0.011 A 
ENDROOT
BRANCH   1   7
ATOM      7  C   UNL     1      18.745 -44.807  32.409  1.00  0.00     0.036 C 
ATOM      8  C   UNL     1      19.041 -46.022  33.283  1.00  0.00     0.009 C 
ENDBRANCH   1   7
BRANCH   2   9
ATOM      9  O   UNL     1      18.521 -45.050  29.540  1.00  0.00    -0.508 OA
ATOM     10  H   UNL     1      19.428 -44.889  29.963  1.00  0.00     0.293 HD
ENDBRANCH   2   9
BRANCH   4  11
ATOM     11  O   UNL     1      13.700 -45.493  29.820  1.00  0.00    -0.508 OA
ATOM     12  H   UNL     1      13.549 -46.215  29.126  1.00  0.00     0.293 HD
ENDBRANCH   4  11
TORSDOF 3
ENDMDL
MODEL 5
REMARK VINA RESULT:    -4.191      1.956      4.070
REMARK INTER + INTRA:          -4.769
REMARK INTER:                  -4.680
REMARK INTRA:                  -0.090
REMARK UNBOUND:                -0.089
REMARK SMILES CCc1ccc(O)cc1O
REMARK SMILES IDX 3 1 9 2 8 3 6 4 5 5 4 6 2 7 1 8 10 9 7 11
REMARK H PARENT 10 10 7 12
REMARK Flexibility Score: inf
ROOT
ATOM      1  C   UNL     1      17.364 -43.121  32.505  1.00  0.00    -0.006 A 
ATOM      2  C   UNL     1      18.001 -42.118  31.746  1.00  0.00     0.122 A 
ATOM      3  C   UNL     1      19.147 -42.429  31.000  1.00  0.00     0.092 A 
ATOM      4  C   UNL     1      19.670 -43.728  31.014  1.00  0.00     0.119 A 
ATOM      5  C   UNL     1      19.047 -44.719  31.778  1.00  0.00     0.047 A 
ATOM      6  C   UNL     1      17.905 -44.418  32.522  1.00  0.00     0.011 A 
ENDROOT
BRANCH   1   7
ATOM      7  C   UNL     1      16.149 -42.808  33.340  1.00  0.00     0.036 C 
ATOM      8  C   UNL     1      15.037 -43.819  33.079  1.00  0.00     0.009 C 
ENDBRANCH   1   7
BRANCH   2   9
ATOM      9  O   UNL     1      17.495 -40.818  31.737  1.00  0.00    -0.508 OA
ATOM     10  H   UNL     1      17.640 -40.186  32.516  1.00  0.00     0.293 HD
ENDBRANCH   2   9
BRANCH   4  11
ATOM     11  O   UNL     1      20.808 -44.043  30.274  1.00  0.00    -0.508 OA
ATOM     12  H   UNL     1      21.735 -43.984  30.677  1.00  0.00     0.293 HD
ENDBRANCH   4  11
TORSDOF 3
ENDMDL
MODEL 6
REMARK VINA RESULT:    -4.183      2.310      4.422
REMARK INTER + INTRA:          -4.761
REMARK INTER:                  -4.655
REMARK INTRA:                  -0.106
REMARK UNBOUND:                -0.089
REMARK SMILES CCc1ccc(O)cc1O
REMARK SMILES IDX 3 1 9 2 8 3 6 4 5 5 4 6 2 7 1 8 10 9 7 11
REMARK H PARENT 10 10 7 12
REMARK Flexibility Score: inf
ROOT
ATOM      1  C   UNL     1      16.649 -45.110  32.006  1.00  0.00    -0.006 A 
ATOM      2  C   UNL     1      16.847 -45.026  30.614  1.00  0.00     0.122 A 
ATOM      3  C   UNL     1      18.134 -44.800  30.103  1.00  0.00     0.092 A 
ATOM      4  C   UNL     1      19.222 -44.645  30.971  1.00  0.00     0.119 A 
ATOM      5  C   UNL     1      19.024 -44.713  32.352  1.00  0.00     0.047 A 
ATOM      6  C   UNL     1      17.746 -44.939  32.868  1.00  0.00     0.011 A 
ENDROOT
BRANCH   1   7
ATOM      7  C   UNL     1      15.272 -45.321  32.583  1.00  0.00     0.036 C 
ATOM      8  C   UNL     1      14.603 -43.986  32.891  1.00  0.00     0.009 C 
ENDBRANCH   1   7
BRANCH   2   9
ATOM      9  O   UNL     1      15.767 -45.166  29.742  1.00  0.00    -0.508 OA
ATOM     10  H   UNL     1      15.786 -44.778  28.806  1.00  0.00     0.293 HD
ENDBRANCH   2   9
BRANCH   4  11
ATOM     11  O   UNL     1      20.503 -44.421  30.470  1.00  0.00    -0.508 OA
ATOM     12  H   UNL     1      20.773 -43.522  30.091  1.00  0.00     0.293 HD
ENDBRANCH   4  11
TORSDOF 3
ENDMDL
MODEL 7
REMARK VINA RESULT:    -4.131      7.040      7.912
REMARK INTER + INTRA:          -4.703
REMARK INTER:                  -4.595
REMARK INTRA:                  -0.108
REMARK UNBOUND:                -0.089
REMARK SMILES CCc1ccc(O)cc1O
REMARK SMILES IDX 3 1 9 2 8 3 6 4 5 5 4 6 2 7 1 8 10 9 7 11
REMARK H PARENT 10 10 7 12
REMARK Flexibility Score: inf
ROOT
ATOM      1  C   UNL     1      18.552 -39.689  27.626  1.00  0.00    -0.006 A 
ATOM      2  C   UNL     1      18.548 -39.774  26.219  1.00  0.00     0.122 A 
ATOM      3  C   UNL     1      18.524 -41.030  25.595  1.00  0.00     0.092 A 
ATOM      4  C   UNL     1      18.517 -42.202  26.362  1.00  0.00     0.119 A 
ATOM      5  C   UNL     1      18.536 -42.118  27.757  1.00  0.00     0.047 A 
ATOM      6  C   UNL     1      18.558 -40.871  28.386  1.00  0.00     0.011 A 
ENDROOT
BRANCH   1   7
ATOM      7  C   UNL     1      18.607 -38.353  28.323  1.00  0.00     0.036 C 
ATOM      8  C   UNL     1      20.040 -38.006  28.714  1.00  0.00     0.009 C 
ENDBRANCH   1   7
BRANCH   2   9
ATOM      9  O   UNL     1      18.568 -38.612  25.446  1.00  0.00    -0.508 OA
ATOM     10  H   UNL     1      17.742 -38.280  24.964  1.00  0.00     0.293 HD
ENDBRANCH   2   9
BRANCH   4  11
ATOM     11  O   UNL     1      18.493 -43.452  25.749  1.00  0.00    -0.508 OA
ATOM     12  H   UNL     1      19.042 -44.226  26.102  1.00  0.00     0.293 HD
ENDBRANCH   4  11
TORSDOF 3
ENDMDL
MODEL 8
REMARK VINA RESULT:    -4.098      6.735      7.162
REMARK INTER + INTRA:          -4.666
REMARK INTER:                  -4.568
REMARK INTRA:                  -0.098
REMARK UNBOUND:                -0.089
REMARK SMILES CCc1ccc(O)cc1O
REMARK SMILES IDX 3 1 9 2 8 3 6 4 5 5 4 6 2 7 1 8 10 9 7 11
REMARK H PARENT 10 10 7 12
REMARK Flexibility Score: inf
ROOT
ATOM      1  C   UNL     1      18.100 -42.420  26.146  1.00  0.00    -0.006 A 
ATOM      2  C   UNL     1      17.648 -42.437  27.480  1.00  0.00     0.122 A 
ATOM      3  C   UNL     1      17.180 -43.633  28.044  1.00  0.00     0.092 A 
ATOM      4  C   UNL     1      17.148 -44.809  27.285  1.00  0.00     0.119 A 
ATOM      5  C   UNL     1      17.583 -44.789  25.957  1.00  0.00     0.047 A 
ATOM      6  C   UNL     1      18.052 -43.603  25.388  1.00  0.00     0.011 A 
ENDROOT
BRANCH   1   7
ATOM      7  C   UNL     1      18.580 -41.143  25.505  1.00  0.00     0.036 C 
ATOM      8  C   UNL     1      17.702 -40.771  24.314  1.00  0.00     0.009 C 
ENDBRANCH   1   7
BRANCH   2   9
ATOM      9  O   UNL     1      17.663 -41.267  28.241  1.00  0.00    -0.508 OA
ATOM     10  H   UNL     1      18.152 -40.437  27.929  1.00  0.00     0.293 HD
ENDBRANCH   2   9
BRANCH   4  11
ATOM     11  O   UNL     1      16.685 -46.000  27.839  1.00  0.00    -0.508 OA
ATOM     12  H   UNL     1      15.899 -46.017  28.477  1.00  0.00     0.293 HD
ENDBRANCH   4  11
TORSDOF 3
ENDMDL
MODEL 9
REMARK VINA RESULT:    -4.073      3.387      4.480
REMARK INTER + INTRA:          -4.638
REMARK INTER:                  -4.535
REMARK INTRA:                  -0.104
REMARK UNBOUND:                -0.089
REMARK SMILES CCc1ccc(O)cc1O
REMARK SMILES IDX 3 1 9 2 8 3 6 4 5 5 4 6 2 7 1 8 10 9 7 11
REMARK H PARENT 10 10 7 12
REMARK Flexibility Score: inf
ROOT
ATOM      1  C   UNL     1      15.863 -45.109  31.155  1.00  0.00    -0.006 A 
ATOM      2  C   UNL     1      17.264 -45.072  31.007  1.00  0.00     0.122 A 
ATOM      3  C   UNL     1      17.831 -45.100  29.724  1.00  0.00     0.092 A 
ATOM      4  C   UNL     1      17.013 -45.177  28.590  1.00  0.00     0.119 A 
ATOM      5  C   UNL     1      15.624 -45.228  28.738  1.00  0.00     0.047 A 
ATOM      6  C   UNL     1      15.052 -45.199  30.011  1.00  0.00     0.011 A 
ENDROOT
BRANCH   1   7
ATOM      7  C   UNL     1      15.228 -45.111  32.523  1.00  0.00     0.036 C 
ATOM      8  C   UNL     1      14.718 -43.720  32.885  1.00  0.00     0.009 C 
ENDBRANCH   1   7
BRANCH   2   9
ATOM      9  O   UNL     1      18.088 -45.010  32.131  1.00  0.00    -0.508 OA
ATOM     10  H   UNL     1      17.808 -45.413  33.017  1.00  0.00     0.293 HD
ENDBRANCH   2   9
BRANCH   4  11
ATOM     11  O   UNL     1      17.570 -45.204  27.313  1.00  0.00    -0.508 OA
ATOM     12  H   UNL     1      17.913 -46.064  26.903  1.00  0.00     0.293 HD
ENDBRANCH   4  11
TORSDOF 3
ENDMDL
