MODEL 1
REMARK VINA RESULT:    -5.526      0.000      0.000
REMARK INTER + INTRA:          -8.250
REMARK INTER:                  -7.465
REMARK INTRA:                  -0.786
REMARK UNBOUND:                -0.786
REMARK SMILES CC(=O)CCC=C(C)CCC=C(C)C
REMARK SMILES IDX 7 1 6 2 8 3 9 4 10 5 11 6 13 7 12 8 14 9 5 10 4 11 2 12 3 13
REMARK SMILES IDX 1 14
REMARK H PARENT
REMARK Flexibility Score: inf
ROOT
ATOM      1  C   UNL     1     255.121 260.661 246.124  1.00  0.00    -0.077 C 
ATOM      2  C   UNL     1     256.288 261.297 245.874  1.00  0.00    -0.028 C 
ATOM      3  C   UNL     1     254.472 259.753 245.108  1.00  0.00     0.039 C 
ENDROOT
BRANCH   1   4
ATOM      4  C   UNL     1     254.405 260.918 247.434  1.00  0.00     0.034 C 
BRANCH   4   5
ATOM      5  C   UNL     1     254.946 260.030 248.563  1.00  0.00     0.032 C 
BRANCH   5   6
ATOM      6  C   UNL     1     255.214 260.818 249.823  1.00  0.00    -0.028 C 
ATOM      7  C   UNL     1     257.605 261.276 249.234  1.00  0.00     0.039 C 
ATOM      8  C   UNL     1     256.392 261.408 250.124  1.00  0.00    -0.080 C 
ATOM      9  C   UNL     1     256.490 262.204 251.399  1.00  0.00     0.039 C 
ENDBRANCH   5   6
ENDBRANCH   4   5
ENDBRANCH   1   4
BRANCH   2  10
ATOM     10  C   UNL     1     257.113 261.115 244.622  1.00  0.00     0.035 C 
BRANCH  10  11
ATOM     11  C   UNL     1     258.617 261.172 244.921  1.00  0.00     0.079 C 
BRANCH  11  12
ATOM     12  C   UNL     1     259.087 262.589 245.133  1.00  0.00     0.130 C 
ATOM     13  O   UNL     1     259.786 262.852 246.100  1.00  0.00    -0.300 OA
ATOM     14  C   UNL     1     258.713 263.684 244.179  1.00  0.00     0.087 C 
ENDBRANCH  11  12
ENDBRANCH  10  11
ENDBRANCH   2  10
TORSDOF 6
ENDMDL
MODEL 2
REMARK VINA RESULT:    -5.477      6.131      8.271
REMARK INTER + INTRA:          -8.184
REMARK INTER:                  -7.646
REMARK INTRA:                  -0.538
REMARK UNBOUND:                -0.786
REMARK SMILES CC(=O)CCC=C(C)CCC=C(C)C
REMARK SMILES IDX 7 1 6 2 8 3 9 4 10 5 11 6 13 7 12 8 14 9 5 10 4 11 2 12 3 13
REMARK SMILES IDX 1 14
REMARK H PARENT
REMARK Flexibility Score: inf
ROOT
ATOM      1  C   UNL     1     250.593 259.204 247.044  1.00  0.00    -0.077 C 
ATOM      2  C   UNL     1     250.028 257.976 247.096  1.00  0.00    -0.028 C 
ATOM      3  C   UNL     1     249.764 260.466 247.041  1.00  0.00     0.039 C 
ENDROOT
BRANCH   1   4
ATOM      4  C   UNL     1     252.097 259.321 246.914  1.00  0.00     0.034 C 
BRANCH   4   5
ATOM      5  C   UNL     1     252.582 260.753 247.180  1.00  0.00     0.032 C 
BRANCH   5   6
ATOM      6  C   UNL     1     253.958 260.779 247.801  1.00  0.00    -0.028 C 
ATOM      7  C   UNL     1     255.143 260.621 245.599  1.00  0.00     0.039 C 
ATOM      8  C   UNL     1     255.116 260.751 247.104  1.00  0.00    -0.080 C 
ATOM      9  C   UNL     1     256.413 260.835 247.865  1.00  0.00     0.039 C 
ENDBRANCH   5   6
ENDBRANCH   4   5
ENDBRANCH   1   4
BRANCH   2  10
ATOM     10  C   UNL     1     248.548 257.719 247.246  1.00  0.00     0.035 C 
BRANCH  10  11
ATOM     11  C   UNL     1     248.011 256.830 246.117  1.00  0.00     0.079 C 
BRANCH  11  12
ATOM     12  C   UNL     1     246.899 257.508 245.357  1.00  0.00     0.130 C 
ATOM     13  O   UNL     1     245.919 256.862 245.019  1.00  0.00    -0.300 OA
ATOM     14  C   UNL     1     246.972 258.965 245.007  1.00  0.00     0.087 C 
ENDBRANCH  11  12
ENDBRANCH  10  11
ENDBRANCH   2  10
TORSDOF 6
ENDMDL
MODEL 3
REMARK VINA RESULT:    -5.475      2.342      3.891
REMARK INTER + INTRA:          -8.181
REMARK INTER:                  -7.702
REMARK INTRA:                  -0.479
REMARK UNBOUND:                -0.786
REMARK SMILES CC(=O)CCC=C(C)CCC=C(C)C
REMARK SMILES IDX 7 1 6 2 8 3 9 4 10 5 11 6 13 7 12 8 14 9 5 10 4 11 2 12 3 13
REMARK SMILES IDX 1 14
REMARK H PARENT
REMARK Flexibility Score: inf
ROOT
ATOM      1  C   UNL     1     255.187 260.633 246.117  1.00  0.00    -0.077 C 
ATOM      2  C   UNL     1     256.369 261.244 245.874  1.00  0.00    -0.028 C 
ATOM      3  C   UNL     1     254.507 259.768 245.083  1.00  0.00     0.039 C 
ENDROOT
BRANCH   1   4
ATOM      4  C   UNL     1     254.488 260.874 247.438  1.00  0.00     0.034 C 
BRANCH   4   5
ATOM      5  C   UNL     1     253.031 260.392 247.408  1.00  0.00     0.032 C 
BRANCH   5   6
ATOM      6  C   UNL     1     252.071 261.511 247.082  1.00  0.00    -0.028 C 
ATOM      7  C   UNL     1     250.071 260.004 247.004  1.00  0.00     0.039 C 
ATOM      8  C   UNL     1     250.737 261.358 246.928  1.00  0.00    -0.080 C 
ATOM      9  C   UNL     1     249.902 262.581 246.654  1.00  0.00     0.039 C 
ENDBRANCH   5   6
ENDBRANCH   4   5
ENDBRANCH   1   4
BRANCH   2  10
ATOM     10  C   UNL     1     257.179 261.074 244.610  1.00  0.00     0.035 C 
BRANCH  10  11
ATOM     11  C   UNL     1     258.445 261.940 244.629  1.00  0.00     0.079 C 
BRANCH  11  12
ATOM     12  C   UNL     1     259.355 261.567 245.773  1.00  0.00     0.130 C 
ATOM     13  O   UNL     1     259.731 260.411 245.890  1.00  0.00    -0.300 OA
ATOM     14  C   UNL     1     259.809 262.590 246.771  1.00  0.00     0.087 C 
ENDBRANCH  11  12
ENDBRANCH  10  11
ENDBRANCH   2  10
TORSDOF 6
ENDMDL
MODEL 4
REMARK VINA RESULT:    -5.444      3.100      4.686
REMARK INTER + INTRA:          -8.139
REMARK INTER:                  -7.295
REMARK INTRA:                  -0.845
REMARK UNBOUND:                -0.786
REMARK SMILES CC(=O)CCC=C(C)CCC=C(C)C
REMARK SMILES IDX 7 1 6 2 8 3 9 4 10 5 11 6 13 7 12 8 14 9 5 10 4 11 2 12 3 13
REMARK SMILES IDX 1 14
REMARK H PARENT
REMARK Flexibility Score: inf
ROOT
ATOM      1  C   UNL     1     255.518 260.832 248.905  1.00  0.00    -0.077 C 
ATOM      2  C   UNL     1     254.171 260.868 248.797  1.00  0.00    -0.028 C 
ATOM      3  C   UNL     1     256.421 261.004 247.707  1.00  0.00     0.039 C 
ENDROOT
BRANCH   1   4
ATOM      4  C   UNL     1     256.144 260.541 250.253  1.00  0.00     0.034 C 
BRANCH   4   5
ATOM      5  C   UNL     1     256.499 261.830 251.006  1.00  0.00     0.032 C 
BRANCH   5   6
ATOM      6  C   UNL     1     256.137 261.749 252.469  1.00  0.00    -0.028 C 
ATOM      7  C   UNL     1     253.834 262.675 252.128  1.00  0.00     0.039 C 
ATOM      8  C   UNL     1     254.936 262.095 252.984  1.00  0.00    -0.080 C 
ATOM      9  C   UNL     1     254.708 261.909 254.461  1.00  0.00     0.039 C 
ENDBRANCH   5   6
ENDBRANCH   4   5
ENDBRANCH   1   4
BRANCH   2  10
ATOM     10  C   UNL     1     253.420 261.167 247.521  1.00  0.00     0.035 C 
BRANCH  10  11
ATOM     11  C   UNL     1     252.779 259.903 246.932  1.00  0.00     0.079 C 
BRANCH  11  12
ATOM     12  C   UNL     1     253.754 259.133 246.078  1.00  0.00     0.130 C 
ATOM     13  O   UNL     1     253.944 257.947 246.302  1.00  0.00    -0.300 OA
ATOM     14  C   UNL     1     254.497 259.794 244.956  1.00  0.00     0.087 C 
ENDBRANCH  11  12
ENDBRANCH  10  11
ENDBRANCH   2  10
TORSDOF 6
ENDMDL
MODEL 5
REMARK VINA RESULT:    -5.390      3.883      7.353
REMARK INTER + INTRA:          -8.067
REMARK INTER:                  -7.409
REMARK INTRA:                  -0.658
REMARK UNBOUND:                -0.786
REMARK SMILES CC(=O)CCC=C(C)CCC=C(C)C
REMARK SMILES IDX 7 1 6 2 8 3 9 4 10 5 11 6 13 7 12 8 14 9 5 10 4 11 2 12 3 13
REMARK SMILES IDX 1 14
REMARK H PARENT
REMARK Flexibility Score: inf
ROOT
ATOM      1  C   UNL     1     255.633 260.916 251.112  1.00  0.00    -0.077 C 
ATOM      2  C   UNL     1     255.308 262.027 251.811  1.00  0.00    -0.028 C 
ATOM      3  C   UNL     1     255.302 259.531 251.611  1.00  0.00     0.039 C 
ENDROOT
BRANCH   1   4
ATOM      4  C   UNL     1     256.414 261.058 249.821  1.00  0.00     0.034 C 
BRANCH   4   5
ATOM      5  C   UNL     1     255.747 260.298 248.666  1.00  0.00     0.032 C 
BRANCH   5   6
ATOM      6  C   UNL     1     254.330 260.764 248.426  1.00  0.00    -0.028 C 
ATOM      7  C   UNL     1     254.614 260.898 245.940  1.00  0.00     0.039 C 
ATOM      8  C   UNL     1     253.799 261.008 247.207  1.00  0.00    -0.080 C 
ATOM      9  C   UNL     1     252.352 261.419 247.125  1.00  0.00     0.039 C 
ENDBRANCH   5   6
ENDBRANCH   4   5
ENDBRANCH   1   4
BRANCH   2  10
ATOM     10  C   UNL     1     254.516 262.028 253.098  1.00  0.00     0.035 C 
BRANCH  10  11
ATOM     11  C   UNL     1     255.435 262.028 254.327  1.00  0.00     0.079 C 
BRANCH  11  12
ATOM     12  C   UNL     1     255.320 260.741 255.105  1.00  0.00     0.130 C 
ATOM     13  O   UNL     1     254.214 260.281 255.347  1.00  0.00    -0.300 OA
ATOM     14  C   UNL     1     256.538 260.013 255.590  1.00  0.00     0.087 C 
ENDBRANCH  11  12
ENDBRANCH  10  11
ENDBRANCH   2  10
TORSDOF 6
ENDMDL
MODEL 6
REMARK VINA RESULT:    -5.388      1.484      3.605
REMARK INTER + INTRA:          -8.064
REMARK INTER:                  -7.156
REMARK INTRA:                  -0.908
REMARK UNBOUND:                -0.786
REMARK SMILES CC(=O)CCC=C(C)CCC=C(C)C
REMARK SMILES IDX 7 1 6 2 8 3 9 4 10 5 11 6 13 7 12 8 14 9 5 10 4 11 2 12 3 13
REMARK SMILES IDX 1 14
REMARK H PARENT
REMARK Flexibility Score: inf
ROOT
ATOM      1  C   UNL     1     257.626 261.684 249.286  1.00  0.00    -0.077 C 
ATOM      2  C   UNL     1     258.078 261.269 248.081  1.00  0.00    -0.028 C 
ATOM      3  C   UNL     1     258.341 262.747 250.085  1.00  0.00     0.039 C 
ENDROOT
BRANCH   1   4
ATOM      4  C   UNL     1     256.406 261.019 249.888  1.00  0.00     0.034 C 
BRANCH   4   5
ATOM      5  C   UNL     1     255.682 260.128 248.868  1.00  0.00     0.032 C 
BRANCH   5   6
ATOM      6  C   UNL     1     254.299 260.642 248.549  1.00  0.00    -0.028 C 
ATOM      7  C   UNL     1     254.761 260.867 246.098  1.00  0.00     0.039 C 
ATOM      8  C   UNL     1     253.861 260.948 247.308  1.00  0.00    -0.080 C 
ATOM      9  C   UNL     1     252.434 261.402 247.142  1.00  0.00     0.039 C 
ENDBRANCH   5   6
ENDBRANCH   4   5
ENDBRANCH   1   4
BRANCH   2  10
ATOM     10  C   UNL     1     259.267 261.859 247.361  1.00  0.00     0.035 C 
BRANCH  10  11
ATOM     11  C   UNL     1     259.380 261.329 245.925  1.00  0.00     0.079 C 
BRANCH  11  12
ATOM     12  C   UNL     1     258.347 261.953 245.021  1.00  0.00     0.130 C 
ATOM     13  O   UNL     1     257.718 261.246 244.248  1.00  0.00    -0.300 OA
ATOM     14  C   UNL     1     258.076 263.428 245.050  1.00  0.00     0.087 C 
ENDBRANCH  11  12
ENDBRANCH  10  11
ENDBRANCH   2  10
TORSDOF 6
ENDMDL
MODEL 7
REMARK VINA RESULT:    -5.292      2.495      4.451
REMARK INTER + INTRA:          -7.934
REMARK INTER:                  -7.057
REMARK INTRA:                  -0.877
REMARK UNBOUND:                -0.786
REMARK SMILES CC(=O)CCC=C(C)CCC=C(C)C
REMARK SMILES IDX 7 1 6 2 8 3 9 4 10 5 11 6 13 7 12 8 14 9 5 10 4 11 2 12 3 13
REMARK SMILES IDX 1 14
REMARK H PARENT
REMARK Flexibility Score: inf
ROOT
ATOM      1  C   UNL     1     256.933 261.294 246.049  1.00  0.00    -0.077 C 
ATOM      2  C   UNL     1     255.684 260.892 246.376  1.00  0.00    -0.028 C 
ATOM      3  C   UNL     1     257.445 261.239 244.630  1.00  0.00     0.039 C 
ENDROOT
BRANCH   1   4
ATOM      4  C   UNL     1     257.874 261.748 247.146  1.00  0.00     0.034 C 
BRANCH   4   5
ATOM      5  C   UNL     1     257.823 260.815 248.363  1.00  0.00     0.032 C 
BRANCH   5   6
ATOM      6  C   UNL     1     257.471 261.556 249.631  1.00  0.00    -0.028 C 
ATOM      7  C   UNL     1     255.294 260.355 249.933  1.00  0.00     0.039 C 
ATOM      8  C   UNL     1     256.356 261.340 250.363  1.00  0.00    -0.080 C 
ATOM      9  C   UNL     1     256.169 262.125 251.634  1.00  0.00     0.039 C 
ENDBRANCH   5   6
ENDBRANCH   4   5
ENDBRANCH   1   4
BRANCH   2  10
ATOM     10  C   UNL     1     254.642 260.436 245.382  1.00  0.00     0.035 C 
BRANCH  10  11
ATOM     11  C   UNL     1     254.100 259.043 245.728  1.00  0.00     0.079 C 
BRANCH  11  12
ATOM     12  C   UNL     1     253.058 259.108 246.817  1.00  0.00     0.130 C 
ATOM     13  O   UNL     1     252.287 260.055 246.855  1.00  0.00    -0.300 OA
ATOM     14  C   UNL     1     252.948 258.032 247.855  1.00  0.00     0.087 C 
ENDBRANCH  11  12
ENDBRANCH  10  11
ENDBRANCH   2  10
TORSDOF 6
ENDMDL
MODEL 8
REMARK VINA RESULT:    -5.290      2.126      3.891
REMARK INTER + INTRA:          -7.931
REMARK INTER:                  -6.985
REMARK INTRA:                  -0.946
REMARK UNBOUND:                -0.786
REMARK SMILES CC(=O)CCC=C(C)CCC=C(C)C
REMARK SMILES IDX 7 1 6 2 8 3 9 4 10 5 11 6 13 7 12 8 14 9 5 10 4 11 2 12 3 13
REMARK SMILES IDX 1 14
REMARK H PARENT
REMARK Flexibility Score: inf
ROOT
ATOM      1  C   UNL     1     256.265 260.873 245.612  1.00  0.00    -0.077 C 
ATOM      2  C   UNL     1     256.432 261.056 246.941  1.00  0.00    -0.028 C 
ATOM      3  C   UNL     1     257.318 261.282 244.611  1.00  0.00     0.039 C 
ENDROOT
BRANCH   1   4
ATOM      4  C   UNL     1     254.957 260.305 245.101  1.00  0.00     0.034 C 
BRANCH   4   5
ATOM      5  C   UNL     1     254.030 259.888 246.251  1.00  0.00     0.032 C 
BRANCH   5   6
ATOM      6  C   UNL     1     253.790 258.398 246.274  1.00  0.00    -0.028 C 
ATOM      7  C   UNL     1     254.994 258.063 248.445  1.00  0.00     0.039 C 
ATOM      8  C   UNL     1     254.189 257.570 247.265  1.00  0.00    -0.080 C 
ATOM      9  C   UNL     1     253.831 256.110 247.170  1.00  0.00     0.039 C 
ENDBRANCH   5   6
ENDBRANCH   4   5
ENDBRANCH   1   4
BRANCH   2  10
ATOM     10  C   UNL     1     257.689 261.593 247.582  1.00  0.00     0.035 C 
BRANCH  10  11
ATOM     11  C   UNL     1     258.665 260.465 247.946  1.00  0.00     0.079 C 
BRANCH  11  12
ATOM     12  C   UNL     1     259.957 260.580 247.178  1.00  0.00     0.130 C 
ATOM     13  O   UNL     1     260.529 261.659 247.120  1.00  0.00    -0.300 OA
ATOM     14  C   UNL     1     260.558 259.395 246.482  1.00  0.00     0.087 C 
ENDBRANCH  11  12
ENDBRANCH  10  11
ENDBRANCH   2  10
TORSDOF 6
ENDMDL
MODEL 9
REMARK VINA RESULT:    -5.244      2.367      5.612
REMARK INTER + INTRA:          -7.869
REMARK INTER:                  -7.245
REMARK INTRA:                  -0.624
REMARK UNBOUND:                -0.786
REMARK SMILES CC(=O)CCC=C(C)CCC=C(C)C
REMARK SMILES IDX 7 1 6 2 8 3 9 4 10 5 11 6 13 7 12 8 14 9 5 10 4 11 2 12 3 13
REMARK SMILES IDX 1 14
REMARK H PARENT
REMARK Flexibility Score: inf
ROOT
ATOM      1  C   UNL     1     254.860 260.866 247.355  1.00  0.00    -0.077 C 
ATOM      2  C   UNL     1     255.673 260.822 248.434  1.00  0.00    -0.028 C 
ATOM      3  C   UNL     1     253.356 260.863 247.485  1.00  0.00     0.039 C 
ENDROOT
BRANCH   1   4
ATOM      4  C   UNL     1     255.470 260.849 245.968  1.00  0.00     0.034 C 
BRANCH   4   5
ATOM      5  C   UNL     1     256.988 261.069 246.012  1.00  0.00     0.032 C 
BRANCH   5   6
ATOM      6  C   UNL     1     257.438 262.110 245.014  1.00  0.00    -0.028 C 
ATOM      7  C   UNL     1     258.599 263.509 246.738  1.00  0.00     0.039 C 
ATOM      8  C   UNL     1     258.186 263.193 245.319  1.00  0.00    -0.080 C 
ATOM      9  C   UNL     1     258.600 264.117 244.204  1.00  0.00     0.039 C 
ENDBRANCH   5   6
ENDBRANCH   4   5
ENDBRANCH   1   4
BRANCH   2  10
ATOM     10  C   UNL     1     255.198 260.854 249.867  1.00  0.00     0.035 C 
BRANCH  10  11
ATOM     11  C   UNL     1     256.261 261.446 250.803  1.00  0.00     0.079 C 
BRANCH  11  12
ATOM     12  C   UNL     1     255.646 261.988 252.068  1.00  0.00     0.130 C 
ATOM     13  O   UNL     1     256.318 262.047 253.087  1.00  0.00    -0.300 OA
ATOM     14  C   UNL     1     254.222 262.459 252.103  1.00  0.00     0.087 C 
ENDBRANCH  11  12
ENDBRANCH  10  11
ENDBRANCH   2  10
TORSDOF 6
ENDMDL
