MODEL 1
REMARK VINA RESULT:    -3.663      0.000      0.000
REMARK INTER + INTRA:          -8.356
REMARK INTER:                  -6.875
REMARK INTRA:                  -1.482
REMARK UNBOUND:                -1.482
REMARK SMILES CCCCCCCCC=CCCCCCCCC(=O)[O-]
REMARK SMILES IDX 10 1 9 2 11 3 12 4 13 5 14 6 15 7 16 8 17 9 18 10 19 11
REMARK SMILES IDX 20 12 8 13 7 14 6 15 5 16 4 17 3 18 2 19 1 20
REMARK H PARENT
REMARK Flexibility Score: inf
ROOT
ATOM      1  C   UNL     1      10.323  -4.883  20.286  1.00  0.00    -0.031 C 
ATOM      2  C   UNL     1       9.941  -6.156  20.079  1.00  0.00    -0.031 C 
ENDROOT
BRANCH   1   3
ATOM      3  C   UNL     1      10.683  -3.924  19.177  1.00  0.00     0.027 C 
BRANCH   3   4
ATOM      4  C   UNL     1       9.611  -2.836  19.023  1.00  0.00     0.004 C 
BRANCH   4   5
ATOM      5  C   UNL     1       9.089  -2.317  20.372  1.00  0.00     0.000 C 
BRANCH   5   6
ATOM      6  C   UNL     1       7.571  -2.067  20.361  1.00  0.00     0.000 C 
BRANCH   6   7
ATOM      7  C   UNL     1       6.857  -2.789  19.206  1.00  0.00     0.000 C 
BRANCH   7   8
ATOM      8  C   UNL     1       5.651  -2.007  18.642  1.00  0.00     0.006 C 
BRANCH   8   9
ATOM      9  C   UNL     1       6.064  -1.032  17.530  1.00  0.00     0.053 C 
BRANCH   9  10
ATOM     10  C   UNL     1       6.107  -1.727  16.206  1.00  0.00     0.041 C 
ATOM     11  O   UNL     1       5.064  -1.824  15.507  1.00  0.00    -0.550 OA
ATOM     12  O   UNL     1       7.310  -2.233  15.724  1.00  0.00    -0.550 OA
ENDBRANCH   9  10
ENDBRANCH   8   9
ENDBRANCH   7   8
ENDBRANCH   6   7
ENDBRANCH   5   6
ENDBRANCH   4   5
ENDBRANCH   3   4
ENDBRANCH   1   3
BRANCH   2  13
ATOM     13  C   UNL     1       9.856  -6.818  18.724  1.00  0.00     0.027 C 
BRANCH  13  14
ATOM     14  C   UNL     1       8.472  -6.621  18.093  1.00  0.00     0.004 C 
BRANCH  14  15
ATOM     15  C   UNL     1       7.988  -7.877  17.355  1.00  0.00     0.000 C 
BRANCH  15  16
ATOM     16  C   UNL     1       8.531  -7.918  15.918  1.00  0.00     0.000 C 
BRANCH  16  17
ATOM     17  C   UNL     1       7.685  -8.801  14.988  1.00  0.00    -0.000 C 
BRANCH  17  18
ATOM     18  C   UNL     1       6.305  -9.139  15.583  1.00  0.00    -0.000 C 
BRANCH  18  19
ATOM     19  C   UNL     1       6.057 -10.653  15.663  1.00  0.00    -0.003 C 
ATOM     20  C   UNL     1       6.052 -11.178  17.098  1.00  0.00     0.004 C 
ENDBRANCH  18  19
ENDBRANCH  17  18
ENDBRANCH  16  17
ENDBRANCH  15  16
ENDBRANCH  14  15
ENDBRANCH  13  14
ENDBRANCH   2  13
TORSDOF 15
ENDMDL
MODEL 2
REMARK VINA RESULT:    -3.656      1.516      2.318
REMARK INTER + INTRA:          -8.344
REMARK INTER:                  -6.359
REMARK INTRA:                  -1.985
REMARK UNBOUND:                -1.482
REMARK SMILES CCCCCCCCC=CCCCCCCCC(=O)[O-]
REMARK SMILES IDX 10 1 9 2 11 3 12 4 13 5 14 6 15 7 16 8 17 9 18 10 19 11
REMARK SMILES IDX 20 12 8 13 7 14 6 15 5 16 4 17 3 18 2 19 1 20
REMARK H PARENT
REMARK Flexibility Score: inf
ROOT
ATOM      1  C   UNL     1      10.927  -2.975  19.226  1.00  0.00    -0.031 C 
ATOM      2  C   UNL     1      10.597  -3.860  20.183  1.00  0.00    -0.031 C 
ENDROOT
BRANCH   1   3
ATOM      3  C   UNL     1      10.380  -3.018  17.820  1.00  0.00     0.027 C 
BRANCH   3   4
ATOM      4  C   UNL     1       9.101  -2.177  17.704  1.00  0.00     0.004 C 
BRANCH   4   5
ATOM      5  C   UNL     1       7.865  -3.015  17.339  1.00  0.00     0.000 C 
BRANCH   5   6
ATOM      6  C   UNL     1       6.921  -3.225  18.534  1.00  0.00     0.000 C 
BRANCH   6   7
ATOM      7  C   UNL     1       6.214  -1.931  18.970  1.00  0.00     0.000 C 
BRANCH   7   8
ATOM      8  C   UNL     1       5.012  -1.554  18.076  1.00  0.00     0.006 C 
BRANCH   8   9
ATOM      9  C   UNL     1       5.301  -0.321  17.210  1.00  0.00     0.053 C 
BRANCH   9  10
ATOM     10  C   UNL     1       5.522  -0.716  15.783  1.00  0.00     0.041 C 
ATOM     11  O   UNL     1       6.381  -0.116  15.085  1.00  0.00    -0.550 OA
ATOM     12  O   UNL     1       4.805  -1.774  15.235  1.00  0.00    -0.550 OA
ENDBRANCH   9  10
ENDBRANCH   8   9
ENDBRANCH   7   8
ENDBRANCH   6   7
ENDBRANCH   5   6
ENDBRANCH   4   5
ENDBRANCH   3   4
ENDBRANCH   1   3
BRANCH   2  13
ATOM     13  C   UNL     1       9.670  -5.037  19.984  1.00  0.00     0.027 C 
BRANCH  13  14
ATOM     14  C   UNL     1      10.434  -6.365  20.047  1.00  0.00     0.004 C 
BRANCH  14  15
ATOM     15  C   UNL     1      10.275  -7.186  18.760  1.00  0.00     0.000 C 
BRANCH  15  16
ATOM     16  C   UNL     1       9.387  -6.452  17.743  1.00  0.00     0.000 C 
BRANCH  16  17
ATOM     17  C   UNL     1       7.926  -6.928  17.777  1.00  0.00    -0.000 C 
BRANCH  17  18
ATOM     18  C   UNL     1       7.630  -8.009  16.722  1.00  0.00    -0.000 C 
BRANCH  18  19
ATOM     19  C   UNL     1       7.826  -9.431  17.270  1.00  0.00    -0.003 C 
ATOM     20  C   UNL     1       8.904 -10.213  16.520  1.00  0.00     0.004 C 
ENDBRANCH  18  19
ENDBRANCH  17  18
ENDBRANCH  16  17
ENDBRANCH  15  16
ENDBRANCH  14  15
ENDBRANCH  13  14
ENDBRANCH   2  13
TORSDOF 15
ENDMDL
MODEL 3
REMARK VINA RESULT:    -3.655      4.109      6.425
REMARK INTER + INTRA:          -8.343
REMARK INTER:                  -6.413
REMARK INTRA:                  -1.930
REMARK UNBOUND:                -1.482
REMARK SMILES CCCCCCCCC=CCCCCCCCC(=O)[O-]
REMARK SMILES IDX 10 1 9 2 11 3 12 4 13 5 14 6 15 7 16 8 17 9 18 10 19 11
REMARK SMILES IDX 20 12 8 13 7 14 6 15 5 16 4 17 3 18 2 19 1 20
REMARK H PARENT
REMARK Flexibility Score: inf
ROOT
ATOM      1  C   UNL     1      10.099  -5.345  20.174  1.00  0.00    -0.031 C 
ATOM      2  C   UNL     1       9.428  -6.149  19.330  1.00  0.00    -0.031 C 
ENDROOT
BRANCH   1   3
ATOM      3  C   UNL     1      11.122  -4.328  19.728  1.00  0.00     0.027 C 
BRANCH   3   4
ATOM      4  C   UNL     1      10.528  -2.913  19.738  1.00  0.00     0.004 C 
BRANCH   4   5
ATOM      5  C   UNL     1       9.815  -2.572  21.056  1.00  0.00     0.000 C 
BRANCH   5   6
ATOM      6  C   UNL     1      10.798  -2.361  22.220  1.00  0.00     0.000 C 
BRANCH   6   7
ATOM      7  C   UNL     1      10.534  -1.058  22.994  1.00  0.00     0.000 C 
BRANCH   7   8
ATOM      8  C   UNL     1       9.913  -1.285  24.390  1.00  0.00     0.006 C 
BRANCH   8   9
ATOM      9  C   UNL     1       8.393  -1.072  24.386  1.00  0.00     0.053 C 
BRANCH   9  10
ATOM     10  C   UNL     1       7.771  -1.673  25.607  1.00  0.00     0.041 C 
ATOM     11  O   UNL     1       6.961  -2.631  25.499  1.00  0.00    -0.550 OA
ATOM     12  O   UNL     1       8.116  -1.200  26.869  1.00  0.00    -0.550 OA
ENDBRANCH   9  10
ENDBRANCH   8   9
ENDBRANCH   7   8
ENDBRANCH   6   7
ENDBRANCH   5   6
ENDBRANCH   4   5
ENDBRANCH   3   4
ENDBRANCH   1   3
BRANCH   2  13
ATOM     13  C   UNL     1       9.626  -6.182  17.833  1.00  0.00     0.027 C 
BRANCH  13  14
ATOM     14  C   UNL     1       8.452  -5.520  17.101  1.00  0.00     0.004 C 
BRANCH  14  15
ATOM     15  C   UNL     1       8.799  -4.110  16.605  1.00  0.00     0.000 C 
BRANCH  15  16
ATOM     16  C   UNL     1       7.772  -3.080  17.105  1.00  0.00     0.000 C 
BRANCH  16  17
ATOM     17  C   UNL     1       7.122  -3.488  18.436  1.00  0.00    -0.000 C 
BRANCH  17  18
ATOM     18  C   UNL     1       6.377  -2.323  19.114  1.00  0.00    -0.000 C 
BRANCH  18  19
ATOM     19  C   UNL     1       5.247  -1.762  18.237  1.00  0.00    -0.003 C 
ATOM     20  C   UNL     1       4.862  -0.330  18.610  1.00  0.00     0.004 C 
ENDBRANCH  18  19
ENDBRANCH  17  18
ENDBRANCH  16  17
ENDBRANCH  15  16
ENDBRANCH  14  15
ENDBRANCH  13  14
ENDBRANCH   2  13
TORSDOF 15
ENDMDL
MODEL 4
REMARK VINA RESULT:    -3.649      2.461      4.133
REMARK INTER + INTRA:          -8.330
REMARK INTER:                  -5.981
REMARK INTRA:                  -2.349
REMARK UNBOUND:                -1.482
REMARK SMILES CCCCCCCCC=CCCCCCCCC(=O)[O-]
REMARK SMILES IDX 10 1 9 2 11 3 12 4 13 5 14 6 15 7 16 8 17 9 18 10 19 11
REMARK SMILES IDX 20 12 8 13 7 14 6 15 5 16 4 17 3 18 2 19 1 20
REMARK H PARENT
REMARK Flexibility Score: inf
ROOT
ATOM      1  C   UNL     1       9.415  -2.833  19.774  1.00  0.00    -0.031 C 
ATOM      2  C   UNL     1      10.252  -3.882  19.692  1.00  0.00    -0.031 C 
ENDROOT
BRANCH   1   3
ATOM      3  C   UNL     1       8.072  -2.883  20.461  1.00  0.00     0.027 C 
BRANCH   3   4
ATOM      4  C   UNL     1       6.930  -2.739  19.445  1.00  0.00     0.004 C 
BRANCH   4   5
ATOM      5  C   UNL     1       6.635  -1.275  19.081  1.00  0.00     0.000 C 
BRANCH   5   6
ATOM      6  C   UNL     1       5.299  -1.110  18.338  1.00  0.00     0.000 C 
BRANCH   6   7
ATOM      7  C   UNL     1       5.381  -1.538  16.863  1.00  0.00     0.000 C 
BRANCH   7   8
ATOM      8  C   UNL     1       5.732  -0.380  15.904  1.00  0.00     0.006 C 
BRANCH   8   9
ATOM      9  C   UNL     1       4.480   0.248  15.275  1.00  0.00     0.053 C 
BRANCH   9  10
ATOM     10  C   UNL     1       4.302  -0.225  13.866  1.00  0.00     0.041 C 
ATOM     11  O   UNL     1       4.461   0.573  12.905  1.00  0.00    -0.550 OA
ATOM     12  O   UNL     1       3.996  -1.557  13.613  1.00  0.00    -0.550 OA
ENDBRANCH   9  10
ENDBRANCH   8   9
ENDBRANCH   7   8
ENDBRANCH   6   7
ENDBRANCH   5   6
ENDBRANCH   4   5
ENDBRANCH   3   4
ENDBRANCH   1   3
BRANCH   2  13
ATOM     13  C   UNL     1       9.958  -5.261  20.233  1.00  0.00     0.027 C 
BRANCH  13  14
ATOM     14  C   UNL     1       9.799  -6.283  19.101  1.00  0.00     0.004 C 
BRANCH  14  15
ATOM     15  C   UNL     1       8.484  -6.097  18.333  1.00  0.00     0.000 C 
BRANCH  15  16
ATOM     16  C   UNL     1       8.700  -6.252  16.819  1.00  0.00     0.000 C 
BRANCH  16  17
ATOM     17  C   UNL     1       9.814  -5.340  16.282  1.00  0.00    -0.000 C 
BRANCH  17  18
ATOM     18  C   UNL     1       9.279  -4.235  15.352  1.00  0.00    -0.000 C 
BRANCH  18  19
ATOM     19  C   UNL     1       8.457  -3.181  16.110  1.00  0.00    -0.003 C 
ATOM     20  C   UNL     1       9.137  -1.812  16.145  1.00  0.00     0.004 C 
ENDBRANCH  18  19
ENDBRANCH  17  18
ENDBRANCH  16  17
ENDBRANCH  15  16
ENDBRANCH  14  15
ENDBRANCH  13  14
ENDBRANCH   2  13
TORSDOF 15
ENDMDL
MODEL 5
REMARK VINA RESULT:    -3.643      2.768      4.596
REMARK INTER + INTRA:          -8.319
REMARK INTER:                  -5.536
REMARK INTRA:                  -2.783
REMARK UNBOUND:                -1.482
REMARK SMILES CCCCCCCCC=CCCCCCCCC(=O)[O-]
REMARK SMILES IDX 10 1 9 2 11 3 12 4 13 5 14 6 15 7 16 8 17 9 18 10 19 11
REMARK SMILES IDX 20 12 8 13 7 14 6 15 5 16 4 17 3 18 2 19 1 20
REMARK H PARENT
REMARK Flexibility Score: inf
ROOT
ATOM      1  C   UNL     1       9.281  -0.665  19.770  1.00  0.00    -0.031 C 
ATOM      2  C   UNL     1      10.029  -1.019  18.709  1.00  0.00    -0.031 C 
ENDROOT
BRANCH   1   3
ATOM      3  C   UNL     1       7.775  -0.763  19.804  1.00  0.00     0.027 C 
BRANCH   3   4
ATOM      4  C   UNL     1       7.326  -2.199  20.107  1.00  0.00     0.004 C 
BRANCH   4   5
ATOM      5  C   UNL     1       6.231  -2.698  19.151  1.00  0.00     0.000 C 
BRANCH   5   6
ATOM      6  C   UNL     1       5.692  -1.584  18.238  1.00  0.00     0.000 C 
BRANCH   6   7
ATOM      7  C   UNL     1       5.791  -1.937  16.745  1.00  0.00     0.000 C 
BRANCH   7   8
ATOM      8  C   UNL     1       6.139  -0.729  15.847  1.00  0.00     0.006 C 
BRANCH   8   9
ATOM      9  C   UNL     1       4.892   0.067  15.441  1.00  0.00     0.053 C 
BRANCH   9  10
ATOM     10  C   UNL     1       4.484  -0.266  14.040  1.00  0.00     0.041 C 
ATOM     11  O   UNL     1       4.195  -1.452  13.729  1.00  0.00    -0.550 OA
ATOM     12  O   UNL     1       4.386   0.740  13.086  1.00  0.00    -0.550 OA
ENDBRANCH   9  10
ENDBRANCH   8   9
ENDBRANCH   7   8
ENDBRANCH   6   7
ENDBRANCH   5   6
ENDBRANCH   4   5
ENDBRANCH   3   4
ENDBRANCH   1   3
BRANCH   2  13
ATOM     13  C   UNL     1       9.477  -1.523  17.397  1.00  0.00     0.027 C 
BRANCH  13  14
ATOM     14  C   UNL     1      10.074  -2.886  17.026  1.00  0.00     0.004 C 
BRANCH  14  15
ATOM     15  C   UNL     1       9.030  -3.827  16.412  1.00  0.00     0.000 C 
BRANCH  15  16
ATOM     16  C   UNL     1       8.468  -4.794  17.467  1.00  0.00     0.000 C 
BRANCH  16  17
ATOM     17  C   UNL     1       9.272  -6.099  17.566  1.00  0.00    -0.000 C 
BRANCH  17  18
ATOM     18  C   UNL     1       9.973  -6.263  18.927  1.00  0.00    -0.000 C 
BRANCH  18  19
ATOM     19  C   UNL     1       9.619  -5.134  19.907  1.00  0.00    -0.003 C 
ATOM     20  C   UNL     1      10.847  -4.362  20.390  1.00  0.00     0.004 C 
ENDBRANCH  18  19
ENDBRANCH  17  18
ENDBRANCH  16  17
ENDBRANCH  15  16
ENDBRANCH  14  15
ENDBRANCH  13  14
ENDBRANCH   2  13
TORSDOF 15
ENDMDL
MODEL 6
REMARK VINA RESULT:    -3.637      4.807      6.718
REMARK INTER + INTRA:          -8.308
REMARK INTER:                  -6.406
REMARK INTRA:                  -1.903
REMARK UNBOUND:                -1.482
REMARK SMILES CCCCCCCCC=CCCCCCCCC(=O)[O-]
REMARK SMILES IDX 10 1 9 2 11 3 12 4 13 5 14 6 15 7 16 8 17 9 18 10 19 11
REMARK SMILES IDX 20 12 8 13 7 14 6 15 5 16 4 17 3 18 2 19 1 20
REMARK H PARENT
REMARK Flexibility Score: inf
ROOT
ATOM      1  C   UNL     1       9.836  -2.602  21.110  1.00  0.00    -0.031 C 
ATOM      2  C   UNL     1       8.518  -2.603  20.840  1.00  0.00    -0.031 C 
ENDROOT
BRANCH   1   3
ATOM      3  C   UNL     1      10.706  -1.370  21.037  1.00  0.00     0.027 C 
BRANCH   3   4
ATOM      4  C   UNL     1      10.926  -0.771  22.432  1.00  0.00     0.004 C 
BRANCH   4   5
ATOM      5  C   UNL     1      10.648  -1.773  23.564  1.00  0.00     0.000 C 
BRANCH   5   6
ATOM      6  C   UNL     1       9.740  -1.189  24.659  1.00  0.00     0.000 C 
BRANCH   6   7
ATOM      7  C   UNL     1       8.262  -1.126  24.238  1.00  0.00     0.000 C 
BRANCH   7   8
ATOM      8  C   UNL     1       7.303  -1.781  25.257  1.00  0.00     0.006 C 
BRANCH   8   9
ATOM      9  C   UNL     1       8.058  -2.557  26.344  1.00  0.00     0.053 C 
BRANCH   9  10
ATOM     10  C   UNL     1       7.174  -3.589  26.970  1.00  0.00     0.041 C 
ATOM     11  O   UNL     1       7.375  -4.813  26.750  1.00  0.00    -0.550 OA
ATOM     12  O   UNL     1       6.150  -3.201  27.827  1.00  0.00    -0.550 OA
ENDBRANCH   9  10
ENDBRANCH   8   9
ENDBRANCH   7   8
ENDBRANCH   6   7
ENDBRANCH   5   6
ENDBRANCH   4   5
ENDBRANCH   3   4
ENDBRANCH   1   3
BRANCH   2  13
ATOM     13  C   UNL     1       7.732  -1.395  20.390  1.00  0.00     0.027 C 
BRANCH  13  14
ATOM     14  C   UNL     1       7.120  -1.613  19.000  1.00  0.00     0.004 C 
BRANCH  14  15
ATOM     15  C   UNL     1       7.034  -3.100  18.633  1.00  0.00     0.000 C 
BRANCH  15  16
ATOM     16  C   UNL     1       7.695  -3.373  17.272  1.00  0.00     0.000 C 
BRANCH  16  17
ATOM     17  C   UNL     1       8.693  -4.540  17.320  1.00  0.00    -0.000 C 
BRANCH  17  18
ATOM     18  C   UNL     1       8.205  -5.703  18.202  1.00  0.00    -0.000 C 
BRANCH  18  19
ATOM     19  C   UNL     1       9.363  -6.567  18.726  1.00  0.00    -0.003 C 
ATOM     20  C   UNL     1       9.888  -6.095  20.082  1.00  0.00     0.004 C 
ENDBRANCH  18  19
ENDBRANCH  17  18
ENDBRANCH  16  17
ENDBRANCH  15  16
ENDBRANCH  14  15
ENDBRANCH  13  14
ENDBRANCH   2  13
TORSDOF 15
ENDMDL
MODEL 7
REMARK VINA RESULT:    -3.611      2.553      4.361
REMARK INTER + INTRA:          -8.258
REMARK INTER:                  -5.329
REMARK INTRA:                  -2.929
REMARK UNBOUND:                -1.482
REMARK SMILES CCCCCCCCC=CCCCCCCCC(=O)[O-]
REMARK SMILES IDX 10 1 9 2 11 3 12 4 13 5 14 6 15 7 16 8 17 9 18 10 19 11
REMARK SMILES IDX 20 12 8 13 7 14 6 15 5 16 4 17 3 18 2 19 1 20
REMARK H PARENT
REMARK Flexibility Score: inf
ROOT
ATOM      1  C   UNL     1      10.803  -5.053  20.477  1.00  0.00    -0.031 C 
ATOM      2  C   UNL     1       9.929  -5.971  20.029  1.00  0.00    -0.031 C 
ENDROOT
BRANCH   1   3
ATOM      3  C   UNL     1      10.915  -3.656  19.915  1.00  0.00     0.027 C 
BRANCH   3   4
ATOM      4  C   UNL     1       9.881  -2.722  20.559  1.00  0.00     0.004 C 
BRANCH   4   5
ATOM      5  C   UNL     1       9.671  -1.424  19.763  1.00  0.00     0.000 C 
BRANCH   5   6
ATOM      6  C   UNL     1       8.202  -1.210  19.360  1.00  0.00     0.000 C 
BRANCH   6   7
ATOM      7  C   UNL     1       7.332  -2.456  19.596  1.00  0.00     0.000 C 
BRANCH   7   8
ATOM      8  C   UNL     1       6.321  -2.725  18.460  1.00  0.00     0.006 C 
BRANCH   8   9
ATOM      9  C   UNL     1       5.270  -1.612  18.348  1.00  0.00     0.053 C 
BRANCH   9  10
ATOM     10  C   UNL     1       5.249  -1.041  16.965  1.00  0.00     0.041 C 
ATOM     11  O   UNL     1       5.343   0.203  16.792  1.00  0.00    -0.550 OA
ATOM     12  O   UNL     1       5.166  -1.886  15.864  1.00  0.00    -0.550 OA
ENDBRANCH   9  10
ENDBRANCH   8   9
ENDBRANCH   7   8
ENDBRANCH   6   7
ENDBRANCH   5   6
ENDBRANCH   4   5
ENDBRANCH   3   4
ENDBRANCH   1   3
BRANCH   2  13
ATOM     13  C   UNL     1       8.968  -5.757  18.883  1.00  0.00     0.027 C 
BRANCH  13  14
ATOM     14  C   UNL     1       9.461  -6.446  17.605  1.00  0.00     0.004 C 
BRANCH  14  15
ATOM     15  C   UNL     1       9.324  -5.544  16.371  1.00  0.00     0.000 C 
BRANCH  15  16
ATOM     16  C   UNL     1       9.216  -4.065  16.777  1.00  0.00     0.000 C 
BRANCH  16  17
ATOM     17  C   UNL     1      10.445  -3.243  16.359  1.00  0.00    -0.000 C 
BRANCH  17  18
ATOM     18  C   UNL     1      10.090  -2.085  15.407  1.00  0.00    -0.000 C 
BRANCH  18  19
ATOM     19  C   UNL     1       8.715  -1.474  15.718  1.00  0.00    -0.003 C 
ATOM     20  C   UNL     1       8.775   0.036  15.943  1.00  0.00     0.004 C 
ENDBRANCH  18  19
ENDBRANCH  17  18
ENDBRANCH  16  17
ENDBRANCH  15  16
ENDBRANCH  14  15
ENDBRANCH  13  14
ENDBRANCH   2  13
TORSDOF 15
ENDMDL
MODEL 8
REMARK VINA RESULT:    -3.575      2.968      5.288
REMARK INTER + INTRA:          -8.191
REMARK INTER:                  -5.380
REMARK INTRA:                  -2.811
REMARK UNBOUND:                -1.482
REMARK SMILES CCCCCCCCC=CCCCCCCCC(=O)[O-]
REMARK SMILES IDX 10 1 9 2 11 3 12 4 13 5 14 6 15 7 16 8 17 9 18 10 19 11
REMARK SMILES IDX 20 12 8 13 7 14 6 15 5 16 4 17 3 18 2 19 1 20
REMARK H PARENT
REMARK Flexibility Score: inf
ROOT
ATOM      1  C   UNL     1       6.144  -2.742  18.907  1.00  0.00    -0.031 C 
ATOM      2  C   UNL     1       7.199  -2.670  19.738  1.00  0.00    -0.031 C 
ENDROOT
BRANCH   1   3
ATOM      3  C   UNL     1       5.722  -1.621  17.989  1.00  0.00     0.027 C 
BRANCH   3   4
ATOM      4  C   UNL     1       6.084  -1.940  16.532  1.00  0.00     0.004 C 
BRANCH   4   5
ATOM      5  C   UNL     1       6.821  -0.787  15.833  1.00  0.00     0.000 C 
BRANCH   5   6
ATOM      6  C   UNL     1       6.725   0.534  16.614  1.00  0.00     0.000 C 
BRANCH   6   7
ATOM      7  C   UNL     1       5.751   1.536  15.973  1.00  0.00     0.000 C 
BRANCH   7   8
ATOM      8  C   UNL     1       5.394   1.199  14.509  1.00  0.00     0.006 C 
BRANCH   8   9
ATOM      9  C   UNL     1       3.887   0.975  14.319  1.00  0.00     0.053 C 
BRANCH   9  10
ATOM     10  C   UNL     1       3.635  -0.199  13.427  1.00  0.00     0.041 C 
ATOM     11  O   UNL     1       2.463  -0.635  13.269  1.00  0.00    -0.550 OA
ATOM     12  O   UNL     1       4.689  -0.790  12.738  1.00  0.00    -0.550 OA
ENDBRANCH   9  10
ENDBRANCH   8   9
ENDBRANCH   7   8
ENDBRANCH   6   7
ENDBRANCH   5   6
ENDBRANCH   4   5
ENDBRANCH   3   4
ENDBRANCH   1   3
BRANCH   2  13
ATOM     13  C   UNL     1       8.083  -1.457  19.903  1.00  0.00     0.027 C 
BRANCH  13  14
ATOM     14  C   UNL     1       9.543  -1.778  19.561  1.00  0.00     0.004 C 
BRANCH  14  15
ATOM     15  C   UNL     1       9.937  -1.270  18.168  1.00  0.00     0.000 C 
BRANCH  15  16
ATOM     16  C   UNL     1       9.687  -2.344  17.096  1.00  0.00     0.000 C 
BRANCH  16  17
ATOM     17  C   UNL     1       9.991  -3.764  17.596  1.00  0.00    -0.000 C 
BRANCH  17  18
ATOM     18  C   UNL     1       8.944  -4.794  17.134  1.00  0.00    -0.000 C 
BRANCH  18  19
ATOM     19  C   UNL     1       8.471  -5.703  18.279  1.00  0.00    -0.003 C 
ATOM     20  C   UNL     1       9.479  -5.785  19.425  1.00  0.00     0.004 C 
ENDBRANCH  18  19
ENDBRANCH  17  18
ENDBRANCH  16  17
ENDBRANCH  15  16
ENDBRANCH  14  15
ENDBRANCH  13  14
ENDBRANCH   2  13
TORSDOF 15
ENDMDL
MODEL 9
REMARK VINA RESULT:    -3.562      3.659      5.767
REMARK INTER + INTRA:          -8.167
REMARK INTER:                  -6.014
REMARK INTRA:                  -2.153
REMARK UNBOUND:                -1.482
REMARK SMILES CCCCCCCCC=CCCCCCCCC(=O)[O-]
REMARK SMILES IDX 10 1 9 2 11 3 12 4 13 5 14 6 15 7 16 8 17 9 18 10 19 11
REMARK SMILES IDX 20 12 8 13 7 14 6 15 5 16 4 17 3 18 2 19 1 20
REMARK H PARENT
REMARK Flexibility Score: inf
ROOT
ATOM      1  C   UNL     1       6.617  -2.351  19.543  1.00  0.00    -0.031 C 
ATOM      2  C   UNL     1       6.710  -3.133  18.453  1.00  0.00    -0.031 C 
ENDROOT
BRANCH   1   3
ATOM      3  C   UNL     1       7.127  -0.931  19.602  1.00  0.00     0.027 C 
BRANCH   3   4
ATOM      4  C   UNL     1       8.183  -0.772  20.704  1.00  0.00     0.004 C 
BRANCH   4   5
ATOM      5  C   UNL     1       8.616  -2.114  21.315  1.00  0.00     0.000 C 
BRANCH   5   6
ATOM      6  C   UNL     1      10.140  -2.220  21.488  1.00  0.00     0.000 C 
BRANCH   6   7
ATOM      7  C   UNL     1      10.572  -2.247  22.963  1.00  0.00     0.000 C 
BRANCH   7   8
ATOM      8  C   UNL     1      10.894  -0.849  23.537  1.00  0.00     0.006 C 
BRANCH   8   9
ATOM      9  C   UNL     1      10.236  -0.621  24.905  1.00  0.00     0.053 C 
BRANCH   9  10
ATOM     10  C   UNL     1       8.777  -0.951  24.852  1.00  0.00     0.041 C 
ATOM     11  O   UNL     1       7.982  -0.207  24.219  1.00  0.00    -0.550 OA
ATOM     12  O   UNL     1       8.301  -2.101  25.471  1.00  0.00    -0.550 OA
ENDBRANCH   9  10
ENDBRANCH   8   9
ENDBRANCH   7   8
ENDBRANCH   6   7
ENDBRANCH   5   6
ENDBRANCH   4   5
ENDBRANCH   3   4
ENDBRANCH   1   3
BRANCH   2  13
ATOM     13  C   UNL     1       7.366  -2.726  17.155  1.00  0.00     0.027 C 
BRANCH  13  14
ATOM     14  C   UNL     1       8.653  -3.521  16.906  1.00  0.00     0.004 C 
BRANCH  14  15
ATOM     15  C   UNL     1       9.721  -3.243  17.971  1.00  0.00     0.000 C 
BRANCH  15  16
ATOM     16  C   UNL     1      10.342  -4.551  18.487  1.00  0.00     0.000 C 
BRANCH  16  17
ATOM     17  C   UNL     1       9.293  -5.524  19.050  1.00  0.00    -0.000 C 
BRANCH  17  18
ATOM     18  C   UNL     1       9.321  -6.896  18.352  1.00  0.00    -0.000 C 
BRANCH  18  19
ATOM     19  C   UNL     1       8.104  -7.112  17.440  1.00  0.00    -0.003 C 
ATOM     20  C   UNL     1       7.828  -8.589  17.160  1.00  0.00     0.004 C 
ENDBRANCH  18  19
ENDBRANCH  17  18
ENDBRANCH  16  17
ENDBRANCH  15  16
ENDBRANCH  14  15
ENDBRANCH  13  14
ENDBRANCH   2  13
TORSDOF 15
ENDMDL
