MODEL 1
REMARK VINA RESULT:    -4.230      0.000      0.000
REMARK INTER + INTRA:          -4.897
REMARK INTER:                  -4.848
REMARK INTRA:                  -0.049
REMARK UNBOUND:                -0.049
REMARK SMILES O=C([O-])c1cc(O)c(O)c(O)c1
REMARK SMILES IDX 4 1 5 2 12 3 6 4 10 5 8 6 2 7 1 8 3 9 7 10 11 12 9 14
REMARK H PARENT 7 11 11 13 9 15
REMARK Flexibility Score: inf
ROOT
ATOM      1  C   UNL     1      69.950  37.507  19.975  1.00  0.00     0.005 A 
ATOM      2  C   UNL     1      69.068  36.566  19.422  1.00  0.00     0.060 A 
ATOM      3  C   UNL     1      69.425  38.674  20.551  1.00  0.00     0.060 A 
ATOM      4  C   UNL     1      67.687  36.782  19.442  1.00  0.00     0.162 A 
ATOM      5  C   UNL     1      68.044  38.907  20.581  1.00  0.00     0.162 A 
ATOM      6  C   UNL     1      67.161  37.952  20.021  1.00  0.00     0.200 A 
ENDROOT
BRANCH   1   7
ATOM      7  C   UNL     1      71.411  37.277  19.952  1.00  0.00     0.072 C 
ATOM      8  O   UNL     1      72.128  37.606  20.935  1.00  0.00    -0.545 OA
ATOM      9  O   UNL     1      72.016  36.696  18.842  1.00  0.00    -0.545 OA
ENDBRANCH   1   7
BRANCH   4  10
ATOM     10  O   UNL     1      66.850  35.818  18.881  1.00  0.00    -0.504 OA
ATOM     11  H   UNL     1      66.822  34.863  19.217  1.00  0.00     0.293 HD
ENDBRANCH   4  10
BRANCH   5  12
ATOM     12  O   UNL     1      67.599  40.091  21.172  1.00  0.00    -0.504 OA
ATOM     13  H   UNL     1      68.142  40.640  21.821  1.00  0.00     0.293 HD
ENDBRANCH   5  12
BRANCH   6  14
ATOM     14  O   UNL     1      65.775  38.129  20.020  1.00  0.00    -0.502 OA
ATOM     15  H   UNL     1      65.177  37.925  19.234  1.00  0.00     0.293 HD
ENDBRANCH   6  14
TORSDOF 4
ENDMDL
MODEL 2
REMARK VINA RESULT:    -4.222      0.056      2.445
REMARK INTER + INTRA:          -4.888
REMARK INTER:                  -4.839
REMARK INTRA:                  -0.050
REMARK UNBOUND:                -0.049
REMARK SMILES O=C([O-])c1cc(O)c(O)c(O)c1
REMARK SMILES IDX 4 1 5 2 12 3 6 4 10 5 8 6 2 7 1 8 3 9 7 10 11 12 9 14
REMARK H PARENT 7 11 11 13 9 15
REMARK Flexibility Score: inf
ROOT
ATOM      1  C   UNL     1      69.937  37.505  19.978  1.00  0.00     0.005 A 
ATOM      2  C   UNL     1      69.395  38.672  20.537  1.00  0.00     0.060 A 
ATOM      3  C   UNL     1      69.070  36.551  19.423  1.00  0.00     0.060 A 
ATOM      4  C   UNL     1      68.014  38.887  20.544  1.00  0.00     0.162 A 
ATOM      5  C   UNL     1      67.683  36.750  19.421  1.00  0.00     0.162 A 
ATOM      6  C   UNL     1      67.144  37.931  19.987  1.00  0.00     0.200 A 
ENDROOT
BRANCH   1   7
ATOM      7  C   UNL     1      71.399  37.279  19.972  1.00  0.00     0.072 C 
ATOM      8  O   UNL     1      72.110  37.660  20.940  1.00  0.00    -0.545 OA
ATOM      9  O   UNL     1      72.010  36.643  18.897  1.00  0.00    -0.545 OA
ENDBRANCH   1   7
BRANCH   4  10
ATOM     10  O   UNL     1      67.521  40.063  21.110  1.00  0.00    -0.504 OA
ATOM     11  H   UNL     1      67.427  40.921  20.581  1.00  0.00     0.293 HD
ENDBRANCH   4  10
BRANCH   5  12
ATOM     12  O   UNL     1      66.887  35.755  18.850  1.00  0.00    -0.504 OA
ATOM     13  H   UNL     1      66.355  35.872  18.000  1.00  0.00     0.293 HD
ENDBRANCH   5  12
BRANCH   6  14
ATOM     14  O   UNL     1      65.771  38.185  20.014  1.00  0.00    -0.502 OA
ATOM     15  H   UNL     1      65.301  38.687  20.752  1.00  0.00     0.293 HD
ENDBRANCH   6  14
TORSDOF 4
ENDMDL
MODEL 3
REMARK VINA RESULT:    -4.048      2.734      4.188
REMARK INTER + INTRA:          -4.689
REMARK INTER:                  -4.643
REMARK INTRA:                  -0.046
REMARK UNBOUND:                -0.049
REMARK SMILES O=C([O-])c1cc(O)c(O)c(O)c1
REMARK SMILES IDX 4 1 5 2 12 3 6 4 10 5 8 6 2 7 1 8 3 9 7 10 11 12 9 14
REMARK H PARENT 7 11 11 13 9 15
REMARK Flexibility Score: inf
ROOT
ATOM      1  C   UNL     1      71.920  37.610  20.086  1.00  0.00     0.005 A 
ATOM      2  C   UNL     1      70.679  38.264  20.128  1.00  0.00     0.060 A 
ATOM      3  C   UNL     1      72.898  37.944  21.034  1.00  0.00     0.060 A 
ATOM      4  C   UNL     1      70.416  39.234  21.100  1.00  0.00     0.162 A 
ATOM      5  C   UNL     1      72.651  38.914  22.015  1.00  0.00     0.162 A 
ATOM      6  C   UNL     1      71.396  39.569  22.051  1.00  0.00     0.200 A 
ENDROOT
BRANCH   1   7
ATOM      7  C   UNL     1      72.197  36.584  19.056  1.00  0.00     0.072 C 
ATOM      8  O   UNL     1      73.062  36.788  18.163  1.00  0.00    -0.545 OA
ATOM      9  O   UNL     1      71.504  35.377  19.059  1.00  0.00    -0.545 OA
ENDBRANCH   1   7
BRANCH   4  10
ATOM     10  O   UNL     1      69.168  39.857  21.103  1.00  0.00    -0.504 OA
ATOM     11  H   UNL     1      69.018  40.772  20.697  1.00  0.00     0.293 HD
ENDBRANCH   4  10
BRANCH   5  12
ATOM     12  O   UNL     1      73.674  39.191  22.924  1.00  0.00    -0.504 OA
ATOM     13  H   UNL     1      73.946  38.576  23.678  1.00  0.00     0.293 HD
ENDBRANCH   5  12
BRANCH   6  14
ATOM     14  O   UNL     1      71.093  40.544  23.005  1.00  0.00    -0.502 OA
ATOM     15  H   UNL     1      70.162  40.737  23.343  1.00  0.00     0.293 HD
ENDBRANCH   6  14
TORSDOF 4
ENDMDL
MODEL 4
REMARK VINA RESULT:    -4.037      2.423      4.856
REMARK INTER + INTRA:          -4.677
REMARK INTER:                  -4.630
REMARK INTRA:                  -0.046
REMARK UNBOUND:                -0.049
REMARK SMILES O=C([O-])c1cc(O)c(O)c(O)c1
REMARK SMILES IDX 4 1 5 2 12 3 6 4 10 5 8 6 2 7 1 8 3 9 7 10 11 12 9 14
REMARK H PARENT 7 11 11 13 9 15
REMARK Flexibility Score: inf
ROOT
ATOM      1  C   UNL     1      71.002  38.084  20.151  1.00  0.00     0.005 A 
ATOM      2  C   UNL     1      72.327  37.628  20.208  1.00  0.00     0.060 A 
ATOM      3  C   UNL     1      70.567  39.031  21.092  1.00  0.00     0.060 A 
ATOM      4  C   UNL     1      73.206  38.105  21.185  1.00  0.00     0.162 A 
ATOM      5  C   UNL     1      71.434  39.520  22.077  1.00  0.00     0.162 A 
ATOM      6  C   UNL     1      72.771  39.054  22.128  1.00  0.00     0.200 A 
ENDROOT
BRANCH   1   7
ATOM      7  C   UNL     1      70.073  37.577  19.118  1.00  0.00     0.072 C 
ATOM      8  O   UNL     1      70.324  37.741  17.894  1.00  0.00    -0.545 OA
ATOM      9  O   UNL     1      68.906  36.913  19.483  1.00  0.00    -0.545 OA
ENDBRANCH   1   7
BRANCH   4  10
ATOM     10  O   UNL     1      74.515  37.623  21.202  1.00  0.00    -0.504 OA
ATOM     11  H   UNL     1      74.949  37.264  22.044  1.00  0.00     0.293 HD
ENDBRANCH   4  10
BRANCH   5  12
ATOM     12  O   UNL     1      70.928  40.461  22.977  1.00  0.00    -0.504 OA
ATOM     13  H   UNL     1      69.945  40.646  23.110  1.00  0.00     0.293 HD
ENDBRANCH   5  12
BRANCH   6  14
ATOM     14  O   UNL     1      73.681  39.506  23.087  1.00  0.00    -0.502 OA
ATOM     15  H   UNL     1      74.634  39.182  23.162  1.00  0.00     0.293 HD
ENDBRANCH   6  14
TORSDOF 4
ENDMDL
MODEL 5
REMARK VINA RESULT:    -3.987      2.965      4.583
REMARK INTER + INTRA:          -4.619
REMARK INTER:                  -4.572
REMARK INTRA:                  -0.047
REMARK UNBOUND:                -0.049
REMARK SMILES O=C([O-])c1cc(O)c(O)c(O)c1
REMARK SMILES IDX 4 1 5 2 12 3 6 4 10 5 8 6 2 7 1 8 3 9 7 10 11 12 9 14
REMARK H PARENT 7 11 11 13 9 15
REMARK Flexibility Score: inf
ROOT
ATOM      1  C   UNL     1      72.702  38.227  19.739  1.00  0.00     0.005 A 
ATOM      2  C   UNL     1      73.447  38.520  20.891  1.00  0.00     0.060 A 
ATOM      3  C   UNL     1      71.329  38.517  19.724  1.00  0.00     0.060 A 
ATOM      4  C   UNL     1      72.836  39.094  22.010  1.00  0.00     0.162 A 
ATOM      5  C   UNL     1      70.701  39.092  20.836  1.00  0.00     0.162 A 
ATOM      6  C   UNL     1      71.460  39.386  21.995  1.00  0.00     0.200 A 
ENDROOT
BRANCH   1   7
ATOM      7  C   UNL     1      73.350  37.619  18.556  1.00  0.00     0.072 C 
ATOM      8  O   UNL     1      72.874  36.578  18.028  1.00  0.00    -0.545 OA
ATOM      9  O   UNL     1      74.496  38.187  18.010  1.00  0.00    -0.545 OA
ENDBRANCH   1   7
BRANCH   4  10
ATOM     10  O   UNL     1      73.617  39.369  23.132  1.00  0.00    -0.504 OA
ATOM     11  H   UNL     1      73.212  39.566  24.039  1.00  0.00     0.293 HD
ENDBRANCH   4  10
BRANCH   5  12
ATOM     12  O   UNL     1      69.332  39.352  20.744  1.00  0.00    -0.504 OA
ATOM     13  H   UNL     1      68.655  39.083  21.443  1.00  0.00     0.293 HD
ENDBRANCH   5  12
BRANCH   6  14
ATOM     14  O   UNL     1      70.889  39.959  23.134  1.00  0.00    -0.502 OA
ATOM     15  H   UNL     1      70.573  39.435  23.936  1.00  0.00     0.293 HD
ENDBRANCH   6  14
TORSDOF 4
ENDMDL
MODEL 6
REMARK VINA RESULT:    -3.951      3.991      5.367
REMARK INTER + INTRA:          -4.578
REMARK INTER:                  -4.533
REMARK INTRA:                  -0.045
REMARK UNBOUND:                -0.049
REMARK SMILES O=C([O-])c1cc(O)c(O)c(O)c1
REMARK SMILES IDX 4 1 5 2 12 3 6 4 10 5 8 6 2 7 1 8 3 9 7 10 11 12 9 14
REMARK H PARENT 7 11 11 13 9 15
REMARK Flexibility Score: inf
ROOT
ATOM      1  C   UNL     1      74.184  39.162  19.608  1.00  0.00     0.005 A 
ATOM      2  C   UNL     1      72.812  39.323  19.363  1.00  0.00     0.060 A 
ATOM      3  C   UNL     1      74.650  39.221  20.930  1.00  0.00     0.060 A 
ATOM      4  C   UNL     1      71.918  39.538  20.417  1.00  0.00     0.162 A 
ATOM      5  C   UNL     1      73.770  39.436  21.997  1.00  0.00     0.162 A 
ATOM      6  C   UNL     1      72.386  39.597  21.742  1.00  0.00     0.200 A 
ENDROOT
BRANCH   1   7
ATOM      7  C   UNL     1      75.128  38.935  18.491  1.00  0.00     0.072 C 
ATOM      8  O   UNL     1      75.873  39.865  18.083  1.00  0.00    -0.545 OA
ATOM      9  O   UNL     1      75.205  37.691  17.875  1.00  0.00    -0.545 OA
ENDBRANCH   1   7
BRANCH   4  10
ATOM     10  O   UNL     1      70.563  39.691  20.125  1.00  0.00    -0.504 OA
ATOM     11  H   UNL     1      70.086  40.579  20.218  1.00  0.00     0.293 HD
ENDBRANCH   4  10
BRANCH   5  12
ATOM     12  O   UNL     1      74.310  39.481  23.285  1.00  0.00    -0.504 OA
ATOM     13  H   UNL     1      73.804  39.788  24.102  1.00  0.00     0.293 HD
ENDBRANCH   5  12
BRANCH   6  14
ATOM     14  O   UNL     1      71.460  39.813  22.766  1.00  0.00    -0.502 OA
ATOM     15  H   UNL     1      70.459  39.785  22.641  1.00  0.00     0.293 HD
ENDBRANCH   6  14
TORSDOF 4
ENDMDL
MODEL 7
REMARK VINA RESULT:    -3.949      2.423      5.637
REMARK INTER + INTRA:          -4.575
REMARK INTER:                  -4.523
REMARK INTRA:                  -0.052
REMARK UNBOUND:                -0.049
REMARK SMILES O=C([O-])c1cc(O)c(O)c(O)c1
REMARK SMILES IDX 4 1 5 2 12 3 6 4 10 5 8 6 2 7 1 8 3 9 7 10 11 12 9 14
REMARK H PARENT 7 11 11 13 9 15
REMARK Flexibility Score: inf
ROOT
ATOM      1  C   UNL     1      70.700  39.126  20.912  1.00  0.00     0.005 A 
ATOM      2  C   UNL     1      71.527  39.468  21.992  1.00  0.00     0.060 A 
ATOM      3  C   UNL     1      71.237  38.374  19.856  1.00  0.00     0.060 A 
ATOM      4  C   UNL     1      72.866  39.068  22.022  1.00  0.00     0.162 A 
ATOM      5  C   UNL     1      72.576  37.964  19.870  1.00  0.00     0.162 A 
ATOM      6  C   UNL     1      73.404  38.313  20.964  1.00  0.00     0.200 A 
ENDROOT
BRANCH   1   7
ATOM      7  C   UNL     1      69.283  39.551  20.882  1.00  0.00     0.072 C 
ATOM      8  O   UNL     1      68.714  39.962  21.928  1.00  0.00    -0.545 OA
ATOM      9  O   UNL     1      68.557  39.501  19.696  1.00  0.00    -0.545 OA
ENDBRANCH   1   7
BRANCH   4  10
ATOM     10  O   UNL     1      73.649  39.431  23.118  1.00  0.00    -0.504 OA
ATOM     11  H   UNL     1      73.259  39.879  23.938  1.00  0.00     0.293 HD
ENDBRANCH   4  10
BRANCH   5  12
ATOM     12  O   UNL     1      73.036  37.217  18.783  1.00  0.00    -0.504 OA
ATOM     13  H   UNL     1      72.994  36.211  18.727  1.00  0.00     0.293 HD
ENDBRANCH   5  12
BRANCH   6  14
ATOM     14  O   UNL     1      74.747  37.934  21.033  1.00  0.00    -0.502 OA
ATOM     15  H   UNL     1      75.514  38.578  21.154  1.00  0.00     0.293 HD
ENDBRANCH   6  14
TORSDOF 4
ENDMDL
MODEL 8
REMARK VINA RESULT:    -3.849      3.855      6.228
REMARK INTER + INTRA:          -4.460
REMARK INTER:                  -4.409
REMARK INTRA:                  -0.052
REMARK UNBOUND:                -0.049
REMARK SMILES O=C([O-])c1cc(O)c(O)c(O)c1
REMARK SMILES IDX 4 1 5 2 12 3 6 4 10 5 8 6 2 7 1 8 3 9 7 10 11 12 9 14
REMARK H PARENT 7 11 11 13 9 15
REMARK Flexibility Score: inf
ROOT
ATOM      1  C   UNL     1      72.973  37.818  19.861  1.00  0.00     0.005 A 
ATOM      2  C   UNL     1      72.910  38.125  21.229  1.00  0.00     0.060 A 
ATOM      3  C   UNL     1      73.859  38.535  19.043  1.00  0.00     0.060 A 
ATOM      4  C   UNL     1      73.717  39.128  21.774  1.00  0.00     0.162 A 
ATOM      5  C   UNL     1      74.674  39.543  19.572  1.00  0.00     0.162 A 
ATOM      6  C   UNL     1      74.606  39.847  20.954  1.00  0.00     0.200 A 
ENDROOT
BRANCH   1   7
ATOM      7  C   UNL     1      72.118  36.756  19.286  1.00  0.00     0.072 C 
ATOM      8  O   UNL     1      72.413  36.221  18.184  1.00  0.00    -0.545 OA
ATOM      9  O   UNL     1      70.973  36.333  19.954  1.00  0.00    -0.545 OA
ENDBRANCH   1   7
BRANCH   4  10
ATOM     10  O   UNL     1      73.620  39.397  23.139  1.00  0.00    -0.504 OA
ATOM     11  H   UNL     1      74.089  38.832  23.837  1.00  0.00     0.293 HD
ENDBRANCH   4  10
BRANCH   5  12
ATOM     12  O   UNL     1      75.531  40.212  18.694  1.00  0.00    -0.504 OA
ATOM     13  H   UNL     1      75.682  39.941  17.734  1.00  0.00     0.293 HD
ENDBRANCH   5  12
BRANCH   6  14
ATOM     14  O   UNL     1      75.394  40.841  21.538  1.00  0.00    -0.502 OA
ATOM     15  H   UNL     1      76.247  40.664  22.046  1.00  0.00     0.293 HD
ENDBRANCH   6  14
TORSDOF 4
ENDMDL
MODEL 9
REMARK VINA RESULT:    -3.830      2.295      5.192
REMARK INTER + INTRA:          -4.439
REMARK INTER:                  -4.389
REMARK INTRA:                  -0.051
REMARK UNBOUND:                -0.049
REMARK SMILES O=C([O-])c1cc(O)c(O)c(O)c1
REMARK SMILES IDX 4 1 5 2 12 3 6 4 10 5 8 6 2 7 1 8 3 9 7 10 11 12 9 14
REMARK H PARENT 7 11 11 13 9 15
REMARK Flexibility Score: inf
ROOT
ATOM      1  C   UNL     1      70.694  39.116  20.936  1.00  0.00     0.005 A 
ATOM      2  C   UNL     1      71.242  38.375  19.878  1.00  0.00     0.060 A 
ATOM      3  C   UNL     1      71.515  39.465  22.019  1.00  0.00     0.060 A 
ATOM      4  C   UNL     1      72.586  37.989  19.897  1.00  0.00     0.162 A 
ATOM      5  C   UNL     1      72.863  39.087  22.055  1.00  0.00     0.162 A 
ATOM      6  C   UNL     1      73.409  38.340  20.983  1.00  0.00     0.200 A 
ENDROOT
BRANCH   1   7
ATOM      7  C   UNL     1      69.272  39.522  20.915  1.00  0.00     0.072 C 
ATOM      8  O   UNL     1      68.898  40.581  21.488  1.00  0.00    -0.545 OA
ATOM      9  O   UNL     1      68.324  38.740  20.263  1.00  0.00    -0.545 OA
ENDBRANCH   1   7
BRANCH   4  10
ATOM     10  O   UNL     1      73.087  37.255  18.823  1.00  0.00    -0.504 OA
ATOM     11  H   UNL     1      73.878  36.629  18.916  1.00  0.00     0.293 HD
ENDBRANCH   4  10
BRANCH   5  12
ATOM     12  O   UNL     1      73.615  39.473  23.166  1.00  0.00    -0.504 OA
ATOM     13  H   UNL     1      74.364  38.925  23.563  1.00  0.00     0.293 HD
ENDBRANCH   5  12
BRANCH   6  14
ATOM     14  O   UNL     1      74.746  37.935  20.962  1.00  0.00    -0.502 OA
ATOM     15  H   UNL     1      75.525  38.554  20.793  1.00  0.00     0.293 HD
ENDBRANCH   6  14
TORSDOF 4
ENDMDL
