MODEL 1
REMARK VINA RESULT:    -4.665      0.000      0.000
REMARK INTER + INTRA:         -12.575
REMARK INTER:                 -10.120
REMARK INTRA:                  -2.455
REMARK UNBOUND:                -2.455
REMARK SMILES CCCCCCCCCCCCCCCCCCCCCC(=O)[O-]
REMARK SMILES IDX 12 1 11 2 10 3 9 4 8 5 7 6 6 7 5 8 4 9 3 10 2 11 1 12 13 13
REMARK SMILES IDX 14 14 15 15 16 16 17 17 18 18 19 19 20 20 21 21 22 22 23 23
REMARK SMILES IDX 24 24
REMARK H PARENT
REMARK Flexibility Score: inf
ROOT
ATOM      1  C   UNL     1      56.752  -1.910  15.075  1.00  0.00     0.000 C 
ENDROOT
BRANCH   1   2
ATOM      2  C   UNL     1      56.220  -2.978  14.096  1.00  0.00     0.000 C 
BRANCH   2   3
ATOM      3  C   UNL     1      54.728  -2.819  13.743  1.00  0.00     0.000 C 
BRANCH   3   4
ATOM      4  C   UNL     1      54.354  -3.192  12.299  1.00  0.00    -0.000 C 
BRANCH   4   5
ATOM      5  C   UNL     1      53.144  -4.141  12.224  1.00  0.00    -0.000 C 
BRANCH   5   6
ATOM      6  C   UNL     1      52.709  -4.434  10.778  1.00  0.00    -0.000 C 
BRANCH   6   7
ATOM      7  C   UNL     1      53.586  -3.709   9.741  1.00  0.00    -0.000 C 
BRANCH   7   8
ATOM      8  C   UNL     1      52.849  -2.558   9.033  1.00  0.00    -0.000 C 
BRANCH   8   9
ATOM      9  C   UNL     1      51.727  -1.896   9.855  1.00  0.00    -0.000 C 
BRANCH   9  10
ATOM     10  C   UNL     1      52.142  -0.542  10.454  1.00  0.00    -0.000 C 
BRANCH  10  11
ATOM     11  C   UNL     1      51.982  -0.498  11.981  1.00  0.00    -0.003 C 
ATOM     12  C   UNL     1      52.167   0.907  12.553  1.00  0.00     0.004 C 
ENDBRANCH  10  11
ENDBRANCH   9  10
ENDBRANCH   8   9
ENDBRANCH   7   8
ENDBRANCH   6   7
ENDBRANCH   5   6
ENDBRANCH   4   5
ENDBRANCH   3   4
ENDBRANCH   2   3
ENDBRANCH   1   2
BRANCH   1  13
ATOM     13  C   UNL     1      56.211  -0.502  14.763  1.00  0.00     0.000 C 
BRANCH  13  14
ATOM     14  C   UNL     1      55.439   0.113  15.942  1.00  0.00     0.000 C 
BRANCH  14  15
ATOM     15  C   UNL     1      54.996  -0.935  16.974  1.00  0.00     0.000 C 
BRANCH  15  16
ATOM     16  C   UNL     1      55.678  -0.688  18.328  1.00  0.00     0.000 C 
BRANCH  16  17
ATOM     17  C   UNL     1      56.619   0.527  18.307  1.00  0.00     0.000 C 
BRANCH  17  18
ATOM     18  C   UNL     1      58.100   0.133  18.436  1.00  0.00     0.000 C 
BRANCH  18  19
ATOM     19  C   UNL     1      58.298  -1.386  18.566  1.00  0.00     0.000 C 
BRANCH  19  20
ATOM     20  C   UNL     1      59.008  -1.781  19.871  1.00  0.00     0.006 C 
BRANCH  20  21
ATOM     21  C   UNL     1      58.023  -1.945  21.037  1.00  0.00     0.053 C 
BRANCH  21  22
ATOM     22  C   UNL     1      57.156  -3.155  20.864  1.00  0.00     0.041 C 
ATOM     23  O   UNL     1      55.902  -3.039  20.837  1.00  0.00    -0.550 OA
ATOM     24  O   UNL     1      57.731  -4.417  20.773  1.00  0.00    -0.550 OA
ENDBRANCH  21  22
ENDBRANCH  20  21
ENDBRANCH  19  20
ENDBRANCH  18  19
ENDBRANCH  17  18
ENDBRANCH  16  17
ENDBRANCH  15  16
ENDBRANCH  14  15
ENDBRANCH  13  14
ENDBRANCH   1  13
TORSDOF 20
ENDMDL
MODEL 2
REMARK VINA RESULT:    -4.660      4.232     10.363
REMARK INTER + INTRA:         -12.563
REMARK INTER:                 -11.117
REMARK INTRA:                  -1.447
REMARK UNBOUND:                -2.455
REMARK SMILES CCCCCCCCCCCCCCCCCCCCCC(=O)[O-]
REMARK SMILES IDX 12 1 11 2 10 3 9 4 8 5 7 6 6 7 5 8 4 9 3 10 2 11 1 12 13 13
REMARK SMILES IDX 14 14 15 15 16 16 17 17 18 18 19 19 20 20 21 21 22 22 23 23
REMARK SMILES IDX 24 24
REMARK H PARENT
REMARK Flexibility Score: inf
ROOT
ATOM      1  C   UNL     1      56.696  -2.380  14.770  1.00  0.00     0.000 C 
ENDROOT
BRANCH   1   2
ATOM      2  C   UNL     1      57.661  -1.197  14.993  1.00  0.00     0.000 C 
BRANCH   2   3
ATOM      3  C   UNL     1      57.251  -0.263  16.149  1.00  0.00     0.000 C 
BRANCH   3   4
ATOM      4  C   UNL     1      56.293  -0.880  17.182  1.00  0.00    -0.000 C 
BRANCH   4   5
ATOM      5  C   UNL     1      56.834  -0.793  18.620  1.00  0.00    -0.000 C 
BRANCH   5   6
ATOM      6  C   UNL     1      58.359  -0.982  18.693  1.00  0.00    -0.000 C 
BRANCH   6   7
ATOM      7  C   UNL     1      58.758  -2.431  19.019  1.00  0.00    -0.000 C 
BRANCH   7   8
ATOM      8  C   UNL     1      58.123  -2.949  20.323  1.00  0.00    -0.000 C 
BRANCH   8   9
ATOM      9  C   UNL     1      58.815  -4.176  20.945  1.00  0.00    -0.000 C 
BRANCH   9  10
ATOM     10  C   UNL     1      59.493  -3.863  22.290  1.00  0.00    -0.000 C 
BRANCH  10  11
ATOM     11  C   UNL     1      60.996  -3.578  22.140  1.00  0.00    -0.003 C 
ATOM     12  C   UNL     1      61.583  -4.170  20.859  1.00  0.00     0.004 C 
ENDBRANCH  10  11
ENDBRANCH   9  10
ENDBRANCH   8   9
ENDBRANCH   7   8
ENDBRANCH   6   7
ENDBRANCH   5   6
ENDBRANCH   4   5
ENDBRANCH   3   4
ENDBRANCH   2   3
ENDBRANCH   1   2
BRANCH   1  13
ATOM     13  C   UNL     1      55.447  -1.982  13.962  1.00  0.00     0.000 C 
BRANCH  13  14
ATOM     14  C   UNL     1      54.672  -3.197  13.429  1.00  0.00     0.000 C 
BRANCH  14  15
ATOM     15  C   UNL     1      53.511  -2.803  12.503  1.00  0.00     0.000 C 
BRANCH  15  16
ATOM     16  C   UNL     1      52.261  -3.640  12.811  1.00  0.00     0.000 C 
BRANCH  16  17
ATOM     17  C   UNL     1      51.561  -4.154  11.543  1.00  0.00     0.000 C 
BRANCH  17  18
ATOM     18  C   UNL     1      52.537  -4.815  10.554  1.00  0.00     0.000 C 
BRANCH  18  19
ATOM     19  C   UNL     1      52.129  -4.598   9.087  1.00  0.00     0.000 C 
BRANCH  19  20
ATOM     20  C   UNL     1      53.210  -3.867   8.275  1.00  0.00     0.006 C 
BRANCH  20  21
ATOM     21  C   UNL     1      54.605  -4.022   8.898  1.00  0.00     0.053 C 
BRANCH  21  22
ATOM     22  C   UNL     1      55.638  -4.361   7.866  1.00  0.00     0.041 C 
ATOM     23  O   UNL     1      55.349  -4.318   6.641  1.00  0.00    -0.550 OA
ATOM     24  O   UNL     1      56.909  -4.763   8.258  1.00  0.00    -0.550 OA
ENDBRANCH  21  22
ENDBRANCH  20  21
ENDBRANCH  19  20
ENDBRANCH  18  19
ENDBRANCH  17  18
ENDBRANCH  16  17
ENDBRANCH  15  16
ENDBRANCH  14  15
ENDBRANCH  13  14
ENDBRANCH   1  13
TORSDOF 20
ENDMDL
MODEL 3
REMARK VINA RESULT:    -4.657      3.143      5.223
REMARK INTER + INTRA:         -12.557
REMARK INTER:                  -9.361
REMARK INTRA:                  -3.196
REMARK UNBOUND:                -2.455
REMARK SMILES CCCCCCCCCCCCCCCCCCCCCC(=O)[O-]
REMARK SMILES IDX 12 1 11 2 10 3 9 4 8 5 7 6 6 7 5 8 4 9 3 10 2 11 1 12 13 13
REMARK SMILES IDX 14 14 15 15 16 16 17 17 18 18 19 19 20 20 21 21 22 22 23 23
REMARK SMILES IDX 24 24
REMARK H PARENT
REMARK Flexibility Score: inf
ROOT
ATOM      1  C   UNL     1      54.523  -3.146  12.900  1.00  0.00     0.000 C 
ENDROOT
BRANCH   1   2
ATOM      2  C   UNL     1      53.028  -3.518  12.808  1.00  0.00     0.000 C 
BRANCH   2   3
ATOM      3  C   UNL     1      52.123  -2.368  12.325  1.00  0.00     0.000 C 
BRANCH   3   4
ATOM      4  C   UNL     1      52.779  -0.977  12.320  1.00  0.00    -0.000 C 
BRANCH   4   5
ATOM      5  C   UNL     1      52.039   0.026  11.417  1.00  0.00    -0.000 C 
BRANCH   5   6
ATOM      6  C   UNL     1      52.533  -0.011   9.961  1.00  0.00    -0.000 C 
BRANCH   6   7
ATOM      7  C   UNL     1      51.595  -0.811   9.041  1.00  0.00    -0.000 C 
BRANCH   7   8
ATOM      8  C   UNL     1      52.282  -2.032   8.401  1.00  0.00    -0.000 C 
BRANCH   8   9
ATOM      9  C   UNL     1      51.675  -3.397   8.779  1.00  0.00    -0.000 C 
BRANCH   9  10
ATOM     10  C   UNL     1      52.736  -4.423   9.211  1.00  0.00    -0.000 C 
BRANCH  10  11
ATOM     11  C   UNL     1      54.163  -3.857   9.153  1.00  0.00    -0.003 C 
ATOM     12  C   UNL     1      55.012  -4.510   8.063  1.00  0.00     0.004 C 
ENDBRANCH  10  11
ENDBRANCH   9  10
ENDBRANCH   8   9
ENDBRANCH   7   8
ENDBRANCH   6   7
ENDBRANCH   5   6
ENDBRANCH   4   5
ENDBRANCH   3   4
ENDBRANCH   2   3
ENDBRANCH   1   2
BRANCH   1  13
ATOM     13  C   UNL     1      55.324  -4.124  13.779  1.00  0.00     0.000 C 
BRANCH  13  14
ATOM     14  C   UNL     1      56.735  -3.610  14.108  1.00  0.00     0.000 C 
BRANCH  14  15
ATOM     15  C   UNL     1      56.798  -2.079  14.221  1.00  0.00     0.000 C 
BRANCH  15  16
ATOM     16  C   UNL     1      57.247  -1.656  15.627  1.00  0.00     0.000 C 
BRANCH  16  17
ATOM     17  C   UNL     1      56.124  -0.982  16.432  1.00  0.00     0.000 C 
BRANCH  17  18
ATOM     18  C   UNL     1      54.885  -0.669  15.575  1.00  0.00     0.000 C 
BRANCH  18  19
ATOM     19  C   UNL     1      54.676   0.840  15.368  1.00  0.00     0.000 C 
BRANCH  19  20
ATOM     20  C   UNL     1      55.144   1.318  13.984  1.00  0.00     0.006 C 
BRANCH  20  21
ATOM     21  C   UNL     1      56.632   1.697  13.977  1.00  0.00     0.053 C 
BRANCH  21  22
ATOM     22  C   UNL     1      56.965   2.651  15.084  1.00  0.00     0.041 C 
ATOM     23  O   UNL     1      57.552   2.241  16.121  1.00  0.00    -0.550 OA
ATOM     24  O   UNL     1      56.592   3.986  14.989  1.00  0.00    -0.550 OA
ENDBRANCH  21  22
ENDBRANCH  20  21
ENDBRANCH  19  20
ENDBRANCH  18  19
ENDBRANCH  17  18
ENDBRANCH  16  17
ENDBRANCH  15  16
ENDBRANCH  14  15
ENDBRANCH  13  14
ENDBRANCH   1  13
TORSDOF 20
ENDMDL
MODEL 4
REMARK VINA RESULT:    -4.628      4.127      9.713
REMARK INTER + INTRA:         -12.495
REMARK INTER:                 -10.508
REMARK INTRA:                  -1.987
REMARK UNBOUND:                -2.455
REMARK SMILES CCCCCCCCCCCCCCCCCCCCCC(=O)[O-]
REMARK SMILES IDX 12 1 11 2 10 3 9 4 8 5 7 6 6 7 5 8 4 9 3 10 2 11 1 12 13 13
REMARK SMILES IDX 14 14 15 15 16 16 17 17 18 18 19 19 20 20 21 21 22 22 23 23
REMARK SMILES IDX 24 24
REMARK H PARENT
REMARK Flexibility Score: inf
ROOT
ATOM      1  C   UNL     1      55.352  -2.633  14.140  1.00  0.00     0.000 C 
ENDROOT
BRANCH   1   2
ATOM      2  C   UNL     1      56.878  -2.831  14.248  1.00  0.00     0.000 C 
BRANCH   2   3
ATOM      3  C   UNL     1      57.637  -1.590  14.755  1.00  0.00     0.000 C 
BRANCH   3   4
ATOM      4  C   UNL     1      57.370  -1.212  16.222  1.00  0.00    -0.000 C 
BRANCH   4   5
ATOM      5  C   UNL     1      56.429  -0.003  16.363  1.00  0.00    -0.000 C 
BRANCH   5   6
ATOM      6  C   UNL     1      55.310  -0.239  17.391  1.00  0.00    -0.000 C 
BRANCH   6   7
ATOM      7  C   UNL     1      55.785  -1.066  18.599  1.00  0.00    -0.000 C 
BRANCH   7   8
ATOM      8  C   UNL     1      56.399  -0.199  19.714  1.00  0.00    -0.000 C 
BRANCH   8   9
ATOM      9  C   UNL     1      57.626  -0.810  20.417  1.00  0.00    -0.000 C 
BRANCH   9  10
ATOM     10  C   UNL     1      58.204  -2.021  19.666  1.00  0.00    -0.000 C 
BRANCH  10  11
ATOM     11  C   UNL     1      59.327  -2.719  20.448  1.00  0.00    -0.003 C 
ATOM     12  C   UNL     1      59.556  -4.160  19.993  1.00  0.00     0.004 C 
ENDBRANCH  10  11
ENDBRANCH   9  10
ENDBRANCH   8   9
ENDBRANCH   7   8
ENDBRANCH   6   7
ENDBRANCH   5   6
ENDBRANCH   4   5
ENDBRANCH   3   4
ENDBRANCH   2   3
ENDBRANCH   1   2
BRANCH   1  13
ATOM     13  C   UNL     1      54.650  -3.814  13.442  1.00  0.00     0.000 C 
BRANCH  13  14
ATOM     14  C   UNL     1      53.328  -3.407  12.772  1.00  0.00     0.000 C 
BRANCH  14  15
ATOM     15  C   UNL     1      53.330  -1.950  12.287  1.00  0.00     0.000 C 
BRANCH  15  16
ATOM     16  C   UNL     1      51.914  -1.506  11.889  1.00  0.00     0.000 C 
BRANCH  16  17
ATOM     17  C   UNL     1      51.859  -0.880  10.487  1.00  0.00     0.000 C 
BRANCH  17  18
ATOM     18  C   UNL     1      52.540  -1.755   9.419  1.00  0.00     0.000 C 
BRANCH  18  19
ATOM     19  C   UNL     1      51.685  -2.967   9.016  1.00  0.00     0.000 C 
BRANCH  19  20
ATOM     20  C   UNL     1      52.471  -4.288   9.065  1.00  0.00     0.006 C 
BRANCH  20  21
ATOM     21  C   UNL     1      53.984  -4.055   9.179  1.00  0.00     0.053 C 
BRANCH  21  22
ATOM     22  C   UNL     1      54.693  -4.387   7.901  1.00  0.00     0.041 C 
ATOM     23  O   UNL     1      55.912  -4.702   7.915  1.00  0.00    -0.550 OA
ATOM     24  O   UNL     1      54.017  -4.309   6.689  1.00  0.00    -0.550 OA
ENDBRANCH  21  22
ENDBRANCH  20  21
ENDBRANCH  19  20
ENDBRANCH  18  19
ENDBRANCH  17  18
ENDBRANCH  16  17
ENDBRANCH  15  16
ENDBRANCH  14  15
ENDBRANCH  13  14
ENDBRANCH   1  13
TORSDOF 20
ENDMDL
MODEL 5
REMARK VINA RESULT:    -4.618      4.782      8.249
REMARK INTER + INTRA:         -12.472
REMARK INTER:                  -9.709
REMARK INTRA:                  -2.762
REMARK UNBOUND:                -2.455
REMARK SMILES CCCCCCCCCCCCCCCCCCCCCC(=O)[O-]
REMARK SMILES IDX 12 1 11 2 10 3 9 4 8 5 7 6 6 7 5 8 4 9 3 10 2 11 1 12 13 13
REMARK SMILES IDX 14 14 15 15 16 16 17 17 18 18 19 19 20 20 21 21 22 22 23 23
REMARK SMILES IDX 24 24
REMARK H PARENT
REMARK Flexibility Score: inf
ROOT
ATOM      1  C   UNL     1      55.906  -0.139  15.205  1.00  0.00     0.000 C 
ENDROOT
BRANCH   1   2
ATOM      2  C   UNL     1      56.832   1.084  15.374  1.00  0.00     0.000 C 
BRANCH   2   3
ATOM      3  C   UNL     1      57.397   1.631  14.049  1.00  0.00     0.000 C 
BRANCH   3   4
ATOM      4  C   UNL     1      57.415   3.164  13.927  1.00  0.00    -0.000 C 
BRANCH   4   5
ATOM      5  C   UNL     1      56.715   3.668  12.653  1.00  0.00    -0.000 C 
BRANCH   5   6
ATOM      6  C   UNL     1      55.908   2.567  11.945  1.00  0.00    -0.000 C 
BRANCH   6   7
ATOM      7  C   UNL     1      54.390   2.807  12.022  1.00  0.00    -0.000 C 
BRANCH   7   8
ATOM      8  C   UNL     1      53.808   2.521  13.419  1.00  0.00    -0.000 C 
BRANCH   8   9
ATOM      9  C   UNL     1      52.705   1.448  13.461  1.00  0.00    -0.000 C 
BRANCH   9  10
ATOM     10  C   UNL     1      53.131   0.126  12.800  1.00  0.00    -0.000 C 
BRANCH  10  11
ATOM     11  C   UNL     1      52.060  -0.429  11.848  1.00  0.00    -0.003 C 
ATOM     12  C   UNL     1      52.057   0.272  10.490  1.00  0.00     0.004 C 
ENDBRANCH  10  11
ENDBRANCH   9  10
ENDBRANCH   8   9
ENDBRANCH   7   8
ENDBRANCH   6   7
ENDBRANCH   5   6
ENDBRANCH   4   5
ENDBRANCH   3   4
ENDBRANCH   2   3
ENDBRANCH   1   2
BRANCH   1  13
ATOM     13  C   UNL     1      56.602  -1.463  15.573  1.00  0.00     0.000 C 
BRANCH  13  14
ATOM     14  C   UNL     1      56.982  -2.298  14.340  1.00  0.00     0.000 C 
BRANCH  14  15
ATOM     15  C   UNL     1      56.008  -3.457  14.084  1.00  0.00     0.000 C 
BRANCH  15  16
ATOM     16  C   UNL     1      54.993  -3.085  12.993  1.00  0.00     0.000 C 
BRANCH  16  17
ATOM     17  C   UNL     1      53.574  -3.588  13.304  1.00  0.00     0.000 C 
BRANCH  17  18
ATOM     18  C   UNL     1      52.775  -3.930  12.035  1.00  0.00     0.000 C 
BRANCH  18  19
ATOM     19  C   UNL     1      53.574  -3.676  10.746  1.00  0.00     0.000 C 
BRANCH  19  20
ATOM     20  C   UNL     1      52.953  -4.363   9.519  1.00  0.00     0.006 C 
BRANCH  20  21
ATOM     21  C   UNL     1      53.090  -3.511   8.250  1.00  0.00     0.053 C 
BRANCH  21  22
ATOM     22  C   UNL     1      53.631  -4.310   7.103  1.00  0.00     0.041 C 
ATOM     23  O   UNL     1      54.866  -4.312   6.857  1.00  0.00    -0.550 OA
ATOM     24  O   UNL     1      52.766  -5.021   6.280  1.00  0.00    -0.550 OA
ENDBRANCH  21  22
ENDBRANCH  20  21
ENDBRANCH  19  20
ENDBRANCH  18  19
ENDBRANCH  17  18
ENDBRANCH  16  17
ENDBRANCH  15  16
ENDBRANCH  14  15
ENDBRANCH  13  14
ENDBRANCH   1  13
TORSDOF 20
ENDMDL
MODEL 6
REMARK VINA RESULT:    -4.597      4.007     10.254
REMARK INTER + INTRA:         -12.427
REMARK INTER:                 -10.808
REMARK INTRA:                  -1.619
REMARK UNBOUND:                -2.455
REMARK SMILES CCCCCCCCCCCCCCCCCCCCCC(=O)[O-]
REMARK SMILES IDX 12 1 11 2 10 3 9 4 8 5 7 6 6 7 5 8 4 9 3 10 2 11 1 12 13 13
REMARK SMILES IDX 14 14 15 15 16 16 17 17 18 18 19 19 20 20 21 21 22 22 23 23
REMARK SMILES IDX 24 24
REMARK H PARENT
REMARK Flexibility Score: inf
ROOT
ATOM      1  C   UNL     1      58.243  -0.961  19.035  1.00  0.00     0.000 C 
ENDROOT
BRANCH   1   2
ATOM      2  C   UNL     1      57.477  -0.761  20.359  1.00  0.00     0.000 C 
BRANCH   2   3
ATOM      3  C   UNL     1      57.661  -1.910  21.370  1.00  0.00     0.000 C 
BRANCH   3   4
ATOM      4  C   UNL     1      57.296  -3.309  20.845  1.00  0.00    -0.000 C 
BRANCH   4   5
ATOM      5  C   UNL     1      58.418  -4.339  21.065  1.00  0.00    -0.000 C 
BRANCH   5   6
ATOM      6  C   UNL     1      59.564  -4.193  20.050  1.00  0.00    -0.000 C 
BRANCH   6   7
ATOM      7  C   UNL     1      60.848  -3.632  20.687  1.00  0.00    -0.000 C 
BRANCH   7   8
ATOM      8  C   UNL     1      62.087  -4.502  20.404  1.00  0.00    -0.000 C 
BRANCH   8   9
ATOM      9  C   UNL     1      63.414  -3.950  20.956  1.00  0.00    -0.000 C 
BRANCH   9  10
ATOM     10  C   UNL     1      64.034  -4.851  22.038  1.00  0.00    -0.000 C 
BRANCH  10  11
ATOM     11  C   UNL     1      63.087  -5.083  23.226  1.00  0.00    -0.003 C 
ATOM     12  C   UNL     1      63.604  -6.150  24.191  1.00  0.00     0.004 C 
ENDBRANCH  10  11
ENDBRANCH   9  10
ENDBRANCH   8   9
ENDBRANCH   7   8
ENDBRANCH   6   7
ENDBRANCH   5   6
ENDBRANCH   4   5
ENDBRANCH   3   4
ENDBRANCH   2   3
ENDBRANCH   1   2
BRANCH   1  13
ATOM     13  C   UNL     1      57.393  -0.606  17.800  1.00  0.00     0.000 C 
BRANCH  13  14
ATOM     14  C   UNL     1      55.912  -0.979  17.971  1.00  0.00     0.000 C 
BRANCH  14  15
ATOM     15  C   UNL     1      55.017  -0.381  16.875  1.00  0.00     0.000 C 
BRANCH  15  16
ATOM     16  C   UNL     1      55.836  -0.074  15.612  1.00  0.00     0.000 C 
BRANCH  16  17
ATOM     17  C   UNL     1      55.614  -1.105  14.494  1.00  0.00     0.000 C 
BRANCH  17  18
ATOM     18  C   UNL     1      56.565  -2.310  14.602  1.00  0.00     0.000 C 
BRANCH  18  19
ATOM     19  C   UNL     1      56.110  -3.501  13.742  1.00  0.00     0.000 C 
BRANCH  19  20
ATOM     20  C   UNL     1      54.891  -3.167  12.866  1.00  0.00     0.006 C 
BRANCH  20  21
ATOM     21  C   UNL     1      53.621  -3.880  13.349  1.00  0.00     0.053 C 
BRANCH  21  22
ATOM     22  C   UNL     1      52.395  -3.351  12.666  1.00  0.00     0.041 C 
ATOM     23  O   UNL     1      52.319  -2.134  12.352  1.00  0.00    -0.550 OA
ATOM     24  O   UNL     1      51.321  -4.195  12.412  1.00  0.00    -0.550 OA
ENDBRANCH  21  22
ENDBRANCH  20  21
ENDBRANCH  19  20
ENDBRANCH  18  19
ENDBRANCH  17  18
ENDBRANCH  16  17
ENDBRANCH  15  16
ENDBRANCH  14  15
ENDBRANCH  13  14
ENDBRANCH   1  13
TORSDOF 20
ENDMDL
MODEL 7
REMARK VINA RESULT:    -4.593      3.795      8.326
REMARK INTER + INTRA:         -12.417
REMARK INTER:                  -9.649
REMARK INTRA:                  -2.768
REMARK UNBOUND:                -2.455
REMARK SMILES CCCCCCCCCCCCCCCCCCCCCC(=O)[O-]
REMARK SMILES IDX 12 1 11 2 10 3 9 4 8 5 7 6 6 7 5 8 4 9 3 10 2 11 1 12 13 13
REMARK SMILES IDX 14 14 15 15 16 16 17 17 18 18 19 19 20 20 21 21 22 22 23 23
REMARK SMILES IDX 24 24
REMARK H PARENT
REMARK Flexibility Score: inf
ROOT
ATOM      1  C   UNL     1      52.852  -3.550  13.083  1.00  0.00     0.000 C 
ENDROOT
BRANCH   1   2
ATOM      2  C   UNL     1      54.353  -3.372  12.773  1.00  0.00     0.000 C 
BRANCH   2   3
ATOM      3  C   UNL     1      55.252  -3.339  14.024  1.00  0.00     0.000 C 
BRANCH   3   4
ATOM      4  C   UNL     1      56.764  -3.311  13.743  1.00  0.00    -0.000 C 
BRANCH   4   5
ATOM      5  C   UNL     1      57.496  -2.210  14.531  1.00  0.00    -0.000 C 
BRANCH   5   6
ATOM      6  C   UNL     1      56.530  -1.259  15.256  1.00  0.00    -0.000 C 
BRANCH   6   7
ATOM      7  C   UNL     1      57.060  -0.817  16.632  1.00  0.00    -0.000 C 
BRANCH   7   8
ATOM      8  C   UNL     1      55.969  -0.803  17.718  1.00  0.00    -0.000 C 
BRANCH   8   9
ATOM      9  C   UNL     1      54.537  -0.563  17.204  1.00  0.00    -0.000 C 
BRANCH   9  10
ATOM     10  C   UNL     1      54.099   0.907  17.319  1.00  0.00    -0.000 C 
BRANCH  10  11
ATOM     11  C   UNL     1      53.745   1.526  15.958  1.00  0.00    -0.003 C 
ATOM     12  C   UNL     1      54.954   2.148  15.261  1.00  0.00     0.004 C 
ENDBRANCH  10  11
ENDBRANCH   9  10
ENDBRANCH   8   9
ENDBRANCH   7   8
ENDBRANCH   6   7
ENDBRANCH   5   6
ENDBRANCH   4   5
ENDBRANCH   3   4
ENDBRANCH   2   3
ENDBRANCH   1   2
BRANCH   1  13
ATOM     13  C   UNL     1      52.094  -4.263  11.947  1.00  0.00     0.000 C 
BRANCH  13  14
ATOM     14  C   UNL     1      52.897  -4.314  10.637  1.00  0.00     0.000 C 
BRANCH  14  15
ATOM     15  C   UNL     1      52.034  -4.032   9.398  1.00  0.00     0.000 C 
BRANCH  15  16
ATOM     16  C   UNL     1      51.319  -2.678   9.530  1.00  0.00     0.000 C 
BRANCH  16  17
ATOM     17  C   UNL     1      52.104  -1.526   8.884  1.00  0.00     0.000 C 
BRANCH  17  18
ATOM     18  C   UNL     1      52.206  -0.292   9.798  1.00  0.00     0.000 C 
BRANCH  18  19
ATOM     19  C   UNL     1      51.966  -0.631  11.278  1.00  0.00     0.000 C 
BRANCH  19  20
ATOM     20  C   UNL     1      52.784   0.257  12.229  1.00  0.00     0.006 C 
BRANCH  20  21
ATOM     21  C   UNL     1      51.916   1.319  12.918  1.00  0.00     0.053 C 
BRANCH  21  22
ATOM     22  C   UNL     1      52.043   2.656  12.252  1.00  0.00     0.041 C 
ATOM     23  O   UNL     1      52.789   3.542  12.745  1.00  0.00    -0.550 OA
ATOM     24  O   UNL     1      51.305   2.937  11.108  1.00  0.00    -0.550 OA
ENDBRANCH  21  22
ENDBRANCH  20  21
ENDBRANCH  19  20
ENDBRANCH  18  19
ENDBRANCH  17  18
ENDBRANCH  16  17
ENDBRANCH  15  16
ENDBRANCH  14  15
ENDBRANCH  13  14
ENDBRANCH   1  13
TORSDOF 20
ENDMDL
MODEL 8
REMARK VINA RESULT:    -4.592      2.554      4.725
REMARK INTER + INTRA:         -12.416
REMARK INTER:                 -10.529
REMARK INTRA:                  -1.887
REMARK UNBOUND:                -2.455
REMARK SMILES CCCCCCCCCCCCCCCCCCCCCC(=O)[O-]
REMARK SMILES IDX 12 1 11 2 10 3 9 4 8 5 7 6 6 7 5 8 4 9 3 10 2 11 1 12 13 13
REMARK SMILES IDX 14 14 15 15 16 16 17 17 18 18 19 19 20 20 21 21 22 22 23 23
REMARK SMILES IDX 24 24
REMARK H PARENT
REMARK Flexibility Score: inf
ROOT
ATOM      1  C   UNL     1      55.669   0.332  18.984  1.00  0.00     0.000 C 
ENDROOT
BRANCH   1   2
ATOM      2  C   UNL     1      55.759  -0.869  18.020  1.00  0.00     0.000 C 
BRANCH   2   3
ATOM      3  C   UNL     1      57.019  -0.868  17.133  1.00  0.00     0.000 C 
BRANCH   3   4
ATOM      4  C   UNL     1      56.754  -0.815  15.619  1.00  0.00    -0.000 C 
BRANCH   4   5
ATOM      5  C   UNL     1      57.515  -1.904  14.842  1.00  0.00    -0.000 C 
BRANCH   5   6
ATOM      6  C   UNL     1      56.574  -2.887  14.125  1.00  0.00    -0.000 C 
BRANCH   6   7
ATOM      7  C   UNL     1      55.111  -2.409  14.126  1.00  0.00    -0.000 C 
BRANCH   7   8
ATOM      8  C   UNL     1      54.341  -2.836  12.863  1.00  0.00    -0.000 C 
BRANCH   8   9
ATOM      9  C   UNL     1      53.425  -4.061  13.039  1.00  0.00    -0.000 C 
BRANCH   9  10
ATOM     10  C   UNL     1      52.220  -4.050  12.083  1.00  0.00    -0.000 C 
BRANCH  10  11
ATOM     11  C   UNL     1      51.615  -2.647  11.913  1.00  0.00    -0.003 C 
ATOM     12  C   UNL     1      51.766  -2.109  10.490  1.00  0.00     0.004 C 
ENDBRANCH  10  11
ENDBRANCH   9  10
ENDBRANCH   8   9
ENDBRANCH   7   8
ENDBRANCH   6   7
ENDBRANCH   5   6
ENDBRANCH   4   5
ENDBRANCH   3   4
ENDBRANCH   2   3
ENDBRANCH   1   2
BRANCH   1  13
ATOM     13  C   UNL     1      57.054   0.861  19.402  1.00  0.00     0.000 C 
BRANCH  13  14
ATOM     14  C   UNL     1      57.346   0.647  20.896  1.00  0.00     0.000 C 
BRANCH  14  15
ATOM     15  C   UNL     1      58.169  -0.622  21.165  1.00  0.00     0.000 C 
BRANCH  15  16
ATOM     16  C   UNL     1      57.266  -1.760  21.664  1.00  0.00     0.000 C 
BRANCH  16  17
ATOM     17  C   UNL     1      57.463  -3.064  20.874  1.00  0.00     0.000 C 
BRANCH  17  18
ATOM     18  C   UNL     1      58.556  -2.947  19.798  1.00  0.00     0.000 C 
BRANCH  18  19
ATOM     19  C   UNL     1      59.601  -4.070  19.891  1.00  0.00     0.000 C 
BRANCH  19  20
ATOM     20  C   UNL     1      60.653  -3.811  20.982  1.00  0.00     0.006 C 
BRANCH  20  21
ATOM     21  C   UNL     1      62.032  -4.362  20.596  1.00  0.00     0.053 C 
BRANCH  21  22
ATOM     22  C   UNL     1      63.124  -3.748  21.420  1.00  0.00     0.041 C 
ATOM     23  O   UNL     1      62.864  -3.246  22.545  1.00  0.00    -0.550 OA
ATOM     24  O   UNL     1      64.422  -3.694  20.927  1.00  0.00    -0.550 OA
ENDBRANCH  21  22
ENDBRANCH  20  21
ENDBRANCH  19  20
ENDBRANCH  18  19
ENDBRANCH  17  18
ENDBRANCH  16  17
ENDBRANCH  15  16
ENDBRANCH  14  15
ENDBRANCH  13  14
ENDBRANCH   1  13
TORSDOF 20
ENDMDL
MODEL 9
REMARK VINA RESULT:    -4.533      3.498      9.874
REMARK INTER + INTRA:         -12.288
REMARK INTER:                  -9.774
REMARK INTRA:                  -2.514
REMARK UNBOUND:                -2.455
REMARK SMILES CCCCCCCCCCCCCCCCCCCCCC(=O)[O-]
REMARK SMILES IDX 12 1 11 2 10 3 9 4 8 5 7 6 6 7 5 8 4 9 3 10 2 11 1 12 13 13
REMARK SMILES IDX 14 14 15 15 16 16 17 17 18 18 19 19 20 20 21 21 22 22 23 23
REMARK SMILES IDX 24 24
REMARK H PARENT
REMARK Flexibility Score: inf
ROOT
ATOM      1  C   UNL     1      56.339  -0.579  20.348  1.00  0.00     0.000 C 
ENDROOT
BRANCH   1   2
ATOM      2  C   UNL     1      56.923  -1.991  20.132  1.00  0.00     0.000 C 
BRANCH   2   3
ATOM      3  C   UNL     1      58.399  -1.998  19.688  1.00  0.00     0.000 C 
BRANCH   3   4
ATOM      4  C   UNL     1      59.137  -3.332  19.892  1.00  0.00    -0.000 C 
BRANCH   4   5
ATOM      5  C   UNL     1      58.455  -4.236  20.933  1.00  0.00    -0.000 C 
BRANCH   5   6
ATOM      6  C   UNL     1      59.290  -4.399  22.215  1.00  0.00    -0.000 C 
BRANCH   6   7
ATOM      7  C   UNL     1      60.795  -4.195  21.967  1.00  0.00    -0.000 C 
BRANCH   7   8
ATOM      8  C   UNL     1      61.543  -3.684  23.213  1.00  0.00    -0.000 C 
BRANCH   8   9
ATOM      9  C   UNL     1      62.007  -2.217  23.141  1.00  0.00    -0.000 C 
BRANCH   9  10
ATOM     10  C   UNL     1      61.031  -1.247  23.828  1.00  0.00    -0.000 C 
BRANCH  10  11
ATOM     11  C   UNL     1      59.999  -0.660  22.853  1.00  0.00    -0.003 C 
ATOM     12  C   UNL     1      58.559  -0.876  23.318  1.00  0.00     0.004 C 
ENDBRANCH  10  11
ENDBRANCH   9  10
ENDBRANCH   8   9
ENDBRANCH   7   8
ENDBRANCH   6   7
ENDBRANCH   5   6
ENDBRANCH   4   5
ENDBRANCH   3   4
ENDBRANCH   2   3
ENDBRANCH   1   2
BRANCH   1  13
ATOM     13  C   UNL     1      56.539   0.338  19.126  1.00  0.00     0.000 C 
BRANCH  13  14
ATOM     14  C   UNL     1      55.312   0.370  18.201  1.00  0.00     0.000 C 
BRANCH  14  15
ATOM     15  C   UNL     1      55.632  -0.099  16.773  1.00  0.00     0.000 C 
BRANCH  15  16
ATOM     16  C   UNL     1      57.141  -0.322  16.599  1.00  0.00     0.000 C 
BRANCH  16  17
ATOM     17  C   UNL     1      57.473  -1.257  15.425  1.00  0.00     0.000 C 
BRANCH  17  18
ATOM     18  C   UNL     1      56.226  -1.943  14.842  1.00  0.00     0.000 C 
BRANCH  18  19
ATOM     19  C   UNL     1      56.554  -3.272  14.143  1.00  0.00     0.000 C 
BRANCH  19  20
ATOM     20  C   UNL     1      55.328  -3.903  13.465  1.00  0.00     0.006 C 
BRANCH  20  21
ATOM     21  C   UNL     1      54.216  -2.876  13.210  1.00  0.00     0.053 C 
BRANCH  21  22
ATOM     22  C   UNL     1      53.043  -3.491  12.509  1.00  0.00     0.041 C 
ATOM     23  O   UNL     1      51.944  -3.626  13.109  1.00  0.00    -0.550 OA
ATOM     24  O   UNL     1      53.175  -3.952  11.205  1.00  0.00    -0.550 OA
ENDBRANCH  21  22
ENDBRANCH  20  21
ENDBRANCH  19  20
ENDBRANCH  18  19
ENDBRANCH  17  18
ENDBRANCH  16  17
ENDBRANCH  15  16
ENDBRANCH  14  15
ENDBRANCH  13  14
ENDBRANCH   1  13
TORSDOF 20
ENDMDL
