MODEL 1
REMARK VINA RESULT:    -3.527      0.000      0.000
REMARK INTER + INTRA:          -4.438
REMARK INTER:                  -4.146
REMARK INTRA:                  -0.292
REMARK UNBOUND:                -0.292
REMARK SMILES O=c1cc(-c2ccc(O)c(O)c2)oc2cc(O)cc(O)c12
REMARK SMILES IDX 4 1 3 2 2 3 1 4 21 5 19 6 18 7 16 8 15 9 14 10 13 11 5 12
REMARK SMILES IDX 6 13 7 14 8 15 12 16 10 17 9 18 11 20 20 22 17 24
REMARK H PARENT 9 19 11 21 20 23 17 25
REMARK Flexibility Score: inf
ROOT
ATOM      1  C   UNL     1      -8.670 -22.421  19.840  1.00  0.00     0.138 A 
ATOM      2  C   UNL     1      -7.370 -22.814  19.495  1.00  0.00     0.100 A 
ATOM      3  C   UNL     1      -6.913 -22.620  18.191  1.00  0.00     0.197 A 
ATOM      4  O   UNL     1      -5.761 -23.035  17.899  1.00  0.00    -0.289 OA
ATOM      5  C   UNL     1      -7.751 -21.997  17.236  1.00  0.00     0.107 A 
ATOM      6  C   UNL     1      -7.381 -21.716  15.886  1.00  0.00     0.134 A 
ATOM      7  C   UNL     1      -8.331 -21.185  15.006  1.00  0.00     0.093 A 
ATOM      8  C   UNL     1      -9.621 -20.869  15.442  1.00  0.00     0.123 A 
ATOM      9  C   UNL     1      -9.977 -21.092  16.769  1.00  0.00     0.094 A 
ATOM     10  C   UNL     1      -9.062 -21.653  17.663  1.00  0.00     0.146 A 
ATOM     11  O   UNL     1      -9.449 -21.866  18.917  1.00  0.00    -0.456 OA
ENDROOT
BRANCH   1  12
ATOM     12  C   UNL     1      -9.206 -22.600  21.213  1.00  0.00     0.021 A 
ATOM     13  C   UNL     1     -10.596 -22.638  21.411  1.00  0.00     0.016 A 
ATOM     14  C   UNL     1     -11.125 -22.812  22.691  1.00  0.00     0.051 A 
ATOM     15  C   UNL     1     -10.284 -22.961  23.798  1.00  0.00     0.157 A 
ATOM     16  C   UNL     1      -8.358 -22.765  22.324  1.00  0.00     0.062 A 
ATOM     17  C   UNL     1      -8.882 -22.942  23.612  1.00  0.00     0.158 A 
BRANCH  15  18
ATOM     18  O   UNL     1     -10.877 -23.125  25.051  1.00  0.00    -0.504 OA
ATOM     19  H   UNL     1     -11.427 -22.416  25.513  1.00  0.00     0.293 HD
ENDBRANCH  15  18
BRANCH  17  20
ATOM     20  O   UNL     1      -7.980 -23.102  24.665  1.00  0.00    -0.504 OA
ATOM     21  H   UNL     1      -7.388 -23.910  24.784  1.00  0.00     0.293 HD
ENDBRANCH  17  20
ENDBRANCH   1  12
BRANCH   6  22
ATOM     22  O   UNL     1      -6.098 -21.919  15.367  1.00  0.00    -0.507 OA
ATOM     23  H   UNL     1      -5.412 -21.195  15.221  1.00  0.00     0.293 HD
ENDBRANCH   6  22
BRANCH   8  24
ATOM     24  O   UNL     1     -10.555 -20.326  14.562  1.00  0.00    -0.508 OA
ATOM     25  H   UNL     1     -11.318 -20.878  14.190  1.00  0.00     0.293 HD
ENDBRANCH   8  24
TORSDOF 5
ENDMDL
MODEL 2
REMARK VINA RESULT:    -3.218      1.191      2.704
REMARK INTER + INTRA:          -4.074
REMARK INTER:                  -3.761
REMARK INTRA:                  -0.313
REMARK UNBOUND:                -0.292
REMARK SMILES O=c1cc(-c2ccc(O)c(O)c2)oc2cc(O)cc(O)c12
REMARK SMILES IDX 4 1 3 2 2 3 1 4 21 5 19 6 18 7 16 8 15 9 14 10 13 11 5 12
REMARK SMILES IDX 6 13 7 14 8 15 12 16 10 17 9 18 11 20 20 22 17 24
REMARK H PARENT 9 19 11 21 20 23 17 25
REMARK Flexibility Score: inf
ROOT
ATOM      1  C   UNL     1      -9.002 -22.117  19.942  1.00  0.00     0.138 A 
ATOM      2  C   UNL     1      -9.881 -21.514  19.033  1.00  0.00     0.100 A 
ATOM      3  C   UNL     1      -9.476 -21.310  17.713  1.00  0.00     0.197 A 
ATOM      4  O   UNL     1     -10.267 -20.716  16.937  1.00  0.00    -0.289 OA
ATOM      5  C   UNL     1      -8.196 -21.745  17.294  1.00  0.00     0.107 A 
ATOM      6  C   UNL     1      -7.688 -21.622  15.965  1.00  0.00     0.134 A 
ATOM      7  C   UNL     1      -6.368 -22.000  15.693  1.00  0.00     0.093 A 
ATOM      8  C   UNL     1      -5.556 -22.553  16.688  1.00  0.00     0.123 A 
ATOM      9  C   UNL     1      -6.059 -22.724  17.975  1.00  0.00     0.094 A 
ATOM     10  C   UNL     1      -7.361 -22.324  18.286  1.00  0.00     0.146 A 
ATOM     11  O   UNL     1      -7.794 -22.488  19.532  1.00  0.00    -0.456 OA
ENDROOT
BRANCH   1  12
ATOM     12  C   UNL     1      -9.382 -22.361  21.357  1.00  0.00     0.021 A 
ATOM     13  C   UNL     1     -10.740 -22.376  21.715  1.00  0.00     0.016 A 
ATOM     14  C   UNL     1     -11.123 -22.609  23.036  1.00  0.00     0.051 A 
ATOM     15  C   UNL     1     -10.165 -22.842  24.028  1.00  0.00     0.157 A 
ATOM     16  C   UNL     1      -8.417 -22.610  22.351  1.00  0.00     0.062 A 
ATOM     17  C   UNL     1      -8.794 -22.848  23.680  1.00  0.00     0.158 A 
BRANCH  15  18
ATOM     18  O   UNL     1     -10.615 -23.063  25.330  1.00  0.00    -0.504 OA
ATOM     19  H   UNL     1     -11.219 -23.826  25.598  1.00  0.00     0.293 HD
ENDBRANCH  15  18
BRANCH  17  20
ATOM     20  O   UNL     1      -7.782 -23.090  24.610  1.00  0.00    -0.504 OA
ATOM     21  H   UNL     1      -7.497 -24.012  24.908  1.00  0.00     0.293 HD
ENDBRANCH  17  20
ENDBRANCH   1  12
BRANCH   6  22
ATOM     22  O   UNL     1      -8.438 -21.158  14.879  1.00  0.00    -0.507 OA
ATOM     23  H   UNL     1      -9.268 -21.602  14.517  1.00  0.00     0.293 HD
ENDBRANCH   6  22
BRANCH   8  24
ATOM     24  O   UNL     1      -4.249 -22.941  16.403  1.00  0.00    -0.508 OA
ATOM     25  H   UNL     1      -3.626 -22.352  15.863  1.00  0.00     0.293 HD
ENDBRANCH   8  24
TORSDOF 5
ENDMDL
