MODEL 1
REMARK VINA RESULT:    -3.325      0.000      0.000
REMARK INTER + INTRA:          -3.985
REMARK INTER:                  -3.811
REMARK INTRA:                  -0.174
REMARK UNBOUND:                -0.174
REMARK SMILES CC=Cc1ccc(O)c(OC)c1
REMARK SMILES IDX 4 1 12 2 9 3 7 4 6 5 5 6 3 7 1 8 2 9 10 10 11 11 8 12
REMARK H PARENT 8 13
REMARK Flexibility Score: inf
ROOT
ATOM      1  C   UNL     1     128.009 126.611 117.015  1.00  0.00    -0.022 A 
ATOM      2  C   UNL     1     128.514 125.488 117.701  1.00  0.00     0.058 A 
ATOM      3  C   UNL     1     128.857 124.312 117.001  1.00  0.00     0.161 A 
ATOM      4  C   UNL     1     128.682 124.265 115.607  1.00  0.00     0.157 A 
ATOM      5  C   UNL     1     128.165 125.373 114.930  1.00  0.00     0.051 A 
ATOM      6  C   UNL     1     127.826 126.533 115.627  1.00  0.00     0.012 A 
ENDROOT
BRANCH   1   7
ATOM      7  C   UNL     1     127.626 127.865 117.710  1.00  0.00     0.003 C 
ATOM      8  C   UNL     1     126.065 129.455 118.762  1.00  0.00     0.035 C 
ATOM      9  C   UNL     1     126.369 128.177 118.047  1.00  0.00    -0.030 C 
ENDBRANCH   1   7
BRANCH   3  10
ATOM     10  O   UNL     1     129.368 123.180 117.656  1.00  0.00    -0.493 OA
ATOM     11  C   UNL     1     128.574 122.185 118.294  1.00  0.00     0.278 C 
ENDBRANCH   3  10
BRANCH   4  12
ATOM     12  O   UNL     1     129.011 123.123 114.877  1.00  0.00    -0.504 OA
ATOM     13  H   UNL     1     129.780 122.519 115.138  1.00  0.00     0.293 HD
ENDBRANCH   4  12
TORSDOF 3
ENDMDL
MODEL 2
REMARK VINA RESULT:    -3.242     13.641     15.130
REMARK INTER + INTRA:          -3.890
REMARK INTER:                  -3.723
REMARK INTRA:                  -0.168
REMARK UNBOUND:                -0.174
REMARK SMILES CC=Cc1ccc(O)c(OC)c1
REMARK SMILES IDX 4 1 12 2 9 3 7 4 6 5 5 6 3 7 1 8 2 9 10 10 11 11 8 12
REMARK H PARENT 8 13
REMARK Flexibility Score: inf
ROOT
ATOM      1  C   UNL     1     112.480 127.879 116.961  1.00  0.00    -0.022 A 
ATOM      2  C   UNL     1     113.603 128.344 117.676  1.00  0.00     0.058 A 
ATOM      3  C   UNL     1     114.747 128.810 116.995  1.00  0.00     0.161 A 
ATOM      4  C   UNL     1     114.763 128.799 115.589  1.00  0.00     0.157 A 
ATOM      5  C   UNL     1     113.656 128.321 114.881  1.00  0.00     0.051 A 
ATOM      6  C   UNL     1     112.527 127.861 115.560  1.00  0.00     0.012 A 
ENDROOT
BRANCH   1   7
ATOM      7  C   UNL     1     111.260 127.371 117.635  1.00  0.00     0.003 C 
ATOM      8  C   UNL     1     109.875 125.694 118.794  1.00  0.00     0.035 C 
ATOM      9  C   UNL     1     111.134 126.127 118.112  1.00  0.00    -0.030 C 
ENDBRANCH   1   7
BRANCH   3  10
ATOM     10  O   UNL     1     115.877 129.285 117.679  1.00  0.00    -0.493 OA
ATOM     11  C   UNL     1     116.926 128.463 118.180  1.00  0.00     0.278 C 
ENDBRANCH   3  10
BRANCH   4  12
ATOM     12  O   UNL     1     115.872 129.253 114.876  1.00  0.00    -0.504 OA
ATOM     13  H   UNL     1     116.076 130.238 114.765  1.00  0.00     0.293 HD
ENDBRANCH   4  12
TORSDOF 3
ENDMDL
MODEL 3
REMARK VINA RESULT:    -2.868      4.465      6.886
REMARK INTER + INTRA:          -3.461
REMARK INTER:                  -3.297
REMARK INTRA:                  -0.164
REMARK UNBOUND:                -0.174
REMARK SMILES CC=Cc1ccc(O)c(OC)c1
REMARK SMILES IDX 4 1 12 2 9 3 7 4 6 5 5 6 3 7 1 8 2 9 10 10 11 11 8 12
REMARK H PARENT 8 13
REMARK Flexibility Score: inf
ROOT
ATOM      1  C   UNL     1     125.681 119.444 117.057  1.00  0.00    -0.022 A 
ATOM      2  C   UNL     1     126.357 120.495 117.710  1.00  0.00     0.058 A 
ATOM      3  C   UNL     1     127.225 121.346 116.995  1.00  0.00     0.161 A 
ATOM      4  C   UNL     1     127.420 121.131 115.620  1.00  0.00     0.157 A 
ATOM      5  C   UNL     1     126.764 120.079 114.977  1.00  0.00     0.051 A 
ATOM      6  C   UNL     1     125.906 119.239 115.688  1.00  0.00     0.012 A 
ENDROOT
BRANCH   1   7
ATOM      7  C   UNL     1     124.766 118.518 117.770  1.00  0.00     0.003 C 
ATOM      8  C   UNL     1     124.137 116.888 119.507  1.00  0.00     0.035 C 
ATOM      9  C   UNL     1     125.123 117.788 118.833  1.00  0.00    -0.030 C 
ENDBRANCH   1   7
BRANCH   3  10
ATOM     10  O   UNL     1     127.906 122.404 117.618  1.00  0.00    -0.493 OA
ATOM     11  C   UNL     1     129.133 122.272 118.328  1.00  0.00     0.278 C 
ENDBRANCH   3  10
BRANCH   4  12
ATOM     12  O   UNL     1     128.268 121.952 114.875  1.00  0.00    -0.504 OA
ATOM     13  H   UNL     1     128.977 122.530 115.308  1.00  0.00     0.293 HD
ENDBRANCH   4  12
TORSDOF 3
ENDMDL
MODEL 4
REMARK VINA RESULT:    -2.846      8.776     10.145
REMARK INTER + INTRA:          -3.437
REMARK INTER:                  -3.270
REMARK INTRA:                  -0.167
REMARK UNBOUND:                -0.174
REMARK SMILES CC=Cc1ccc(O)c(OC)c1
REMARK SMILES IDX 4 1 12 2 9 3 7 4 6 5 5 6 3 7 1 8 2 9 10 10 11 11 8 12
REMARK H PARENT 8 13
REMARK Flexibility Score: inf
ROOT
ATOM      1  C   UNL     1     119.707 125.708 117.238  1.00  0.00    -0.022 A 
ATOM      2  C   UNL     1     118.600 126.355 117.823  1.00  0.00     0.058 A 
ATOM      3  C   UNL     1     117.751 127.172 117.047  1.00  0.00     0.161 A 
ATOM      4  C   UNL     1     118.025 127.344 115.679  1.00  0.00     0.157 A 
ATOM      5  C   UNL     1     119.133 126.717 115.103  1.00  0.00     0.051 A 
ATOM      6  C   UNL     1     119.970 125.910 115.875  1.00  0.00     0.012 A 
ENDROOT
BRANCH   1   7
ATOM      7  C   UNL     1     120.632 124.848 118.017  1.00  0.00     0.003 C 
ATOM      8  C   UNL     1     122.454 124.387 119.611  1.00  0.00     0.035 C 
ATOM      9  C   UNL     1     121.569 125.321 118.848  1.00  0.00    -0.030 C 
ENDBRANCH   1   7
BRANCH   3  10
ATOM     10  O   UNL     1     116.637 127.823 117.601  1.00  0.00    -0.493 OA
ATOM     11  C   UNL     1     116.690 129.058 118.309  1.00  0.00     0.278 C 
ENDBRANCH   3  10
BRANCH   4  12
ATOM     12  O   UNL     1     117.209 128.141 114.875  1.00  0.00    -0.504 OA
ATOM     13  H   UNL     1     116.695 127.766 114.088  1.00  0.00     0.293 HD
ENDBRANCH   4  12
TORSDOF 3
ENDMDL
MODEL 5
REMARK VINA RESULT:    -2.844      3.006      4.744
REMARK INTER + INTRA:          -3.434
REMARK INTER:                  -3.271
REMARK INTRA:                  -0.164
REMARK UNBOUND:                -0.174
REMARK SMILES CC=Cc1ccc(O)c(OC)c1
REMARK SMILES IDX 4 1 12 2 9 3 7 4 6 5 5 6 3 7 1 8 2 9 10 10 11 11 8 12
REMARK H PARENT 8 13
REMARK Flexibility Score: inf
ROOT
ATOM      1  C   UNL     1     125.827 128.345 118.395  1.00  0.00    -0.022 A 
ATOM      2  C   UNL     1     126.817 127.561 117.768  1.00  0.00     0.058 A 
ATOM      3  C   UNL     1     128.131 128.050 117.616  1.00  0.00     0.161 A 
ATOM      4  C   UNL     1     128.446 129.336 118.089  1.00  0.00     0.157 A 
ATOM      5  C   UNL     1     127.460 130.119 118.694  1.00  0.00     0.051 A 
ATOM      6  C   UNL     1     126.162 129.631 118.842  1.00  0.00     0.012 A 
ENDROOT
BRANCH   1   7
ATOM      7  C   UNL     1     124.429 127.877 118.569  1.00  0.00     0.003 C 
ATOM      8  C   UNL     1     122.656 126.375 119.389  1.00  0.00     0.035 C 
ATOM      9  C   UNL     1     124.091 126.772 119.245  1.00  0.00    -0.030 C 
ENDBRANCH   1   7
BRANCH   3  10
ATOM     10  O   UNL     1     129.139 127.290 117.001  1.00  0.00    -0.493 OA
ATOM     11  C   UNL     1     129.324 127.175 115.594  1.00  0.00     0.278 C 
ENDBRANCH   3  10
BRANCH   4  12
ATOM     12  O   UNL     1     129.734 129.855 117.961  1.00  0.00    -0.504 OA
ATOM     13  H   UNL     1     130.080 130.596 118.558  1.00  0.00     0.293 HD
ENDBRANCH   4  12
TORSDOF 3
ENDMDL
MODEL 6
REMARK VINA RESULT:    -2.838     10.637     13.119
REMARK INTER + INTRA:          -3.427
REMARK INTER:                  -3.281
REMARK INTRA:                  -0.146
REMARK UNBOUND:                -0.174
REMARK SMILES CC=Cc1ccc(O)c(OC)c1
REMARK SMILES IDX 4 1 12 2 9 3 7 4 6 5 5 6 3 7 1 8 2 9 10 10 11 11 8 12
REMARK H PARENT 8 13
REMARK Flexibility Score: inf
ROOT
ATOM      1  C   UNL     1     128.310 113.687 118.689  1.00  0.00    -0.022 A 
ATOM      2  C   UNL     1     127.662 112.676 117.949  1.00  0.00     0.058 A 
ATOM      3  C   UNL     1     128.236 111.393 117.829  1.00  0.00     0.161 A 
ATOM      4  C   UNL     1     129.471 111.131 118.448  1.00  0.00     0.157 A 
ATOM      5  C   UNL     1     130.120 112.138 119.166  1.00  0.00     0.051 A 
ATOM      6  C   UNL     1     129.549 113.405 119.282  1.00  0.00     0.012 A 
ENDROOT
BRANCH   1   7
ATOM      7  C   UNL     1     127.749 115.053 118.835  1.00  0.00     0.003 C 
ATOM      8  C   UNL     1     126.022 116.716 119.402  1.00  0.00     0.035 C 
ATOM      9  C   UNL     1     126.509 115.308 119.267  1.00  0.00    -0.030 C 
ENDBRANCH   1   7
BRANCH   3  10
ATOM     10  O   UNL     1     127.611 110.366 117.104  1.00  0.00    -0.493 OA
ATOM     11  C   UNL     1     126.924 110.546 115.870  1.00  0.00     0.278 C 
ENDBRANCH   3  10
BRANCH   4  12
ATOM     12  O   UNL     1     130.071 109.875 118.356  1.00  0.00    -0.504 OA
ATOM     13  H   UNL     1     130.702 109.525 119.065  1.00  0.00     0.293 HD
ENDBRANCH   4  12
TORSDOF 3
ENDMDL
MODEL 7
REMARK VINA RESULT:    -2.718     15.060     15.222
REMARK INTER + INTRA:          -3.289
REMARK INTER:                  -3.147
REMARK INTRA:                  -0.142
REMARK UNBOUND:                -0.174
REMARK SMILES CC=Cc1ccc(O)c(OC)c1
REMARK SMILES IDX 4 1 12 2 9 3 7 4 6 5 5 6 3 7 1 8 2 9 10 10 11 11 8 12
REMARK H PARENT 8 13
REMARK Flexibility Score: inf
ROOT
ATOM      1  C   UNL     1     119.492 113.309 116.991  1.00  0.00    -0.022 A 
ATOM      2  C   UNL     1     120.486 112.594 117.689  1.00  0.00     0.058 A 
ATOM      3  C   UNL     1     121.403 111.775 116.997  1.00  0.00     0.161 A 
ATOM      4  C   UNL     1     121.311 111.670 115.598  1.00  0.00     0.157 A 
ATOM      5  C   UNL     1     120.314 112.365 114.909  1.00  0.00     0.051 A 
ATOM      6  C   UNL     1     119.409 113.174 115.598  1.00  0.00     0.012 A 
ENDROOT
BRANCH   1   7
ATOM      7  C   UNL     1     118.500 114.174 117.678  1.00  0.00     0.003 C 
ATOM      8  C   UNL     1     116.881 114.762 119.440  1.00  0.00     0.035 C 
ATOM      9  C   UNL     1     117.856 113.827 118.798  1.00  0.00    -0.030 C 
ENDBRANCH   1   7
BRANCH   3  10
ATOM     10  O   UNL     1     122.407 111.057 117.664  1.00  0.00    -0.493 OA
ATOM     11  C   UNL     1     122.820 111.296 119.006  1.00  0.00     0.278 C 
ENDBRANCH   3  10
BRANCH   4  12
ATOM     12  O   UNL     1     122.199 110.874 114.875  1.00  0.00    -0.504 OA
ATOM     13  H   UNL     1     123.182 110.813 115.108  1.00  0.00     0.293 HD
ENDBRANCH   4  12
TORSDOF 3
ENDMDL
MODEL 8
REMARK VINA RESULT:    -2.703     16.607     17.027
REMARK INTER + INTRA:          -3.272
REMARK INTER:                  -3.122
REMARK INTRA:                  -0.150
REMARK UNBOUND:                -0.174
REMARK SMILES CC=Cc1ccc(O)c(OC)c1
REMARK SMILES IDX 4 1 12 2 9 3 7 4 6 5 5 6 3 7 1 8 2 9 10 10 11 11 8 12
REMARK H PARENT 8 13
REMARK Flexibility Score: inf
ROOT
ATOM      1  C   UNL     1     113.333 119.600 117.414  1.00  0.00    -0.022 A 
ATOM      2  C   UNL     1     112.604 118.513 117.939  1.00  0.00     0.058 A 
ATOM      3  C   UNL     1     111.783 117.728 117.103  1.00  0.00     0.161 A 
ATOM      4  C   UNL     1     111.689 118.046 115.736  1.00  0.00     0.157 A 
ATOM      5  C   UNL     1     112.398 119.134 115.221  1.00  0.00     0.051 A 
ATOM      6  C   UNL     1     113.208 119.907 116.052  1.00  0.00     0.012 A 
ENDROOT
BRANCH   1   7
ATOM      7  C   UNL     1     114.202 120.460 118.257  1.00  0.00     0.003 C 
ATOM      8  C   UNL     1     114.707 122.357 119.746  1.00  0.00     0.035 C 
ATOM      9  C   UNL     1     113.772 121.551 118.901  1.00  0.00    -0.030 C 
ENDBRANCH   1   7
BRANCH   3  10
ATOM     10  O   UNL     1     111.051 116.636 117.595  1.00  0.00    -0.493 OA
ATOM     11  C   UNL     1     110.990 116.252 118.965  1.00  0.00     0.278 C 
ENDBRANCH   3  10
BRANCH   4  12
ATOM     12  O   UNL     1     110.890 117.293 114.875  1.00  0.00    -0.504 OA
ATOM     13  H   UNL     1     111.002 116.293 114.770  1.00  0.00     0.293 HD
ENDBRANCH   4  12
TORSDOF 3
ENDMDL
