MODEL 1
REMARK VINA RESULT:    -2.899      0.000      0.000
REMARK INTER + INTRA:          -4.562
REMARK INTER:                  -4.425
REMARK INTRA:                  -0.138
REMARK UNBOUND:                -0.138
REMARK SMILES CC1=CCC[C@H](C)C(=O)C[C@@H](C(C)C)C(=O)C1
REMARK SMILES IDX 8 1 9 2 6 3 7 4 5 5 4 6 3 7 2 8 1 9 10 11 11 12 15 13 16 14
REMARK SMILES IDX 17 15 12 17 13 18 14 19
REMARK H PARENT
REMARK Flexibility Score: 70.00
ROOT
ATOM      1  C   UNL     1      21.058  41.922  91.606  1.00  0.00     0.136 C 
ATOM      2  O   UNL     1      20.636  42.661  90.729  1.00  0.00    -0.299 OA
ENDROOT
BRANCH   1   3
ATOM      3  C   UNL     1      21.404  42.517  92.961  1.00  0.00     0.053 C 
ATOM      4  C   UNL     1      21.934  43.946  92.792  1.00  0.00     0.016 C 
BRANCH   3   5
ATOM      5  C   UNL     1      20.213  42.486  93.944  1.00  0.00     0.015 C 
BRANCH   5   6
ATOM      6  C   UNL     1      20.069  41.114  94.621  1.00  0.00     0.028 C 
BRANCH   6   7
ATOM      7  C   UNL     1      18.700  40.500  94.447  1.00  0.00    -0.028 C 
ATOM      8  C   UNL     1      18.393  39.414  93.689  1.00  0.00    -0.070 CG0
ATOM      9  C   UNL     1      16.974  38.903  93.768  1.00  0.00     0.039 C 
ATOM     10  G   UNL     1      19.349  38.734  92.713  1.00  0.00     0.000 G0
ENDBRANCH   6   7
ENDBRANCH   5   6
ENDBRANCH   3   5
ENDBRANCH   1   3
BRANCH   1  11
ATOM     11  C   UNL     1      21.146  40.434  91.340  1.00  0.00     0.087 C 
BRANCH  11  12
ATOM     12  C   UNL     1      20.009  39.866  90.441  1.00  0.00     0.066 C 
BRANCH  12  13
ATOM     13  C   UNL     1      19.076  38.963  91.247  1.00  0.00     0.140 C 
ATOM     14  O   UNL     1      18.067  38.499  90.733  1.00  0.00    -0.299 OA
BRANCH  13  15
ATOM     15  C   UNL     1      19.346  38.702  92.708  1.00  0.00     0.106 CG0
ATOM     16  G   UNL     1      18.397  39.406  93.675  1.00  0.00     0.000 G0
ENDBRANCH  13  15
ENDBRANCH  12  13
BRANCH  12  17
ATOM     17  C   UNL     1      20.499  39.189  89.113  1.00  0.00    -0.006 C 
ATOM     18  C   UNL     1      21.251  40.203  88.228  1.00  0.00     0.008 C 
ATOM     19  C   UNL     1      21.421  37.981  89.355  1.00  0.00     0.008 C 
ENDBRANCH  12  17
ENDBRANCH  11  12
ENDBRANCH   1  11
TORSDOF 1
ENDMDL
MODEL 2
REMARK VINA RESULT:    -2.830      1.685      3.944
REMARK INTER + INTRA:          -4.456
REMARK INTER:                  -3.991
REMARK INTRA:                  -0.465
REMARK UNBOUND:                -0.138
REMARK SMILES CC1=CCC[C@H](C)C(=O)C[C@@H](C(C)C)C(=O)C1
REMARK SMILES IDX 8 1 9 2 6 3 7 4 5 5 4 6 3 7 2 8 1 9 10 11 11 12 15 13 16 14
REMARK SMILES IDX 17 15 12 17 13 18 14 19
REMARK H PARENT
REMARK Flexibility Score: 70.00
ROOT
ATOM      1  C   UNL     1      17.166  38.566  92.722  1.00  0.00     0.136 C 
ATOM      2  O   UNL     1      16.904  37.374  92.673  1.00  0.00    -0.299 OA
ENDROOT
BRANCH   1   3
ATOM      3  C   UNL     1      17.013  39.296  94.048  1.00  0.00     0.053 C 
ATOM      4  C   UNL     1      15.533  39.378  94.438  1.00  0.00     0.016 C 
BRANCH   3   5
ATOM      5  C   UNL     1      17.844  38.651  95.179  1.00  0.00     0.015 C 
BRANCH   5   6
ATOM      6  C   UNL     1      19.349  38.908  94.999  1.00  0.00     0.028 C 
BRANCH   6   7
ATOM      7  C   UNL     1      19.722  40.369  95.090  1.00  0.00    -0.028 C 
ATOM      8  C   UNL     1      20.309  41.114  94.117  1.00  0.00    -0.070 CG0
ATOM      9  C   UNL     1      20.472  42.590  94.389  1.00  0.00     0.039 C 
ATOM     10  G   UNL     1      20.883  40.555  92.818  1.00  0.00     0.000 G0
ENDBRANCH   6   7
ENDBRANCH   5   6
ENDBRANCH   3   5
ENDBRANCH   1   3
BRANCH   1  11
ATOM     11  C   UNL     1      17.709  39.256  91.489  1.00  0.00     0.087 C 
BRANCH  11  12
ATOM     12  C   UNL     1      19.251  39.149  91.309  1.00  0.00     0.066 C 
BRANCH  12  13
ATOM     13  C   UNL     1      19.934  40.475  91.645  1.00  0.00     0.140 C 
ATOM     14  O   UNL     1      19.755  41.459  90.941  1.00  0.00    -0.299 OA
BRANCH  13  15
ATOM     15  C   UNL     1      20.901  40.560  92.800  1.00  0.00     0.106 CG0
ATOM     16  G   UNL     1      20.316  41.125  94.091  1.00  0.00     0.000 G0
ENDBRANCH  13  15
ENDBRANCH  12  13
BRANCH  12  17
ATOM     17  C   UNL     1      19.713  38.570  89.926  1.00  0.00    -0.006 C 
ATOM     18  C   UNL     1      21.154  38.030  90.012  1.00  0.00     0.008 C 
ATOM     19  C   UNL     1      18.803  37.441  89.411  1.00  0.00     0.008 C 
ENDBRANCH  12  17
ENDBRANCH  11  12
ENDBRANCH   1  11
TORSDOF 1
ENDMDL
MODEL 3
REMARK VINA RESULT:    -2.736      1.954      4.184
REMARK INTER + INTRA:          -4.313
REMARK INTER:                  -3.821
REMARK INTRA:                  -0.492
REMARK UNBOUND:                -0.138
REMARK SMILES CC1=CCC[C@H](C)C(=O)C[C@@H](C(C)C)C(=O)C1
REMARK SMILES IDX 8 1 9 2 6 3 7 4 5 5 4 6 3 7 2 8 1 9 10 11 11 12 15 13 16 14
REMARK SMILES IDX 17 15 12 17 13 18 14 19
REMARK H PARENT
REMARK Flexibility Score: 70.00
ROOT
ATOM      1  C   UNL     1      20.109  39.110  89.178  1.00  0.00     0.136 C 
ATOM      2  O   UNL     1      20.921  39.672  88.458  1.00  0.00    -0.299 OA
ENDROOT
BRANCH   1   3
ATOM      3  C   UNL     1      19.761  37.657  88.895  1.00  0.00     0.053 C 
ATOM      4  C   UNL     1      20.699  36.727  89.674  1.00  0.00     0.016 C 
BRANCH   3   5
ATOM      5  C   UNL     1      18.284  37.331  89.204  1.00  0.00     0.015 C 
BRANCH   5   6
ATOM      6  C   UNL     1      18.141  36.489  90.482  1.00  0.00     0.028 C 
BRANCH   6   7
ATOM      7  C   UNL     1      17.246  37.122  91.521  1.00  0.00    -0.028 C 
ATOM      8  C   UNL     1      17.644  37.881  92.576  1.00  0.00    -0.070 CG0
ATOM      9  C   UNL     1      16.559  38.517  93.411  1.00  0.00     0.039 C 
ATOM     10  G   UNL     1      19.093  38.066  93.018  1.00  0.00     0.000 G0
ENDBRANCH   6   7
ENDBRANCH   5   6
ENDBRANCH   3   5
ENDBRANCH   1   3
BRANCH   1  11
ATOM     11  C   UNL     1      19.541  39.851  90.369  1.00  0.00     0.087 C 
BRANCH  11  12
ATOM     12  C   UNL     1      20.450  39.847  91.632  1.00  0.00     0.066 C 
BRANCH  12  13
ATOM     13  C   UNL     1      19.652  39.469  92.880  1.00  0.00     0.140 C 
ATOM     14  O   UNL     1      19.502  40.276  93.787  1.00  0.00    -0.299 OA
BRANCH  13  15
ATOM     15  C   UNL     1      19.112  38.069  93.040  1.00  0.00     0.106 CG0
ATOM     16  G   UNL     1      17.665  37.880  92.590  1.00  0.00     0.000 G0
ENDBRANCH  13  15
ENDBRANCH  12  13
BRANCH  12  17
ATOM     17  C   UNL     1      21.298  41.152  91.835  1.00  0.00    -0.006 C 
ATOM     18  C   UNL     1      22.784  40.893  91.519  1.00  0.00     0.008 C 
ATOM     19  C   UNL     1      20.815  42.326  90.965  1.00  0.00     0.008 C 
ENDBRANCH  12  17
ENDBRANCH  11  12
ENDBRANCH   1  11
TORSDOF 1
ENDMDL
MODEL 4
REMARK VINA RESULT:    -2.688      2.456      4.704
REMARK INTER + INTRA:          -4.240
REMARK INTER:                  -3.949
REMARK INTRA:                  -0.291
REMARK UNBOUND:                -0.138
REMARK SMILES CC1=CCC[C@H](C)C(=O)C[C@@H](C(C)C)C(=O)C1
REMARK SMILES IDX 8 1 9 2 6 3 7 4 5 5 4 6 3 7 2 8 1 9 10 11 11 12 15 13 16 14
REMARK SMILES IDX 17 15 12 17 13 18 14 19
REMARK H PARENT
REMARK Flexibility Score: 70.00
ROOT
ATOM      1  C   UNL     1      20.737  40.955  91.369  1.00  0.00     0.136 C 
ATOM      2  O   UNL     1      19.628  40.998  90.859  1.00  0.00    -0.299 OA
ENDROOT
BRANCH   1   3
ATOM      3  C   UNL     1      21.904  41.603  90.641  1.00  0.00     0.053 C 
ATOM      4  C   UNL     1      21.388  42.527  89.532  1.00  0.00     0.016 C 
BRANCH   3   5
ATOM      5  C   UNL     1      22.849  42.365  91.596  1.00  0.00     0.015 C 
BRANCH   5   6
ATOM      6  C   UNL     1      22.186  43.630  92.163  1.00  0.00     0.028 C 
BRANCH   6   7
ATOM      7  C   UNL     1      22.531  43.890  93.611  1.00  0.00    -0.028 C 
ATOM      8  C   UNL     1      21.785  43.546  94.693  1.00  0.00    -0.070 CG0
ATOM      9  C   UNL     1      22.394  43.794  96.052  1.00  0.00     0.039 C 
ATOM     10  G   UNL     1      20.358  43.008  94.632  1.00  0.00     0.000 G0
ENDBRANCH   6   7
ENDBRANCH   5   6
ENDBRANCH   3   5
ENDBRANCH   1   3
BRANCH   1  11
ATOM     11  C   UNL     1      20.897  40.331  92.739  1.00  0.00     0.087 C 
BRANCH  11  12
ATOM     12  C   UNL     1      19.733  40.628  93.729  1.00  0.00     0.066 C 
BRANCH  12  13
ATOM     13  C   UNL     1      20.203  41.529  94.870  1.00  0.00     0.140 C 
ATOM     14  O   UNL     1      20.403  41.064  95.984  1.00  0.00    -0.299 OA
BRANCH  13  15
ATOM     15  C   UNL     1      20.345  43.016  94.655  1.00  0.00     0.106 CG0
ATOM     16  G   UNL     1      21.779  43.539  94.686  1.00  0.00     0.000 G0
ENDBRANCH  13  15
ENDBRANCH  12  13
BRANCH  12  17
ATOM     17  C   UNL     1      18.967  39.359  94.243  1.00  0.00    -0.006 C 
ATOM     18  C   UNL     1      17.454  39.634  94.338  1.00  0.00     0.008 C 
ATOM     19  C   UNL     1      19.178  38.124  93.349  1.00  0.00     0.008 C 
ENDBRANCH  12  17
ENDBRANCH  11  12
ENDBRANCH   1  11
TORSDOF 1
ENDMDL
MODEL 5
REMARK VINA RESULT:    -2.654      2.276      4.516
REMARK INTER + INTRA:          -4.188
REMARK INTER:                  -3.683
REMARK INTRA:                  -0.505
REMARK UNBOUND:                -0.138
REMARK SMILES CC1=CCC[C@H](C)C(=O)C[C@@H](C(C)C)C(=O)C1
REMARK SMILES IDX 8 1 9 2 6 3 7 4 5 5 4 6 3 7 2 8 1 9 10 11 11 12 15 13 16 14
REMARK SMILES IDX 17 15 12 17 13 18 14 19
REMARK H PARENT
REMARK Flexibility Score: 70.00
ROOT
ATOM      1  C   UNL     1      16.900  39.584  93.905  1.00  0.00     0.136 C 
ATOM      2  O   UNL     1      15.768  39.438  94.339  1.00  0.00    -0.299 OA
ENDROOT
BRANCH   1   3
ATOM      3  C   UNL     1      18.002  40.013  94.861  1.00  0.00     0.053 C 
ATOM      4  C   UNL     1      18.657  38.784  95.500  1.00  0.00     0.016 C 
BRANCH   3   5
ATOM      5  C   UNL     1      19.060  40.909  94.182  1.00  0.00     0.015 C 
BRANCH   5   6
ATOM      6  C   UNL     1      20.372  40.149  93.928  1.00  0.00     0.028 C 
BRANCH   6   7
ATOM      7  C   UNL     1      20.809  40.174  92.482  1.00  0.00    -0.028 C 
ATOM      8  C   UNL     1      20.578  39.210  91.552  1.00  0.00    -0.070 CG0
ATOM      9  C   UNL     1      20.999  39.512  90.133  1.00  0.00     0.039 C 
ATOM     10  G   UNL     1      20.006  37.828  91.854  1.00  0.00     0.000 G0
ENDBRANCH   6   7
ENDBRANCH   5   6
ENDBRANCH   3   5
ENDBRANCH   1   3
BRANCH   1  11
ATOM     11  C   UNL     1      17.184  39.258  92.454  1.00  0.00     0.087 C 
BRANCH  11  12
ATOM     12  C   UNL     1      17.389  37.744  92.156  1.00  0.00     0.066 C 
BRANCH  12  13
ATOM     13  C   UNL     1      18.630  37.521  91.292  1.00  0.00     0.140 C 
ATOM     14  O   UNL     1      18.526  37.043  90.171  1.00  0.00    -0.299 OA
BRANCH  13  15
ATOM     15  C   UNL     1      20.003  37.809  91.848  1.00  0.00     0.106 CG0
ATOM     16  G   UNL     1      20.547  39.200  91.533  1.00  0.00     0.000 G0
ENDBRANCH  13  15
ENDBRANCH  12  13
BRANCH  12  17
ATOM     17  C   UNL     1      16.123  37.010  91.589  1.00  0.00    -0.006 C 
ATOM     18  C   UNL     1      15.398  36.231  92.703  1.00  0.00     0.008 C 
ATOM     19  C   UNL     1      15.113  37.968  90.933  1.00  0.00     0.008 C 
ENDBRANCH  12  17
ENDBRANCH  11  12
ENDBRANCH   1  11
TORSDOF 1
ENDMDL
MODEL 6
REMARK VINA RESULT:    -2.653      2.282      4.203
REMARK INTER + INTRA:          -4.187
REMARK INTER:                  -3.824
REMARK INTRA:                  -0.363
REMARK UNBOUND:                -0.138
REMARK SMILES CC1=CCC[C@H](C)C(=O)C[C@@H](C(C)C)C(=O)C1
REMARK SMILES IDX 8 1 9 2 6 3 7 4 5 5 4 6 3 7 2 8 1 9 10 11 11 12 15 13 16 14
REMARK SMILES IDX 17 15 12 17 13 18 14 19
REMARK H PARENT
REMARK Flexibility Score: 70.00
ROOT
ATOM      1  C   UNL     1      18.969  40.815  94.044  1.00  0.00     0.136 C 
ATOM      2  O   UNL     1      18.191  40.320  94.845  1.00  0.00    -0.299 OA
ENDROOT
BRANCH   1   3
ATOM      3  C   UNL     1      19.938  41.883  94.528  1.00  0.00     0.053 C 
ATOM      4  C   UNL     1      21.253  41.239  94.979  1.00  0.00     0.016 C 
BRANCH   3   5
ATOM      5  C   UNL     1      20.197  42.973  93.465  1.00  0.00     0.015 C 
BRANCH   5   6
ATOM      6  C   UNL     1      21.685  43.062  93.090  1.00  0.00     0.028 C 
BRANCH   6   7
ATOM      7  C   UNL     1      21.918  43.365  91.629  1.00  0.00    -0.028 C 
ATOM      8  C   UNL     1      22.034  42.456  90.624  1.00  0.00    -0.070 CG0
ATOM      9  C   UNL     1      22.136  42.998  89.219  1.00  0.00     0.039 C 
ATOM     10  G   UNL     1      22.149  40.947  90.824  1.00  0.00     0.000 G0
ENDBRANCH   6   7
ENDBRANCH   5   6
ENDBRANCH   3   5
ENDBRANCH   1   3
BRANCH   1  11
ATOM     11  C   UNL     1      18.997  40.296  92.622  1.00  0.00     0.087 C 
BRANCH  11  12
ATOM     12  C   UNL     1      20.334  39.617  92.204  1.00  0.00     0.066 C 
BRANCH  12  13
ATOM     13  C   UNL     1      20.840  40.179  90.876  1.00  0.00     0.140 C 
ATOM     14  O   UNL     1      20.224  39.970  89.840  1.00  0.00    -0.299 OA
BRANCH  13  15
ATOM     15  C   UNL     1      22.150  40.926  90.817  1.00  0.00     0.106 CG0
ATOM     16  G   UNL     1      22.023  42.437  90.636  1.00  0.00     0.000 G0
ENDBRANCH  13  15
ENDBRANCH  12  13
BRANCH  12  17
ATOM     17  C   UNL     1      20.307  38.048  92.220  1.00  0.00    -0.006 C 
ATOM     18  C   UNL     1      20.693  37.509  93.612  1.00  0.00     0.008 C 
ATOM     19  C   UNL     1      18.936  37.464  91.838  1.00  0.00     0.008 C 
ENDBRANCH  12  17
ENDBRANCH  11  12
ENDBRANCH   1  11
TORSDOF 1
ENDMDL
MODEL 7
REMARK VINA RESULT:    -2.571      1.587      4.200
REMARK INTER + INTRA:          -4.061
REMARK INTER:                  -3.703
REMARK INTRA:                  -0.357
REMARK UNBOUND:                -0.138
REMARK SMILES CC1=CCC[C@H](C)C(=O)C[C@@H](C(C)C)C(=O)C1
REMARK SMILES IDX 8 1 9 2 6 3 7 4 5 5 4 6 3 7 2 8 1 9 10 11 11 12 15 13 16 14
REMARK SMILES IDX 17 15 12 17 13 18 14 19
REMARK H PARENT
REMARK Flexibility Score: 70.00
ROOT
ATOM      1  C   UNL     1      21.244  41.023  89.852  1.00  0.00     0.136 C 
ATOM      2  O   UNL     1      22.233  41.739  89.807  1.00  0.00    -0.299 OA
ENDROOT
BRANCH   1   3
ATOM      3  C   UNL     1      21.123  39.877  88.860  1.00  0.00     0.053 C 
ATOM      4  C   UNL     1      21.279  40.399  87.427  1.00  0.00     0.016 C 
BRANCH   3   5
ATOM      5  C   UNL     1      22.130  38.740  89.142  1.00  0.00     0.015 C 
BRANCH   5   6
ATOM      6  C   UNL     1      21.511  37.633  90.011  1.00  0.00     0.028 C 
BRANCH   6   7
ATOM      7  C   UNL     1      20.023  37.470  89.803  1.00  0.00    -0.028 C 
ATOM      8  C   UNL     1      19.048  37.735  90.711  1.00  0.00    -0.070 CG0
ATOM      9  C   UNL     1      17.619  37.618  90.235  1.00  0.00     0.039 C 
ATOM     10  G   UNL     1      19.292  38.059  92.183  1.00  0.00     0.000 G0
ENDBRANCH   6   7
ENDBRANCH   5   6
ENDBRANCH   3   5
ENDBRANCH   1   3
BRANCH   1  11
ATOM     11  C   UNL     1      20.215  41.251  90.939  1.00  0.00     0.087 C 
BRANCH  11  12
ATOM     12  C   UNL     1      20.447  40.424  92.237  1.00  0.00     0.066 C 
BRANCH  12  13
ATOM     13  C   UNL     1      19.244  39.531  92.538  1.00  0.00     0.140 C 
ATOM     14  O   UNL     1      18.267  39.983  93.120  1.00  0.00    -0.299 OA
BRANCH  13  15
ATOM     15  C   UNL     1      19.284  38.062  92.195  1.00  0.00     0.106 CG0
ATOM     16  G   UNL     1      19.049  37.737  90.722  1.00  0.00     0.000 G0
ENDBRANCH  13  15
ENDBRANCH  12  13
BRANCH  12  17
ATOM     17  C   UNL     1      20.894  41.268  93.482  1.00  0.00    -0.006 C 
ATOM     18  C   UNL     1      21.704  40.402  94.467  1.00  0.00     0.008 C 
ATOM     19  C   UNL     1      21.744  42.495  93.106  1.00  0.00     0.008 C 
ENDBRANCH  12  17
ENDBRANCH  11  12
ENDBRANCH   1  11
TORSDOF 1
ENDMDL
MODEL 8
REMARK VINA RESULT:    -2.556      1.591      2.101
REMARK INTER + INTRA:          -4.039
REMARK INTER:                  -3.847
REMARK INTRA:                  -0.193
REMARK UNBOUND:                -0.138
REMARK SMILES CC1=CCC[C@H](C)C(=O)C[C@@H](C(C)C)C(=O)C1
REMARK SMILES IDX 8 1 9 2 6 3 7 4 5 5 4 6 3 7 2 8 1 9 10 11 11 12 15 13 16 14
REMARK SMILES IDX 17 15 12 17 13 18 14 19
REMARK H PARENT
REMARK Flexibility Score: 70.00
ROOT
ATOM      1  C   UNL     1      20.383  40.311  91.401  1.00  0.00     0.136 C 
ATOM      2  O   UNL     1      19.750  40.890  90.532  1.00  0.00    -0.299 OA
ENDROOT
BRANCH   1   3
ATOM      3  C   UNL     1      21.288  41.124  92.313  1.00  0.00     0.053 C 
ATOM      4  C   UNL     1      21.328  42.586  91.853  1.00  0.00     0.016 C 
BRANCH   3   5
ATOM      5  C   UNL     1      20.874  41.027  93.798  1.00  0.00     0.015 C 
BRANCH   5   6
ATOM      6  C   UNL     1      19.390  41.371  94.000  1.00  0.00     0.028 C 
BRANCH   6   7
ATOM      7  C   UNL     1      18.662  40.388  94.887  1.00  0.00    -0.028 C 
ATOM      8  C   UNL     1      17.812  39.409  94.479  1.00  0.00    -0.070 CG0
ATOM      9  C   UNL     1      17.300  38.462  95.537  1.00  0.00     0.039 C 
ATOM     10  G   UNL     1      17.282  39.253  93.056  1.00  0.00     0.000 G0
ENDBRANCH   6   7
ENDBRANCH   5   6
ENDBRANCH   3   5
ENDBRANCH   1   3
BRANCH   1  11
ATOM     11  C   UNL     1      20.185  38.822  91.592  1.00  0.00     0.087 C 
BRANCH  11  12
ATOM     12  C   UNL     1      18.804  38.284  91.116  1.00  0.00     0.066 C 
BRANCH  12  13
ATOM     13  C   UNL     1      17.871  38.048  92.303  1.00  0.00     0.140 C 
ATOM     14  O   UNL     1      17.541  36.913  92.617  1.00  0.00    -0.299 OA
BRANCH  13  15
ATOM     15  C   UNL     1      17.280  39.220  93.048  1.00  0.00     0.106 CG0
ATOM     16  G   UNL     1      17.799  39.408  94.472  1.00  0.00     0.000 G0
ENDBRANCH  13  15
ENDBRANCH  12  13
BRANCH  12  17
ATOM     17  C   UNL     1      18.878  37.044  90.157  1.00  0.00    -0.006 C 
ATOM     18  C   UNL     1      17.644  36.993  89.234  1.00  0.00     0.008 C 
ATOM     19  C   UNL     1      20.141  37.037  89.277  1.00  0.00     0.008 C 
ENDBRANCH  12  17
ENDBRANCH  11  12
ENDBRANCH   1  11
TORSDOF 1
ENDMDL
MODEL 9
REMARK VINA RESULT:    -2.550      1.826      3.512
REMARK INTER + INTRA:          -4.029
REMARK INTER:                  -3.677
REMARK INTRA:                  -0.352
REMARK UNBOUND:                -0.138
REMARK SMILES CC1=CCC[C@H](C)C(=O)C[C@@H](C(C)C)C(=O)C1
REMARK SMILES IDX 8 1 9 2 6 3 7 4 5 5 4 6 3 7 2 8 1 9 10 11 11 12 15 13 16 14
REMARK SMILES IDX 17 15 12 17 13 18 14 19
REMARK H PARENT
REMARK Flexibility Score: 70.00
ROOT
ATOM      1  C   UNL     1      20.007  40.014  91.472  1.00  0.00     0.136 C 
ATOM      2  O   UNL     1      19.374  40.367  90.488  1.00  0.00    -0.299 OA
ENDROOT
BRANCH   1   3
ATOM      3  C   UNL     1      21.155  40.886  91.954  1.00  0.00     0.053 C 
ATOM      4  C   UNL     1      22.357  40.748  91.012  1.00  0.00     0.016 C 
BRANCH   3   5
ATOM      5  C   UNL     1      20.749  42.368  92.112  1.00  0.00     0.015 C 
BRANCH   5   6
ATOM      6  C   UNL     1      19.950  42.606  93.403  1.00  0.00     0.028 C 
BRANCH   6   7
ATOM      7  C   UNL     1      20.487  41.840  94.590  1.00  0.00    -0.028 C 
ATOM      8  C   UNL     1      19.871  40.815  95.236  1.00  0.00    -0.070 CG0
ATOM      9  C   UNL     1      20.658  40.116  96.318  1.00  0.00     0.039 C 
ATOM     10  G   UNL     1      18.427  40.381  95.001  1.00  0.00     0.000 G0
ENDBRANCH   6   7
ENDBRANCH   5   6
ENDBRANCH   3   5
ENDBRANCH   1   3
BRANCH   1  11
ATOM     11  C   UNL     1      19.579  38.770  92.220  1.00  0.00     0.087 C 
BRANCH  11  12
ATOM     12  C   UNL     1      18.165  38.854  92.866  1.00  0.00     0.066 C 
BRANCH  12  13
ATOM     13  C   UNL     1      18.266  38.998  94.385  1.00  0.00     0.140 C 
ATOM     14  O   UNL     1      18.145  38.019  95.109  1.00  0.00    -0.299 OA
BRANCH  13  15
ATOM     15  C   UNL     1      18.433  40.361  95.009  1.00  0.00     0.106 CG0
ATOM     16  G   UNL     1      19.879  40.794  95.236  1.00  0.00     0.000 G0
ENDBRANCH  13  15
ENDBRANCH  12  13
BRANCH  12  17
ATOM     17  C   UNL     1      17.178  37.712  92.437  1.00  0.00    -0.006 C 
ATOM     18  C   UNL     1      15.732  38.241  92.358  1.00  0.00     0.008 C 
ATOM     19  C   UNL     1      17.538  37.083  91.079  1.00  0.00     0.008 C 
ENDBRANCH  12  17
ENDBRANCH  11  12
ENDBRANCH   1  11
TORSDOF 1
ENDMDL
