MODEL 1
REMARK VINA RESULT:    -7.104      0.000      0.000
REMARK INTER + INTRA:         -11.238
REMARK INTER:                 -10.219
REMARK INTRA:                  -1.019
REMARK UNBOUND:                -1.019
REMARK SMILES O=c1cc(-c2ccc(O)c(O)c2)oc2cc(O[C@H]3O[C@@H](CO)[C@@H](O)[C@@H](O)[C@@H]3O)cc(O)c12
REMARK SMILES IDX 17 1 16 2 4 3 3 4 13 5 2 6 14 7 1 8 32 9 15 10 30 11 29 12
REMARK SMILES IDX 5 13 6 14 7 15 8 16 12 17 10 18 9 19 11 21 31 23 18 25 27 26
REMARK SMILES IDX 19 27 25 28 20 29 23 30 28 31 26 33 21 35 22 36 24 38
REMARK H PARENT 9 20 11 22 31 24 28 32 26 34 22 37 24 39
REMARK Flexibility Score: inf
ROOT
ATOM      1  O   UNL     1      16.991  46.710  41.439  1.00  0.00    -0.462 OA
ENDROOT
BRANCH   1   2
ATOM      2  C   UNL     1      16.910  47.246  42.732  1.00  0.00     0.130 A 
ATOM      3  C   UNL     1      19.262  49.414  46.260  1.00  0.00     0.138 A 
ATOM      4  C   UNL     1      18.079  49.674  46.977  1.00  0.00     0.100 A 
ATOM      5  O   UNL     1      19.197  48.727  45.129  1.00  0.00    -0.456 OA
ATOM      6  C   UNL     1      16.860  49.211  46.483  1.00  0.00     0.197 A 
ATOM      7  C   UNL     1      18.057  48.274  44.607  1.00  0.00     0.146 A 
ATOM      8  O   UNL     1      15.806  49.501  47.116  1.00  0.00    -0.289 OA
ATOM      9  C   UNL     1      16.822  48.460  45.290  1.00  0.00     0.107 A 
ATOM     10  C   UNL     1      18.092  47.633  43.363  1.00  0.00     0.094 A 
ATOM     11  C   UNL     1      15.631  47.959  44.692  1.00  0.00     0.134 A 
ATOM     12  C   UNL     1      15.685  47.406  43.406  1.00  0.00     0.093 A 
BRANCH   3  13
ATOM     13  C   UNL     1      20.586  49.919  46.724  1.00  0.00     0.021 A 
ATOM     14  C   UNL     1      21.712  49.729  45.900  1.00  0.00     0.016 A 
ATOM     15  C   UNL     1      22.955  50.249  46.264  1.00  0.00     0.051 A 
ATOM     16  C   UNL     1      23.098  50.960  47.462  1.00  0.00     0.157 A 
ATOM     17  C   UNL     1      20.747  50.605  47.944  1.00  0.00     0.062 A 
ATOM     18  C   UNL     1      21.994  51.130  48.308  1.00  0.00     0.158 A 
BRANCH  16  19
ATOM     19  O   UNL     1      24.330  51.509  47.810  1.00  0.00    -0.504 OA
ATOM     20  H   UNL     1      24.668  52.363  47.383  1.00  0.00     0.293 HD
ENDBRANCH  16  19
BRANCH  18  21
ATOM     21  O   UNL     1      22.141  51.831  49.500  1.00  0.00    -0.504 OA
ATOM     22  H   UNL     1      22.228  51.358  50.392  1.00  0.00     0.293 HD
ENDBRANCH  18  21
ENDBRANCH   3  13
BRANCH  11  23
ATOM     23  O   UNL     1      14.383  47.969  45.325  1.00  0.00    -0.507 OA
ATOM     24  H   UNL     1      13.558  48.381  44.912  1.00  0.00     0.293 HD
ENDBRANCH  11  23
ENDBRANCH   1   2
BRANCH   1  25
ATOM     25  C   UNL     1      17.364  45.359  41.142  1.00  0.00     0.339 C 
ATOM     26  C   UNL     1      18.549  45.318  40.151  1.00  0.00     0.214 C 
ATOM     27  O   UNL     1      16.242  44.607  40.713  1.00  0.00    -0.332 OA
ATOM     28  C   UNL     1      18.103  45.737  38.742  1.00  0.00     0.180 C 
ATOM     29  C   UNL     1      15.754  44.952  39.417  1.00  0.00     0.179 C 
ATOM     30  C   UNL     1      16.862  44.929  38.339  1.00  0.00     0.177 C 
BRANCH  26  31
ATOM     31  O   UNL     1      19.079  44.020  40.090  1.00  0.00    -0.384 OA
ATOM     32  H   UNL     1      18.346  43.389  40.325  1.00  0.00     0.211 HD
ENDBRANCH  26  31
BRANCH  28  33
ATOM     33  O   UNL     1      17.854  47.119  38.704  1.00  0.00    -0.387 OA
ATOM     34  H   UNL     1      17.113  47.239  38.049  1.00  0.00     0.211 HD
ENDBRANCH  28  33
BRANCH  29  35
ATOM     35  C   UNL     1      14.880  46.235  39.408  1.00  0.00     0.191 C 
BRANCH  35  36
ATOM     36  O   UNL     1      13.833  46.106  38.481  1.00  0.00    -0.394 OA
ATOM     37  H   UNL     1      13.917  46.858  37.836  1.00  0.00     0.210 HD
ENDBRANCH  35  36
ENDBRANCH  29  35
BRANCH  30  38
ATOM     38  O   UNL     1      16.361  45.398  37.112  1.00  0.00    -0.387 OA
ATOM     39  H   UNL     1      17.130  45.774  36.596  1.00  0.00     0.211 HD
ENDBRANCH  30  38
ENDBRANCH   1  25
TORSDOF 11
ENDMDL
MODEL 2
REMARK VINA RESULT:    -7.090      2.198      9.075
REMARK INTER + INTRA:         -11.217
REMARK INTER:                 -10.217
REMARK INTRA:                  -1.001
REMARK UNBOUND:                -1.019
REMARK SMILES O=c1cc(-c2ccc(O)c(O)c2)oc2cc(O[C@H]3O[C@@H](CO)[C@@H](O)[C@@H](O)[C@@H]3O)cc(O)c12
REMARK SMILES IDX 17 1 16 2 4 3 3 4 13 5 2 6 14 7 1 8 32 9 15 10 30 11 29 12
REMARK SMILES IDX 5 13 6 14 7 15 8 16 12 17 10 18 9 19 11 21 31 23 18 25 27 26
REMARK SMILES IDX 19 27 25 28 20 29 23 30 28 31 26 33 21 35 22 36 24 38
REMARK H PARENT 9 20 11 22 31 24 28 32 26 34 22 37 24 39
REMARK Flexibility Score: inf
ROOT
ATOM      1  O   UNL     1      17.318  48.058  45.401  1.00  0.00    -0.462 OA
ENDROOT
BRANCH   1   2
ATOM      2  C   UNL     1      16.549  47.352  44.466  1.00  0.00     0.130 A 
ATOM      3  C   UNL     1      16.307  45.664  40.019  1.00  0.00     0.138 A 
ATOM      4  C   UNL     1      15.151  44.912  40.299  1.00  0.00     0.100 A 
ATOM      5  O   UNL     1      16.821  46.438  40.965  1.00  0.00    -0.456 OA
ATOM      6  C   UNL     1      14.570  44.987  41.563  1.00  0.00     0.197 A 
ATOM      7  C   UNL     1      16.313  46.535  42.194  1.00  0.00     0.146 A 
ATOM      8  O   UNL     1      13.564  44.263  41.806  1.00  0.00    -0.289 OA
ATOM      9  C   UNL     1      15.122  45.838  42.544  1.00  0.00     0.107 A 
ATOM     10  C   UNL     1      16.984  47.315  43.142  1.00  0.00     0.094 A 
ATOM     11  C   UNL     1      14.618  45.972  43.869  1.00  0.00     0.134 A 
ATOM     12  C   UNL     1      15.362  46.684  44.820  1.00  0.00     0.093 A 
BRANCH   3  13
ATOM     13  C   UNL     1      16.989  45.592  38.696  1.00  0.00     0.021 A 
ATOM     14  C   UNL     1      18.290  46.117  38.572  1.00  0.00     0.016 A 
ATOM     15  C   UNL     1      18.991  46.006  37.370  1.00  0.00     0.051 A 
ATOM     16  C   UNL     1      18.402  45.373  36.268  1.00  0.00     0.157 A 
ATOM     17  C   UNL     1      16.392  44.989  37.571  1.00  0.00     0.062 A 
ATOM     18  C   UNL     1      17.097  44.874  36.366  1.00  0.00     0.158 A 
BRANCH  16  19
ATOM     19  O   UNL     1      19.112  45.230  35.078  1.00  0.00    -0.504 OA
ATOM     20  H   UNL     1      18.973  44.430  34.472  1.00  0.00     0.293 HD
ENDBRANCH  16  19
BRANCH  18  21
ATOM     21  O   UNL     1      16.513  44.253  35.266  1.00  0.00    -0.504 OA
ATOM     22  H   UNL     1      16.214  44.777  34.451  1.00  0.00     0.293 HD
ENDBRANCH  18  21
ENDBRANCH   3  13
BRANCH  11  23
ATOM     23  O   UNL     1      13.395  45.440  44.289  1.00  0.00    -0.507 OA
ATOM     24  H   UNL     1      12.818  44.852  43.705  1.00  0.00     0.293 HD
ENDBRANCH  11  23
ENDBRANCH   1   2
BRANCH   1  25
ATOM     25  C   UNL     1      18.539  47.577  45.978  1.00  0.00     0.339 C 
ATOM     26  C   UNL     1      18.418  47.465  47.514  1.00  0.00     0.214 C 
ATOM     27  O   UNL     1      19.641  48.359  45.553  1.00  0.00    -0.332 OA
ATOM     28  C   UNL     1      18.401  48.855  48.168  1.00  0.00     0.180 C 
ATOM     29  C   UNL     1      19.685  49.675  46.102  1.00  0.00     0.179 C 
ATOM     30  C   UNL     1      19.584  49.679  47.645  1.00  0.00     0.177 C 
BRANCH  26  31
ATOM     31  O   UNL     1      19.502  46.738  48.029  1.00  0.00    -0.384 OA
ATOM     32  H   UNL     1      19.130  46.031  48.623  1.00  0.00     0.211 HD
ENDBRANCH  26  31
BRANCH  28  33
ATOM     33  O   UNL     1      17.175  49.493  47.914  1.00  0.00    -0.387 OA
ATOM     34  H   UNL     1      16.889  49.174  47.014  1.00  0.00     0.211 HD
ENDBRANCH  28  33
BRANCH  29  35
ATOM     35  C   UNL     1      18.725  50.671  45.397  1.00  0.00     0.191 C 
BRANCH  35  36
ATOM     36  O   UNL     1      19.128  51.993  45.641  1.00  0.00    -0.394 OA
ATOM     37  H   UNL     1      19.013  52.498  44.792  1.00  0.00     0.210 HD
ENDBRANCH  35  36
ENDBRANCH  29  35
BRANCH  30  38
ATOM     38  O   UNL     1      19.503  50.997  48.127  1.00  0.00    -0.387 OA
ATOM     39  H   UNL     1      19.727  50.976  49.101  1.00  0.00     0.211 HD
ENDBRANCH  30  38
ENDBRANCH   1  25
TORSDOF 11
ENDMDL
MODEL 3
REMARK VINA RESULT:    -6.882      2.791      5.434
REMARK INTER + INTRA:         -10.919
REMARK INTER:                  -9.805
REMARK INTRA:                  -1.114
REMARK UNBOUND:                -1.019
REMARK SMILES O=c1cc(-c2ccc(O)c(O)c2)oc2cc(O[C@H]3O[C@@H](CO)[C@@H](O)[C@@H](O)[C@@H]3O)cc(O)c12
REMARK SMILES IDX 17 1 16 2 4 3 3 4 13 5 2 6 14 7 1 8 32 9 15 10 30 11 29 12
REMARK SMILES IDX 5 13 6 14 7 15 8 16 12 17 10 18 9 19 11 21 31 23 18 25 27 26
REMARK SMILES IDX 19 27 25 28 20 29 23 30 28 31 26 33 21 35 22 36 24 38
REMARK H PARENT 9 20 11 22 31 24 28 32 26 34 22 37 24 39
REMARK Flexibility Score: inf
ROOT
ATOM      1  O   UNL     1      15.424  48.077  44.217  1.00  0.00    -0.462 OA
ENDROOT
BRANCH   1   2
ATOM      2  C   UNL     1      16.814  48.084  44.033  1.00  0.00     0.130 A 
ATOM      3  C   UNL     1      21.020  49.498  45.763  1.00  0.00     0.138 A 
ATOM      4  C   UNL     1      21.736  48.711  44.842  1.00  0.00     0.100 A 
ATOM      5  O   UNL     1      19.696  49.532  45.694  1.00  0.00    -0.456 OA
ATOM      6  C   UNL     1      21.045  47.978  43.879  1.00  0.00     0.197 A 
ATOM      7  C   UNL     1      18.987  48.840  44.803  1.00  0.00     0.146 A 
ATOM      8  O   UNL     1      21.707  47.239  43.097  1.00  0.00    -0.289 OA
ATOM      9  C   UNL     1      19.638  48.052  43.812  1.00  0.00     0.107 A 
ATOM     10  C   UNL     1      17.590  48.882  44.874  1.00  0.00     0.094 A 
ATOM     11  C   UNL     1      18.837  47.330  42.882  1.00  0.00     0.134 A 
ATOM     12  C   UNL     1      17.444  47.317  43.036  1.00  0.00     0.093 A 
BRANCH   3  13
ATOM     13  C   UNL     1      21.708  50.271  46.835  1.00  0.00     0.021 A 
ATOM     14  C   UNL     1      23.113  50.365  46.811  1.00  0.00     0.016 A 
ATOM     15  C   UNL     1      23.791  51.138  47.756  1.00  0.00     0.051 A 
ATOM     16  C   UNL     1      23.077  51.825  48.746  1.00  0.00     0.157 A 
ATOM     17  C   UNL     1      21.002  50.937  47.856  1.00  0.00     0.062 A 
ATOM     18  C   UNL     1      21.682  51.716  48.802  1.00  0.00     0.158 A 
BRANCH  16  19
ATOM     19  O   UNL     1      23.749  52.625  49.668  1.00  0.00    -0.504 OA
ATOM     20  H   UNL     1      23.432  53.562  49.885  1.00  0.00     0.293 HD
ENDBRANCH  16  19
BRANCH  18  21
ATOM     21  O   UNL     1      20.978  52.395  49.792  1.00  0.00    -0.504 OA
ATOM     22  H   UNL     1      21.338  52.493  50.734  1.00  0.00     0.293 HD
ENDBRANCH  18  21
ENDBRANCH   3  13
BRANCH  11  23
ATOM     23  O   UNL     1      19.361  46.628  41.791  1.00  0.00    -0.507 OA
ATOM     24  H   UNL     1      20.027  47.028  41.145  1.00  0.00     0.293 HD
ENDBRANCH  11  23
ENDBRANCH   1   2
BRANCH   1  25
ATOM     25  C   UNL     1      14.633  46.895  44.388  1.00  0.00     0.339 C 
ATOM     26  C   UNL     1      13.227  47.076  43.774  1.00  0.00     0.214 C 
ATOM     27  O   UNL     1      14.610  46.495  45.747  1.00  0.00    -0.332 OA
ATOM     28  C   UNL     1      12.375  48.033  44.622  1.00  0.00     0.180 C 
ATOM     29  C   UNL     1      13.852  47.347  46.606  1.00  0.00     0.179 C 
ATOM     30  C   UNL     1      12.415  47.587  46.089  1.00  0.00     0.177 C 
BRANCH  26  31
ATOM     31  O   UNL     1      12.573  45.837  43.697  1.00  0.00    -0.384 OA
ATOM     32  H   UNL     1      13.273  45.139  43.576  1.00  0.00     0.211 HD
ENDBRANCH  26  31
BRANCH  28  33
ATOM     33  O   UNL     1      12.835  49.352  44.471  1.00  0.00    -0.387 OA
ATOM     34  H   UNL     1      12.217  49.777  43.816  1.00  0.00     0.211 HD
ENDBRANCH  28  33
BRANCH  29  35
ATOM     35  C   UNL     1      14.609  48.640  47.014  1.00  0.00     0.191 C 
BRANCH  35  36
ATOM     36  O   UNL     1      14.263  49.014  48.323  1.00  0.00    -0.394 OA
ATOM     37  H   UNL     1      13.271  48.971  48.389  1.00  0.00     0.210 HD
ENDBRANCH  35  36
ENDBRANCH  29  35
BRANCH  30  38
ATOM     38  O   UNL     1      11.756  48.530  46.896  1.00  0.00    -0.387 OA
ATOM     39  H   UNL     1      11.952  49.436  46.523  1.00  0.00     0.211 HD
ENDBRANCH  30  38
ENDBRANCH   1  25
TORSDOF 11
ENDMDL
MODEL 4
REMARK VINA RESULT:    -6.865      1.896      8.904
REMARK INTER + INTRA:         -10.894
REMARK INTER:                  -9.823
REMARK INTRA:                  -1.071
REMARK UNBOUND:                -1.019
REMARK SMILES O=c1cc(-c2ccc(O)c(O)c2)oc2cc(O[C@H]3O[C@@H](CO)[C@@H](O)[C@@H](O)[C@@H]3O)cc(O)c12
REMARK SMILES IDX 17 1 16 2 4 3 3 4 13 5 2 6 14 7 1 8 32 9 15 10 30 11 29 12
REMARK SMILES IDX 5 13 6 14 7 15 8 16 12 17 10 18 9 19 11 21 31 23 18 25 27 26
REMARK SMILES IDX 19 27 25 28 20 29 23 30 28 31 26 33 21 35 22 36 24 38
REMARK H PARENT 9 20 11 22 31 24 28 32 26 34 22 37 24 39
REMARK Flexibility Score: inf
ROOT
ATOM      1  O   UNL     1      18.031  48.388  45.713  1.00  0.00    -0.462 OA
ENDROOT
BRANCH   1   2
ATOM      2  C   UNL     1      17.090  47.719  44.918  1.00  0.00     0.130 A 
ATOM      3  C   UNL     1      16.195  45.748  40.676  1.00  0.00     0.138 A 
ATOM      4  C   UNL     1      14.991  45.173  41.125  1.00  0.00     0.100 A 
ATOM      5  O   UNL     1      16.892  46.517  41.500  1.00  0.00    -0.456 OA
ATOM      6  C   UNL     1      14.556  45.416  42.426  1.00  0.00     0.197 A 
ATOM      7  C   UNL     1      16.527  46.771  42.757  1.00  0.00     0.146 A 
ATOM      8  O   UNL     1      13.500  44.847  42.822  1.00  0.00    -0.289 OA
ATOM      9  C   UNL     1      15.303  46.260  43.274  1.00  0.00     0.107 A 
ATOM     10  C   UNL     1      17.381  47.527  43.567  1.00  0.00     0.094 A 
ATOM     11  C   UNL     1      14.957  46.556  44.623  1.00  0.00     0.134 A 
ATOM     12  C   UNL     1      15.874  47.237  45.436  1.00  0.00     0.093 A 
BRANCH   3  13
ATOM     13  C   UNL     1      16.725  45.489  39.307  1.00  0.00     0.021 A 
ATOM     14  C   UNL     1      15.854  44.974  38.327  1.00  0.00     0.016 A 
ATOM     15  C   UNL     1      16.292  44.784  37.015  1.00  0.00     0.051 A 
ATOM     16  C   UNL     1      17.610  45.100  36.660  1.00  0.00     0.157 A 
ATOM     17  C   UNL     1      18.058  45.769  38.949  1.00  0.00     0.062 A 
ATOM     18  C   UNL     1      18.497  45.583  37.631  1.00  0.00     0.158 A 
BRANCH  16  19
ATOM     19  O   UNL     1      18.039  44.945  35.344  1.00  0.00    -0.504 OA
ATOM     20  H   UNL     1      18.503  45.696  34.847  1.00  0.00     0.293 HD
ENDBRANCH  16  19
BRANCH  18  21
ATOM     21  O   UNL     1      19.807  45.888  37.276  1.00  0.00    -0.504 OA
ATOM     22  H   UNL     1      20.078  46.048  36.312  1.00  0.00     0.293 HD
ENDBRANCH  18  21
ENDBRANCH   3  13
BRANCH  11  23
ATOM     23  O   UNL     1      13.728  46.219  45.199  1.00  0.00    -0.507 OA
ATOM     24  H   UNL     1      12.928  45.919  44.658  1.00  0.00     0.293 HD
ENDBRANCH  11  23
ENDBRANCH   1   2
BRANCH   1  25
ATOM     25  C   UNL     1      17.992  49.789  46.011  1.00  0.00     0.339 C 
ATOM     26  C   UNL     1      19.025  50.563  45.162  1.00  0.00     0.214 C 
ATOM     27  O   UNL     1      18.122  50.014  47.403  1.00  0.00    -0.332 OA
ATOM     28  C   UNL     1      20.456  50.278  45.641  1.00  0.00     0.180 C 
ATOM     29  C   UNL     1      19.422  49.751  47.930  1.00  0.00     0.179 C 
ATOM     30  C   UNL     1      20.538  50.491  47.158  1.00  0.00     0.177 C 
BRANCH  26  31
ATOM     31  O   UNL     1      18.785  51.943  45.254  1.00  0.00    -0.384 OA
ATOM     32  H   UNL     1      19.184  52.368  44.447  1.00  0.00     0.211 HD
ENDBRANCH  26  31
BRANCH  28  33
ATOM     33  O   UNL     1      20.835  48.973  45.282  1.00  0.00    -0.387 OA
ATOM     34  H   UNL     1      21.578  49.081  44.628  1.00  0.00     0.211 HD
ENDBRANCH  28  33
BRANCH  29  35
ATOM     35  C   UNL     1      19.700  48.241  48.162  1.00  0.00     0.191 C 
BRANCH  35  36
ATOM     36  O   UNL     1      18.516  47.578  48.526  1.00  0.00    -0.394 OA
ATOM     37  H   UNL     1      17.757  48.162  48.257  1.00  0.00     0.210 HD
ENDBRANCH  35  36
ENDBRANCH  29  35
BRANCH  30  38
ATOM     38  O   UNL     1      21.803  50.100  47.631  1.00  0.00    -0.387 OA
ATOM     39  H   UNL     1      21.925  49.134  47.403  1.00  0.00     0.211 HD
ENDBRANCH  30  38
ENDBRANCH   1  25
TORSDOF 11
ENDMDL
MODEL 5
REMARK VINA RESULT:    -6.864      2.912      5.232
REMARK INTER + INTRA:         -10.893
REMARK INTER:                  -9.826
REMARK INTRA:                  -1.067
REMARK UNBOUND:                -1.019
REMARK SMILES O=c1cc(-c2ccc(O)c(O)c2)oc2cc(O[C@H]3O[C@@H](CO)[C@@H](O)[C@@H](O)[C@@H]3O)cc(O)c12
REMARK SMILES IDX 17 1 16 2 4 3 3 4 13 5 2 6 14 7 1 8 32 9 15 10 30 11 29 12
REMARK SMILES IDX 5 13 6 14 7 15 8 16 12 17 10 18 9 19 11 21 31 23 18 25 27 26
REMARK SMILES IDX 19 27 25 28 20 29 23 30 28 31 26 33 21 35 22 36 24 38
REMARK H PARENT 9 20 11 22 31 24 28 32 26 34 22 37 24 39
REMARK Flexibility Score: inf
ROOT
ATOM      1  O   UNL     1      15.719  46.786  44.642  1.00  0.00    -0.462 OA
ENDROOT
BRANCH   1   2
ATOM      2  C   UNL     1      17.022  47.223  44.367  1.00  0.00     0.130 A 
ATOM      3  C   UNL     1      20.764  49.720  45.930  1.00  0.00     0.138 A 
ATOM      4  C   UNL     1      21.594  49.248  44.896  1.00  0.00     0.100 A 
ATOM      5  O   UNL     1      19.489  49.359  45.954  1.00  0.00    -0.456 OA
ATOM      6  C   UNL     1      21.065  48.405  43.921  1.00  0.00     0.197 A 
ATOM      7  C   UNL     1      18.937  48.545  45.054  1.00  0.00     0.146 A 
ATOM      8  O   UNL     1      21.841  47.952  43.033  1.00  0.00    -0.289 OA
ATOM      9  C   UNL     1      19.698  48.057  43.955  1.00  0.00     0.107 A 
ATOM     10  C   UNL     1      17.602  48.160  45.222  1.00  0.00     0.094 A 
ATOM     11  C   UNL     1      19.065  47.189  43.020  1.00  0.00     0.134 A 
ATOM     12  C   UNL     1      17.758  46.748  43.265  1.00  0.00     0.093 A 
BRANCH   3  13
ATOM     13  C   UNL     1      21.288  50.593  47.019  1.00  0.00     0.021 A 
ATOM     14  C   UNL     1      22.662  50.544  47.328  1.00  0.00     0.016 A 
ATOM     15  C   UNL     1      23.205  51.395  48.291  1.00  0.00     0.051 A 
ATOM     16  C   UNL     1      22.385  52.306  48.969  1.00  0.00     0.157 A 
ATOM     17  C   UNL     1      20.465  51.487  47.732  1.00  0.00     0.062 A 
ATOM     18  C   UNL     1      21.011  52.345  48.696  1.00  0.00     0.158 A 
BRANCH  16  19
ATOM     19  O   UNL     1      22.930  53.181  49.906  1.00  0.00    -0.504 OA
ATOM     20  H   UNL     1      23.852  53.029  50.298  1.00  0.00     0.293 HD
ENDBRANCH  16  19
BRANCH  18  21
ATOM     21  O   UNL     1      20.198  53.246  49.377  1.00  0.00    -0.504 OA
ATOM     22  H   UNL     1      19.804  54.061  48.922  1.00  0.00     0.293 HD
ENDBRANCH  18  21
ENDBRANCH   3  13
BRANCH  11  23
ATOM     23  O   UNL     1      19.671  46.750  41.838  1.00  0.00    -0.507 OA
ATOM     24  H   UNL     1      20.673  46.678  41.724  1.00  0.00     0.293 HD
ENDBRANCH  11  23
ENDBRANCH   1   2
BRANCH   1  25
ATOM     25  C   UNL     1      14.532  47.386  44.110  1.00  0.00     0.339 C 
ATOM     26  C   UNL     1      13.900  48.361  45.129  1.00  0.00     0.214 C 
ATOM     27  O   UNL     1      13.633  46.397  43.641  1.00  0.00    -0.332 OA
ATOM     28  C   UNL     1      13.255  47.597  46.295  1.00  0.00     0.180 C 
ATOM     29  C   UNL     1      13.005  45.628  44.667  1.00  0.00     0.179 C 
ATOM     30  C   UNL     1      12.325  46.510  45.740  1.00  0.00     0.177 C 
BRANCH  26  31
ATOM     31  O   UNL     1      12.917  49.140  44.501  1.00  0.00    -0.384 OA
ATOM     32  H   UNL     1      12.918  50.032  44.943  1.00  0.00     0.211 HD
ENDBRANCH  26  31
BRANCH  28  33
ATOM     33  O   UNL     1      14.249  47.052  47.125  1.00  0.00    -0.387 OA
ATOM     34  H   UNL     1      15.025  47.673  47.055  1.00  0.00     0.211 HD
ENDBRANCH  28  33
BRANCH  29  35
ATOM     35  C   UNL     1      13.915  44.509  45.243  1.00  0.00     0.191 C 
BRANCH  35  36
ATOM     36  O   UNL     1      14.670  43.918  44.217  1.00  0.00    -0.394 OA
ATOM     37  H   UNL     1      15.620  44.173  44.367  1.00  0.00     0.210 HD
ENDBRANCH  35  36
ENDBRANCH  29  35
BRANCH  30  38
ATOM     38  O   UNL     1      11.836  45.713  46.789  1.00  0.00    -0.387 OA
ATOM     39  H   UNL     1      12.572  45.613  47.460  1.00  0.00     0.211 HD
ENDBRANCH  30  38
ENDBRANCH   1  25
TORSDOF 11
ENDMDL
MODEL 6
REMARK VINA RESULT:    -6.830      3.569      6.582
REMARK INTER + INTRA:         -10.844
REMARK INTER:                  -9.816
REMARK INTRA:                  -1.028
REMARK UNBOUND:                -1.019
REMARK SMILES O=c1cc(-c2ccc(O)c(O)c2)oc2cc(O[C@H]3O[C@@H](CO)[C@@H](O)[C@@H](O)[C@@H]3O)cc(O)c12
REMARK SMILES IDX 17 1 16 2 4 3 3 4 13 5 2 6 14 7 1 8 32 9 15 10 30 11 29 12
REMARK SMILES IDX 5 13 6 14 7 15 8 16 12 17 10 18 9 19 11 21 31 23 18 25 27 26
REMARK SMILES IDX 19 27 25 28 20 29 23 30 28 31 26 33 21 35 22 36 24 38
REMARK H PARENT 9 20 11 22 31 24 28 32 26 34 22 37 24 39
REMARK Flexibility Score: inf
ROOT
ATOM      1  O   UNL     1      12.844  48.136  45.481  1.00  0.00    -0.462 OA
ENDROOT
BRANCH   1   2
ATOM      2  C   UNL     1      13.856  48.693  44.686  1.00  0.00     0.130 A 
ATOM      3  C   UNL     1      18.456  49.897  44.419  1.00  0.00     0.138 A 
ATOM      4  C   UNL     1      18.375  50.155  43.038  1.00  0.00     0.100 A 
ATOM      5  O   UNL     1      17.359  49.552  45.079  1.00  0.00    -0.456 OA
ATOM      6  C   UNL     1      17.149  50.037  42.387  1.00  0.00     0.197 A 
ATOM      7  C   UNL     1      16.166  49.412  44.502  1.00  0.00     0.146 A 
ATOM      8  O   UNL     1      17.112  50.222  41.138  1.00  0.00    -0.289 OA
ATOM      9  C   UNL     1      15.993  49.693  43.117  1.00  0.00     0.107 A 
ATOM     10  C   UNL     1      15.092  48.960  45.276  1.00  0.00     0.094 A 
ATOM     11  C   UNL     1      14.699  49.528  42.545  1.00  0.00     0.134 A 
ATOM     12  C   UNL     1      13.666  48.986  43.323  1.00  0.00     0.093 A 
BRANCH   3  13
ATOM     13  C   UNL     1      19.749  49.972  45.157  1.00  0.00     0.021 A 
ATOM     14  C   UNL     1      20.931  49.577  44.499  1.00  0.00     0.016 A 
ATOM     15  C   UNL     1      22.170  49.698  45.129  1.00  0.00     0.051 A 
ATOM     16  C   UNL     1      22.252  50.210  46.430  1.00  0.00     0.157 A 
ATOM     17  C   UNL     1      19.838  50.452  46.478  1.00  0.00     0.062 A 
ATOM     18  C   UNL     1      21.083  50.577  47.110  1.00  0.00     0.158 A 
BRANCH  16  19
ATOM     19  O   UNL     1      23.490  50.364  47.048  1.00  0.00    -0.504 OA
ATOM     20  H   UNL     1      24.004  49.570  47.410  1.00  0.00     0.293 HD
ENDBRANCH  16  19
BRANCH  18  21
ATOM     21  O   UNL     1      21.167  51.078  48.404  1.00  0.00    -0.504 OA
ATOM     22  H   UNL     1      21.491  52.019  48.595  1.00  0.00     0.293 HD
ENDBRANCH  18  21
ENDBRANCH   3  13
BRANCH  11  23
ATOM     23  O   UNL     1      14.380  49.893  41.233  1.00  0.00    -0.507 OA
ATOM     24  H   UNL     1      14.684  49.369  40.425  1.00  0.00     0.293 HD
ENDBRANCH  11  23
ENDBRANCH   1   2
BRANCH   1  25
ATOM     25  C   UNL     1      11.486  47.961  45.062  1.00  0.00     0.339 C 
ATOM     26  C   UNL     1      10.586  49.088  45.616  1.00  0.00     0.214 C 
ATOM     27  O   UNL     1      11.023  46.661  45.378  1.00  0.00    -0.332 OA
ATOM     28  C   UNL     1      10.371  48.927  47.128  1.00  0.00     0.180 C 
ATOM     29  C   UNL     1      10.816  46.424  46.771  1.00  0.00     0.179 C 
ATOM     30  C   UNL     1       9.913  47.494  47.428  1.00  0.00     0.177 C 
BRANCH  26  31
ATOM     31  O   UNL     1       9.337  49.064  44.977  1.00  0.00    -0.384 OA
ATOM     32  H   UNL     1       8.656  49.349  45.644  1.00  0.00     0.211 HD
ENDBRANCH  26  31
BRANCH  28  33
ATOM     33  O   UNL     1      11.550  49.248  47.822  1.00  0.00    -0.387 OA
ATOM     34  H   UNL     1      11.560  50.242  47.886  1.00  0.00     0.211 HD
ENDBRANCH  28  33
BRANCH  29  35
ATOM     35  C   UNL     1      12.128  46.132  47.548  1.00  0.00     0.191 C 
BRANCH  35  36
ATOM     36  O   UNL     1      13.023  45.412  46.740  1.00  0.00    -0.394 OA
ATOM     37  H   UNL     1      13.922  45.484  47.160  1.00  0.00     0.210 HD
ENDBRANCH  35  36
ENDBRANCH  29  35
BRANCH  30  38
ATOM     38  O   UNL     1       9.846  47.290  48.817  1.00  0.00    -0.387 OA
ATOM     39  H   UNL     1       9.539  48.147  49.233  1.00  0.00     0.211 HD
ENDBRANCH  30  38
ENDBRANCH   1  25
TORSDOF 11
ENDMDL
MODEL 7
REMARK VINA RESULT:    -6.751      3.552      6.101
REMARK INTER + INTRA:         -10.730
REMARK INTER:                  -9.641
REMARK INTRA:                  -1.089
REMARK UNBOUND:                -1.019
REMARK SMILES O=c1cc(-c2ccc(O)c(O)c2)oc2cc(O[C@H]3O[C@@H](CO)[C@@H](O)[C@@H](O)[C@@H]3O)cc(O)c12
REMARK SMILES IDX 17 1 16 2 4 3 3 4 13 5 2 6 14 7 1 8 32 9 15 10 30 11 29 12
REMARK SMILES IDX 5 13 6 14 7 15 8 16 12 17 10 18 9 19 11 21 31 23 18 25 27 26
REMARK SMILES IDX 19 27 25 28 20 29 23 30 28 31 26 33 21 35 22 36 24 38
REMARK H PARENT 9 20 11 22 31 24 28 32 26 34 22 37 24 39
REMARK Flexibility Score: inf
ROOT
ATOM      1  O   UNL     1      12.961  48.008  45.796  1.00  0.00    -0.462 OA
ENDROOT
BRANCH   1   2
ATOM      2  C   UNL     1      13.940  48.573  44.968  1.00  0.00     0.130 A 
ATOM      3  C   UNL     1      18.508  49.858  44.562  1.00  0.00     0.138 A 
ATOM      4  C   UNL     1      18.385  50.099  43.181  1.00  0.00     0.100 A 
ATOM      5  O   UNL     1      17.436  49.500  45.256  1.00  0.00    -0.456 OA
ATOM      6  C   UNL     1      17.144  49.951  42.565  1.00  0.00     0.197 A 
ATOM      7  C   UNL     1      16.230  49.332  44.713  1.00  0.00     0.146 A 
ATOM      8  O   UNL     1      17.069  50.122  41.316  1.00  0.00    -0.289 OA
ATOM      9  C   UNL     1      16.014  49.595  43.331  1.00  0.00     0.107 A 
ATOM     10  C   UNL     1      15.186  48.870  45.521  1.00  0.00     0.094 A 
ATOM     11  C   UNL     1      14.709  49.400  42.796  1.00  0.00     0.134 A 
ATOM     12  C   UNL     1      13.708  48.848  43.608  1.00  0.00     0.093 A 
BRANCH   3  13
ATOM     13  C   UNL     1      19.819  49.965  45.263  1.00  0.00     0.021 A 
ATOM     14  C   UNL     1      20.996  49.657  44.553  1.00  0.00     0.016 A 
ATOM     15  C   UNL     1      22.248  49.812  45.150  1.00  0.00     0.051 A 
ATOM     16  C   UNL     1      22.347  50.270  46.470  1.00  0.00     0.157 A 
ATOM     17  C   UNL     1      19.927  50.390  46.601  1.00  0.00     0.062 A 
ATOM     18  C   UNL     1      21.184  50.550  47.200  1.00  0.00     0.158 A 
BRANCH  16  19
ATOM     19  O   UNL     1      23.596  50.459  47.057  1.00  0.00    -0.504 OA
ATOM     20  H   UNL     1      23.694  50.899  47.964  1.00  0.00     0.293 HD
ENDBRANCH  16  19
BRANCH  18  21
ATOM     21  O   UNL     1      21.286  50.997  48.513  1.00  0.00    -0.504 OA
ATOM     22  H   UNL     1      21.694  50.426  49.244  1.00  0.00     0.293 HD
ENDBRANCH  18  21
ENDBRANCH   3  13
BRANCH  11  23
ATOM     23  O   UNL     1      14.347  49.744  41.490  1.00  0.00    -0.507 OA
ATOM     24  H   UNL     1      13.685  50.477  41.275  1.00  0.00     0.293 HD
ENDBRANCH  11  23
ENDBRANCH   1   2
BRANCH   1  25
ATOM     25  C   UNL     1      13.135  46.806  46.556  1.00  0.00     0.339 C 
ATOM     26  C   UNL     1      12.698  45.568  45.740  1.00  0.00     0.214 C 
ATOM     27  O   UNL     1      12.496  46.907  47.816  1.00  0.00    -0.332 OA
ATOM     28  C   UNL     1      11.170  45.515  45.596  1.00  0.00     0.180 C 
ATOM     29  C   UNL     1      11.070  46.885  47.764  1.00  0.00     0.179 C 
ATOM     30  C   UNL     1      10.522  45.672  46.977  1.00  0.00     0.177 C 
BRANCH  26  31
ATOM     31  O   UNL     1      13.132  44.396  46.378  1.00  0.00    -0.384 OA
ATOM     32  H   UNL     1      13.408  43.756  45.667  1.00  0.00     0.211 HD
ENDBRANCH  26  31
BRANCH  28  33
ATOM     33  O   UNL     1      10.734  46.511  44.705  1.00  0.00    -0.387 OA
ATOM     34  H   UNL     1      10.159  46.041  44.041  1.00  0.00     0.211 HD
ENDBRANCH  28  33
BRANCH  29  35
ATOM     35  C   UNL     1      10.447  48.247  47.355  1.00  0.00     0.191 C 
BRANCH  35  36
ATOM     36  O   UNL     1      11.229  49.307  47.841  1.00  0.00    -0.394 OA
ATOM     37  H   UNL     1      12.094  48.920  48.144  1.00  0.00     0.210 HD
ENDBRANCH  35  36
ENDBRANCH  29  35
BRANCH  30  38
ATOM     38  O   UNL     1       9.126  45.766  46.845  1.00  0.00    -0.387 OA
ATOM     39  H   UNL     1       8.930  46.070  45.913  1.00  0.00     0.211 HD
ENDBRANCH  30  38
ENDBRANCH   1  25
TORSDOF 11
ENDMDL
MODEL 8
REMARK VINA RESULT:    -6.576      3.546      6.259
REMARK INTER + INTRA:         -10.479
REMARK INTER:                  -9.419
REMARK INTRA:                  -1.060
REMARK UNBOUND:                -1.019
REMARK SMILES O=c1cc(-c2ccc(O)c(O)c2)oc2cc(O[C@H]3O[C@@H](CO)[C@@H](O)[C@@H](O)[C@@H]3O)cc(O)c12
REMARK SMILES IDX 17 1 16 2 4 3 3 4 13 5 2 6 14 7 1 8 32 9 15 10 30 11 29 12
REMARK SMILES IDX 5 13 6 14 7 15 8 16 12 17 10 18 9 19 11 21 31 23 18 25 27 26
REMARK SMILES IDX 19 27 25 28 20 29 23 30 28 31 26 33 21 35 22 36 24 38
REMARK H PARENT 9 20 11 22 31 24 28 32 26 34 22 37 24 39
REMARK Flexibility Score: inf
ROOT
ATOM      1  O   UNL     1      13.143  47.695  45.646  1.00  0.00    -0.462 OA
ENDROOT
BRANCH   1   2
ATOM      2  C   UNL     1      14.114  48.351  44.877  1.00  0.00     0.130 A 
ATOM      3  C   UNL     1      18.623  49.871  44.669  1.00  0.00     0.138 A 
ATOM      4  C   UNL     1      18.523  50.182  43.300  1.00  0.00     0.100 A 
ATOM      5  O   UNL     1      17.552  49.426  45.312  1.00  0.00    -0.456 OA
ATOM      6  C   UNL     1      17.307  50.009  42.642  1.00  0.00     0.197 A 
ATOM      7  C   UNL     1      16.370  49.230  44.727  1.00  0.00     0.146 A 
ATOM      8  O   UNL     1      17.256  50.245  41.402  1.00  0.00    -0.289 OA
ATOM      9  C   UNL     1      16.177  49.558  43.356  1.00  0.00     0.107 A 
ATOM     10  C   UNL     1      15.330  48.675  45.480  1.00  0.00     0.094 A 
ATOM     11  C   UNL     1      14.897  49.331  42.775  1.00  0.00     0.134 A 
ATOM     12  C   UNL     1      13.903  48.688  43.527  1.00  0.00     0.093 A 
BRANCH   3  13
ATOM     13  C   UNL     1      19.909  50.001  45.411  1.00  0.00     0.021 A 
ATOM     14  C   UNL     1      21.105  49.623  44.770  1.00  0.00     0.016 A 
ATOM     15  C   UNL     1      22.337  49.795  45.403  1.00  0.00     0.051 A 
ATOM     16  C   UNL     1      22.396  50.342  46.691  1.00  0.00     0.157 A 
ATOM     17  C   UNL     1      19.976  50.517  46.720  1.00  0.00     0.062 A 
ATOM     18  C   UNL     1      21.213  50.694  47.355  1.00  0.00     0.158 A 
BRANCH  16  19
ATOM     19  O   UNL     1      23.626  50.548  47.312  1.00  0.00    -0.504 OA
ATOM     20  H   UNL     1      23.802  51.368  47.879  1.00  0.00     0.293 HD
ENDBRANCH  16  19
BRANCH  18  21
ATOM     21  O   UNL     1      21.275  51.230  48.637  1.00  0.00    -0.504 OA
ATOM     22  H   UNL     1      21.678  52.142  48.817  1.00  0.00     0.293 HD
ENDBRANCH  18  21
ENDBRANCH   3  13
BRANCH  11  23
ATOM     23  O   UNL     1      14.552  49.729  41.479  1.00  0.00    -0.507 OA
ATOM     24  H   UNL     1      13.635  49.581  41.081  1.00  0.00     0.293 HD
ENDBRANCH  11  23
ENDBRANCH   1   2
BRANCH   1  25
ATOM     25  C   UNL     1      11.924  48.296  46.100  1.00  0.00     0.339 C 
ATOM     26  C   UNL     1      11.846  48.290  47.643  1.00  0.00     0.214 C 
ATOM     27  O   UNL     1      10.802  47.698  45.475  1.00  0.00    -0.332 OA
ATOM     28  C   UNL     1      11.602  46.870  48.177  1.00  0.00     0.180 C 
ATOM     29  C   UNL     1      10.521  46.366  45.904  1.00  0.00     0.179 C 
ATOM     30  C   UNL     1      10.408  46.248  47.441  1.00  0.00     0.177 C 
BRANCH  26  31
ATOM     31  O   UNL     1      10.801  49.120  48.074  1.00  0.00    -0.384 OA
ATOM     32  H   UNL     1       9.947  48.697  47.786  1.00  0.00     0.211 HD
ENDBRANCH  26  31
BRANCH  28  33
ATOM     33  O   UNL     1      12.762  46.091  48.028  1.00  0.00    -0.387 OA
ATOM     34  H   UNL     1      12.445  45.150  47.951  1.00  0.00     0.211 HD
ENDBRANCH  28  33
BRANCH  29  35
ATOM     35  C   UNL     1      11.438  45.300  45.246  1.00  0.00     0.191 C 
BRANCH  35  36
ATOM     36  O   UNL     1      11.749  45.670  43.928  1.00  0.00    -0.394 OA
ATOM     37  H   UNL     1      12.698  45.965  43.922  1.00  0.00     0.210 HD
ENDBRANCH  35  36
ENDBRANCH  29  35
BRANCH  30  38
ATOM     38  O   UNL     1      10.259  44.902  47.818  1.00  0.00    -0.387 OA
ATOM     39  H   UNL     1       9.442  44.838  48.392  1.00  0.00     0.211 HD
ENDBRANCH  30  38
ENDBRANCH   1  25
TORSDOF 11
ENDMDL
MODEL 9
REMARK VINA RESULT:    -6.536      1.857      3.168
REMARK INTER + INTRA:         -10.420
REMARK INTER:                  -9.436
REMARK INTRA:                  -0.984
REMARK UNBOUND:                -1.019
REMARK SMILES O=c1cc(-c2ccc(O)c(O)c2)oc2cc(O[C@H]3O[C@@H](CO)[C@@H](O)[C@@H](O)[C@@H]3O)cc(O)c12
REMARK SMILES IDX 17 1 16 2 4 3 3 4 13 5 2 6 14 7 1 8 32 9 15 10 30 11 29 12
REMARK SMILES IDX 5 13 6 14 7 15 8 16 12 17 10 18 9 19 11 21 31 23 18 25 27 26
REMARK SMILES IDX 19 27 25 28 20 29 23 30 28 31 26 33 21 35 22 36 24 38
REMARK H PARENT 9 20 11 22 31 24 28 32 26 34 22 37 24 39
REMARK Flexibility Score: inf
ROOT
ATOM      1  O   UNL     1      17.727  47.119  43.503  1.00  0.00    -0.462 OA
ENDROOT
BRANCH   1   2
ATOM      2  C   UNL     1      17.823  47.511  44.846  1.00  0.00     0.130 A 
ATOM      3  C   UNL     1      20.172  50.166  48.026  1.00  0.00     0.138 A 
ATOM      4  C   UNL     1      19.209  49.936  49.026  1.00  0.00     0.100 A 
ATOM      5  O   UNL     1      20.039  49.570  46.849  1.00  0.00    -0.456 OA
ATOM      6  C   UNL     1      18.129  49.095  48.761  1.00  0.00     0.197 A 
ATOM      7  C   UNL     1      19.019  48.768  46.541  1.00  0.00     0.146 A 
ATOM      8  O   UNL     1      17.250  48.946  49.656  1.00  0.00    -0.289 OA
ATOM      9  C   UNL     1      18.025  48.454  47.509  1.00  0.00     0.107 A 
ATOM     10  C   UNL     1      18.931  48.260  45.240  1.00  0.00     0.094 A 
ATOM     11  C   UNL     1      16.955  47.594  47.132  1.00  0.00     0.134 A 
ATOM     12  C   UNL     1      16.844  47.176  45.799  1.00  0.00     0.093 A 
BRANCH   3  13
ATOM     13  C   UNL     1      21.324  51.085  48.244  1.00  0.00     0.021 A 
ATOM     14  C   UNL     1      22.632  50.579  48.114  1.00  0.00     0.016 A 
ATOM     15  C   UNL     1      23.737  51.422  48.240  1.00  0.00     0.051 A 
ATOM     16  C   UNL     1      23.556  52.786  48.505  1.00  0.00     0.157 A 
ATOM     17  C   UNL     1      21.153  52.451  48.546  1.00  0.00     0.062 A 
ATOM     18  C   UNL     1      22.263  53.299  48.668  1.00  0.00     0.158 A 
BRANCH  16  19
ATOM     19  O   UNL     1      24.656  53.636  48.596  1.00  0.00    -0.504 OA
ATOM     20  H   UNL     1      25.378  53.494  49.293  1.00  0.00     0.293 HD
ENDBRANCH  16  19
BRANCH  18  21
ATOM     21  O   UNL     1      22.087  54.652  48.938  1.00  0.00    -0.504 OA
ATOM     22  H   UNL     1      21.263  55.001  49.415  1.00  0.00     0.293 HD
ENDBRANCH  18  21
ENDBRANCH   3  13
BRANCH  11  23
ATOM     23  O   UNL     1      15.994  47.114  48.029  1.00  0.00    -0.507 OA
ATOM     24  H   UNL     1      15.290  47.703  48.451  1.00  0.00     0.293 HD
ENDBRANCH  11  23
ENDBRANCH   1   2
BRANCH   1  25
ATOM     25  C   UNL     1      17.048  47.864  42.486  1.00  0.00     0.339 C 
ATOM     26  C   UNL     1      15.536  47.544  42.482  1.00  0.00     0.214 C 
ATOM     27  O   UNL     1      17.668  47.681  41.225  1.00  0.00    -0.332 OA
ATOM     28  C   UNL     1      15.273  46.135  41.932  1.00  0.00     0.180 C 
ATOM     29  C   UNL     1      17.486  46.385  40.655  1.00  0.00     0.179 C 
ATOM     30  C   UNL     1      15.998  45.968  40.590  1.00  0.00     0.177 C 
BRANCH  26  31
ATOM     31  O   UNL     1      14.851  48.475  41.686  1.00  0.00    -0.384 OA
ATOM     32  H   UNL     1      14.397  47.967  40.960  1.00  0.00     0.211 HD
ENDBRANCH  26  31
BRANCH  28  33
ATOM     33  O   UNL     1      15.683  45.167  42.865  1.00  0.00    -0.387 OA
ATOM     34  H   UNL     1      16.677  45.229  42.894  1.00  0.00     0.211 HD
ENDBRANCH  28  33
BRANCH  29  35
ATOM     35  C   UNL     1      18.426  45.308  41.259  1.00  0.00     0.191 C 
BRANCH  35  36
ATOM     36  O   UNL     1      18.893  44.448  40.252  1.00  0.00    -0.394 OA
ATOM     37  H   UNL     1      19.450  43.753  40.694  1.00  0.00     0.210 HD
ENDBRANCH  35  36
ENDBRANCH  29  35
BRANCH  30  38
ATOM     38  O   UNL     1      15.883  44.640  40.143  1.00  0.00    -0.387 OA
ATOM     39  H   UNL     1      15.626  44.669  39.177  1.00  0.00     0.211 HD
ENDBRANCH  30  38
ENDBRANCH   1  25
TORSDOF 11
ENDMDL
