MODEL 1
REMARK VINA RESULT:    -3.881      0.000      0.000
REMARK INTER + INTRA:          -4.963
REMARK INTER:                  -4.788
REMARK INTRA:                  -0.175
REMARK UNBOUND:                -0.175
REMARK SMILES CCCCCC(=O)[O-]
REMARK SMILES IDX 4 1 5 2 6 3 7 4 8 5 3 6 2 7 1 8
REMARK H PARENT
REMARK Flexibility Score: inf
ROOT
ATOM      1  C   UNL     1      73.684  13.148  18.596  1.00  0.00     0.006 C 
ENDROOT
BRANCH   1   2
ATOM      2  C   UNL     1      74.784  14.099  18.109  1.00  0.00     0.053 C 
BRANCH   2   3
ATOM      3  C   UNL     1      74.823  14.186  16.615  1.00  0.00     0.041 C 
ATOM      4  O   UNL     1      75.136  13.178  15.929  1.00  0.00    -0.550 OA
ATOM      5  O   UNL     1      74.541  15.389  15.981  1.00  0.00    -0.550 OA
ENDBRANCH   2   3
ENDBRANCH   1   2
BRANCH   1   6
ATOM      6  C   UNL     1      74.236  12.040  19.510  1.00  0.00     0.000 C 
BRANCH   6   7
ATOM      7  C   UNL     1      75.718  11.740  19.241  1.00  0.00    -0.003 C 
ATOM      8  C   UNL     1      76.543  11.631  20.524  1.00  0.00     0.004 C 
ENDBRANCH   6   7
ENDBRANCH   1   6
TORSDOF 4
ENDMDL
MODEL 2
REMARK VINA RESULT:    -3.797      1.079      1.638
REMARK INTER + INTRA:          -4.860
REMARK INTER:                  -4.719
REMARK INTRA:                  -0.141
REMARK UNBOUND:                -0.175
REMARK SMILES CCCCCC(=O)[O-]
REMARK SMILES IDX 4 1 5 2 6 3 7 4 8 5 3 6 2 7 1 8
REMARK H PARENT
REMARK Flexibility Score: inf
ROOT
ATOM      1  C   UNL     1      74.050  12.444  19.455  1.00  0.00     0.006 C 
ENDROOT
BRANCH   1   2
ATOM      2  C   UNL     1      73.609  13.219  18.207  1.00  0.00     0.053 C 
BRANCH   2   3
ATOM      3  C   UNL     1      74.744  13.979  17.594  1.00  0.00     0.041 C 
ATOM      4  O   UNL     1      75.277  14.934  18.217  1.00  0.00    -0.550 OA
ATOM      5  O   UNL     1      75.194  13.651  16.322  1.00  0.00    -0.550 OA
ENDBRANCH   2   3
ENDBRANCH   1   2
BRANCH   1   6
ATOM      6  C   UNL     1      75.248  11.521  19.171  1.00  0.00     0.000 C 
BRANCH   6   7
ATOM      7  C   UNL     1      76.313  11.581  20.277  1.00  0.00    -0.003 C 
ATOM      8  C   UNL     1      77.266  10.386  20.247  1.00  0.00     0.004 C 
ENDBRANCH   6   7
ENDBRANCH   1   6
TORSDOF 4
ENDMDL
MODEL 3
REMARK VINA RESULT:    -3.708      1.071      1.491
REMARK INTER + INTRA:          -4.751
REMARK INTER:                  -4.653
REMARK INTRA:                  -0.097
REMARK UNBOUND:                -0.175
REMARK SMILES CCCCCC(=O)[O-]
REMARK SMILES IDX 4 1 5 2 6 3 7 4 8 5 3 6 2 7 1 8
REMARK H PARENT
REMARK Flexibility Score: inf
ROOT
ATOM      1  C   UNL     1      74.714  13.409  17.342  1.00  0.00     0.006 C 
ENDROOT
BRANCH   1   2
ATOM      2  C   UNL     1      75.157  14.860  17.113  1.00  0.00     0.053 C 
BRANCH   2   3
ATOM      3  C   UNL     1      75.075  15.244  15.668  1.00  0.00     0.041 C 
ATOM      4  O   UNL     1      75.540  14.480  14.781  1.00  0.00    -0.550 OA
ATOM      5  O   UNL     1      74.510  16.459  15.302  1.00  0.00    -0.550 OA
ENDBRANCH   2   3
ENDBRANCH   1   2
BRANCH   1   6
ATOM      6  C   UNL     1      73.818  13.264  18.584  1.00  0.00     0.000 C 
BRANCH   6   7
ATOM      7  C   UNL     1      74.159  12.019  19.415  1.00  0.00    -0.003 C 
ATOM      8  C   UNL     1      75.635  11.955  19.808  1.00  0.00     0.004 C 
ENDBRANCH   6   7
ENDBRANCH   1   6
TORSDOF 4
ENDMDL
MODEL 4
REMARK VINA RESULT:    -3.579      1.936      2.903
REMARK INTER + INTRA:          -4.591
REMARK INTER:                  -4.370
REMARK INTRA:                  -0.221
REMARK UNBOUND:                -0.175
REMARK SMILES CCCCCC(=O)[O-]
REMARK SMILES IDX 4 1 5 2 6 3 7 4 8 5 3 6 2 7 1 8
REMARK H PARENT
REMARK Flexibility Score: inf
ROOT
ATOM      1  C   UNL     1      76.418  12.003  20.056  1.00  0.00     0.006 C 
ENDROOT
BRANCH   1   2
ATOM      2  C   UNL     1      74.913  11.961  19.758  1.00  0.00     0.053 C 
BRANCH   2   3
ATOM      3  C   UNL     1      74.581  12.657  18.475  1.00  0.00     0.041 C 
ATOM      4  O   UNL     1      75.436  12.731  17.553  1.00  0.00    -0.550 OA
ATOM      5  O   UNL     1      73.336  13.250  18.308  1.00  0.00    -0.550 OA
ENDBRANCH   2   3
ENDBRANCH   1   2
BRANCH   1   6
ATOM      6  C   UNL     1      77.010  10.597  20.256  1.00  0.00     0.000 C 
BRANCH   6   7
ATOM      7  C   UNL     1      77.804  10.114  19.033  1.00  0.00    -0.003 C 
ATOM      8  C   UNL     1      76.943   9.341  18.035  1.00  0.00     0.004 C 
ENDBRANCH   6   7
ENDBRANCH   1   6
TORSDOF 4
ENDMDL
MODEL 5
REMARK VINA RESULT:    -3.560      2.753      4.115
REMARK INTER + INTRA:          -4.568
REMARK INTER:                  -4.408
REMARK INTRA:                  -0.160
REMARK UNBOUND:                -0.175
REMARK SMILES CCCCCC(=O)[O-]
REMARK SMILES IDX 4 1 5 2 6 3 7 4 8 5 3 6 2 7 1 8
REMARK H PARENT
REMARK Flexibility Score: inf
ROOT
ATOM      1  C   UNL     1      74.343  12.028  19.523  1.00  0.00     0.006 C 
ENDROOT
BRANCH   1   2
ATOM      2  C   UNL     1      75.591  11.353  18.940  1.00  0.00     0.053 C 
BRANCH   2   3
ATOM      3  C   UNL     1      76.728  11.348  19.915  1.00  0.00     0.041 C 
ATOM      4  O   UNL     1      77.066  10.279  20.488  1.00  0.00    -0.550 OA
ATOM      5  O   UNL     1      77.395  12.529  20.212  1.00  0.00    -0.550 OA
ENDBRANCH   2   3
ENDBRANCH   1   2
BRANCH   1   6
ATOM      6  C   UNL     1      73.890  13.236  18.685  1.00  0.00     0.000 C 
BRANCH   6   7
ATOM      7  C   UNL     1      74.624  13.327  17.339  1.00  0.00    -0.003 C 
ATOM      8  C   UNL     1      75.015  14.759  16.973  1.00  0.00     0.004 C 
ENDBRANCH   6   7
ENDBRANCH   1   6
TORSDOF 4
ENDMDL
MODEL 6
REMARK VINA RESULT:    -3.537      2.435      4.099
REMARK INTER + INTRA:          -4.539
REMARK INTER:                  -4.325
REMARK INTRA:                  -0.214
REMARK UNBOUND:                -0.175
REMARK SMILES CCCCCC(=O)[O-]
REMARK SMILES IDX 4 1 5 2 6 3 7 4 8 5 3 6 2 7 1 8
REMARK H PARENT
REMARK Flexibility Score: inf
ROOT
ATOM      1  C   UNL     1      75.855  12.099  20.081  1.00  0.00     0.006 C 
ENDROOT
BRANCH   1   2
ATOM      2  C   UNL     1      76.736  10.845  20.016  1.00  0.00     0.053 C 
BRANCH   2   3
ATOM      3  C   UNL     1      76.748  10.245  18.645  1.00  0.00     0.041 C 
ATOM      4  O   UNL     1      77.164  10.915  17.663  1.00  0.00    -0.550 OA
ATOM      5  O   UNL     1      76.275   8.955  18.446  1.00  0.00    -0.550 OA
ENDBRANCH   2   3
ENDBRANCH   1   2
BRANCH   1   6
ATOM      6  C   UNL     1      74.442  11.845  19.529  1.00  0.00     0.000 C 
BRANCH   6   7
ATOM      7  C   UNL     1      73.897  13.040  18.731  1.00  0.00    -0.003 C 
ATOM      8  C   UNL     1      74.445  13.099  17.306  1.00  0.00     0.004 C 
ENDBRANCH   6   7
ENDBRANCH   1   6
TORSDOF 4
ENDMDL
MODEL 7
REMARK VINA RESULT:    -3.418      1.855      2.855
REMARK INTER + INTRA:          -4.392
REMARK INTER:                  -4.154
REMARK INTRA:                  -0.238
REMARK UNBOUND:                -0.175
REMARK SMILES CCCCCC(=O)[O-]
REMARK SMILES IDX 4 1 5 2 6 3 7 4 8 5 3 6 2 7 1 8
REMARK H PARENT
REMARK Flexibility Score: inf
ROOT
ATOM      1  C   UNL     1      75.900  11.288  19.501  1.00  0.00     0.006 C 
ENDROOT
BRANCH   1   2
ATOM      2  C   UNL     1      74.523  11.953  19.624  1.00  0.00     0.053 C 
BRANCH   2   3
ATOM      3  C   UNL     1      74.185  12.760  18.409  1.00  0.00     0.041 C 
ATOM      4  O   UNL     1      73.122  13.435  18.371  1.00  0.00    -0.550 OA
ATOM      5  O   UNL     1      75.030  12.745  17.307  1.00  0.00    -0.550 OA
ENDBRANCH   2   3
ENDBRANCH   1   2
BRANCH   1   6
ATOM      6  C   UNL     1      76.972  12.013  20.334  1.00  0.00     0.000 C 
BRANCH   6   7
ATOM      7  C   UNL     1      78.116  12.564  19.471  1.00  0.00    -0.003 C 
ATOM      8  C   UNL     1      77.892  14.015  19.047  1.00  0.00     0.004 C 
ENDBRANCH   6   7
ENDBRANCH   1   6
TORSDOF 4
ENDMDL
MODEL 8
REMARK VINA RESULT:    -3.310      2.297      4.519
REMARK INTER + INTRA:          -4.259
REMARK INTER:                  -4.104
REMARK INTRA:                  -0.155
REMARK UNBOUND:                -0.175
REMARK SMILES CCCCCC(=O)[O-]
REMARK SMILES IDX 4 1 5 2 6 3 7 4 8 5 3 6 2 7 1 8
REMARK H PARENT
REMARK Flexibility Score: inf
ROOT
ATOM      1  C   UNL     1      75.977  15.117  16.910  1.00  0.00     0.006 C 
ENDROOT
BRANCH   1   2
ATOM      2  C   UNL     1      75.148  14.858  18.174  1.00  0.00     0.053 C 
BRANCH   2   3
ATOM      3  C   UNL     1      74.661  13.443  18.240  1.00  0.00     0.041 C 
ATOM      4  O   UNL     1      75.439  12.492  17.963  1.00  0.00    -0.550 OA
ATOM      5  O   UNL     1      73.342  13.177  18.580  1.00  0.00    -0.550 OA
ENDBRANCH   2   3
ENDBRANCH   1   2
BRANCH   1   6
ATOM      6  C   UNL     1      75.108  15.146  15.640  1.00  0.00     0.000 C 
BRANCH   6   7
ATOM      7  C   UNL     1      74.469  16.521  15.396  1.00  0.00    -0.003 C 
ATOM      8  C   UNL     1      75.502  17.636  15.241  1.00  0.00     0.004 C 
ENDBRANCH   6   7
ENDBRANCH   1   6
TORSDOF 4
ENDMDL
MODEL 9
REMARK VINA RESULT:    -3.273      2.048      3.234
REMARK INTER + INTRA:          -4.214
REMARK INTER:                  -4.129
REMARK INTRA:                  -0.085
REMARK UNBOUND:                -0.175
REMARK SMILES CCCCCC(=O)[O-]
REMARK SMILES IDX 4 1 5 2 6 3 7 4 8 5 3 6 2 7 1 8
REMARK H PARENT
REMARK Flexibility Score: inf
ROOT
ATOM      1  C   UNL     1      75.159  14.400  16.150  1.00  0.00     0.006 C 
ENDROOT
BRANCH   1   2
ATOM      2  C   UNL     1      75.916  15.415  15.285  1.00  0.00     0.053 C 
BRANCH   2   3
ATOM      3  C   UNL     1      75.158  16.699  15.140  1.00  0.00     0.041 C 
ATOM      4  O   UNL     1      75.769  17.771  14.891  1.00  0.00    -0.550 OA
ATOM      5  O   UNL     1      73.780  16.715  15.307  1.00  0.00    -0.550 OA
ENDBRANCH   2   3
ENDBRANCH   1   2
BRANCH   1   6
ATOM      6  C   UNL     1      75.390  14.632  17.654  1.00  0.00     0.000 C 
BRANCH   6   7
ATOM      7  C   UNL     1      75.129  13.370  18.491  1.00  0.00    -0.003 C 
ATOM      8  C   UNL     1      73.640  13.080  18.675  1.00  0.00     0.004 C 
ENDBRANCH   6   7
ENDBRANCH   1   6
TORSDOF 4
ENDMDL
