MODEL 1
REMARK VINA RESULT:    -4.670      0.000      0.000
REMARK INTER + INTRA:          -9.647
REMARK INTER:                  -7.946
REMARK INTRA:                  -1.700
REMARK UNBOUND:                -1.700
REMARK SMILES CCCCCCCCCCCCCC(=O)[O-]
REMARK SMILES IDX 8 1 9 2 10 3 11 4 12 5 13 6 14 7 15 8 16 9 7 10 6 11 5 12
REMARK SMILES IDX 4 13 3 14 2 15 1 16
REMARK H PARENT
REMARK Flexibility Score: inf
ROOT
ATOM      1  C   UNL     1     120.591 178.811 127.633  1.00  0.00     0.000 C 
ENDROOT
BRANCH   1   2
ATOM      2  C   UNL     1     120.396 177.289 127.686  1.00  0.00     0.000 C 
BRANCH   2   3
ATOM      3  C   UNL     1     118.919 176.919 127.486  1.00  0.00     0.000 C 
BRANCH   3   4
ATOM      4  C   UNL     1     118.554 176.715 126.007  1.00  0.00     0.000 C 
BRANCH   4   5
ATOM      5  C   UNL     1     117.649 177.832 125.461  1.00  0.00     0.006 C 
BRANCH   5   6
ATOM      6  C   UNL     1     116.354 177.975 126.271  1.00  0.00     0.053 C 
BRANCH   6   7
ATOM      7  C   UNL     1     115.537 179.144 125.810  1.00  0.00     0.041 C 
ATOM      8  O   UNL     1     114.284 179.049 125.730  1.00  0.00    -0.550 OA
ATOM      9  O   UNL     1     116.157 180.349 125.504  1.00  0.00    -0.550 OA
ENDBRANCH   6   7
ENDBRANCH   5   6
ENDBRANCH   4   5
ENDBRANCH   3   4
ENDBRANCH   2   3
ENDBRANCH   1   2
BRANCH   1  10
ATOM     10  C   UNL     1     121.632 179.244 126.585  1.00  0.00     0.000 C 
BRANCH  10  11
ATOM     11  C   UNL     1     122.968 178.476 126.638  1.00  0.00    -0.000 C 
BRANCH  11  12
ATOM     12  C   UNL     1     123.318 177.679 125.364  1.00  0.00    -0.000 C 
BRANCH  12  13
ATOM     13  C   UNL     1     122.252 177.731 124.256  1.00  0.00    -0.000 C 
BRANCH  13  14
ATOM     14  C   UNL     1     121.525 176.388 124.067  1.00  0.00    -0.000 C 
BRANCH  14  15
ATOM     15  C   UNL     1     122.107 175.275 124.953  1.00  0.00    -0.003 C 
ATOM     16  C   UNL     1     121.082 174.191 125.284  1.00  0.00     0.004 C 
ENDBRANCH  14  15
ENDBRANCH  13  14
ENDBRANCH  12  13
ENDBRANCH  11  12
ENDBRANCH  10  11
ENDBRANCH   1  10
TORSDOF 12
ENDMDL
MODEL 2
REMARK VINA RESULT:    -4.615      1.605      3.991
REMARK INTER + INTRA:          -9.552
REMARK INTER:                  -7.648
REMARK INTRA:                  -1.904
REMARK UNBOUND:                -1.700
REMARK SMILES CCCCCCCCCCCCCC(=O)[O-]
REMARK SMILES IDX 8 1 9 2 10 3 11 4 12 5 13 6 14 7 15 8 16 9 7 10 6 11 5 12
REMARK SMILES IDX 4 13 3 14 2 15 1 16
REMARK H PARENT
REMARK Flexibility Score: inf
ROOT
ATOM      1  C   UNL     1     121.335 175.771 125.391  1.00  0.00     0.000 C 
ENDROOT
BRANCH   1   2
ATOM      2  C   UNL     1     121.301 176.546 124.066  1.00  0.00     0.000 C 
BRANCH   2   3
ATOM      3  C   UNL     1     121.636 178.029 124.289  1.00  0.00     0.000 C 
BRANCH   3   4
ATOM      4  C   UNL     1     120.390 178.880 124.578  1.00  0.00     0.000 C 
BRANCH   4   5
ATOM      5  C   UNL     1     119.129 178.340 123.883  1.00  0.00     0.006 C 
BRANCH   5   6
ATOM      6  C   UNL     1     117.898 178.388 124.798  1.00  0.00     0.053 C 
BRANCH   6   7
ATOM      7  C   UNL     1     116.650 178.709 124.033  1.00  0.00     0.041 C 
ATOM      8  O   UNL     1     116.622 178.571 122.781  1.00  0.00    -0.550 OA
ATOM      9  O   UNL     1     115.509 179.125 124.706  1.00  0.00    -0.550 OA
ENDBRANCH   6   7
ENDBRANCH   5   6
ENDBRANCH   4   5
ENDBRANCH   3   4
ENDBRANCH   2   3
ENDBRANCH   1   2
BRANCH   1  10
ATOM     10  C   UNL     1     119.943 175.285 125.834  1.00  0.00     0.000 C 
BRANCH  10  11
ATOM     11  C   UNL     1     119.664 175.403 127.346  1.00  0.00    -0.000 C 
BRANCH  11  12
ATOM     12  C   UNL     1     119.331 176.825 127.842  1.00  0.00    -0.000 C 
BRANCH  12  13
ATOM     13  C   UNL     1     120.380 177.443 128.784  1.00  0.00    -0.000 C 
BRANCH  13  14
ATOM     14  C   UNL     1     121.163 178.593 128.129  1.00  0.00    -0.000 C 
BRANCH  14  15
ATOM     15  C   UNL     1     122.684 178.388 128.205  1.00  0.00    -0.003 C 
ATOM     16  C   UNL     1     123.455 179.365 127.318  1.00  0.00     0.004 C 
ENDBRANCH  14  15
ENDBRANCH  13  14
ENDBRANCH  12  13
ENDBRANCH  11  12
ENDBRANCH  10  11
ENDBRANCH   1  10
TORSDOF 12
ENDMDL
MODEL 3
REMARK VINA RESULT:    -4.611      1.563      2.470
REMARK INTER + INTRA:          -9.547
REMARK INTER:                  -7.567
REMARK INTRA:                  -1.980
REMARK UNBOUND:                -1.700
REMARK SMILES CCCCCCCCCCCCCC(=O)[O-]
REMARK SMILES IDX 8 1 9 2 10 3 11 4 12 5 13 6 14 7 15 8 16 9 7 10 6 11 5 12
REMARK SMILES IDX 4 13 3 14 2 15 1 16
REMARK H PARENT
REMARK Flexibility Score: inf
ROOT
ATOM      1  C   UNL     1     123.017 179.193 126.947  1.00  0.00     0.000 C 
ENDROOT
BRANCH   1   2
ATOM      2  C   UNL     1     122.326 178.704 128.228  1.00  0.00     0.000 C 
BRANCH   2   3
ATOM      3  C   UNL     1     120.803 178.883 128.131  1.00  0.00     0.000 C 
BRANCH   3   4
ATOM      4  C   UNL     1     120.333 179.200 126.703  1.00  0.00     0.000 C 
BRANCH   4   5
ATOM      5  C   UNL     1     119.343 178.156 126.160  1.00  0.00     0.006 C 
BRANCH   5   6
ATOM      6  C   UNL     1     118.862 178.496 124.743  1.00  0.00     0.053 C 
BRANCH   6   7
ATOM      7  C   UNL     1     117.380 178.322 124.603  1.00  0.00     0.041 C 
ATOM      8  O   UNL     1     116.817 178.551 123.500  1.00  0.00    -0.550 OA
ATOM      9  O   UNL     1     116.627 177.874 125.681  1.00  0.00    -0.550 OA
ENDBRANCH   6   7
ENDBRANCH   5   6
ENDBRANCH   4   5
ENDBRANCH   3   4
ENDBRANCH   2   3
ENDBRANCH   1   2
BRANCH   1  10
ATOM     10  C   UNL     1     123.750 178.066 126.197  1.00  0.00     0.000 C 
BRANCH  10  11
ATOM     11  C   UNL     1     123.188 177.742 124.799  1.00  0.00    -0.000 C 
BRANCH  11  12
ATOM     12  C   UNL     1     122.957 176.243 124.516  1.00  0.00    -0.000 C 
BRANCH  12  13
ATOM     13  C   UNL     1     121.492 175.852 124.254  1.00  0.00    -0.000 C 
BRANCH  13  14
ATOM     14  C   UNL     1     120.930 174.903 125.326  1.00  0.00    -0.000 C 
BRANCH  14  15
ATOM     15  C   UNL     1     121.858 174.774 126.544  1.00  0.00    -0.003 C 
ATOM     16  C   UNL     1     121.171 175.165 127.851  1.00  0.00     0.004 C 
ENDBRANCH  14  15
ENDBRANCH  13  14
ENDBRANCH  12  13
ENDBRANCH  11  12
ENDBRANCH  10  11
ENDBRANCH   1  10
TORSDOF 12
ENDMDL
MODEL 4
REMARK VINA RESULT:    -4.611      1.377      3.031
REMARK INTER + INTRA:          -9.546
REMARK INTER:                  -7.636
REMARK INTRA:                  -1.910
REMARK UNBOUND:                -1.700
REMARK SMILES CCCCCCCCCCCCCC(=O)[O-]
REMARK SMILES IDX 8 1 9 2 10 3 11 4 12 5 13 6 14 7 15 8 16 9 7 10 6 11 5 12
REMARK SMILES IDX 4 13 3 14 2 15 1 16
REMARK H PARENT
REMARK Flexibility Score: inf
ROOT
ATOM      1  C   UNL     1     122.453 177.253 124.950  1.00  0.00     0.000 C 
ENDROOT
BRANCH   1   2
ATOM      2  C   UNL     1     122.102 177.864 123.585  1.00  0.00     0.000 C 
BRANCH   2   3
ATOM      3  C   UNL     1     120.891 178.802 123.699  1.00  0.00     0.000 C 
BRANCH   3   4
ATOM      4  C   UNL     1     119.585 178.050 124.000  1.00  0.00     0.000 C 
BRANCH   4   5
ATOM      5  C   UNL     1     118.693 178.793 125.008  1.00  0.00     0.006 C 
BRANCH   5   6
ATOM      6  C   UNL     1     117.524 177.927 125.495  1.00  0.00     0.053 C 
BRANCH   6   7
ATOM      7  C   UNL     1     116.217 178.384 124.921  1.00  0.00     0.041 C 
ATOM      8  O   UNL     1     115.262 178.688 125.684  1.00  0.00    -0.550 OA
ATOM      9  O   UNL     1     116.067 178.510 123.546  1.00  0.00    -0.550 OA
ENDBRANCH   6   7
ENDBRANCH   5   6
ENDBRANCH   4   5
ENDBRANCH   3   4
ENDBRANCH   2   3
ENDBRANCH   1   2
BRANCH   1  10
ATOM     10  C   UNL     1     123.627 177.971 125.641  1.00  0.00     0.000 C 
BRANCH  10  11
ATOM     11  C   UNL     1     123.277 178.652 126.979  1.00  0.00    -0.000 C 
BRANCH  11  12
ATOM     12  C   UNL     1     121.799 179.064 127.138  1.00  0.00    -0.000 C 
BRANCH  12  13
ATOM     13  C   UNL     1     121.126 178.573 128.431  1.00  0.00    -0.000 C 
BRANCH  13  14
ATOM     14  C   UNL     1     120.030 177.526 128.171  1.00  0.00    -0.000 C 
BRANCH  14  15
ATOM     15  C   UNL     1     120.604 176.122 127.926  1.00  0.00    -0.003 C 
ATOM     16  C   UNL     1     119.877 175.376 126.808  1.00  0.00     0.004 C 
ENDBRANCH  14  15
ENDBRANCH  13  14
ENDBRANCH  12  13
ENDBRANCH  11  12
ENDBRANCH  10  11
ENDBRANCH   1  10
TORSDOF 12
ENDMDL
MODEL 5
REMARK VINA RESULT:    -4.610      1.540      2.699
REMARK INTER + INTRA:          -9.544
REMARK INTER:                  -7.511
REMARK INTRA:                  -2.033
REMARK UNBOUND:                -1.700
REMARK SMILES CCCCCCCCCCCCCC(=O)[O-]
REMARK SMILES IDX 8 1 9 2 10 3 11 4 12 5 13 6 14 7 15 8 16 9 7 10 6 11 5 12
REMARK SMILES IDX 4 13 3 14 2 15 1 16
REMARK H PARENT
REMARK Flexibility Score: inf
ROOT
ATOM      1  C   UNL     1     120.875 178.469 128.320  1.00  0.00     0.000 C 
ENDROOT
BRANCH   1   2
ATOM      2  C   UNL     1     121.367 179.021 126.975  1.00  0.00     0.000 C 
BRANCH   2   3
ATOM      3  C   UNL     1     120.188 179.499 126.114  1.00  0.00     0.000 C 
BRANCH   3   4
ATOM      4  C   UNL     1     120.363 179.157 124.626  1.00  0.00     0.000 C 
BRANCH   4   5
ATOM      5  C   UNL     1     119.092 178.556 124.003  1.00  0.00     0.006 C 
BRANCH   5   6
ATOM      6  C   UNL     1     118.114 178.042 125.067  1.00  0.00     0.053 C 
BRANCH   6   7
ATOM      7  C   UNL     1     116.693 178.371 124.720  1.00  0.00     0.041 C 
ATOM      8  O   UNL     1     116.368 178.586 123.522  1.00  0.00    -0.550 OA
ATOM      9  O   UNL     1     115.723 178.403 125.714  1.00  0.00    -0.550 OA
ENDBRANCH   6   7
ENDBRANCH   5   6
ENDBRANCH   4   5
ENDBRANCH   3   4
ENDBRANCH   2   3
ENDBRANCH   1   2
BRANCH   1  10
ATOM     10  C   UNL     1     119.939 177.257 128.162  1.00  0.00     0.000 C 
BRANCH  10  11
ATOM     11  C   UNL     1     120.614 175.885 128.355  1.00  0.00    -0.000 C 
BRANCH  11  12
ATOM     12  C   UNL     1     121.292 175.304 127.096  1.00  0.00    -0.000 C 
BRANCH  12  13
ATOM     13  C   UNL     1     120.484 175.460 125.796  1.00  0.00    -0.000 C 
BRANCH  13  14
ATOM     14  C   UNL     1     121.376 175.520 124.545  1.00  0.00    -0.000 C 
BRANCH  14  15
ATOM     15  C   UNL     1     122.855 175.761 124.888  1.00  0.00    -0.003 C 
ATOM     16  C   UNL     1     123.378 177.086 124.335  1.00  0.00     0.004 C 
ENDBRANCH  14  15
ENDBRANCH  13  14
ENDBRANCH  12  13
ENDBRANCH  11  12
ENDBRANCH  10  11
ENDBRANCH   1  10
TORSDOF 12
ENDMDL
MODEL 6
REMARK VINA RESULT:    -4.580      4.824      7.013
REMARK INTER + INTRA:          -9.494
REMARK INTER:                  -8.181
REMARK INTRA:                  -1.313
REMARK UNBOUND:                -1.700
REMARK SMILES CCCCCCCCCCCCCC(=O)[O-]
REMARK SMILES IDX 8 1 9 2 10 3 11 4 12 5 13 6 14 7 15 8 16 9 7 10 6 11 5 12
REMARK SMILES IDX 4 13 3 14 2 15 1 16
REMARK H PARENT
REMARK Flexibility Score: inf
ROOT
ATOM      1  C   UNL     1     122.485 176.780 126.030  1.00  0.00     0.000 C 
ENDROOT
BRANCH   1   2
ATOM      2  C   UNL     1     122.559 176.334 124.562  1.00  0.00     0.000 C 
BRANCH   2   3
ATOM      3  C   UNL     1     123.697 177.057 123.826  1.00  0.00     0.000 C 
BRANCH   3   4
ATOM      4  C   UNL     1     123.301 177.499 122.409  1.00  0.00     0.000 C 
BRANCH   4   5
ATOM      5  C   UNL     1     124.499 177.549 121.447  1.00  0.00     0.006 C 
BRANCH   5   6
ATOM      6  C   UNL     1     124.088 177.266 119.996  1.00  0.00     0.053 C 
BRANCH   6   7
ATOM      7  C   UNL     1     124.951 178.008 119.021  1.00  0.00     0.041 C 
ATOM      8  O   UNL     1     124.555 178.195 117.840  1.00  0.00    -0.550 OA
ATOM      9  O   UNL     1     126.175 178.524 119.427  1.00  0.00    -0.550 OA
ENDBRANCH   6   7
ENDBRANCH   5   6
ENDBRANCH   4   5
ENDBRANCH   3   4
ENDBRANCH   2   3
ENDBRANCH   1   2
BRANCH   1  10
ATOM     10  C   UNL     1     123.277 178.072 126.302  1.00  0.00     0.000 C 
BRANCH  10  11
ATOM     11  C   UNL     1     122.443 179.239 126.869  1.00  0.00    -0.000 C 
BRANCH  11  12
ATOM     12  C   UNL     1     120.914 179.046 126.803  1.00  0.00    -0.000 C 
BRANCH  12  13
ATOM     13  C   UNL     1     120.201 179.891 125.733  1.00  0.00    -0.000 C 
BRANCH  13  14
ATOM     14  C   UNL     1     120.393 179.336 124.312  1.00  0.00    -0.000 C 
BRANCH  14  15
ATOM     15  C   UNL     1     119.407 178.203 123.984  1.00  0.00    -0.003 C 
ATOM     16  C   UNL     1     118.004 178.469 124.528  1.00  0.00     0.004 C 
ENDBRANCH  14  15
ENDBRANCH  13  14
ENDBRANCH  12  13
ENDBRANCH  11  12
ENDBRANCH  10  11
ENDBRANCH   1  10
TORSDOF 12
ENDMDL
MODEL 7
REMARK VINA RESULT:    -4.535      6.858      8.581
REMARK INTER + INTRA:          -9.417
REMARK INTER:                  -7.483
REMARK INTRA:                  -1.934
REMARK UNBOUND:                -1.700
REMARK SMILES CCCCCCCCCCCCCC(=O)[O-]
REMARK SMILES IDX 8 1 9 2 10 3 11 4 12 5 13 6 14 7 15 8 16 9 7 10 6 11 5 12
REMARK SMILES IDX 4 13 3 14 2 15 1 16
REMARK H PARENT
REMARK Flexibility Score: inf
ROOT
ATOM      1  C   UNL     1     125.289 177.465 124.140  1.00  0.00     0.000 C 
ENDROOT
BRANCH   1   2
ATOM      2  C   UNL     1     124.670 176.659 122.990  1.00  0.00     0.000 C 
BRANCH   2   3
ATOM      3  C   UNL     1     123.299 177.229 122.597  1.00  0.00     0.000 C 
BRANCH   3   4
ATOM      4  C   UNL     1     123.357 178.085 121.322  1.00  0.00     0.000 C 
BRANCH   4   5
ATOM      5  C   UNL     1     124.246 177.465 120.232  1.00  0.00     0.006 C 
BRANCH   5   6
ATOM      6  C   UNL     1     125.040 178.525 119.459  1.00  0.00     0.053 C 
BRANCH   6   7
ATOM      7  C   UNL     1     125.764 177.933 118.288  1.00  0.00     0.041 C 
ATOM      8  O   UNL     1     125.121 177.345 117.378  1.00  0.00    -0.550 OA
ATOM      9  O   UNL     1     127.143 178.063 118.184  1.00  0.00    -0.550 OA
ENDBRANCH   6   7
ENDBRANCH   5   6
ENDBRANCH   4   5
ENDBRANCH   3   4
ENDBRANCH   2   3
ENDBRANCH   1   2
BRANCH   1  10
ATOM     10  C   UNL     1     126.745 177.882 123.861  1.00  0.00     0.000 C 
BRANCH  10  11
ATOM     11  C   UNL     1     127.073 178.146 122.378  1.00  0.00    -0.000 C 
BRANCH  11  12
ATOM     12  C   UNL     1     128.461 177.654 121.916  1.00  0.00    -0.000 C 
BRANCH  12  13
ATOM     13  C   UNL     1     128.544 176.148 121.613  1.00  0.00    -0.000 C 
BRANCH  13  14
ATOM     14  C   UNL     1     127.410 175.662 120.695  1.00  0.00    -0.000 C 
BRANCH  14  15
ATOM     15  C   UNL     1     126.763 174.361 121.197  1.00  0.00    -0.003 C 
ATOM     16  C   UNL     1     127.203 173.993 122.613  1.00  0.00     0.004 C 
ENDBRANCH  14  15
ENDBRANCH  13  14
ENDBRANCH  12  13
ENDBRANCH  11  12
ENDBRANCH  10  11
ENDBRANCH   1  10
TORSDOF 12
ENDMDL
MODEL 8
REMARK VINA RESULT:    -4.494      3.288      5.453
REMARK INTER + INTRA:          -9.347
REMARK INTER:                  -7.324
REMARK INTRA:                  -2.023
REMARK UNBOUND:                -1.700
REMARK SMILES CCCCCCCCCCCCCC(=O)[O-]
REMARK SMILES IDX 8 1 9 2 10 3 11 4 12 5 13 6 14 7 15 8 16 9 7 10 6 11 5 12
REMARK SMILES IDX 4 13 3 14 2 15 1 16
REMARK H PARENT
REMARK Flexibility Score: inf
ROOT
ATOM      1  C   UNL     1     120.481 179.712 125.575  1.00  0.00     0.000 C 
ENDROOT
BRANCH   1   2
ATOM      2  C   UNL     1     120.656 178.877 124.298  1.00  0.00     0.000 C 
BRANCH   2   3
ATOM      3  C   UNL     1     121.813 177.878 124.451  1.00  0.00     0.000 C 
BRANCH   3   4
ATOM      4  C   UNL     1     121.417 176.448 124.053  1.00  0.00     0.000 C 
BRANCH   4   5
ATOM      5  C   UNL     1     121.940 175.392 125.040  1.00  0.00     0.006 C 
BRANCH   5   6
ATOM      6  C   UNL     1     120.874 174.346 125.389  1.00  0.00     0.053 C 
BRANCH   6   7
ATOM      7  C   UNL     1     121.186 173.642 126.675  1.00  0.00     0.041 C 
ATOM      8  O   UNL     1     122.058 174.107 127.456  1.00  0.00    -0.550 OA
ATOM      9  O   UNL     1     120.488 172.494 127.027  1.00  0.00    -0.550 OA
ENDBRANCH   6   7
ENDBRANCH   5   6
ENDBRANCH   4   5
ENDBRANCH   3   4
ENDBRANCH   2   3
ENDBRANCH   1   2
BRANCH   1  10
ATOM     10  C   UNL     1     121.389 179.241 126.726  1.00  0.00     0.000 C 
BRANCH  10  11
ATOM     11  C   UNL     1     120.648 178.635 127.933  1.00  0.00    -0.000 C 
BRANCH  11  12
ATOM     12  C   UNL     1     120.154 177.186 127.740  1.00  0.00    -0.000 C 
BRANCH  12  13
ATOM     13  C   UNL     1     118.629 177.035 127.605  1.00  0.00    -0.000 C 
BRANCH  13  14
ATOM     14  C   UNL     1     118.179 176.829 126.149  1.00  0.00    -0.000 C 
BRANCH  14  15
ATOM     15  C   UNL     1     116.852 177.540 125.836  1.00  0.00    -0.003 C 
ATOM     16  C   UNL     1     116.990 178.587 124.733  1.00  0.00     0.004 C 
ENDBRANCH  14  15
ENDBRANCH  13  14
ENDBRANCH  12  13
ENDBRANCH  11  12
ENDBRANCH  10  11
ENDBRANCH   1  10
TORSDOF 12
ENDMDL
MODEL 9
REMARK VINA RESULT:    -4.493      1.183      2.259
REMARK INTER + INTRA:          -9.345
REMARK INTER:                  -7.505
REMARK INTRA:                  -1.840
REMARK UNBOUND:                -1.700
REMARK SMILES CCCCCCCCCCCCCC(=O)[O-]
REMARK SMILES IDX 8 1 9 2 10 3 11 4 12 5 13 6 14 7 15 8 16 9 7 10 6 11 5 12
REMARK SMILES IDX 4 13 3 14 2 15 1 16
REMARK H PARENT
REMARK Flexibility Score: inf
ROOT
ATOM      1  C   UNL     1     120.548 178.540 127.433  1.00  0.00     0.000 C 
ENDROOT
BRANCH   1   2
ATOM      2  C   UNL     1     120.833 179.522 126.288  1.00  0.00     0.000 C 
BRANCH   2   3
ATOM      3  C   UNL     1     119.634 179.610 125.330  1.00  0.00     0.000 C 
BRANCH   3   4
ATOM      4  C   UNL     1     118.833 178.300 125.262  1.00  0.00     0.000 C 
BRANCH   4   5
ATOM      5  C   UNL     1     117.602 178.407 124.348  1.00  0.00     0.006 C 
BRANCH   5   6
ATOM      6  C   UNL     1     116.295 178.131 125.102  1.00  0.00     0.053 C 
BRANCH   6   7
ATOM      7  C   UNL     1     115.607 179.400 125.503  1.00  0.00     0.041 C 
ATOM      8  O   UNL     1     114.562 179.360 126.206  1.00  0.00    -0.550 OA
ATOM      9  O   UNL     1     116.140 180.628 125.133  1.00  0.00    -0.550 OA
ENDBRANCH   6   7
ENDBRANCH   5   6
ENDBRANCH   4   5
ENDBRANCH   3   4
ENDBRANCH   2   3
ENDBRANCH   1   2
BRANCH   1  10
ATOM     10  C   UNL     1     121.760 177.654 127.775  1.00  0.00     0.000 C 
BRANCH  10  11
ATOM     11  C   UNL     1     121.447 176.152 127.922  1.00  0.00    -0.000 C 
BRANCH  11  12
ATOM     12  C   UNL     1     120.903 175.468 126.651  1.00  0.00    -0.000 C 
BRANCH  12  13
ATOM     13  C   UNL     1     121.935 175.284 125.524  1.00  0.00    -0.000 C 
BRANCH  13  14
ATOM     14  C   UNL     1     121.471 175.890 124.189  1.00  0.00    -0.000 C 
BRANCH  14  15
ATOM     15  C   UNL     1     122.204 177.197 123.849  1.00  0.00    -0.003 C 
ATOM     16  C   UNL     1     123.619 177.245 124.425  1.00  0.00     0.004 C 
ENDBRANCH  14  15
ENDBRANCH  13  14
ENDBRANCH  12  13
ENDBRANCH  11  12
ENDBRANCH  10  11
ENDBRANCH   1  10
TORSDOF 12
ENDMDL
