MODEL 1
REMARK VINA RESULT:    -3.421      0.000      0.000
REMARK INTER + INTRA:          -8.458
REMARK INTER:                  -6.221
REMARK INTRA:                  -2.237
REMARK UNBOUND:                -2.237
REMARK SMILES CCCCCCCCCCCCCC[C@@H](C)C(=O)[O-]
REMARK SMILES IDX 9 1 10 2 11 3 12 4 13 5 14 6 15 7 16 8 17 9 18 10 19 11 8 12
REMARK SMILES IDX 7 13 6 14 5 15 4 16 3 17 2 18 1 19
REMARK H PARENT
REMARK Flexibility Score: inf
ROOT
ATOM      1  C   UNL     1      71.095  27.802  60.475  1.00  0.00     0.000 C 
ENDROOT
BRANCH   1   2
ATOM      2  C   UNL     1      70.085  28.704  61.208  1.00  0.00     0.000 C 
BRANCH   2   3
ATOM      3  C   UNL     1      68.673  28.096  61.252  1.00  0.00     0.000 C 
BRANCH   3   4
ATOM      4  C   UNL     1      68.317  27.338  59.962  1.00  0.00     0.000 C 
BRANCH   4   5
ATOM      5  C   UNL     1      66.834  27.486  59.579  1.00  0.00     0.001 C 
BRANCH   5   6
ATOM      6  C   UNL     1      66.101  28.533  60.438  1.00  0.00     0.009 C 
BRANCH   6   7
ATOM      7  C   UNL     1      65.321  29.547  59.575  1.00  0.00     0.032 C 
ATOM      8  C   UNL     1      64.688  28.853  58.365  1.00  0.00     0.014 C 
BRANCH   7   9
ATOM      9  C   UNL     1      64.251  30.240  60.376  1.00  0.00     0.044 C 
ATOM     10  O   UNL     1      64.186  31.498  60.390  1.00  0.00    -0.550 OA
ATOM     11  O   UNL     1      63.325  29.499  61.102  1.00  0.00    -0.550 OA
ENDBRANCH   7   9
ENDBRANCH   6   7
ENDBRANCH   5   6
ENDBRANCH   4   5
ENDBRANCH   3   4
ENDBRANCH   2   3
ENDBRANCH   1   2
BRANCH   1  12
ATOM     12  C   UNL     1      72.555  28.188  60.773  1.00  0.00     0.000 C 
BRANCH  12  13
ATOM     13  C   UNL     1      72.712  29.674  61.135  1.00  0.00    -0.000 C 
BRANCH  13  14
ATOM     14  C   UNL     1      72.757  30.583  59.896  1.00  0.00    -0.000 C 
BRANCH  14  15
ATOM     15  C   UNL     1      71.641  31.638  59.890  1.00  0.00    -0.000 C 
BRANCH  15  16
ATOM     16  C   UNL     1      70.809  31.548  58.603  1.00  0.00    -0.000 C 
BRANCH  16  17
ATOM     17  C   UNL     1      71.144  30.304  57.766  1.00  0.00    -0.000 C 
BRANCH  17  18
ATOM     18  C   UNL     1      69.893  29.517  57.349  1.00  0.00    -0.003 C 
ATOM     19  C   UNL     1      68.620  30.242  57.778  1.00  0.00     0.004 C 
ENDBRANCH  17  18
ENDBRANCH  16  17
ENDBRANCH  15  16
ENDBRANCH  14  15
ENDBRANCH  13  14
ENDBRANCH  12  13
ENDBRANCH   1  12
TORSDOF 14
ENDMDL
MODEL 2
REMARK VINA RESULT:    -3.197      5.724      8.162
REMARK INTER + INTRA:          -8.050
REMARK INTER:                  -6.048
REMARK INTRA:                  -2.002
REMARK UNBOUND:                -2.237
REMARK SMILES CCCCCCCCCCCCCC[C@@H](C)C(=O)[O-]
REMARK SMILES IDX 9 1 10 2 11 3 12 4 13 5 14 6 15 7 16 8 17 9 18 10 19 11 8 12
REMARK SMILES IDX 7 13 6 14 5 15 4 16 3 17 2 18 1 19
REMARK H PARENT
REMARK Flexibility Score: inf
ROOT
ATOM      1  C   UNL     1      60.778  28.593  58.008  1.00  0.00     0.000 C 
ENDROOT
BRANCH   1   2
ATOM      2  C   UNL     1      60.837  30.065  57.560  1.00  0.00     0.000 C 
BRANCH   2   3
ATOM      3  C   UNL     1      62.265  30.634  57.585  1.00  0.00     0.000 C 
BRANCH   3   4
ATOM      4  C   UNL     1      62.378  31.911  58.436  1.00  0.00     0.000 C 
BRANCH   4   5
ATOM      5  C   UNL     1      63.837  32.290  58.742  1.00  0.00     0.001 C 
BRANCH   5   6
ATOM      6  C   UNL     1      63.998  32.966  60.116  1.00  0.00     0.009 C 
BRANCH   6   7
ATOM      7  C   UNL     1      64.064  34.504  60.003  1.00  0.00     0.032 C 
ATOM      8  C   UNL     1      62.656  35.108  60.023  1.00  0.00     0.014 C 
BRANCH   7   9
ATOM      9  C   UNL     1      64.887  35.101  61.113  1.00  0.00     0.044 C 
ATOM     10  O   UNL     1      66.098  35.384  60.920  1.00  0.00    -0.550 OA
ATOM     11  O   UNL     1      64.316  35.350  62.356  1.00  0.00    -0.550 OA
ENDBRANCH   7   9
ENDBRANCH   6   7
ENDBRANCH   5   6
ENDBRANCH   4   5
ENDBRANCH   3   4
ENDBRANCH   2   3
ENDBRANCH   1   2
BRANCH   1  12
ATOM     12  C   UNL     1      59.983  28.404  59.312  1.00  0.00     0.000 C 
BRANCH  12  13
ATOM     13  C   UNL     1      60.574  29.204  60.486  1.00  0.00    -0.000 C 
BRANCH  13  14
ATOM     14  C   UNL     1      61.822  28.536  61.085  1.00  0.00    -0.000 C 
BRANCH  14  15
ATOM     15  C   UNL     1      63.044  29.468  61.103  1.00  0.00    -0.000 C 
BRANCH  15  16
ATOM     16  C   UNL     1      64.226  28.834  60.356  1.00  0.00    -0.000 C 
BRANCH  16  17
ATOM     17  C   UNL     1      63.846  27.527  59.643  1.00  0.00    -0.000 C 
BRANCH  17  18
ATOM     18  C   UNL     1      64.918  26.438  59.793  1.00  0.00    -0.003 C 
ATOM     19  C   UNL     1      64.358  25.212  60.511  1.00  0.00     0.004 C 
ENDBRANCH  17  18
ENDBRANCH  16  17
ENDBRANCH  15  16
ENDBRANCH  14  15
ENDBRANCH  13  14
ENDBRANCH  12  13
ENDBRANCH   1  12
TORSDOF 14
ENDMDL
MODEL 3
REMARK VINA RESULT:    -3.189     14.630     16.299
REMARK INTER + INTRA:          -8.036
REMARK INTER:                  -6.716
REMARK INTRA:                  -1.320
REMARK UNBOUND:                -2.237
REMARK SMILES CCCCCCCCCCCCCC[C@@H](C)C(=O)[O-]
REMARK SMILES IDX 9 1 10 2 11 3 12 4 13 5 14 6 15 7 16 8 17 9 18 10 19 11 8 12
REMARK SMILES IDX 7 13 6 14 5 15 4 16 3 17 2 18 1 19
REMARK H PARENT
REMARK Flexibility Score: inf
ROOT
ATOM      1  C   UNL     1      61.321  21.846  48.616  1.00  0.00     0.000 C 
ENDROOT
BRANCH   1   2
ATOM      2  C   UNL     1      60.368  20.703  49.013  1.00  0.00     0.000 C 
BRANCH   2   3
ATOM      3  C   UNL     1      60.635  20.178  50.433  1.00  0.00     0.000 C 
BRANCH   3   4
ATOM      4  C   UNL     1      59.352  20.083  51.278  1.00  0.00     0.000 C 
BRANCH   4   5
ATOM      5  C   UNL     1      59.321  18.827  52.165  1.00  0.00     0.001 C 
BRANCH   5   6
ATOM      6  C   UNL     1      58.195  17.851  51.775  1.00  0.00     0.009 C 
BRANCH   6   7
ATOM      7  C   UNL     1      57.470  18.289  50.484  1.00  0.00     0.032 C 
ATOM      8  C   UNL     1      57.729  17.288  49.353  1.00  0.00     0.014 C 
BRANCH   7   9
ATOM      9  C   UNL     1      55.988  18.426  50.707  1.00  0.00     0.044 C 
ATOM     10  O   UNL     1      55.186  18.255  49.752  1.00  0.00    -0.550 OA
ATOM     11  O   UNL     1      55.492  18.738  51.969  1.00  0.00    -0.550 OA
ENDBRANCH   7   9
ENDBRANCH   6   7
ENDBRANCH   5   6
ENDBRANCH   4   5
ENDBRANCH   3   4
ENDBRANCH   2   3
ENDBRANCH   1   2
BRANCH   1  12
ATOM     12  C   UNL     1      61.555  22.844  49.764  1.00  0.00     0.000 C 
BRANCH  12  13
ATOM     13  C   UNL     1      60.817  24.176  49.549  1.00  0.00    -0.000 C 
BRANCH  13  14
ATOM     14  C   UNL     1      59.374  24.143  50.076  1.00  0.00    -0.000 C 
BRANCH  14  15
ATOM     15  C   UNL     1      58.509  25.283  49.515  1.00  0.00    -0.000 C 
BRANCH  15  16
ATOM     16  C   UNL     1      59.382  26.362  48.860  1.00  0.00    -0.000 C 
BRANCH  16  17
ATOM     17  C   UNL     1      58.882  27.786  49.148  1.00  0.00    -0.000 C 
BRANCH  17  18
ATOM     18  C   UNL     1      57.776  27.821  50.212  1.00  0.00    -0.003 C 
ATOM     19  C   UNL     1      56.551  28.578  49.706  1.00  0.00     0.004 C 
ENDBRANCH  17  18
ENDBRANCH  16  17
ENDBRANCH  15  16
ENDBRANCH  14  15
ENDBRANCH  13  14
ENDBRANCH  12  13
ENDBRANCH   1  12
TORSDOF 14
ENDMDL
MODEL 4
REMARK VINA RESULT:    -3.139      5.958      8.772
REMARK INTER + INTRA:          -7.946
REMARK INTER:                  -6.175
REMARK INTRA:                  -1.771
REMARK UNBOUND:                -2.237
REMARK SMILES CCCCCCCCCCCCCC[C@@H](C)C(=O)[O-]
REMARK SMILES IDX 9 1 10 2 11 3 12 4 13 5 14 6 15 7 16 8 17 9 18 10 19 11 8 12
REMARK SMILES IDX 7 13 6 14 5 15 4 16 3 17 2 18 1 19
REMARK H PARENT
REMARK Flexibility Score: inf
ROOT
ATOM      1  C   UNL     1      64.289  33.401  59.378  1.00  0.00     0.000 C 
ENDROOT
BRANCH   1   2
ATOM      2  C   UNL     1      64.136  34.090  60.747  1.00  0.00     0.000 C 
BRANCH   2   3
ATOM      3  C   UNL     1      63.748  35.573  60.621  1.00  0.00     0.000 C 
BRANCH   3   4
ATOM      4  C   UNL     1      62.224  35.785  60.606  1.00  0.00     0.000 C 
BRANCH   4   5
ATOM      5  C   UNL     1      61.662  35.926  59.182  1.00  0.00     0.001 C 
BRANCH   5   6
ATOM      6  C   UNL     1      60.152  35.632  59.107  1.00  0.00     0.009 C 
BRANCH   6   7
ATOM      7  C   UNL     1      59.795  34.725  57.911  1.00  0.00     0.032 C 
ATOM      8  C   UNL     1      60.956  33.779  57.584  1.00  0.00     0.014 C 
BRANCH   7   9
ATOM      9  C   UNL     1      58.551  33.922  58.182  1.00  0.00     0.044 C 
ATOM     10  O   UNL     1      58.582  32.665  58.114  1.00  0.00    -0.550 OA
ATOM     11  O   UNL     1      57.361  34.560  58.516  1.00  0.00    -0.550 OA
ENDBRANCH   7   9
ENDBRANCH   6   7
ENDBRANCH   5   6
ENDBRANCH   4   5
ENDBRANCH   3   4
ENDBRANCH   2   3
ENDBRANCH   1   2
BRANCH   1  12
ATOM     12  C   UNL     1      63.504  32.080  59.292  1.00  0.00     0.000 C 
BRANCH  12  13
ATOM     13  C   UNL     1      64.398  30.846  59.507  1.00  0.00    -0.000 C 
BRANCH  13  14
ATOM     14  C   UNL     1      64.096  30.123  60.829  1.00  0.00    -0.000 C 
BRANCH  14  15
ATOM     15  C   UNL     1      63.299  28.824  60.629  1.00  0.00    -0.000 C 
BRANCH  15  16
ATOM     16  C   UNL     1      61.872  28.969  61.178  1.00  0.00    -0.000 C 
BRANCH  16  17
ATOM     17  C   UNL     1      60.797  28.717  60.108  1.00  0.00    -0.000 C 
BRANCH  17  18
ATOM     18  C   UNL     1      60.446  29.983  59.313  1.00  0.00    -0.003 C 
ATOM     19  C   UNL     1      60.903  29.864  57.862  1.00  0.00     0.004 C 
ENDBRANCH  17  18
ENDBRANCH  16  17
ENDBRANCH  15  16
ENDBRANCH  14  15
ENDBRANCH  13  14
ENDBRANCH  12  13
ENDBRANCH   1  12
TORSDOF 14
ENDMDL
MODEL 5
REMARK VINA RESULT:    -3.132     12.560     15.083
REMARK INTER + INTRA:          -7.932
REMARK INTER:                  -5.386
REMARK INTRA:                  -2.546
REMARK UNBOUND:                -2.237
REMARK SMILES CCCCCCCCCCCCCC[C@@H](C)C(=O)[O-]
REMARK SMILES IDX 9 1 10 2 11 3 12 4 13 5 14 6 15 7 16 8 17 9 18 10 19 11 8 12
REMARK SMILES IDX 7 13 6 14 5 15 4 16 3 17 2 18 1 19
REMARK H PARENT
REMARK Flexibility Score: inf
ROOT
ATOM      1  C   UNL     1      59.887  28.235  52.059  1.00  0.00     0.000 C 
ENDROOT
BRANCH   1   2
ATOM      2  C   UNL     1      60.799  28.152  50.820  1.00  0.00     0.000 C 
BRANCH   2   3
ATOM      3  C   UNL     1      60.129  28.714  49.555  1.00  0.00     0.000 C 
BRANCH   3   4
ATOM      4  C   UNL     1      59.648  27.607  48.601  1.00  0.00     0.000 C 
BRANCH   4   5
ATOM      5  C   UNL     1      60.189  26.220  48.984  1.00  0.00     0.001 C 
BRANCH   5   6
ATOM      6  C   UNL     1      59.072  25.228  49.358  1.00  0.00     0.009 C 
BRANCH   6   7
ATOM      7  C   UNL     1      59.394  24.451  50.652  1.00  0.00     0.032 C 
ATOM      8  C   UNL     1      58.141  24.303  51.520  1.00  0.00     0.014 C 
BRANCH   7   9
ATOM      9  C   UNL     1      59.961  23.090  50.347  1.00  0.00     0.044 C 
ATOM     10  O   UNL     1      59.758  22.129  51.135  1.00  0.00    -0.550 OA
ATOM     11  O   UNL     1      60.707  22.881  49.192  1.00  0.00    -0.550 OA
ENDBRANCH   7   9
ENDBRANCH   6   7
ENDBRANCH   5   6
ENDBRANCH   4   5
ENDBRANCH   3   4
ENDBRANCH   2   3
ENDBRANCH   1   2
BRANCH   1  12
ATOM     12  C   UNL     1      58.500  28.816  51.732  1.00  0.00     0.000 C 
BRANCH  12  13
ATOM     13  C   UNL     1      57.362  27.818  52.003  1.00  0.00    -0.000 C 
BRANCH  13  14
ATOM     14  C   UNL     1      56.475  27.585  50.770  1.00  0.00    -0.000 C 
BRANCH  14  15
ATOM     15  C   UNL     1      56.424  28.803  49.834  1.00  0.00    -0.000 C 
BRANCH  15  16
ATOM     16  C   UNL     1      55.066  29.513  49.933  1.00  0.00    -0.000 C 
BRANCH  16  17
ATOM     17  C   UNL     1      55.156  30.867  50.653  1.00  0.00    -0.000 C 
BRANCH  17  18
ATOM     18  C   UNL     1      54.894  30.753  52.162  1.00  0.00    -0.003 C 
ATOM     19  C   UNL     1      56.081  31.277  52.966  1.00  0.00     0.004 C 
ENDBRANCH  17  18
ENDBRANCH  16  17
ENDBRANCH  15  16
ENDBRANCH  14  15
ENDBRANCH  13  14
ENDBRANCH  12  13
ENDBRANCH   1  12
TORSDOF 14
ENDMDL
MODEL 6
REMARK VINA RESULT:    -3.089      1.388      3.228
REMARK INTER + INTRA:          -7.855
REMARK INTER:                  -5.731
REMARK INTRA:                  -2.124
REMARK UNBOUND:                -2.237
REMARK SMILES CCCCCCCCCCCCCC[C@@H](C)C(=O)[O-]
REMARK SMILES IDX 9 1 10 2 11 3 12 4 13 5 14 6 15 7 16 8 17 9 18 10 19 11 8 12
REMARK SMILES IDX 7 13 6 14 5 15 4 16 3 17 2 18 1 19
REMARK H PARENT
REMARK Flexibility Score: inf
ROOT
ATOM      1  C   UNL     1      70.232  30.523  57.876  1.00  0.00     0.000 C 
ENDROOT
BRANCH   1   2
ATOM      2  C   UNL     1      68.712  30.295  57.783  1.00  0.00     0.000 C 
BRANCH   2   3
ATOM      3  C   UNL     1      68.355  28.872  57.324  1.00  0.00     0.000 C 
BRANCH   3   4
ATOM      4  C   UNL     1      67.000  28.395  57.875  1.00  0.00     0.000 C 
BRANCH   4   5
ATOM      5  C   UNL     1      66.451  29.320  58.974  1.00  0.00     0.001 C 
BRANCH   5   6
ATOM      6  C   UNL     1      65.867  28.542  60.168  1.00  0.00     0.009 C 
BRANCH   6   7
ATOM      7  C   UNL     1      64.476  29.068  60.580  1.00  0.00     0.032 C 
ATOM      8  C   UNL     1      64.320  30.542  60.194  1.00  0.00     0.014 C 
BRANCH   7   9
ATOM      9  C   UNL     1      63.375  28.261  59.947  1.00  0.00     0.044 C 
ATOM     10  O   UNL     1      62.767  27.385  60.618  1.00  0.00    -0.550 OA
ATOM     11  O   UNL     1      63.016  28.478  58.621  1.00  0.00    -0.550 OA
ENDBRANCH   7   9
ENDBRANCH   6   7
ENDBRANCH   5   6
ENDBRANCH   4   5
ENDBRANCH   3   4
ENDBRANCH   2   3
ENDBRANCH   1   2
BRANCH   1  12
ATOM     12  C   UNL     1      70.587  31.938  58.366  1.00  0.00     0.000 C 
BRANCH  12  13
ATOM     13  C   UNL     1      71.566  31.924  59.552  1.00  0.00    -0.000 C 
BRANCH  13  14
ATOM     14  C   UNL     1      72.316  30.588  59.683  1.00  0.00    -0.000 C 
BRANCH  14  15
ATOM     15  C   UNL     1      72.547  30.176  61.145  1.00  0.00    -0.000 C 
BRANCH  15  16
ATOM     16  C   UNL     1      71.762  28.900  61.485  1.00  0.00    -0.000 C 
BRANCH  16  17
ATOM     17  C   UNL     1      70.243  29.082  61.337  1.00  0.00    -0.000 C 
BRANCH  17  18
ATOM     18  C   UNL     1      69.556  27.849  60.732  1.00  0.00    -0.003 C 
ATOM     19  C   UNL     1      70.485  27.125  59.760  1.00  0.00     0.004 C 
ENDBRANCH  17  18
ENDBRANCH  16  17
ENDBRANCH  15  16
ENDBRANCH  14  15
ENDBRANCH  13  14
ENDBRANCH  12  13
ENDBRANCH   1  12
TORSDOF 14
ENDMDL
MODEL 7
REMARK VINA RESULT:    -3.071     14.791     17.126
REMARK INTER + INTRA:          -7.822
REMARK INTER:                  -5.695
REMARK INTRA:                  -2.126
REMARK UNBOUND:                -2.237
REMARK SMILES CCCCCCCCCCCCCC[C@@H](C)C(=O)[O-]
REMARK SMILES IDX 9 1 10 2 11 3 12 4 13 5 14 6 15 7 16 8 17 9 18 10 19 11 8 12
REMARK SMILES IDX 7 13 6 14 5 15 4 16 3 17 2 18 1 19
REMARK H PARENT
REMARK Flexibility Score: inf
ROOT
ATOM      1  C   UNL     1      59.267  16.213  51.260  1.00  0.00     0.000 C 
ENDROOT
BRANCH   1   2
ATOM      2  C   UNL     1      59.809  17.232  50.241  1.00  0.00     0.000 C 
BRANCH   2   3
ATOM      3  C   UNL     1      58.692  18.049  49.571  1.00  0.00     0.000 C 
BRANCH   3   4
ATOM      4  C   UNL     1      57.357  17.286  49.511  1.00  0.00     0.000 C 
BRANCH   4   5
ATOM      5  C   UNL     1      56.182  18.107  50.069  1.00  0.00     0.001 C 
BRANCH   5   6
ATOM      6  C   UNL     1      56.520  18.796  51.405  1.00  0.00     0.009 C 
BRANCH   6   7
ATOM      7  C   UNL     1      55.581  18.346  52.544  1.00  0.00     0.032 C 
ATOM      8  C   UNL     1      56.349  18.227  53.863  1.00  0.00     0.014 C 
BRANCH   7   9
ATOM      9  C   UNL     1      54.429  19.300  52.714  1.00  0.00     0.044 C 
ATOM     10  O   UNL     1      53.885  19.440  53.841  1.00  0.00    -0.550 OA
ATOM     11  O   UNL     1      53.960  20.037  51.632  1.00  0.00    -0.550 OA
ENDBRANCH   7   9
ENDBRANCH   6   7
ENDBRANCH   5   6
ENDBRANCH   4   5
ENDBRANCH   3   4
ENDBRANCH   2   3
ENDBRANCH   1   2
BRANCH   1  12
ATOM     12  C   UNL     1      59.324  16.737  52.706  1.00  0.00     0.000 C 
BRANCH  12  13
ATOM     13  C   UNL     1      60.435  17.782  52.912  1.00  0.00    -0.000 C 
BRANCH  13  14
ATOM     14  C   UNL     1      59.880  19.200  53.117  1.00  0.00    -0.000 C 
BRANCH  14  15
ATOM     15  C   UNL     1      60.679  20.269  52.354  1.00  0.00    -0.000 C 
BRANCH  15  16
ATOM     16  C   UNL     1      59.826  20.903  51.246  1.00  0.00    -0.000 C 
BRANCH  16  17
ATOM     17  C   UNL     1      60.262  22.336  50.908  1.00  0.00    -0.000 C 
BRANCH  17  18
ATOM     18  C   UNL     1      60.662  22.501  49.434  1.00  0.00    -0.003 C 
ATOM     19  C   UNL     1      60.702  21.151  48.723  1.00  0.00     0.004 C 
ENDBRANCH  17  18
ENDBRANCH  16  17
ENDBRANCH  15  16
ENDBRANCH  14  15
ENDBRANCH  13  14
ENDBRANCH  12  13
ENDBRANCH   1  12
TORSDOF 14
ENDMDL
MODEL 8
REMARK VINA RESULT:    -3.059     14.312     17.354
REMARK INTER + INTRA:          -7.800
REMARK INTER:                  -5.407
REMARK INTRA:                  -2.393
REMARK UNBOUND:                -2.237
REMARK SMILES CCCCCCCCCCCCCC[C@@H](C)C(=O)[O-]
REMARK SMILES IDX 9 1 10 2 11 3 12 4 13 5 14 6 15 7 16 8 17 9 18 10 19 11 8 12
REMARK SMILES IDX 7 13 6 14 5 15 4 16 3 17 2 18 1 19
REMARK H PARENT
REMARK Flexibility Score: inf
ROOT
ATOM      1  C   UNL     1      58.935  16.304  52.282  1.00  0.00     0.000 C 
ENDROOT
BRANCH   1   2
ATOM      2  C   UNL     1      59.690  17.304  53.177  1.00  0.00     0.000 C 
BRANCH   2   3
ATOM      3  C   UNL     1      60.351  18.435  52.371  1.00  0.00     0.000 C 
BRANCH   3   4
ATOM      4  C   UNL     1      59.848  19.828  52.787  1.00  0.00     0.000 C 
BRANCH   4   5
ATOM      5  C   UNL     1      59.334  20.651  51.594  1.00  0.00     0.001 C 
BRANCH   5   6
ATOM      6  C   UNL     1      60.057  20.305  50.278  1.00  0.00     0.009 C 
BRANCH   6   7
ATOM      7  C   UNL     1      61.072  21.393  49.871  1.00  0.00     0.032 C 
ATOM      8  C   UNL     1      61.217  21.453  48.347  1.00  0.00     0.014 C 
BRANCH   7   9
ATOM      9  C   UNL     1      60.668  22.745  50.394  1.00  0.00     0.044 C 
ATOM     10  O   UNL     1      59.876  23.468  49.733  1.00  0.00    -0.550 OA
ATOM     11  O   UNL     1      61.160  23.205  51.610  1.00  0.00    -0.550 OA
ENDBRANCH   7   9
ENDBRANCH   6   7
ENDBRANCH   5   6
ENDBRANCH   4   5
ENDBRANCH   3   4
ENDBRANCH   2   3
ENDBRANCH   1   2
BRANCH   1  12
ATOM     12  C   UNL     1      59.107  16.607  50.783  1.00  0.00     0.000 C 
BRANCH  12  13
ATOM     13  C   UNL     1      57.769  16.616  50.024  1.00  0.00    -0.000 C 
BRANCH  13  14
ATOM     14  C   UNL     1      57.195  18.033  49.857  1.00  0.00    -0.000 C 
BRANCH  14  15
ATOM     15  C   UNL     1      55.900  18.248  50.655  1.00  0.00    -0.000 C 
BRANCH  15  16
ATOM     16  C   UNL     1      56.194  18.915  52.006  1.00  0.00    -0.000 C 
BRANCH  16  17
ATOM     17  C   UNL     1      55.498  18.209  53.181  1.00  0.00    -0.000 C 
BRANCH  17  18
ATOM     18  C   UNL     1      56.366  18.174  54.447  1.00  0.00    -0.003 C 
ATOM     19  C   UNL     1      56.427  16.766  55.032  1.00  0.00     0.004 C 
ENDBRANCH  17  18
ENDBRANCH  16  17
ENDBRANCH  15  16
ENDBRANCH  14  15
ENDBRANCH  13  14
ENDBRANCH  12  13
ENDBRANCH   1  12
TORSDOF 14
ENDMDL
MODEL 9
REMARK VINA RESULT:    -3.050      4.770      7.642
REMARK INTER + INTRA:          -7.783
REMARK INTER:                  -5.177
REMARK INTRA:                  -2.606
REMARK UNBOUND:                -2.237
REMARK SMILES CCCCCCCCCCCCCC[C@@H](C)C(=O)[O-]
REMARK SMILES IDX 9 1 10 2 11 3 12 4 13 5 14 6 15 7 16 8 17 9 18 10 19 11 8 12
REMARK SMILES IDX 7 13 6 14 5 15 4 16 3 17 2 18 1 19
REMARK H PARENT
REMARK Flexibility Score: inf
ROOT
ATOM      1  C   UNL     1      61.900  31.372  58.372  1.00  0.00     0.000 C 
ENDROOT
BRANCH   1   2
ATOM      2  C   UNL     1      61.242  30.084  57.841  1.00  0.00     0.000 C 
BRANCH   2   3
ATOM      3  C   UNL     1      60.448  29.337  58.924  1.00  0.00     0.000 C 
BRANCH   3   4
ATOM      4  C   UNL     1      60.941  29.657  60.346  1.00  0.00     0.000 C 
BRANCH   4   5
ATOM      5  C   UNL     1      61.908  28.592  60.891  1.00  0.00     0.001 C 
BRANCH   5   6
ATOM      6  C   UNL     1      63.361  29.094  60.971  1.00  0.00     0.009 C 
BRANCH   6   7
ATOM      7  C   UNL     1      64.167  28.746  59.701  1.00  0.00     0.032 C 
ATOM      8  C   UNL     1      65.625  29.192  59.846  1.00  0.00     0.014 C 
BRANCH   7   9
ATOM      9  C   UNL     1      64.116  27.270  59.407  1.00  0.00     0.044 C 
ATOM     10  O   UNL     1      63.463  26.845  58.418  1.00  0.00    -0.550 OA
ATOM     11  O   UNL     1      64.793  26.368  60.219  1.00  0.00    -0.550 OA
ENDBRANCH   7   9
ENDBRANCH   6   7
ENDBRANCH   5   6
ENDBRANCH   4   5
ENDBRANCH   3   4
ENDBRANCH   2   3
ENDBRANCH   1   2
BRANCH   1  12
ATOM     12  C   UNL     1      63.157  31.763  57.576  1.00  0.00     0.000 C 
BRANCH  12  13
ATOM     13  C   UNL     1      64.226  32.438  58.452  1.00  0.00    -0.000 C 
BRANCH  13  14
ATOM     14  C   UNL     1      63.802  32.539  59.926  1.00  0.00    -0.000 C 
BRANCH  14  15
ATOM     15  C   UNL     1      64.342  33.802  60.616  1.00  0.00    -0.000 C 
BRANCH  15  16
ATOM     16  C   UNL     1      63.804  35.069  59.934  1.00  0.00    -0.000 C 
BRANCH  16  17
ATOM     17  C   UNL     1      62.366  35.406  60.358  1.00  0.00    -0.000 C 
BRANCH  17  18
ATOM     18  C   UNL     1      61.372  35.326  59.191  1.00  0.00    -0.003 C 
ATOM     19  C   UNL     1      62.092  35.420  57.848  1.00  0.00     0.004 C 
ENDBRANCH  17  18
ENDBRANCH  16  17
ENDBRANCH  15  16
ENDBRANCH  14  15
ENDBRANCH  13  14
ENDBRANCH  12  13
ENDBRANCH   1  12
TORSDOF 14
ENDMDL
