MODEL 1
REMARK VINA RESULT:     8.207      0.000      0.000
REMARK INTER + INTRA:          13.011
REMARK INTER:                  11.566
REMARK INTRA:                   1.445
REMARK UNBOUND:                 1.445
REMARK SMILES CC1=CCCC(C)=CCC(C)(C)C=CC1
REMARK SMILES IDX 2 1 3 2 1 3 4 4 5 5 6 6 7 7 8 8 15 10 14 11 13 12 10 13
REMARK SMILES IDX 11 14 12 15 9 16
REMARK H PARENT
REMARK Flexibility Score: 60.00
ROOT
ATOM      1  C   UNL     1      14.223  96.058   9.531  1.00  0.00    -0.074 C 
ATOM      2  C   UNL     1      14.460  95.145   8.556  1.00  0.00    -0.027 C 
ATOM      3  C   UNL     1      12.800  96.195  10.017  1.00  0.00     0.039 C 
ENDROOT
BRANCH   2   4
ATOM      4  C   UNL     1      15.789  94.862   7.892  1.00  0.00     0.032 C 
BRANCH   4   5
ATOM      5  C   UNL     1      16.726  93.984   8.745  1.00  0.00     0.034 C 
BRANCH   5   6
ATOM      6  C   UNL     1      18.209  94.279   8.568  1.00  0.00    -0.077 C 
ATOM      7  C   UNL     1      19.081  93.243   7.906  1.00  0.00     0.039 C 
ATOM      8  C   UNL     1      18.787  95.435   8.960  1.00  0.00    -0.027 CG0
ATOM      9  G   UNL     1      18.069  96.575   9.648  1.00  0.00     0.000 G0
ENDBRANCH   5   6
ENDBRANCH   4   5
ENDBRANCH   2   4
BRANCH   1  10
ATOM     10  C   UNL     1      15.279  96.982  10.125  1.00  0.00     0.057 C 
BRANCH  10  11
ATOM     11  C   UNL     1      15.524  98.172   9.229  1.00  0.00    -0.026 C 
ATOM     12  C   UNL     1      16.678  98.536   8.625  1.00  0.00    -0.024 C 
BRANCH  12  13
ATOM     13  C   UNL     1      18.059  97.865   8.696  1.00  0.00    -0.014 C 
ATOM     14  C   UNL     1      18.533  97.495   7.274  1.00  0.00     0.016 C 
ATOM     15  C   UNL     1      19.062  98.907   9.253  1.00  0.00     0.016 C 
BRANCH  13  16
ATOM     16  C   UNL     1      18.095  96.611   9.626  1.00  0.00     0.038 CG0
ATOM     17  G   UNL     1      18.794  95.427   8.994  1.00  0.00     0.000 G0
ENDBRANCH  13  16
ENDBRANCH  12  13
ENDBRANCH  10  11
ENDBRANCH   1  10
TORSDOF 0
ENDMDL
