MODEL 1
REMARK VINA RESULT:    -2.546      0.000      0.000
REMARK INTER + INTRA:          -2.973
REMARK INTER:                  -2.918
REMARK INTRA:                  -0.055
REMARK UNBOUND:                -0.055
REMARK SMILES CC(C)[C@@H]([NH3+])C(=O)[O-]
REMARK SMILES IDX 4 1 5 2 6 6 7 7 8 8 2 9 1 10 3 11
REMARK H PARENT 5 3 5 4 5 5
REMARK Flexibility Score: inf
ROOT
ATOM      1  C   UNL     1      97.070  70.580  84.422  1.00  0.00     0.230 C 
ENDROOT
BRANCH   1   2
ATOM      2  N   UNL     1      97.518  69.182  84.325  1.00  0.00    -0.350 N 
ATOM      3  H   UNL     1      97.203  68.657  85.174  1.00  0.00     0.345 HD
ATOM      4  H   UNL     1      98.559  69.117  84.265  1.00  0.00     0.345 HD
ATOM      5  H   UNL     1      97.092  68.719  83.493  1.00  0.00     0.345 HD
ENDBRANCH   1   2
BRANCH   1   6
ATOM      6  C   UNL     1      98.147  71.520  83.940  1.00  0.00     0.099 C 
ATOM      7  O   UNL     1      98.642  72.365  84.731  1.00  0.00    -0.544 OA
ATOM      8  O   UNL     1      98.569  71.500  82.615  1.00  0.00    -0.544 OA
ENDBRANCH   1   6
BRANCH   1   9
ATOM      9  C   UNL     1      95.728  70.843  83.673  1.00  0.00     0.047 C 
ATOM     10  C   UNL     1      94.879  71.910  84.379  1.00  0.00     0.014 C 
ATOM     11  C   UNL     1      94.895  69.573  83.438  1.00  0.00     0.014 C 
ENDBRANCH   1   9
TORSDOF 3
ENDMDL
MODEL 2
REMARK VINA RESULT:    -2.335     10.532     10.943
REMARK INTER + INTRA:          -2.732
REMARK INTER:                  -2.725
REMARK INTRA:                  -0.007
REMARK UNBOUND:                -0.055
REMARK SMILES CC(C)[C@@H]([NH3+])C(=O)[O-]
REMARK SMILES IDX 4 1 5 2 6 6 7 7 8 8 2 9 1 10 3 11
REMARK H PARENT 5 3 5 4 5 5
REMARK Flexibility Score: inf
ROOT
ATOM      1  C   UNL     1     101.771  71.314  74.629  1.00  0.00     0.230 C 
ENDROOT
BRANCH   1   2
ATOM      2  N   UNL     1     101.040  71.295  75.906  1.00  0.00    -0.350 N 
ATOM      3  H   UNL     1     100.791  72.274  76.177  1.00  0.00     0.345 HD
ATOM      4  H   UNL     1     101.617  70.878  76.671  1.00  0.00     0.345 HD
ATOM      5  H   UNL     1     100.151  70.758  75.810  1.00  0.00     0.345 HD
ENDBRANCH   1   2
BRANCH   1   6
ATOM      6  C   UNL     1     102.964  72.234  74.710  1.00  0.00     0.099 C 
ATOM      7  O   UNL     1     104.023  71.839  75.266  1.00  0.00    -0.544 OA
ATOM      8  O   UNL     1     102.895  73.533  74.221  1.00  0.00    -0.544 OA
ENDBRANCH   1   6
BRANCH   1   9
ATOM      9  C   UNL     1     102.197  69.893  74.150  1.00  0.00     0.047 C 
ATOM     10  C   UNL     1     101.243  69.339  73.081  1.00  0.00     0.014 C 
ATOM     11  C   UNL     1     102.355  68.879  75.295  1.00  0.00     0.014 C 
ENDBRANCH   1   9
TORSDOF 3
ENDMDL
MODEL 3
REMARK VINA RESULT:    -2.293     14.447     15.018
REMARK INTER + INTRA:          -2.683
REMARK INTER:                  -2.622
REMARK INTRA:                  -0.061
REMARK UNBOUND:                -0.055
REMARK SMILES CC(C)[C@@H]([NH3+])C(=O)[O-]
REMARK SMILES IDX 4 1 5 2 6 6 7 7 8 8 2 9 1 10 3 11
REMARK H PARENT 5 3 5 4 5 5
REMARK Flexibility Score: inf
ROOT
ATOM      1  C   UNL     1      99.593  71.024  69.272  1.00  0.00     0.230 C 
ENDROOT
BRANCH   1   2
ATOM      2  N   UNL     1     100.009  71.207  67.873  1.00  0.00    -0.350 N 
ATOM      3  H   UNL     1     100.414  72.164  67.753  1.00  0.00     0.345 HD
ATOM      4  H   UNL     1      99.201  71.106  67.217  1.00  0.00     0.345 HD
ATOM      5  H   UNL     1     100.750  70.517  67.619  1.00  0.00     0.345 HD
ENDBRANCH   1   2
BRANCH   1   6
ATOM      6  C   UNL     1      98.116  71.292  69.429  1.00  0.00     0.099 C 
ATOM      7  O   UNL     1      97.311  70.329  69.534  1.00  0.00    -0.544 OA
ATOM      8  O   UNL     1      97.623  72.592  69.411  1.00  0.00    -0.544 OA
ENDBRANCH   1   6
BRANCH   1   9
ATOM      9  C   UNL     1      99.966  69.622  69.841  1.00  0.00     0.047 C 
ATOM     10  C   UNL     1     100.414  69.700  71.308  1.00  0.00     0.014 C 
ATOM     11  C   UNL     1     101.020  68.879  69.004  1.00  0.00     0.014 C 
ENDBRANCH   1   9
TORSDOF 3
ENDMDL
MODEL 4
REMARK VINA RESULT:    -2.255      2.129      3.313
REMARK INTER + INTRA:          -2.640
REMARK INTER:                  -2.565
REMARK INTRA:                  -0.075
REMARK UNBOUND:                -0.055
REMARK SMILES CC(C)[C@@H]([NH3+])C(=O)[O-]
REMARK SMILES IDX 4 1 5 2 6 6 7 7 8 8 2 9 1 10 3 11
REMARK H PARENT 5 3 5 4 5 5
REMARK Flexibility Score: inf
ROOT
ATOM      1  C   UNL     1      97.077  70.508  83.640  1.00  0.00     0.230 C 
ENDROOT
BRANCH   1   2
ATOM      2  N   UNL     1      97.620  69.339  84.351  1.00  0.00    -0.350 N 
ATOM      3  H   UNL     1      98.451  68.973  83.832  1.00  0.00     0.345 HD
ATOM      4  H   UNL     1      96.913  68.573  84.424  1.00  0.00     0.345 HD
ATOM      5  H   UNL     1      97.939  69.610  85.307  1.00  0.00     0.345 HD
ENDBRANCH   1   2
BRANCH   1   6
ATOM      6  C   UNL     1      95.702  70.855  84.155  1.00  0.00     0.099 C 
ATOM      7  O   UNL     1      95.189  70.173  85.081  1.00  0.00    -0.544 OA
ATOM      8  O   UNL     1      94.970  71.891  83.587  1.00  0.00    -0.544 OA
ENDBRANCH   1   6
BRANCH   1   9
ATOM      9  C   UNL     1      98.020  71.747  83.697  1.00  0.00     0.047 C 
ATOM     10  C   UNL     1      99.339  71.498  82.950  1.00  0.00     0.014 C 
ATOM     11  C   UNL     1      98.305  72.240  85.125  1.00  0.00     0.014 C 
ENDBRANCH   1   9
TORSDOF 3
ENDMDL
MODEL 5
REMARK VINA RESULT:    -2.221     10.197     10.983
REMARK INTER + INTRA:          -2.601
REMARK INTER:                  -2.534
REMARK INTRA:                  -0.067
REMARK UNBOUND:                -0.055
REMARK SMILES CC(C)[C@@H]([NH3+])C(=O)[O-]
REMARK SMILES IDX 4 1 5 2 6 6 7 7 8 8 2 9 1 10 3 11
REMARK H PARENT 5 3 5 4 5 5
REMARK Flexibility Score: inf
ROOT
ATOM      1  C   UNL     1     103.284  71.215  75.151  1.00  0.00     0.230 C 
ENDROOT
BRANCH   1   2
ATOM      2  N   UNL     1     104.159  70.271  74.438  1.00  0.00    -0.350 N 
ATOM      3  H   UNL     1     103.725  70.023  73.519  1.00  0.00     0.345 HD
ATOM      4  H   UNL     1     104.299  69.392  74.985  1.00  0.00     0.345 HD
ATOM      5  H   UNL     1     105.085  70.710  74.242  1.00  0.00     0.345 HD
ENDBRANCH   1   2
BRANCH   1   6
ATOM      6  C   UNL     1     103.645  72.640  74.810  1.00  0.00     0.099 C 
ATOM      7  O   UNL     1     102.800  73.384  74.246  1.00  0.00    -0.544 OA
ATOM      8  O   UNL     1     104.921  73.131  75.066  1.00  0.00    -0.544 OA
ENDBRANCH   1   6
BRANCH   1   9
ATOM      9  C   UNL     1     101.769  70.952  74.898  1.00  0.00     0.047 C 
ATOM     10  C   UNL     1     101.004  70.702  76.207  1.00  0.00     0.014 C 
ATOM     11  C   UNL     1     101.500  69.812  73.902  1.00  0.00     0.014 C 
ENDBRANCH   1   9
TORSDOF 3
ENDMDL
MODEL 6
REMARK VINA RESULT:    -2.104      2.726      3.391
REMARK INTER + INTRA:          -2.467
REMARK INTER:                  -2.427
REMARK INTRA:                  -0.040
REMARK UNBOUND:                -0.055
REMARK SMILES CC(C)[C@@H]([NH3+])C(=O)[O-]
REMARK SMILES IDX 4 1 5 2 6 6 7 7 8 8 2 9 1 10 3 11
REMARK H PARENT 5 3 5 4 5 5
REMARK Flexibility Score: inf
ROOT
ATOM      1  C   UNL     1      96.375  71.449  84.766  1.00  0.00     0.230 C 
ENDROOT
BRANCH   1   2
ATOM      2  N   UNL     1      97.180  72.627  85.125  1.00  0.00    -0.350 N 
ATOM      3  H   UNL     1      96.545  73.434  85.323  1.00  0.00     0.345 HD
ATOM      4  H   UNL     1      97.827  72.899  84.350  1.00  0.00     0.345 HD
ATOM      5  H   UNL     1      97.734  72.441  85.990  1.00  0.00     0.345 HD
ENDBRANCH   1   2
BRANCH   1   6
ATOM      6  C   UNL     1      94.973  71.857  84.384  1.00  0.00     0.099 C 
ATOM      7  O   UNL     1      94.527  72.979  84.742  1.00  0.00    -0.544 OA
ATOM      8  O   UNL     1      94.146  70.988  83.681  1.00  0.00    -0.544 OA
ENDBRANCH   1   6
BRANCH   1   9
ATOM      9  C   UNL     1      97.026  70.584  83.645  1.00  0.00     0.047 C 
ATOM     10  C   UNL     1      97.086  69.098  84.031  1.00  0.00     0.014 C 
ATOM     11  C   UNL     1      98.418  71.076  83.217  1.00  0.00     0.014 C 
ENDBRANCH   1   9
TORSDOF 3
ENDMDL
MODEL 7
REMARK VINA RESULT:    -2.076      2.465      3.782
REMARK INTER + INTRA:          -2.435
REMARK INTER:                  -2.377
REMARK INTRA:                  -0.058
REMARK UNBOUND:                -0.055
REMARK SMILES CC(C)[C@@H]([NH3+])C(=O)[O-]
REMARK SMILES IDX 4 1 5 2 6 6 7 7 8 8 2 9 1 10 3 11
REMARK H PARENT 5 3 5 4 5 5
REMARK Flexibility Score: inf
ROOT
ATOM      1  C   UNL     1      99.022  71.477  84.130  1.00  0.00     0.230 C 
ENDROOT
BRANCH   1   2
ATOM      2  N   UNL     1      99.235  72.816  84.700  1.00  0.00    -0.350 N 
ATOM      3  H   UNL     1      98.424  73.065  85.312  1.00  0.00     0.345 HD
ATOM      4  H   UNL     1      99.319  73.542  83.953  1.00  0.00     0.345 HD
ATOM      5  H   UNL     1     100.093  72.828  85.294  1.00  0.00     0.345 HD
ENDBRANCH   1   2
BRANCH   1   6
ATOM      6  C   UNL     1      97.560  71.107  84.167  1.00  0.00     0.099 C 
ATOM      7  O   UNL     1      96.732  71.879  84.720  1.00  0.00    -0.544 OA
ATOM      8  O   UNL     1      97.118  69.898  83.641  1.00  0.00    -0.544 OA
ENDBRANCH   1   6
BRANCH   1   9
ATOM      9  C   UNL     1      99.594  71.331  82.687  1.00  0.00     0.047 C 
ATOM     10  C   UNL     1     101.093  71.665  82.629  1.00  0.00     0.014 C 
ATOM     11  C   UNL     1      98.828  72.150  81.635  1.00  0.00     0.014 C 
ENDBRANCH   1   9
TORSDOF 3
ENDMDL
MODEL 8
REMARK VINA RESULT:    -1.989      2.607      3.474
REMARK INTER + INTRA:          -2.335
REMARK INTER:                  -2.267
REMARK INTRA:                  -0.068
REMARK UNBOUND:                -0.055
REMARK SMILES CC(C)[C@@H]([NH3+])C(=O)[O-]
REMARK SMILES IDX 4 1 5 2 6 6 7 7 8 8 2 9 1 10 3 11
REMARK H PARENT 5 3 5 4 5 5
REMARK Flexibility Score: inf
ROOT
ATOM      1  C   UNL     1      99.008  71.284  82.520  1.00  0.00     0.230 C 
ENDROOT
BRANCH   1   2
ATOM      2  N   UNL     1      98.703  72.531  81.802  1.00  0.00    -0.350 N 
ATOM      3  H   UNL     1      98.129  73.154  82.416  1.00  0.00     0.345 HD
ATOM      4  H   UNL     1      98.164  72.346  80.926  1.00  0.00     0.345 HD
ATOM      5  H   UNL     1      99.582  73.042  81.568  1.00  0.00     0.345 HD
ENDBRANCH   1   2
BRANCH   1   6
ATOM      6  C   UNL     1     100.495  71.026  82.534  1.00  0.00     0.099 C 
ATOM      7  O   UNL     1     100.928  69.867  82.770  1.00  0.00    -0.544 OA
ATOM      8  O   UNL     1     101.399  72.063  82.337  1.00  0.00    -0.544 OA
ENDBRANCH   1   6
BRANCH   1   9
ATOM      9  C   UNL     1      98.427  71.256  83.966  1.00  0.00     0.047 C 
ATOM     10  C   UNL     1      96.898  71.104  83.966  1.00  0.00     0.014 C 
ATOM     11  C   UNL     1      98.839  72.466  84.819  1.00  0.00     0.014 C 
ENDBRANCH   1   9
TORSDOF 3
ENDMDL
