MODEL 1
REMARK VINA RESULT:    -5.247      0.000      0.000
REMARK INTER + INTRA:          -6.903
REMARK INTER:                  -6.781
REMARK INTRA:                  -0.122
REMARK UNBOUND:                -0.122
REMARK SMILES C=CC(=O)CCCCC
REMARK SMILES IDX 6 1 7 2 8 3 9 4 5 5 3 6 4 7 2 8 1 9
REMARK H PARENT
REMARK Flexibility Score: inf
ROOT
ATOM      1  C   UNL     1      12.344  15.631  29.930  1.00  0.00     0.008 C 
ENDROOT
BRANCH   1   2
ATOM      2  C   UNL     1      10.869  15.808  29.536  1.00  0.00     0.000 C 
BRANCH   2   3
ATOM      3  C   UNL     1      10.518  15.091  28.223  1.00  0.00    -0.003 C 
ATOM      4  C   UNL     1      11.231  13.745  28.126  1.00  0.00     0.004 C 
ENDBRANCH   2   3
ENDBRANCH   1   2
BRANCH   1   5
ATOM      5  C   UNL     1      13.002  16.946  30.366  1.00  0.00     0.080 C 
BRANCH   5   6
ATOM      6  C   UNL     1      14.255  16.673  31.146  1.00  0.00     0.155 C 
ATOM      7  O   UNL     1      14.355  15.598  31.796  1.00  0.00    -0.295 OA
BRANCH   6   8
ATOM      8  C   UNL     1      15.335  17.678  31.183  1.00  0.00     0.039 C 
ATOM      9  C   UNL     1      16.513  17.440  31.756  1.00  0.00     0.012 C 
ENDBRANCH   6   8
ENDBRANCH   5   6
ENDBRANCH   1   5
TORSDOF 5
ENDMDL
MODEL 2
REMARK VINA RESULT:    -5.176      1.590      5.227
REMARK INTER + INTRA:          -6.811
REMARK INTER:                  -6.696
REMARK INTRA:                  -0.115
REMARK UNBOUND:                -0.122
REMARK SMILES C=CC(=O)CCCCC
REMARK SMILES IDX 6 1 7 2 8 3 9 4 5 5 3 6 4 7 2 8 1 9
REMARK H PARENT
REMARK Flexibility Score: inf
ROOT
ATOM      1  C   UNL     1      13.078  16.960  30.341  1.00  0.00     0.008 C 
ENDROOT
BRANCH   1   2
ATOM      2  C   UNL     1      14.300  16.771  31.252  1.00  0.00     0.000 C 
BRANCH   2   3
ATOM      3  C   UNL     1      15.432  17.760  30.935  1.00  0.00    -0.003 C 
ATOM      4  C   UNL     1      16.663  17.478  31.791  1.00  0.00     0.004 C 
ENDBRANCH   2   3
ENDBRANCH   1   2
BRANCH   1   5
ATOM      5  C   UNL     1      12.371  15.637  30.017  1.00  0.00     0.080 C 
BRANCH   5   6
ATOM      6  C   UNL     1      11.093  15.893  29.274  1.00  0.00     0.155 C 
ATOM      7  O   UNL     1      10.454  16.959  29.492  1.00  0.00    -0.295 OA
BRANCH   6   8
ATOM      8  C   UNL     1      10.571  14.883  28.333  1.00  0.00     0.039 C 
ATOM      9  C   UNL     1      11.284  13.826  27.952  1.00  0.00     0.012 C 
ENDBRANCH   6   8
ENDBRANCH   5   6
ENDBRANCH   1   5
TORSDOF 5
ENDMDL
MODEL 3
REMARK VINA RESULT:    -5.146      1.567      2.055
REMARK INTER + INTRA:          -6.772
REMARK INTER:                  -6.575
REMARK INTRA:                  -0.197
REMARK UNBOUND:                -0.122
REMARK SMILES C=CC(=O)CCCCC
REMARK SMILES IDX 6 1 7 2 8 3 9 4 5 5 3 6 4 7 2 8 1 9
REMARK H PARENT
REMARK Flexibility Score: inf
ROOT
ATOM      1  C   UNL     1      10.744  15.591  29.504  1.00  0.00     0.008 C 
ENDROOT
BRANCH   1   2
ATOM      2  C   UNL     1      10.481  14.928  28.144  1.00  0.00     0.000 C 
BRANCH   2   3
ATOM      3  C   UNL     1      11.389  13.714  27.893  1.00  0.00    -0.003 C 
ATOM      4  C   UNL     1      10.609  12.409  28.025  1.00  0.00     0.004 C 
ENDBRANCH   2   3
ENDBRANCH   1   2
BRANCH   1   5
ATOM      5  C   UNL     1      12.227  15.562  29.899  1.00  0.00     0.080 C 
BRANCH   5   6
ATOM      6  C   UNL     1      12.702  16.940  30.257  1.00  0.00     0.155 C 
ATOM      7  O   UNL     1      11.954  17.929  30.030  1.00  0.00    -0.295 OA
BRANCH   6   8
ATOM      8  C   UNL     1      14.050  17.131  30.825  1.00  0.00     0.039 C 
ATOM      9  C   UNL     1      14.600  16.261  31.669  1.00  0.00     0.012 C 
ENDBRANCH   6   8
ENDBRANCH   5   6
ENDBRANCH   1   5
TORSDOF 5
ENDMDL
MODEL 4
REMARK VINA RESULT:    -5.016      4.243      7.692
REMARK INTER + INTRA:          -6.605
REMARK INTER:                  -6.301
REMARK INTRA:                  -0.304
REMARK UNBOUND:                -0.122
REMARK SMILES C=CC(=O)CCCCC
REMARK SMILES IDX 6 1 7 2 8 3 9 4 5 5 3 6 4 7 2 8 1 9
REMARK H PARENT
REMARK Flexibility Score: inf
ROOT
ATOM      1  C   UNL     1      18.025  20.826  31.027  1.00  0.00     0.008 C 
ENDROOT
BRANCH   1   2
ATOM      2  C   UNL     1      17.695  22.099  31.821  1.00  0.00     0.000 C 
BRANCH   2   3
ATOM      3  C   UNL     1      18.068  21.981  33.307  1.00  0.00    -0.003 C 
ATOM      4  C   UNL     1      17.870  23.311  34.029  1.00  0.00     0.004 C 
ENDBRANCH   2   3
ENDBRANCH   1   2
BRANCH   1   5
ATOM      5  C   UNL     1      18.630  19.722  31.904  1.00  0.00     0.080 C 
BRANCH   5   6
ATOM      6  C   UNL     1      17.798  18.476  31.828  1.00  0.00     0.155 C 
ATOM      7  O   UNL     1      18.331  17.361  32.079  1.00  0.00    -0.295 OA
BRANCH   6   8
ATOM      8  C   UNL     1      16.382  18.557  31.419  1.00  0.00     0.039 C 
ATOM      9  C   UNL     1      15.555  17.516  31.494  1.00  0.00     0.012 C 
ENDBRANCH   6   8
ENDBRANCH   5   6
ENDBRANCH   1   5
TORSDOF 5
ENDMDL
MODEL 5
REMARK VINA RESULT:    -4.888      2.482      4.132
REMARK INTER + INTRA:          -6.439
REMARK INTER:                  -6.325
REMARK INTRA:                  -0.114
REMARK UNBOUND:                -0.122
REMARK SMILES C=CC(=O)CCCCC
REMARK SMILES IDX 6 1 7 2 8 3 9 4 5 5 3 6 4 7 2 8 1 9
REMARK H PARENT
REMARK Flexibility Score: inf
ROOT
ATOM      1  C   UNL     1      16.031  17.095  31.253  1.00  0.00     0.008 C 
ENDROOT
BRANCH   1   2
ATOM      2  C   UNL     1      14.581  16.785  31.656  1.00  0.00     0.000 C 
BRANCH   2   3
ATOM      3  C   UNL     1      13.573  17.142  30.553  1.00  0.00    -0.003 C 
ATOM      4  C   UNL     1      12.675  15.952  30.225  1.00  0.00     0.004 C 
ENDBRANCH   2   3
ENDBRANCH   1   2
BRANCH   1   5
ATOM      5  C   UNL     1      16.384  18.580  31.411  1.00  0.00     0.080 C 
BRANCH   5   6
ATOM      6  C   UNL     1      17.825  18.739  31.799  1.00  0.00     0.155 C 
ATOM      7  O   UNL     1      18.447  17.753  32.280  1.00  0.00    -0.295 OA
BRANCH   6   8
ATOM      8  C   UNL     1      18.487  20.050  31.660  1.00  0.00     0.039 C 
ATOM      9  C   UNL     1      18.175  21.094  32.426  1.00  0.00     0.012 C 
ENDBRANCH   6   8
ENDBRANCH   5   6
ENDBRANCH   1   5
TORSDOF 5
ENDMDL
MODEL 6
REMARK VINA RESULT:    -4.851      3.115      6.405
REMARK INTER + INTRA:          -6.391
REMARK INTER:                  -6.174
REMARK INTRA:                  -0.217
REMARK UNBOUND:                -0.122
REMARK SMILES C=CC(=O)CCCCC
REMARK SMILES IDX 6 1 7 2 8 3 9 4 5 5 3 6 4 7 2 8 1 9
REMARK H PARENT
REMARK Flexibility Score: inf
ROOT
ATOM      1  C   UNL     1      17.479  17.792  31.876  1.00  0.00     0.008 C 
ENDROOT
BRANCH   1   2
ATOM      2  C   UNL     1      18.633  18.781  32.101  1.00  0.00     0.000 C 
BRANCH   2   3
ATOM      3  C   UNL     1      18.348  20.167  31.503  1.00  0.00    -0.003 C 
ATOM      4  C   UNL     1      18.315  21.237  32.591  1.00  0.00     0.004 C 
ENDBRANCH   2   3
ENDBRANCH   1   2
BRANCH   1   5
ATOM      5  C   UNL     1      16.211  18.474  31.345  1.00  0.00     0.080 C 
BRANCH   5   6
ATOM      6  C   UNL     1      15.125  17.463  31.121  1.00  0.00     0.155 C 
ATOM      7  O   UNL     1      14.219  17.706  30.278  1.00  0.00    -0.295 OA
BRANCH   6   8
ATOM      8  C   UNL     1      15.100  16.219  31.914  1.00  0.00     0.039 C 
ATOM      9  C   UNL     1      14.163  15.286  31.752  1.00  0.00     0.012 C 
ENDBRANCH   6   8
ENDBRANCH   5   6
ENDBRANCH   1   5
TORSDOF 5
ENDMDL
MODEL 7
REMARK VINA RESULT:    -4.722      4.462      6.651
REMARK INTER + INTRA:          -6.225
REMARK INTER:                  -6.017
REMARK INTRA:                  -0.209
REMARK UNBOUND:                -0.122
REMARK SMILES C=CC(=O)CCCCC
REMARK SMILES IDX 6 1 7 2 8 3 9 4 5 5 3 6 4 7 2 8 1 9
REMARK H PARENT
REMARK Flexibility Score: inf
ROOT
ATOM      1  C   UNL     1      18.681  18.831  32.221  1.00  0.00     0.008 C 
ENDROOT
BRANCH   1   2
ATOM      2  C   UNL     1      17.696  17.724  31.815  1.00  0.00     0.000 C 
BRANCH   2   3
ATOM      3  C   UNL     1      16.317  18.275  31.421  1.00  0.00    -0.003 C 
ATOM      4  C   UNL     1      15.246  17.192  31.518  1.00  0.00     0.004 C 
ENDBRANCH   2   3
ENDBRANCH   1   2
BRANCH   1   5
ATOM      5  C   UNL     1      18.407  20.159  31.502  1.00  0.00     0.080 C 
BRANCH   5   6
ATOM      6  C   UNL     1      18.107  21.243  32.496  1.00  0.00     0.155 C 
ATOM      7  O   UNL     1      18.740  21.273  33.586  1.00  0.00    -0.295 OA
BRANCH   6   8
ATOM      8  C   UNL     1      17.050  22.232  32.212  1.00  0.00     0.039 C 
ATOM      9  C   UNL     1      17.291  23.370  31.563  1.00  0.00     0.012 C 
ENDBRANCH   6   8
ENDBRANCH   5   6
ENDBRANCH   1   5
TORSDOF 5
ENDMDL
MODEL 8
REMARK VINA RESULT:    -4.713      3.685      5.528
REMARK INTER + INTRA:          -6.213
REMARK INTER:                  -6.101
REMARK INTRA:                  -0.112
REMARK UNBOUND:                -0.122
REMARK SMILES C=CC(=O)CCCCC
REMARK SMILES IDX 6 1 7 2 8 3 9 4 5 5 3 6 4 7 2 8 1 9
REMARK H PARENT
REMARK Flexibility Score: inf
ROOT
ATOM      1  C   UNL     1      16.358  18.788  31.432  1.00  0.00     0.008 C 
ENDROOT
BRANCH   1   2
ATOM      2  C   UNL     1      16.030  17.288  31.386  1.00  0.00     0.000 C 
BRANCH   2   3
ATOM      3  C   UNL     1      14.522  17.017  31.265  1.00  0.00    -0.003 C 
ATOM      4  C   UNL     1      14.194  15.571  31.626  1.00  0.00     0.004 C 
ENDBRANCH   2   3
ENDBRANCH   1   2
BRANCH   1   5
ATOM      5  C   UNL     1      17.834  19.061  31.753  1.00  0.00     0.080 C 
BRANCH   5   6
ATOM      6  C   UNL     1      18.111  20.535  31.732  1.00  0.00     0.155 C 
ATOM      7  O   UNL     1      18.122  21.147  30.630  1.00  0.00    -0.295 OA
BRANCH   6   8
ATOM      8  C   UNL     1      18.413  21.247  32.989  1.00  0.00     0.039 C 
ATOM      9  C   UNL     1      17.919  22.453  33.264  1.00  0.00     0.012 C 
ENDBRANCH   6   8
ENDBRANCH   5   6
ENDBRANCH   1   5
TORSDOF 5
ENDMDL
MODEL 9
REMARK VINA RESULT:    -4.550      5.436      7.347
REMARK INTER + INTRA:          -6.002
REMARK INTER:                  -5.797
REMARK INTRA:                  -0.206
REMARK UNBOUND:                -0.122
REMARK SMILES C=CC(=O)CCCCC
REMARK SMILES IDX 6 1 7 2 8 3 9 4 5 5 3 6 4 7 2 8 1 9
REMARK H PARENT
REMARK Flexibility Score: inf
ROOT
ATOM      1  C   UNL     1      17.245  20.055  31.685  1.00  0.00     0.008 C 
ENDROOT
BRANCH   1   2
ATOM      2  C   UNL     1      18.437  19.094  31.816  1.00  0.00     0.000 C 
BRANCH   2   3
ATOM      3  C   UNL     1      18.001  17.625  31.924  1.00  0.00    -0.003 C 
ATOM      4  C   UNL     1      16.510  17.472  31.640  1.00  0.00     0.004 C 
ENDBRANCH   2   3
ENDBRANCH   1   2
BRANCH   1   5
ATOM      5  C   UNL     1      17.598  21.333  30.911  1.00  0.00     0.080 C 
BRANCH   5   6
ATOM      6  C   UNL     1      17.627  22.515  31.835  1.00  0.00     0.155 C 
ATOM      7  O   UNL     1      17.347  23.658  31.384  1.00  0.00    -0.295 OA
BRANCH   6   8
ATOM      8  C   UNL     1      18.025  22.340  33.245  1.00  0.00     0.039 C 
ATOM      9  C   UNL     1      17.842  23.288  34.163  1.00  0.00     0.012 C 
ENDBRANCH   6   8
ENDBRANCH   5   6
ENDBRANCH   1   5
TORSDOF 5
ENDMDL
