MODEL 1
REMARK VINA RESULT:     5.056      0.000      0.000
REMARK INTER + INTRA:           5.659
REMARK INTER:                   5.794
REMARK INTRA:                  -0.136
REMARK UNBOUND:                -0.136
REMARK SMILES O=C([O-])C=Cc1ccc(O)cc1
REMARK SMILES IDX 6 1 7 2 12 3 8 4 11 5 9 6 5 7 4 8 2 9 1 10 3 11 10 12
REMARK H PARENT 10 13
REMARK Flexibility Score: inf
ROOT
ATOM      1  C   UNL     1     -30.049  41.058 -23.109  1.00  0.00    -0.025 A 
ATOM      2  C   UNL     1     -30.323  41.078 -21.725  1.00  0.00     0.012 A 
ATOM      3  C   UNL     1     -28.710  41.080 -23.534  1.00  0.00     0.012 A 
ATOM      4  C   UNL     1     -29.277  41.096 -20.798  1.00  0.00     0.047 A 
ATOM      5  C   UNL     1     -27.667  41.097 -22.603  1.00  0.00     0.047 A 
ATOM      6  C   UNL     1     -27.947  41.102 -21.234  1.00  0.00     0.115 A 
ENDROOT
BRANCH   1   7
ATOM      7  C   UNL     1     -31.121  41.050 -24.135  1.00  0.00     0.010 C 
ATOM      8  C   UNL     1     -31.763  39.944 -24.535  1.00  0.00     0.025 C 
BRANCH   8   9
ATOM      9  C   UNL     1     -32.815  39.974 -25.565  1.00  0.00     0.064 C 
ATOM     10  O   UNL     1     -33.278  41.065 -25.992  1.00  0.00    -0.545 OA
ATOM     11  O   UNL     1     -33.306  38.779 -26.074  1.00  0.00    -0.545 OA
ENDBRANCH   8   9
ENDBRANCH   1   7
BRANCH   6  12
ATOM     12  O   UNL     1     -26.897  41.119 -20.318  1.00  0.00    -0.508 OA
ATOM     13  H   UNL     1     -27.065  41.213 -19.323  1.00  0.00     0.293 HD
ENDBRANCH   6  12
TORSDOF 3
ENDMDL
MODEL 2
REMARK VINA RESULT:     5.995      2.927      5.643
REMARK INTER + INTRA:           6.735
REMARK INTER:                   6.879
REMARK INTRA:                  -0.144
REMARK UNBOUND:                -0.136
REMARK SMILES O=C([O-])C=Cc1ccc(O)cc1
REMARK SMILES IDX 6 1 7 2 12 3 8 4 11 5 9 6 5 7 4 8 2 9 1 10 3 11 10 12
REMARK H PARENT 10 13
REMARK Flexibility Score: inf
ROOT
ATOM      1  C   UNL     1     -31.600  40.877 -25.115  1.00  0.00    -0.025 A 
ATOM      2  C   UNL     1     -32.568  41.122 -26.111  1.00  0.00     0.012 A 
ATOM      3  C   UNL     1     -32.030  40.520 -23.826  1.00  0.00     0.012 A 
ATOM      4  C   UNL     1     -33.929  40.987 -25.821  1.00  0.00     0.047 A 
ATOM      5  C   UNL     1     -33.392  40.385 -23.541  1.00  0.00     0.047 A 
ATOM      6  C   UNL     1     -34.345  40.615 -24.537  1.00  0.00     0.115 A 
ENDROOT
BRANCH   1   7
ATOM      7  C   UNL     1     -30.144  41.017 -25.365  1.00  0.00     0.010 C 
ATOM      8  C   UNL     1     -29.234  40.102 -25.004  1.00  0.00     0.025 C 
BRANCH   8   9
ATOM      9  C   UNL     1     -27.795  40.280 -25.260  1.00  0.00     0.064 C 
ATOM     10  O   UNL     1     -27.383  41.100 -26.124  1.00  0.00    -0.545 OA
ATOM     11  O   UNL     1     -26.875  39.533 -24.537  1.00  0.00    -0.545 OA
ENDBRANCH   8   9
ENDBRANCH   1   7
BRANCH   6  12
ATOM     12  O   UNL     1     -35.699  40.477 -24.239  1.00  0.00    -0.508 OA
ATOM     13  H   UNL     1     -36.073  40.745 -23.336  1.00  0.00     0.293 HD
ENDBRANCH   6  12
TORSDOF 3
ENDMDL
