MODEL 1
REMARK VINA RESULT:    -4.546      0.000      0.000
REMARK INTER + INTRA:          -6.632
REMARK INTER:                  -6.140
REMARK INTRA:                  -0.492
REMARK UNBOUND:                -0.492
REMARK SMILES O=C[C@@H](O)[C@@H](O)[C@H](O)CO
REMARK SMILES IDX 7 1 9 2 10 3 5 5 3 6 2 7 1 8 4 9 6 11 8 13
REMARK H PARENT 10 4 4 10 6 12 8 14
REMARK Flexibility Score: inf
ROOT
ATOM      1  C   UNL     1    -100.757 -60.511 -66.482  1.00  0.00     0.171 C 
ENDROOT
BRANCH   1   2
ATOM      2  C   UNL     1     -99.927 -59.336 -67.027  1.00  0.00     0.190 C 
BRANCH   2   3
ATOM      3  O   UNL     1     -98.995 -58.910 -66.068  1.00  0.00    -0.394 OA
ATOM      4  H   UNL     1     -98.229 -59.540 -66.110  1.00  0.00     0.210 HD
ENDBRANCH   2   3
ENDBRANCH   1   2
BRANCH   1   5
ATOM      5  C   UNL     1     -99.880 -61.702 -65.997  1.00  0.00     0.181 C 
BRANCH   5   6
ATOM      6  C   UNL     1     -99.933 -61.927 -64.460  1.00  0.00     0.209 C 
BRANCH   6   7
ATOM      7  C   UNL     1     -98.575 -61.732 -63.831  1.00  0.00     0.258 C 
ATOM      8  O   UNL     1     -97.759 -60.977 -64.335  1.00  0.00    -0.300 OA
ENDBRANCH   6   7
BRANCH   6   9
ATOM      9  O   UNL     1    -100.825 -61.012 -63.878  1.00  0.00    -0.383 OA
ATOM     10  H   UNL     1    -100.433 -60.742 -63.007  1.00  0.00     0.211 HD
ENDBRANCH   6   9
ENDBRANCH   5   6
BRANCH   5  11
ATOM     11  O   UNL     1    -100.265 -62.871 -66.681  1.00  0.00    -0.387 OA
ATOM     12  H   UNL     1    -100.114 -63.637 -66.066  1.00  0.00     0.211 HD
ENDBRANCH   5  11
ENDBRANCH   1   5
BRANCH   1  13
ATOM     13  O   UNL     1    -101.616 -60.960 -67.501  1.00  0.00    -0.388 OA
ATOM     14  H   UNL     1    -102.005 -60.154 -67.933  1.00  0.00     0.211 HD
ENDBRANCH   1  13
TORSDOF 8
ENDMDL
MODEL 2
REMARK VINA RESULT:    -4.504      0.958      3.169
REMARK INTER + INTRA:          -6.575
REMARK INTER:                  -5.674
REMARK INTRA:                  -0.901
REMARK UNBOUND:                -0.492
REMARK SMILES O=C[C@@H](O)[C@@H](O)[C@H](O)CO
REMARK SMILES IDX 7 1 9 2 10 3 5 5 3 6 2 7 1 8 4 9 6 11 8 13
REMARK H PARENT 10 4 4 10 6 12 8 14
REMARK Flexibility Score: inf
ROOT
ATOM      1  C   UNL     1     -99.231 -61.964 -64.758  1.00  0.00     0.171 C 
ENDROOT
BRANCH   1   2
ATOM      2  C   UNL     1     -97.788 -61.616 -64.355  1.00  0.00     0.190 C 
BRANCH   2   3
ATOM      3  O   UNL     1     -97.584 -60.229 -64.417  1.00  0.00    -0.394 OA
ATOM      4  H   UNL     1     -96.932 -60.000 -63.703  1.00  0.00     0.210 HD
ENDBRANCH   2   3
ENDBRANCH   1   2
BRANCH   1   5
ATOM      5  C   UNL     1     -99.532 -61.668 -66.256  1.00  0.00     0.181 C 
BRANCH   5   6
ATOM      6  C   UNL     1    -100.553 -60.516 -66.468  1.00  0.00     0.209 C 
BRANCH   6   7
ATOM      7  C   UNL     1     -99.896 -59.311 -67.096  1.00  0.00     0.258 C 
ATOM      8  O   UNL     1     -99.009 -58.711 -66.511  1.00  0.00    -0.300 OA
ENDBRANCH   6   7
BRANCH   6   9
ATOM      9  O   UNL     1    -101.586 -60.948 -67.315  1.00  0.00    -0.383 OA
ATOM     10  H   UNL     1    -101.592 -61.940 -67.280  1.00  0.00     0.211 HD
ENDBRANCH   6   9
ENDBRANCH   5   6
BRANCH   5  11
ATOM     11  O   UNL     1     -98.325 -61.388 -66.925  1.00  0.00    -0.387 OA
ATOM     12  H   UNL     1     -97.851 -62.252 -67.056  1.00  0.00     0.211 HD
ENDBRANCH   5  11
ENDBRANCH   1   5
BRANCH   1  13
ATOM     13  O   UNL     1    -100.110 -61.214 -63.957  1.00  0.00    -0.388 OA
ATOM     14  H   UNL     1    -100.900 -60.991 -64.517  1.00  0.00     0.211 HD
ENDBRANCH   1  13
TORSDOF 8
ENDMDL
MODEL 3
REMARK VINA RESULT:    -4.448      1.387      3.635
REMARK INTER + INTRA:          -6.501
REMARK INTER:                  -5.553
REMARK INTRA:                  -0.947
REMARK UNBOUND:                -0.492
REMARK SMILES O=C[C@@H](O)[C@@H](O)[C@H](O)CO
REMARK SMILES IDX 7 1 9 2 10 3 5 5 3 6 2 7 1 8 4 9 6 11 8 13
REMARK H PARENT 10 4 4 10 6 12 8 14
REMARK Flexibility Score: inf
ROOT
ATOM      1  C   UNL     1     -99.112 -62.137 -65.565  1.00  0.00     0.171 C 
ENDROOT
BRANCH   1   2
ATOM      2  C   UNL     1     -99.592 -61.879 -64.127  1.00  0.00     0.190 C 
BRANCH   2   3
ATOM      3  O   UNL     1    -100.696 -61.012 -64.128  1.00  0.00    -0.394 OA
ATOM      4  H   UNL     1    -101.420 -61.467 -64.632  1.00  0.00     0.210 HD
ENDBRANCH   2   3
ENDBRANCH   1   2
BRANCH   1   5
ATOM      5  C   UNL     1     -98.209 -60.996 -66.117  1.00  0.00     0.181 C 
BRANCH   5   6
ATOM      6  C   UNL     1     -98.776 -60.318 -67.396  1.00  0.00     0.209 C 
BRANCH   6   7
ATOM      7  C   UNL     1     -99.604 -59.105 -67.051  1.00  0.00     0.258 C 
ATOM      8  O   UNL     1    -100.616 -59.214 -66.378  1.00  0.00    -0.300 OA
ENDBRANCH   6   7
BRANCH   6   9
ATOM      9  O   UNL     1     -97.719 -59.911 -68.225  1.00  0.00    -0.383 OA
ATOM     10  H   UNL     1     -98.048 -59.138 -68.754  1.00  0.00     0.211 HD
ENDBRANCH   6   9
ENDBRANCH   5   6
BRANCH   5  11
ATOM     11  O   UNL     1     -97.995 -60.041 -65.105  1.00  0.00    -0.387 OA
ATOM     12  H   UNL     1     -98.767 -60.092 -64.482  1.00  0.00     0.211 HD
ENDBRANCH   5  11
ENDBRANCH   1   5
BRANCH   1  13
ATOM     13  O   UNL     1    -100.239 -62.270 -66.394  1.00  0.00    -0.388 OA
ATOM     14  H   UNL     1    -100.591 -63.191 -66.266  1.00  0.00     0.211 HD
ENDBRANCH   1  13
TORSDOF 8
ENDMDL
MODEL 4
REMARK VINA RESULT:    -4.427      1.463      2.420
REMARK INTER + INTRA:          -6.472
REMARK INTER:                  -5.505
REMARK INTRA:                  -0.967
REMARK UNBOUND:                -0.492
REMARK SMILES O=C[C@@H](O)[C@@H](O)[C@H](O)CO
REMARK SMILES IDX 7 1 9 2 10 3 5 5 3 6 2 7 1 8 4 9 6 11 8 13
REMARK H PARENT 10 4 4 10 6 12 8 14
REMARK Flexibility Score: inf
ROOT
ATOM      1  C   UNL     1     -98.413 -59.728 -67.347  1.00  0.00     0.171 C 
ENDROOT
BRANCH   1   2
ATOM      2  C   UNL     1     -98.206 -58.304 -66.805  1.00  0.00     0.190 C 
BRANCH   2   3
ATOM      3  O   UNL     1     -97.514 -58.341 -65.585  1.00  0.00    -0.394 OA
ATOM      4  H   UNL     1     -97.239 -57.409 -65.380  1.00  0.00     0.210 HD
ENDBRANCH   2   3
ENDBRANCH   1   2
BRANCH   1   5
ATOM      5  C   UNL     1     -99.544 -60.500 -66.609  1.00  0.00     0.181 C 
BRANCH   5   6
ATOM      6  C   UNL     1     -99.062 -61.817 -65.938  1.00  0.00     0.209 C 
BRANCH   6   7
ATOM      7  C   UNL     1     -98.719 -61.599 -64.485  1.00  0.00     0.258 C 
ATOM      8  O   UNL     1     -97.737 -60.948 -64.170  1.00  0.00    -0.300 OA
ENDBRANCH   6   7
BRANCH   6   9
ATOM      9  O   UNL     1    -100.076 -62.785 -66.012  1.00  0.00    -0.383 OA
ATOM     10  H   UNL     1    -100.330 -63.009 -65.079  1.00  0.00     0.211 HD
ENDBRANCH   6   9
ENDBRANCH   5   6
BRANCH   5  11
ATOM     11  O   UNL     1    -100.142 -59.652 -65.657  1.00  0.00    -0.387 OA
ATOM     12  H   UNL     1     -99.602 -58.818 -65.623  1.00  0.00     0.211 HD
ENDBRANCH   5  11
ENDBRANCH   1   5
BRANCH   1  13
ATOM     13  O   UNL     1     -97.207 -60.438 -67.208  1.00  0.00    -0.388 OA
ATOM     14  H   UNL     1     -96.804 -60.164 -66.342  1.00  0.00     0.211 HD
ENDBRANCH   1  13
TORSDOF 8
ENDMDL
MODEL 5
REMARK VINA RESULT:    -4.342      1.811      3.122
REMARK INTER + INTRA:          -6.356
REMARK INTER:                  -5.478
REMARK INTRA:                  -0.878
REMARK UNBOUND:                -0.492
REMARK SMILES O=C[C@@H](O)[C@@H](O)[C@H](O)CO
REMARK SMILES IDX 7 1 9 2 10 3 5 5 3 6 2 7 1 8 4 9 6 11 8 13
REMARK H PARENT 10 4 4 10 6 12 8 14
REMARK Flexibility Score: inf
ROOT
ATOM      1  C   UNL     1    -100.455 -60.451 -66.329  1.00  0.00     0.171 C 
ENDROOT
BRANCH   1   2
ATOM      2  C   UNL     1    -100.260 -61.607 -65.334  1.00  0.00     0.190 C 
BRANCH   2   3
ATOM      3  O   UNL     1     -99.445 -61.201 -64.266  1.00  0.00    -0.394 OA
ATOM      4  H   UNL     1     -98.719 -60.643 -64.653  1.00  0.00     0.210 HD
ENDBRANCH   2   3
ENDBRANCH   1   2
BRANCH   1   5
ATOM      5  C   UNL     1     -99.167 -60.123 -67.139  1.00  0.00     0.181 C 
BRANCH   5   6
ATOM      6  C   UNL     1     -98.409 -58.868 -66.619  1.00  0.00     0.209 C 
BRANCH   6   7
ATOM      7  C   UNL     1     -97.063 -59.239 -66.048  1.00  0.00     0.258 C 
ATOM      8  O   UNL     1     -96.979 -59.797 -64.966  1.00  0.00    -0.300 OA
ENDBRANCH   6   7
BRANCH   6   9
ATOM      9  O   UNL     1     -98.208 -57.966 -67.675  1.00  0.00    -0.383 OA
ATOM     10  H   UNL     1     -98.559 -57.087 -67.375  1.00  0.00     0.211 HD
ENDBRANCH   6   9
ENDBRANCH   5   6
BRANCH   5  11
ATOM     11  O   UNL     1     -98.319 -61.247 -67.139  1.00  0.00    -0.387 OA
ATOM     12  H   UNL     1     -97.908 -61.308 -66.236  1.00  0.00     0.211 HD
ENDBRANCH   5  11
ENDBRANCH   1   5
BRANCH   1  13
ATOM     13  O   UNL     1    -100.849 -59.307 -65.612  1.00  0.00    -0.388 OA
ATOM     14  H   UNL     1    -100.420 -59.359 -64.717  1.00  0.00     0.211 HD
ENDBRANCH   1  13
TORSDOF 8
ENDMDL
MODEL 6
REMARK VINA RESULT:    -4.315      1.326      2.400
REMARK INTER + INTRA:          -6.321
REMARK INTER:                  -5.430
REMARK INTRA:                  -0.890
REMARK UNBOUND:                -0.492
REMARK SMILES O=C[C@@H](O)[C@@H](O)[C@H](O)CO
REMARK SMILES IDX 7 1 9 2 10 3 5 5 3 6 2 7 1 8 4 9 6 11 8 13
REMARK H PARENT 10 4 4 10 6 12 8 14
REMARK Flexibility Score: inf
ROOT
ATOM      1  C   UNL     1    -100.413 -60.012 -66.700  1.00  0.00     0.171 C 
ENDROOT
BRANCH   1   2
ATOM      2  C   UNL     1    -101.685 -60.209 -65.858  1.00  0.00     0.190 C 
BRANCH   2   3
ATOM      3  O   UNL     1    -101.367 -60.239 -64.492  1.00  0.00    -0.394 OA
ATOM      4  H   UNL     1    -102.177 -59.944 -64.000  1.00  0.00     0.210 HD
ENDBRANCH   2   3
ENDBRANCH   1   2
BRANCH   1   5
ATOM      5  C   UNL     1     -99.461 -61.243 -66.661  1.00  0.00     0.181 C 
BRANCH   5   6
ATOM      6  C   UNL     1     -98.160 -60.996 -65.847  1.00  0.00     0.209 C 
BRANCH   6   7
ATOM      7  C   UNL     1     -98.122 -61.847 -64.602  1.00  0.00     0.258 C 
ATOM      8  O   UNL     1     -98.986 -61.736 -63.747  1.00  0.00    -0.300 OA
ENDBRANCH   6   7
BRANCH   6   9
ATOM      9  O   UNL     1     -97.042 -61.314 -66.634  1.00  0.00    -0.383 OA
ATOM     10  H   UNL     1     -97.385 -61.703 -67.480  1.00  0.00     0.211 HD
ENDBRANCH   6   9
ENDBRANCH   5   6
BRANCH   5  11
ATOM     11  O   UNL     1    -100.159 -62.354 -66.150  1.00  0.00    -0.387 OA
ATOM     12  H   UNL     1     -99.495 -63.077 -65.996  1.00  0.00     0.211 HD
ENDBRANCH   5  11
ENDBRANCH   1   5
BRANCH   1  13
ATOM     13  O   UNL     1     -99.726 -58.886 -66.213  1.00  0.00    -0.388 OA
ATOM     14  H   UNL     1     -99.402 -58.376 -67.002  1.00  0.00     0.211 HD
ENDBRANCH   1  13
TORSDOF 8
ENDMDL
MODEL 7
REMARK VINA RESULT:    -4.311      1.680      3.644
REMARK INTER + INTRA:          -6.316
REMARK INTER:                  -5.970
REMARK INTRA:                  -0.346
REMARK UNBOUND:                -0.492
REMARK SMILES O=C[C@@H](O)[C@@H](O)[C@H](O)CO
REMARK SMILES IDX 7 1 9 2 10 3 5 5 3 6 2 7 1 8 4 9 6 11 8 13
REMARK H PARENT 10 4 4 10 6 12 8 14
REMARK Flexibility Score: inf
ROOT
ATOM      1  C   UNL     1    -100.086 -61.354 -66.041  1.00  0.00     0.171 C 
ENDROOT
BRANCH   1   2
ATOM      2  C   UNL     1    -101.033 -61.165 -67.238  1.00  0.00     0.190 C 
BRANCH   2   3
ATOM      3  O   UNL     1    -101.282 -62.396 -67.864  1.00  0.00    -0.394 OA
ATOM      4  H   UNL     1    -100.907 -62.335 -68.782  1.00  0.00     0.210 HD
ENDBRANCH   2   3
ENDBRANCH   1   2
BRANCH   1   5
ATOM      5  C   UNL     1     -98.674 -60.746 -66.282  1.00  0.00     0.181 C 
BRANCH   5   6
ATOM      6  C   UNL     1     -98.655 -59.626 -67.358  1.00  0.00     0.209 C 
BRANCH   6   7
ATOM      7  C   UNL     1     -98.406 -58.273 -66.737  1.00  0.00     0.258 C 
ATOM      8  O   UNL     1     -97.269 -57.898 -66.499  1.00  0.00    -0.300 OA
ENDBRANCH   6   7
BRANCH   6   9
ATOM      9  O   UNL     1     -97.634 -59.879 -68.288  1.00  0.00    -0.383 OA
ATOM     10  H   UNL     1     -97.800 -59.287 -69.068  1.00  0.00     0.211 HD
ENDBRANCH   6   9
ENDBRANCH   5   6
BRANCH   5  11
ATOM     11  O   UNL     1     -98.160 -60.268 -65.061  1.00  0.00    -0.387 OA
ATOM     12  H   UNL     1     -97.234 -60.619 -64.971  1.00  0.00     0.211 HD
ENDBRANCH   5  11
ENDBRANCH   1   5
BRANCH   1  13
ATOM     13  O   UNL     1     -99.955 -62.731 -65.789  1.00  0.00    -0.388 OA
ATOM     14  H   UNL     1    -100.055 -63.200 -66.660  1.00  0.00     0.211 HD
ENDBRANCH   1  13
TORSDOF 8
ENDMDL
MODEL 8
REMARK VINA RESULT:    -4.238      1.529      3.201
REMARK INTER + INTRA:          -6.216
REMARK INTER:                  -5.816
REMARK INTRA:                  -0.400
REMARK UNBOUND:                -0.492
REMARK SMILES O=C[C@@H](O)[C@@H](O)[C@H](O)CO
REMARK SMILES IDX 7 1 9 2 10 3 5 5 3 6 2 7 1 8 4 9 6 11 8 13
REMARK H PARENT 10 4 4 10 6 12 8 14
REMARK Flexibility Score: inf
ROOT
ATOM      1  C   UNL     1     -98.231 -61.724 -64.702  1.00  0.00     0.171 C 
ENDROOT
BRANCH   1   2
ATOM      2  C   UNL     1     -97.661 -60.444 -65.335  1.00  0.00     0.190 C 
BRANCH   2   3
ATOM      3  O   UNL     1     -97.066 -59.636 -64.354  1.00  0.00    -0.394 OA
ATOM      4  H   UNL     1     -97.792 -59.341 -63.743  1.00  0.00     0.210 HD
ENDBRANCH   2   3
ENDBRANCH   1   2
BRANCH   1   5
ATOM      5  C   UNL     1     -99.787 -61.736 -64.651  1.00  0.00     0.181 C 
BRANCH   5   6
ATOM      6  C   UNL     1    -100.445 -60.616 -65.506  1.00  0.00     0.209 C 
BRANCH   6   7
ATOM      7  C   UNL     1    -100.986 -61.164 -66.803  1.00  0.00     0.258 C 
ATOM      8  O   UNL     1    -100.236 -61.646 -67.636  1.00  0.00    -0.300 OA
ENDBRANCH   6   7
BRANCH   6   9
ATOM      9  O   UNL     1    -101.507 -60.038 -64.792  1.00  0.00    -0.383 OA
ATOM     10  H   UNL     1    -102.221 -59.836 -65.451  1.00  0.00     0.211 HD
ENDBRANCH   6   9
ENDBRANCH   5   6
BRANCH   5  11
ATOM     11  O   UNL     1    -100.255 -63.002 -65.051  1.00  0.00    -0.387 OA
ATOM     12  H   UNL     1    -100.165 -63.053 -66.040  1.00  0.00     0.211 HD
ENDBRANCH   5  11
ENDBRANCH   1   5
BRANCH   1  13
ATOM     13  O   UNL     1     -97.730 -61.836 -63.393  1.00  0.00    -0.388 OA
ATOM     14  H   UNL     1     -97.814 -60.941 -62.969  1.00  0.00     0.211 HD
ENDBRANCH   1  13
TORSDOF 8
ENDMDL
MODEL 9
REMARK VINA RESULT:    -4.181      1.808      3.061
REMARK INTER + INTRA:          -6.139
REMARK INTER:                  -5.601
REMARK INTRA:                  -0.538
REMARK UNBOUND:                -0.492
REMARK SMILES O=C[C@@H](O)[C@@H](O)[C@H](O)CO
REMARK SMILES IDX 7 1 9 2 10 3 5 5 3 6 2 7 1 8 4 9 6 11 8 13
REMARK H PARENT 10 4 4 10 6 12 8 14
REMARK Flexibility Score: inf
ROOT
ATOM      1  C   UNL     1     -98.901 -60.880 -66.329  1.00  0.00     0.171 C 
ENDROOT
BRANCH   1   2
ATOM      2  C   UNL     1    -100.020 -61.628 -67.073  1.00  0.00     0.190 C 
BRANCH   2   3
ATOM      3  O   UNL     1    -100.335 -62.823 -66.409  1.00  0.00    -0.394 OA
ATOM      4  H   UNL     1    -101.243 -62.709 -66.023  1.00  0.00     0.210 HD
ENDBRANCH   2   3
ENDBRANCH   1   2
BRANCH   1   5
ATOM      5  C   UNL     1     -98.442 -61.608 -65.032  1.00  0.00     0.181 C 
BRANCH   5   6
ATOM      6  C   UNL     1     -97.012 -61.211 -64.570  1.00  0.00     0.209 C 
BRANCH   6   7
ATOM      7  C   UNL     1     -96.018 -61.336 -65.699  1.00  0.00     0.258 C 
ATOM      8  O   UNL     1     -95.090 -62.125 -65.625  1.00  0.00    -0.300 OA
ENDBRANCH   6   7
BRANCH   6   9
ATOM      9  O   UNL     1     -97.010 -59.880 -64.125  1.00  0.00    -0.383 OA
ATOM     10  H   UNL     1     -96.326 -59.817 -63.408  1.00  0.00     0.211 HD
ENDBRANCH   6   9
ENDBRANCH   5   6
BRANCH   5  11
ATOM     11  O   UNL     1     -99.377 -61.365 -64.007  1.00  0.00    -0.387 OA
ATOM     12  H   UNL     1     -99.339 -62.137 -63.382  1.00  0.00     0.211 HD
ENDBRANCH   5  11
ENDBRANCH   1   5
BRANCH   1  13
ATOM     13  O   UNL     1     -99.370 -59.598 -65.993  1.00  0.00    -0.388 OA
ATOM     14  H   UNL     1     -98.855 -58.945 -66.536  1.00  0.00     0.211 HD
ENDBRANCH   1  13
TORSDOF 8
ENDMDL
