MODEL 1
REMARK VINA RESULT:    -4.907      0.000      0.000
REMARK INTER + INTRA:         -10.929
REMARK INTER:                  -8.636
REMARK INTRA:                  -2.293
REMARK UNBOUND:                -2.293
REMARK SMILES CCCCCCC=CCCCCCCCC(=O)[O-]
REMARK SMILES IDX 10 1 11 2 12 3 13 4 14 5 15 6 16 7 17 8 18 9 9 10 8 11 7 12
REMARK SMILES IDX 6 13 5 14 4 15 3 16 2 17 1 18
REMARK H PARENT
REMARK Flexibility Score: inf
ROOT
ATOM      1  C   UNL     1      12.859  12.735   5.143  1.00  0.00     0.004 C 
ENDROOT
BRANCH   1   2
ATOM      2  C   UNL     1      13.114  12.085   3.772  1.00  0.00     0.000 C 
BRANCH   2   3
ATOM      3  C   UNL     1      12.594  12.936   2.601  1.00  0.00     0.000 C 
BRANCH   3   4
ATOM      4  C   UNL     1      13.677  13.432   1.620  1.00  0.00     0.000 C 
BRANCH   4   5
ATOM      5  C   UNL     1      15.117  13.387   2.161  1.00  0.00     0.006 C 
BRANCH   5   6
ATOM      6  C   UNL     1      15.585  14.736   2.721  1.00  0.00     0.053 C 
BRANCH   6   7
ATOM      7  C   UNL     1      17.008  14.647   3.174  1.00  0.00     0.041 C 
ATOM      8  O   UNL     1      17.464  13.563   3.622  1.00  0.00    -0.550 OA
ATOM      9  O   UNL     1      17.844  15.750   3.056  1.00  0.00    -0.550 OA
ENDBRANCH   6   7
ENDBRANCH   5   6
ENDBRANCH   4   5
ENDBRANCH   3   4
ENDBRANCH   2   3
ENDBRANCH   1   2
BRANCH   1  10
ATOM     10  C   UNL     1      12.285  14.154   5.012  1.00  0.00     0.027 C 
BRANCH  10  11
ATOM     11  C   UNL     1      11.042  14.338   5.849  1.00  0.00    -0.031 C 
ATOM     12  C   UNL     1       9.787  14.361   5.361  1.00  0.00    -0.031 C 
BRANCH  12  13
ATOM     13  C   UNL     1       9.423  14.110   3.917  1.00  0.00     0.027 C 
BRANCH  13  14
ATOM     14  C   UNL     1       8.600  12.824   3.749  1.00  0.00     0.004 C 
BRANCH  14  15
ATOM     15  C   UNL     1       9.449  11.562   3.972  1.00  0.00     0.000 C 
BRANCH  15  16
ATOM     16  C   UNL     1       8.968  10.718   5.167  1.00  0.00    -0.000 C 
BRANCH  16  17
ATOM     17  C   UNL     1       9.880  10.768   6.404  1.00  0.00    -0.003 C 
ATOM     18  C   UNL     1       9.195  11.371   7.629  1.00  0.00     0.004 C 
ENDBRANCH  16  17
ENDBRANCH  15  16
ENDBRANCH  14  15
ENDBRANCH  13  14
ENDBRANCH  12  13
ENDBRANCH  10  11
ENDBRANCH   1  10
TORSDOF 13
ENDMDL
MODEL 2
REMARK VINA RESULT:    -4.739      1.116      3.270
REMARK INTER + INTRA:         -10.633
REMARK INTER:                  -8.621
REMARK INTRA:                  -2.011
REMARK UNBOUND:                -2.293
REMARK SMILES CCCCCCC=CCCCCCCCC(=O)[O-]
REMARK SMILES IDX 10 1 11 2 12 3 13 4 14 5 15 6 16 7 17 8 18 9 9 10 8 11 7 12
REMARK SMILES IDX 6 13 5 14 4 15 3 16 2 17 1 18
REMARK H PARENT
REMARK Flexibility Score: inf
ROOT
ATOM      1  C   UNL     1      10.813  11.806   3.592  1.00  0.00     0.004 C 
ENDROOT
BRANCH   1   2
ATOM      2  C   UNL     1      12.144  11.403   4.248  1.00  0.00     0.000 C 
BRANCH   2   3
ATOM      3  C   UNL     1      13.313  12.313   3.836  1.00  0.00     0.000 C 
BRANCH   3   4
ATOM      4  C   UNL     1      13.086  13.128   2.545  1.00  0.00     0.000 C 
BRANCH   4   5
ATOM      5  C   UNL     1      14.370  13.603   1.840  1.00  0.00     0.006 C 
BRANCH   5   6
ATOM      6  C   UNL     1      15.646  13.082   2.514  1.00  0.00     0.053 C 
BRANCH   6   7
ATOM      7  C   UNL     1      16.386  14.207   3.167  1.00  0.00     0.041 C 
ATOM      8  O   UNL     1      17.643  14.185   3.231  1.00  0.00    -0.550 OA
ATOM      9  O   UNL     1      15.690  15.302   3.662  1.00  0.00    -0.550 OA
ENDBRANCH   6   7
ENDBRANCH   5   6
ENDBRANCH   4   5
ENDBRANCH   3   4
ENDBRANCH   2   3
ENDBRANCH   1   2
BRANCH   1  10
ATOM     10  C   UNL     1       9.601  11.239   4.345  1.00  0.00     0.027 C 
BRANCH  10  11
ATOM     11  C   UNL     1      10.010  10.235   5.397  1.00  0.00    -0.031 C 
ATOM     12  C   UNL     1       9.735  10.349   6.710  1.00  0.00    -0.031 C 
BRANCH  12  13
ATOM     13  C   UNL     1       8.895  11.444   7.321  1.00  0.00     0.027 C 
BRANCH  13  14
ATOM     14  C   UNL     1       9.738  12.670   7.703  1.00  0.00     0.004 C 
BRANCH  14  15
ATOM     15  C   UNL     1       9.132  13.978   7.167  1.00  0.00     0.000 C 
BRANCH  15  16
ATOM     16  C   UNL     1       9.992  14.630   6.068  1.00  0.00    -0.000 C 
BRANCH  16  17
ATOM     17  C   UNL     1      11.511  14.543   6.298  1.00  0.00    -0.003 C 
ATOM     18  C   UNL     1      12.309  15.460   5.373  1.00  0.00     0.004 C 
ENDBRANCH  16  17
ENDBRANCH  15  16
ENDBRANCH  14  15
ENDBRANCH  13  14
ENDBRANCH  12  13
ENDBRANCH  10  11
ENDBRANCH   1  10
TORSDOF 13
ENDMDL
MODEL 3
REMARK VINA RESULT:    -4.718      1.530      3.112
REMARK INTER + INTRA:         -10.596
REMARK INTER:                  -8.000
REMARK INTRA:                  -2.596
REMARK UNBOUND:                -2.293
REMARK SMILES CCCCCCC=CCCCCCCCC(=O)[O-]
REMARK SMILES IDX 10 1 11 2 12 3 13 4 14 5 15 6 16 7 17 8 18 9 9 10 8 11 7 12
REMARK SMILES IDX 6 13 5 14 4 15 3 16 2 17 1 18
REMARK H PARENT
REMARK Flexibility Score: inf
ROOT
ATOM      1  C   UNL     1       9.288  14.920   5.624  1.00  0.00     0.004 C 
ENDROOT
BRANCH   1   2
ATOM      2  C   UNL     1      10.649  14.925   6.340  1.00  0.00     0.000 C 
BRANCH   2   3
ATOM      3  C   UNL     1      11.807  14.493   5.425  1.00  0.00     0.000 C 
BRANCH   3   4
ATOM      4  C   UNL     1      12.640  13.300   5.940  1.00  0.00     0.000 C 
BRANCH   4   5
ATOM      5  C   UNL     1      13.534  12.626   4.883  1.00  0.00     0.006 C 
BRANCH   5   6
ATOM      6  C   UNL     1      15.028  12.889   5.114  1.00  0.00     0.053 C 
BRANCH   6   7
ATOM      7  C   UNL     1      15.590  13.716   4.000  1.00  0.00     0.041 C 
ATOM      8  O   UNL     1      15.333  14.946   3.933  1.00  0.00    -0.550 OA
ATOM      9  O   UNL     1      16.437  13.137   3.065  1.00  0.00    -0.550 OA
ENDBRANCH   6   7
ENDBRANCH   5   6
ENDBRANCH   4   5
ENDBRANCH   3   4
ENDBRANCH   2   3
ENDBRANCH   1   2
BRANCH   1  10
ATOM     10  C   UNL     1       9.405  14.468   4.161  1.00  0.00     0.027 C 
BRANCH  10  11
ATOM     11  C   UNL     1       8.444  13.350   3.838  1.00  0.00    -0.031 C 
ATOM     12  C   UNL     1       8.804  12.072   3.612  1.00  0.00    -0.031 C 
BRANCH  12  13
ATOM     13  C   UNL     1      10.211  11.541   3.742  1.00  0.00     0.027 C 
BRANCH  13  14
ATOM     14  C   UNL     1      10.291  10.363   4.724  1.00  0.00     0.004 C 
BRANCH  14  15
ATOM     15  C   UNL     1       9.254  10.482   5.854  1.00  0.00     0.000 C 
BRANCH  15  16
ATOM     16  C   UNL     1       9.732  11.374   7.015  1.00  0.00    -0.000 C 
BRANCH  16  17
ATOM     17  C   UNL     1       8.607  12.072   7.799  1.00  0.00    -0.003 C 
ATOM     18  C   UNL     1       7.262  12.038   7.076  1.00  0.00     0.004 C 
ENDBRANCH  16  17
ENDBRANCH  15  16
ENDBRANCH  14  15
ENDBRANCH  13  14
ENDBRANCH  12  13
ENDBRANCH  10  11
ENDBRANCH   1  10
TORSDOF 13
ENDMDL
MODEL 4
REMARK VINA RESULT:    -4.696      4.090      6.950
REMARK INTER + INTRA:         -10.557
REMARK INTER:                  -8.116
REMARK INTRA:                  -2.441
REMARK UNBOUND:                -2.293
REMARK SMILES CCCCCCC=CCCCCCCCC(=O)[O-]
REMARK SMILES IDX 10 1 11 2 12 3 13 4 14 5 15 6 16 7 17 8 18 9 9 10 8 11 7 12
REMARK SMILES IDX 6 13 5 14 4 15 3 16 2 17 1 18
REMARK H PARENT
REMARK Flexibility Score: inf
ROOT
ATOM      1  C   UNL     1       8.568  13.782   4.224  1.00  0.00     0.004 C 
ENDROOT
BRANCH   1   2
ATOM      2  C   UNL     1       9.049  12.451   3.623  1.00  0.00     0.000 C 
BRANCH   2   3
ATOM      3  C   UNL     1       8.780  11.248   4.544  1.00  0.00     0.000 C 
BRANCH   3   4
ATOM      4  C   UNL     1       9.876  10.966   5.592  1.00  0.00     0.000 C 
BRANCH   4   5
ATOM      5  C   UNL     1       9.371  10.817   7.039  1.00  0.00     0.006 C 
BRANCH   5   6
ATOM      6  C   UNL     1       8.694  12.089   7.566  1.00  0.00     0.053 C 
BRANCH   6   7
ATOM      7  C   UNL     1       7.217  11.881   7.685  1.00  0.00     0.041 C 
ATOM      8  O   UNL     1       6.443  12.304   6.787  1.00  0.00    -0.550 OA
ATOM      9  O   UNL     1       6.700  11.176   8.764  1.00  0.00    -0.550 OA
ENDBRANCH   6   7
ENDBRANCH   5   6
ENDBRANCH   4   5
ENDBRANCH   3   4
ENDBRANCH   2   3
ENDBRANCH   1   2
BRANCH   1  10
ATOM     10  C   UNL     1       9.717  14.784   4.407  1.00  0.00     0.027 C 
BRANCH  10  11
ATOM     11  C   UNL     1      10.257  14.771   5.817  1.00  0.00    -0.031 C 
ATOM     12  C   UNL     1      11.527  14.469   6.147  1.00  0.00    -0.031 C 
BRANCH  12  13
ATOM     13  C   UNL     1      12.630  14.192   5.154  1.00  0.00     0.027 C 
BRANCH  13  14
ATOM     14  C   UNL     1      12.931  12.691   5.035  1.00  0.00     0.004 C 
BRANCH  14  15
ATOM     15  C   UNL     1      12.804  12.189   3.587  1.00  0.00     0.000 C 
BRANCH  15  16
ATOM     16  C   UNL     1      12.601  13.330   2.573  1.00  0.00    -0.000 C 
BRANCH  16  17
ATOM     17  C   UNL     1      13.740  13.501   1.553  1.00  0.00    -0.003 C 
ATOM     18  C   UNL     1      15.067  13.897   2.199  1.00  0.00     0.004 C 
ENDBRANCH  16  17
ENDBRANCH  15  16
ENDBRANCH  14  15
ENDBRANCH  13  14
ENDBRANCH  12  13
ENDBRANCH  10  11
ENDBRANCH   1  10
TORSDOF 13
ENDMDL
MODEL 5
REMARK VINA RESULT:    -4.619      1.090      2.110
REMARK INTER + INTRA:         -10.423
REMARK INTER:                  -8.285
REMARK INTRA:                  -2.138
REMARK UNBOUND:                -2.293
REMARK SMILES CCCCCCC=CCCCCCCCC(=O)[O-]
REMARK SMILES IDX 10 1 11 2 12 3 13 4 14 5 15 6 16 7 17 8 18 9 9 10 8 11 7 12
REMARK SMILES IDX 6 13 5 14 4 15 3 16 2 17 1 18
REMARK H PARENT
REMARK Flexibility Score: inf
ROOT
ATOM      1  C   UNL     1      11.178  14.664   6.178  1.00  0.00     0.004 C 
ENDROOT
BRANCH   1   2
ATOM      2  C   UNL     1      12.450  14.393   5.357  1.00  0.00     0.000 C 
BRANCH   2   3
ATOM      3  C   UNL     1      13.232  13.165   5.855  1.00  0.00     0.000 C 
BRANCH   3   4
ATOM      4  C   UNL     1      14.144  12.498   4.804  1.00  0.00     0.000 C 
BRANCH   4   5
ATOM      5  C   UNL     1      13.919  12.967   3.355  1.00  0.00     0.006 C 
BRANCH   5   6
ATOM      6  C   UNL     1      15.229  13.140   2.576  1.00  0.00     0.053 C 
BRANCH   6   7
ATOM      7  C   UNL     1      16.173  14.020   3.333  1.00  0.00     0.041 C 
ATOM      8  O   UNL     1      15.832  15.189   3.652  1.00  0.00    -0.550 OA
ATOM      9  O   UNL     1      17.412  13.533   3.728  1.00  0.00    -0.550 OA
ENDBRANCH   6   7
ENDBRANCH   5   6
ENDBRANCH   4   5
ENDBRANCH   3   4
ENDBRANCH   2   3
ENDBRANCH   1   2
BRANCH   1  10
ATOM     10  C   UNL     1      10.154  15.502   5.398  1.00  0.00     0.027 C 
BRANCH  10  11
ATOM     11  C   UNL     1      10.239  15.255   3.910  1.00  0.00    -0.031 C 
ATOM     12  C   UNL     1       9.551  14.304   3.252  1.00  0.00    -0.031 C 
BRANCH  12  13
ATOM     13  C   UNL     1       8.516  13.402   3.881  1.00  0.00     0.027 C 
BRANCH  13  14
ATOM     14  C   UNL     1       8.862  11.917   3.698  1.00  0.00     0.004 C 
BRANCH  14  15
ATOM     15  C   UNL     1      10.377  11.663   3.775  1.00  0.00     0.000 C 
BRANCH  15  16
ATOM     16  C   UNL     1      10.742  10.494   4.709  1.00  0.00    -0.000 C 
BRANCH  16  17
ATOM     17  C   UNL     1       9.756  10.257   5.866  1.00  0.00    -0.003 C 
ATOM     18  C   UNL     1       9.796  11.361   6.921  1.00  0.00     0.004 C 
ENDBRANCH  16  17
ENDBRANCH  15  16
ENDBRANCH  14  15
ENDBRANCH  13  14
ENDBRANCH  12  13
ENDBRANCH  10  11
ENDBRANCH   1  10
TORSDOF 13
ENDMDL
MODEL 6
REMARK VINA RESULT:    -4.560      1.414      2.555
REMARK INTER + INTRA:         -10.318
REMARK INTER:                  -7.979
REMARK INTRA:                  -2.339
REMARK UNBOUND:                -2.293
REMARK SMILES CCCCCCC=CCCCCCCCC(=O)[O-]
REMARK SMILES IDX 10 1 11 2 12 3 13 4 14 5 15 6 16 7 17 8 18 9 9 10 8 11 7 12
REMARK SMILES IDX 6 13 5 14 4 15 3 16 2 17 1 18
REMARK H PARENT
REMARK Flexibility Score: inf
ROOT
ATOM      1  C   UNL     1      11.264  14.983   2.104  1.00  0.00     0.004 C 
ENDROOT
BRANCH   1   2
ATOM      2  C   UNL     1      12.369  14.977   1.034  1.00  0.00     0.000 C 
BRANCH   2   3
ATOM      3  C   UNL     1      13.129  13.640   0.968  1.00  0.00     0.000 C 
BRANCH   3   4
ATOM      4  C   UNL     1      14.542  13.658   1.587  1.00  0.00     0.000 C 
BRANCH   4   5
ATOM      5  C   UNL     1      15.076  15.055   1.953  1.00  0.00     0.006 C 
BRANCH   5   6
ATOM      6  C   UNL     1      15.437  15.183   3.438  1.00  0.00     0.053 C 
BRANCH   6   7
ATOM      7  C   UNL     1      16.354  14.075   3.850  1.00  0.00     0.041 C 
ATOM      8  O   UNL     1      15.968  13.207   4.675  1.00  0.00    -0.550 OA
ATOM      9  O   UNL     1      17.618  13.974   3.285  1.00  0.00    -0.550 OA
ENDBRANCH   6   7
ENDBRANCH   5   6
ENDBRANCH   4   5
ENDBRANCH   3   4
ENDBRANCH   2   3
ENDBRANCH   1   2
BRANCH   1  10
ATOM     10  C   UNL     1      11.580  15.948   3.256  1.00  0.00     0.027 C 
BRANCH  10  11
ATOM     11  C   UNL     1      10.821  15.593   4.513  1.00  0.00    -0.031 C 
ATOM     12  C   UNL     1      11.277  14.769   5.475  1.00  0.00    -0.031 C 
BRANCH  12  13
ATOM     13  C   UNL     1      12.654  14.150   5.494  1.00  0.00     0.027 C 
BRANCH  13  14
ATOM     14  C   UNL     1      12.592  12.616   5.543  1.00  0.00     0.004 C 
BRANCH  14  15
ATOM     15  C   UNL     1      12.453  11.998   4.142  1.00  0.00     0.000 C 
BRANCH  15  16
ATOM     16  C   UNL     1      11.014  11.549   3.824  1.00  0.00    -0.000 C 
BRANCH  16  17
ATOM     17  C   UNL     1      10.491  10.392   4.692  1.00  0.00    -0.003 C 
ATOM     18  C   UNL     1       9.339  10.803   5.607  1.00  0.00     0.004 C 
ENDBRANCH  16  17
ENDBRANCH  15  16
ENDBRANCH  14  15
ENDBRANCH  13  14
ENDBRANCH  12  13
ENDBRANCH  10  11
ENDBRANCH   1  10
TORSDOF 13
ENDMDL
MODEL 7
REMARK VINA RESULT:    -4.557      1.463      2.651
REMARK INTER + INTRA:         -10.313
REMARK INTER:                  -8.317
REMARK INTRA:                  -1.996
REMARK UNBOUND:                -2.293
REMARK SMILES CCCCCCC=CCCCCCCCC(=O)[O-]
REMARK SMILES IDX 10 1 11 2 12 3 13 4 14 5 15 6 16 7 17 8 18 9 9 10 8 11 7 12
REMARK SMILES IDX 6 13 5 14 4 15 3 16 2 17 1 18
REMARK H PARENT
REMARK Flexibility Score: inf
ROOT
ATOM      1  C   UNL     1      12.583  13.429   5.198  1.00  0.00     0.004 C 
ENDROOT
BRANCH   1   2
ATOM      2  C   UNL     1      11.968  14.417   4.191  1.00  0.00     0.000 C 
BRANCH   2   3
ATOM      3  C   UNL     1      13.028  15.239   3.438  1.00  0.00     0.000 C 
BRANCH   3   4
ATOM      4  C   UNL     1      13.362  14.735   2.018  1.00  0.00     0.000 C 
BRANCH   4   5
ATOM      5  C   UNL     1      14.855  14.465   1.757  1.00  0.00     0.006 C 
BRANCH   5   6
ATOM      6  C   UNL     1      15.349  13.170   2.415  1.00  0.00     0.053 C 
BRANCH   6   7
ATOM      7  C   UNL     1      16.277  13.480   3.546  1.00  0.00     0.041 C 
ATOM      8  O   UNL     1      15.921  13.269   4.734  1.00  0.00    -0.550 OA
ATOM      9  O   UNL     1      17.555  13.958   3.285  1.00  0.00    -0.550 OA
ENDBRANCH   6   7
ENDBRANCH   5   6
ENDBRANCH   4   5
ENDBRANCH   3   4
ENDBRANCH   2   3
ENDBRANCH   1   2
BRANCH   1  10
ATOM     10  C   UNL     1      12.599  11.991   4.660  1.00  0.00     0.027 C 
BRANCH  10  11
ATOM     11  C   UNL     1      11.440  11.723   3.730  1.00  0.00    -0.031 C 
ATOM     12  C   UNL     1      10.448  10.848   3.977  1.00  0.00    -0.031 C 
BRANCH  12  13
ATOM     13  C   UNL     1      10.287  10.071   5.261  1.00  0.00     0.027 C 
BRANCH  13  14
ATOM     14  C   UNL     1       9.332  10.771   6.239  1.00  0.00     0.004 C 
BRANCH  14  15
ATOM     15  C   UNL     1       8.190  11.498   5.510  1.00  0.00     0.000 C 
BRANCH  15  16
ATOM     16  C   UNL     1       7.833  12.851   6.153  1.00  0.00    -0.000 C 
BRANCH  16  17
ATOM     17  C   UNL     1       9.036  13.759   6.461  1.00  0.00    -0.003 C 
ATOM     18  C   UNL     1       8.669  15.241   6.521  1.00  0.00     0.004 C 
ENDBRANCH  16  17
ENDBRANCH  15  16
ENDBRANCH  14  15
ENDBRANCH  13  14
ENDBRANCH  12  13
ENDBRANCH  10  11
ENDBRANCH   1  10
TORSDOF 13
ENDMDL
MODEL 8
REMARK VINA RESULT:    -4.533      2.341      3.673
REMARK INTER + INTRA:         -10.271
REMARK INTER:                  -8.553
REMARK INTRA:                  -1.718
REMARK UNBOUND:                -2.293
REMARK SMILES CCCCCCC=CCCCCCCCC(=O)[O-]
REMARK SMILES IDX 10 1 11 2 12 3 13 4 14 5 15 6 16 7 17 8 18 9 9 10 8 11 7 12
REMARK SMILES IDX 6 13 5 14 4 15 3 16 2 17 1 18
REMARK H PARENT
REMARK Flexibility Score: inf
ROOT
ATOM      1  C   UNL     1      12.445  12.117   3.239  1.00  0.00     0.004 C 
ENDROOT
BRANCH   1   2
ATOM      2  C   UNL     1      13.775  12.879   3.361  1.00  0.00     0.000 C 
BRANCH   2   3
ATOM      3  C   UNL     1      14.208  13.542   2.042  1.00  0.00     0.000 C 
BRANCH   3   4
ATOM      4  C   UNL     1      13.055  13.903   1.081  1.00  0.00     0.000 C 
BRANCH   4   5
ATOM      5  C   UNL     1      13.332  15.099   0.152  1.00  0.00     0.006 C 
BRANCH   5   6
ATOM      6  C   UNL     1      14.572  15.901   0.568  1.00  0.00     0.053 C 
BRANCH   6   7
ATOM      7  C   UNL     1      15.164  16.596  -0.617  1.00  0.00     0.041 C 
ATOM      8  O   UNL     1      14.763  16.323  -1.778  1.00  0.00    -0.550 OA
ATOM      9  O   UNL     1      16.125  17.582  -0.434  1.00  0.00    -0.550 OA
ENDBRANCH   6   7
ENDBRANCH   5   6
ENDBRANCH   4   5
ENDBRANCH   3   4
ENDBRANCH   2   3
ENDBRANCH   1   2
BRANCH   1  10
ATOM     10  C   UNL     1      11.891  11.697   4.608  1.00  0.00     0.027 C 
BRANCH  10  11
ATOM     11  C   UNL     1      10.978  10.499   4.504  1.00  0.00    -0.031 C 
ATOM     12  C   UNL     1       9.832  10.348   5.194  1.00  0.00    -0.031 C 
BRANCH  12  13
ATOM     13  C   UNL     1       9.234  11.393   6.105  1.00  0.00     0.027 C 
BRANCH  13  14
ATOM     14  C   UNL     1       7.961  12.012   5.509  1.00  0.00     0.004 C 
BRANCH  14  15
ATOM     15  C   UNL     1       8.247  12.781   4.208  1.00  0.00     0.000 C 
BRANCH  15  16
ATOM     16  C   UNL     1       9.000  14.103   4.446  1.00  0.00    -0.000 C 
BRANCH  16  17
ATOM     17  C   UNL     1       9.774  14.635   3.227  1.00  0.00    -0.003 C 
ATOM     18  C   UNL     1      10.960  15.519   3.611  1.00  0.00     0.004 C 
ENDBRANCH  16  17
ENDBRANCH  15  16
ENDBRANCH  14  15
ENDBRANCH  13  14
ENDBRANCH  12  13
ENDBRANCH  10  11
ENDBRANCH   1  10
TORSDOF 13
ENDMDL
MODEL 9
REMARK VINA RESULT:    -4.506      3.858      6.560
REMARK INTER + INTRA:         -10.224
REMARK INTER:                  -8.066
REMARK INTRA:                  -2.158
REMARK UNBOUND:                -2.293
REMARK SMILES CCCCCCC=CCCCCCCCC(=O)[O-]
REMARK SMILES IDX 10 1 11 2 12 3 13 4 14 5 15 6 16 7 17 8 18 9 9 10 8 11 7 12
REMARK SMILES IDX 6 13 5 14 4 15 3 16 2 17 1 18
REMARK H PARENT
REMARK Flexibility Score: inf
ROOT
ATOM      1  C   UNL     1      12.359  12.315   5.070  1.00  0.00     0.004 C 
ENDROOT
BRANCH   1   2
ATOM      2  C   UNL     1      11.700  11.396   4.028  1.00  0.00     0.000 C 
BRANCH   2   3
ATOM      3  C   UNL     1      10.901  10.246   4.665  1.00  0.00     0.000 C 
BRANCH   3   4
ATOM      4  C   UNL     1       9.458  10.601   5.081  1.00  0.00     0.000 C 
BRANCH   4   5
ATOM      5  C   UNL     1       9.268  10.904   6.579  1.00  0.00     0.006 C 
BRANCH   5   6
ATOM      6  C   UNL     1       8.941  12.377   6.852  1.00  0.00     0.053 C 
BRANCH   6   7
ATOM      7  C   UNL     1       7.621  12.739   6.248  1.00  0.00     0.041 C 
ATOM      8  O   UNL     1       6.576  12.130   6.597  1.00  0.00    -0.550 OA
ATOM      9  O   UNL     1       7.537  13.782   5.335  1.00  0.00    -0.550 OA
ENDBRANCH   6   7
ENDBRANCH   5   6
ENDBRANCH   4   5
ENDBRANCH   3   4
ENDBRANCH   2   3
ENDBRANCH   1   2
BRANCH   1  10
ATOM     10  C   UNL     1      12.012  13.794   4.840  1.00  0.00     0.027 C 
BRANCH  10  11
ATOM     11  C   UNL     1      10.815  13.958   3.935  1.00  0.00    -0.031 C 
ATOM     12  C   UNL     1      10.809  14.678   2.797  1.00  0.00    -0.031 C 
BRANCH  12  13
ATOM     13  C   UNL     1      12.021  15.351   2.201  1.00  0.00     0.027 C 
BRANCH  13  14
ATOM     14  C   UNL     1      12.525  14.619   0.948  1.00  0.00     0.004 C 
BRANCH  14  15
ATOM     15  C   UNL     1      14.028  14.305   1.028  1.00  0.00     0.000 C 
BRANCH  15  16
ATOM     16  C   UNL     1      14.354  13.190   2.039  1.00  0.00    -0.000 C 
BRANCH  16  17
ATOM     17  C   UNL     1      15.768  13.256   2.642  1.00  0.00    -0.003 C 
ATOM     18  C   UNL     1      15.767  13.573   4.136  1.00  0.00     0.004 C 
ENDBRANCH  16  17
ENDBRANCH  15  16
ENDBRANCH  14  15
ENDBRANCH  13  14
ENDBRANCH  12  13
ENDBRANCH  10  11
ENDBRANCH   1  10
TORSDOF 13
ENDMDL
