MODEL 1
REMARK VINA RESULT:    -3.778      0.000      0.000
REMARK INTER + INTRA:          -4.474
REMARK INTER:                  -4.330
REMARK INTRA:                  -0.145
REMARK UNBOUND:                -0.145
REMARK SMILES CC=Cc1ccc(O)c(OC)c1
REMARK SMILES IDX 4 1 12 2 9 3 7 4 6 5 5 6 3 7 1 8 2 9 10 10 11 11 8 12
REMARK H PARENT 8 13
REMARK Flexibility Score: inf
ROOT
ATOM      1  C   UNL     1      27.236  42.426  21.423  1.00  0.00    -0.022 A 
ATOM      2  C   UNL     1      27.250  41.023  21.559  1.00  0.00     0.058 A 
ATOM      3  C   UNL     1      27.221  40.188  20.424  1.00  0.00     0.161 A 
ATOM      4  C   UNL     1      27.188  40.769  19.144  1.00  0.00     0.157 A 
ATOM      5  C   UNL     1      27.190  42.160  19.007  1.00  0.00     0.051 A 
ATOM      6  C   UNL     1      27.219  42.982  20.135  1.00  0.00     0.012 A 
ENDROOT
BRANCH   1   7
ATOM      7  C   UNL     1      27.274  43.342  22.588  1.00  0.00     0.003 C 
ATOM      8  C   UNL     1      27.315  43.919  24.984  1.00  0.00     0.035 C 
ATOM      9  C   UNL     1      27.292  42.931  23.861  1.00  0.00    -0.030 C 
ENDBRANCH   1   7
BRANCH   3  10
ATOM     10  O   UNL     1      27.230  38.788  20.529  1.00  0.00    -0.493 OA
ATOM     11  C   UNL     1      26.062  37.973  20.584  1.00  0.00     0.278 C 
ENDBRANCH   3  10
BRANCH   4  12
ATOM     12  O   UNL     1      27.155  39.980  17.994  1.00  0.00    -0.504 OA
ATOM     13  H   UNL     1      27.964  39.464  17.671  1.00  0.00     0.293 HD
ENDBRANCH   4  12
TORSDOF 3
ENDMDL
MODEL 2
REMARK VINA RESULT:    -3.553      1.690      2.123
REMARK INTER + INTRA:          -4.217
REMARK INTER:                  -4.054
REMARK INTRA:                  -0.163
REMARK UNBOUND:                -0.145
REMARK SMILES CC=Cc1ccc(O)c(OC)c1
REMARK SMILES IDX 4 1 12 2 9 3 7 4 6 5 5 6 3 7 1 8 2 9 10 10 11 11 8 12
REMARK H PARENT 8 13
REMARK Flexibility Score: inf
ROOT
ATOM      1  C   UNL     1      27.881  41.605  21.181  1.00  0.00    -0.022 A 
ATOM      2  C   UNL     1      28.552  40.662  20.378  1.00  0.00     0.058 A 
ATOM      3  C   UNL     1      27.834  39.677  19.669  1.00  0.00     0.161 A 
ATOM      4  C   UNL     1      26.431  39.649  19.763  1.00  0.00     0.157 A 
ATOM      5  C   UNL     1      25.764  40.593  20.546  1.00  0.00     0.051 A 
ATOM      6  C   UNL     1      26.480  41.566  21.245  1.00  0.00     0.012 A 
ENDROOT
BRANCH   1   7
ATOM      7  C   UNL     1      28.594  42.664  21.936  1.00  0.00     0.003 C 
ATOM      8  C   UNL     1      29.124  44.034  23.915  1.00  0.00     0.035 C 
ATOM      9  C   UNL     1      28.373  42.938  23.227  1.00  0.00    -0.030 C 
ENDBRANCH   1   7
BRANCH   3  10
ATOM     10  O   UNL     1      28.477  38.721  18.865  1.00  0.00    -0.493 OA
ATOM     11  C   UNL     1      28.738  38.878  17.473  1.00  0.00     0.278 C 
ENDBRANCH   3  10
BRANCH   4  12
ATOM     12  O   UNL     1      25.682  38.689  19.081  1.00  0.00    -0.504 OA
ATOM     13  H   UNL     1      24.744  38.873  18.749  1.00  0.00     0.293 HD
ENDBRANCH   4  12
TORSDOF 3
ENDMDL
MODEL 3
REMARK VINA RESULT:    -3.311     15.321     16.736
REMARK INTER + INTRA:          -3.939
REMARK INTER:                  -3.784
REMARK INTRA:                  -0.155
REMARK UNBOUND:                -0.145
REMARK SMILES CC=Cc1ccc(O)c(OC)c1
REMARK SMILES IDX 4 1 12 2 9 3 7 4 6 5 5 6 3 7 1 8 2 9 10 10 11 11 8 12
REMARK H PARENT 8 13
REMARK Flexibility Score: inf
ROOT
ATOM      1  C   UNL     1      25.983  27.106  28.918  1.00  0.00    -0.022 A 
ATOM      2  C   UNL     1      24.682  27.082  28.378  1.00  0.00     0.058 A 
ATOM      3  C   UNL     1      23.764  28.114  28.662  1.00  0.00     0.161 A 
ATOM      4  C   UNL     1      24.164  29.181  29.487  1.00  0.00     0.157 A 
ATOM      5  C   UNL     1      25.459  29.214  30.009  1.00  0.00     0.051 A 
ATOM      6  C   UNL     1      26.363  28.190  29.724  1.00  0.00     0.012 A 
ENDROOT
BRANCH   1   7
ATOM      7  C   UNL     1      26.983  26.047  28.639  1.00  0.00     0.003 C 
ATOM      8  C   UNL     1      28.289  24.014  29.125  1.00  0.00     0.035 C 
ATOM      9  C   UNL     1      27.253  25.036  29.473  1.00  0.00    -0.030 C 
ENDBRANCH   1   7
BRANCH   3  10
ATOM     10  O   UNL     1      22.459  28.114  28.143  1.00  0.00    -0.493 OA
ATOM     11  C   UNL     1      21.636  26.958  28.022  1.00  0.00     0.278 C 
ENDBRANCH   3  10
BRANCH   4  12
ATOM     12  O   UNL     1      23.286  30.221  29.796  1.00  0.00    -0.504 OA
ATOM     13  H   UNL     1      23.506  31.189  29.597  1.00  0.00     0.293 HD
ENDBRANCH   4  12
TORSDOF 3
ENDMDL
MODEL 4
REMARK VINA RESULT:    -3.293     12.372     15.264
REMARK INTER + INTRA:          -3.918
REMARK INTER:                  -3.730
REMARK INTRA:                  -0.188
REMARK UNBOUND:                -0.145
REMARK SMILES CC=Cc1ccc(O)c(OC)c1
REMARK SMILES IDX 4 1 12 2 9 3 7 4 6 5 5 6 3 7 1 8 2 9 10 10 11 11 8 12
REMARK H PARENT 8 13
REMARK Flexibility Score: inf
ROOT
ATOM      1  C   UNL     1      27.951  27.046  27.387  1.00  0.00    -0.022 A 
ATOM      2  C   UNL     1      27.819  27.524  26.068  1.00  0.00     0.058 A 
ATOM      3  C   UNL     1      28.204  28.838  25.736  1.00  0.00     0.161 A 
ATOM      4  C   UNL     1      28.734  29.673  26.736  1.00  0.00     0.157 A 
ATOM      5  C   UNL     1      28.882  29.195  28.040  1.00  0.00     0.051 A 
ATOM      6  C   UNL     1      28.499  27.892  28.363  1.00  0.00     0.012 A 
ENDROOT
BRANCH   1   7
ATOM      7  C   UNL     1      27.568  25.668  27.780  1.00  0.00     0.003 C 
ATOM      8  C   UNL     1      26.573  23.950  29.240  1.00  0.00     0.035 C 
ATOM      9  C   UNL     1      26.911  25.368  28.906  1.00  0.00    -0.030 C 
ENDBRANCH   1   7
BRANCH   3  10
ATOM     10  O   UNL     1      28.078  29.343  24.431  1.00  0.00    -0.493 OA
ATOM     11  C   UNL     1      26.877  29.875  23.881  1.00  0.00     0.278 C 
ENDBRANCH   3  10
BRANCH   4  12
ATOM     12  O   UNL     1      29.125  30.982  26.451  1.00  0.00    -0.504 OA
ATOM     13  H   UNL     1      29.140  31.346  25.506  1.00  0.00     0.293 HD
ENDBRANCH   4  12
TORSDOF 3
ENDMDL
MODEL 5
REMARK VINA RESULT:    -3.284      2.595      3.463
REMARK INTER + INTRA:          -3.909
REMARK INTER:                  -3.758
REMARK INTRA:                  -0.150
REMARK UNBOUND:                -0.145
REMARK SMILES CC=Cc1ccc(O)c(OC)c1
REMARK SMILES IDX 4 1 12 2 9 3 7 4 6 5 5 6 3 7 1 8 2 9 10 10 11 11 8 12
REMARK H PARENT 8 13
REMARK Flexibility Score: inf
ROOT
ATOM      1  C   UNL     1      27.407  40.399  19.475  1.00  0.00    -0.022 A 
ATOM      2  C   UNL     1      26.415  39.575  20.044  1.00  0.00     0.058 A 
ATOM      3  C   UNL     1      26.682  38.221  20.332  1.00  0.00     0.161 A 
ATOM      4  C   UNL     1      27.957  37.698  20.054  1.00  0.00     0.157 A 
ATOM      5  C   UNL     1      28.946  38.518  19.506  1.00  0.00     0.051 A 
ATOM      6  C   UNL     1      28.677  39.858  19.223  1.00  0.00     0.012 A 
ENDROOT
BRANCH   1   7
ATOM      7  C   UNL     1      27.174  41.831  19.164  1.00  0.00     0.003 C 
ATOM      8  C   UNL     1      26.395  44.124  19.620  1.00  0.00     0.035 C 
ATOM      9  C   UNL     1      26.610  42.697  20.014  1.00  0.00    -0.030 C 
ENDBRANCH   1   7
BRANCH   3  10
ATOM     10  O   UNL     1      25.712  37.375  20.894  1.00  0.00    -0.493 OA
ATOM     11  C   UNL     1      24.366  37.273  20.440  1.00  0.00     0.278 C 
ENDBRANCH   3  10
BRANCH   4  12
ATOM     12  O   UNL     1      28.262  36.362  20.321  1.00  0.00    -0.504 OA
ATOM     13  H   UNL     1      27.666  35.602  20.017  1.00  0.00     0.293 HD
ENDBRANCH   4  12
TORSDOF 3
ENDMDL
MODEL 6
REMARK VINA RESULT:    -3.215     14.219     16.786
REMARK INTER + INTRA:          -3.830
REMARK INTER:                  -3.723
REMARK INTRA:                  -0.107
REMARK UNBOUND:                -0.145
REMARK SMILES CC=Cc1ccc(O)c(OC)c1
REMARK SMILES IDX 4 1 12 2 9 3 7 4 6 5 5 6 3 7 1 8 2 9 10 10 11 11 8 12
REMARK H PARENT 8 13
REMARK Flexibility Score: inf
ROOT
ATOM      1  C   UNL     1      27.803  27.769  28.162  1.00  0.00    -0.022 A 
ATOM      2  C   UNL     1      28.633  26.743  28.658  1.00  0.00     0.058 A 
ATOM      3  C   UNL     1      28.080  25.548  29.160  1.00  0.00     0.161 A 
ATOM      4  C   UNL     1      26.684  25.380  29.153  1.00  0.00     0.157 A 
ATOM      5  C   UNL     1      25.861  26.389  28.647  1.00  0.00     0.051 A 
ATOM      6  C   UNL     1      26.414  27.571  28.150  1.00  0.00     0.012 A 
ENDROOT
BRANCH   1   7
ATOM      7  C   UNL     1      28.341  29.038  27.616  1.00  0.00     0.003 C 
ATOM      8  C   UNL     1      29.122  30.562  25.843  1.00  0.00     0.035 C 
ATOM      9  C   UNL     1      28.562  29.257  26.315  1.00  0.00    -0.030 C 
ENDBRANCH   1   7
BRANCH   3  10
ATOM     10  O   UNL     1      28.882  24.511  29.665  1.00  0.00    -0.493 OA
ATOM     11  C   UNL     1      29.125  24.277  31.049  1.00  0.00     0.278 C 
ENDBRANCH   3  10
BRANCH   4  12
ATOM     12  O   UNL     1      26.095  24.214  29.644  1.00  0.00    -0.504 OA
ATOM     13  H   UNL     1      25.788  23.467  29.033  1.00  0.00     0.293 HD
ENDBRANCH   4  12
TORSDOF 3
ENDMDL
MODEL 7
REMARK VINA RESULT:    -3.205      2.380      4.628
REMARK INTER + INTRA:          -3.818
REMARK INTER:                  -3.638
REMARK INTRA:                  -0.179
REMARK UNBOUND:                -0.145
REMARK SMILES CC=Cc1ccc(O)c(OC)c1
REMARK SMILES IDX 4 1 12 2 9 3 7 4 6 5 5 6 3 7 1 8 2 9 10 10 11 11 8 12
REMARK H PARENT 8 13
REMARK Flexibility Score: inf
ROOT
ATOM      1  C   UNL     1      26.380  40.907  20.454  1.00  0.00    -0.022 A 
ATOM      2  C   UNL     1      26.361  41.975  21.373  1.00  0.00     0.058 A 
ATOM      3  C   UNL     1      27.265  43.050  21.248  1.00  0.00     0.161 A 
ATOM      4  C   UNL     1      28.186  43.053  20.185  1.00  0.00     0.157 A 
ATOM      5  C   UNL     1      28.194  42.004  19.263  1.00  0.00     0.051 A 
ATOM      6  C   UNL     1      27.296  40.942  19.392  1.00  0.00     0.012 A 
ENDROOT
BRANCH   1   7
ATOM      7  C   UNL     1      25.442  39.761  20.542  1.00  0.00     0.003 C 
ATOM      8  C   UNL     1      24.750  37.409  20.293  1.00  0.00     0.035 C 
ATOM      9  C   UNL     1      25.758  38.510  20.190  1.00  0.00    -0.030 C 
ENDBRANCH   1   7
BRANCH   3  10
ATOM     10  O   UNL     1      27.273  44.125  22.152  1.00  0.00    -0.493 OA
ATOM     11  C   UNL     1      27.292  43.990  23.570  1.00  0.00     0.278 C 
ENDBRANCH   3  10
BRANCH   4  12
ATOM     12  O   UNL     1      29.100  44.096  20.026  1.00  0.00    -0.504 OA
ATOM     13  H   UNL     1      30.080  43.928  19.835  1.00  0.00     0.293 HD
ENDBRANCH   4  12
TORSDOF 3
ENDMDL
MODEL 8
REMARK VINA RESULT:    -3.112     13.658     16.365
REMARK INTER + INTRA:          -3.711
REMARK INTER:                  -3.555
REMARK INTRA:                  -0.156
REMARK UNBOUND:                -0.145
REMARK SMILES CC=Cc1ccc(O)c(OC)c1
REMARK SMILES IDX 4 1 12 2 9 3 7 4 6 5 5 6 3 7 1 8 2 9 10 10 11 11 8 12
REMARK H PARENT 8 13
REMARK Flexibility Score: inf
ROOT
ATOM      1  C   UNL     1      27.406  27.384  27.523  1.00  0.00    -0.022 A 
ATOM      2  C   UNL     1      27.616  26.266  26.690  1.00  0.00     0.058 A 
ATOM      3  C   UNL     1      26.856  25.091  26.857  1.00  0.00     0.161 A 
ATOM      4  C   UNL     1      25.873  25.044  27.861  1.00  0.00     0.157 A 
ATOM      5  C   UNL     1      25.652  26.158  28.676  1.00  0.00     0.051 A 
ATOM      6  C   UNL     1      26.407  27.319  28.506  1.00  0.00     0.012 A 
ENDROOT
BRANCH   1   7
ATOM      7  C   UNL     1      28.175  28.644  27.377  1.00  0.00     0.003 C 
ATOM      8  C   UNL     1      29.125  30.560  26.152  1.00  0.00     0.035 C 
ATOM      9  C   UNL     1      28.319  29.301  26.221  1.00  0.00    -0.030 C 
ENDBRANCH   1   7
BRANCH   3  10
ATOM     10  O   UNL     1      27.047  23.960  26.046  1.00  0.00    -0.493 OA
ATOM     11  C   UNL     1      26.902  23.945  24.629  1.00  0.00     0.278 C 
ENDBRANCH   3  10
BRANCH   4  12
ATOM     12  O   UNL     1      25.101  23.900  28.063  1.00  0.00    -0.504 OA
ATOM     13  H   UNL     1      25.090  23.406  28.947  1.00  0.00     0.293 HD
ENDBRANCH   4  12
TORSDOF 3
ENDMDL
MODEL 9
REMARK VINA RESULT:    -2.752      2.457      4.660
REMARK INTER + INTRA:          -3.298
REMARK INTER:                  -3.141
REMARK INTRA:                  -0.158
REMARK UNBOUND:                -0.145
REMARK SMILES CC=Cc1ccc(O)c(OC)c1
REMARK SMILES IDX 4 1 12 2 9 3 7 4 6 5 5 6 3 7 1 8 2 9 10 10 11 11 8 12
REMARK H PARENT 8 13
REMARK Flexibility Score: inf
ROOT
ATOM      1  C   UNL     1      28.225  40.477  20.195  1.00  0.00    -0.022 A 
ATOM      2  C   UNL     1      28.128  41.128  21.441  1.00  0.00     0.058 A 
ATOM      3  C   UNL     1      27.431  42.346  21.565  1.00  0.00     0.161 A 
ATOM      4  C   UNL     1      26.819  42.907  20.429  1.00  0.00     0.157 A 
ATOM      5  C   UNL     1      26.900  42.253  19.197  1.00  0.00     0.051 A 
ATOM      6  C   UNL     1      27.592  41.047  19.080  1.00  0.00     0.012 A 
ENDROOT
BRANCH   1   7
ATOM      7  C   UNL     1      28.941  39.189  20.020  1.00  0.00     0.003 C 
ATOM      8  C   UNL     1      29.125  36.766  19.615  1.00  0.00     0.035 C 
ATOM      9  C   UNL     1      28.333  38.026  19.762  1.00  0.00    -0.030 C 
ENDBRANCH   1   7
BRANCH   3  10
ATOM     10  O   UNL     1      27.322  43.021  22.792  1.00  0.00    -0.493 OA
ATOM     11  C   UNL     1      27.946  42.603  24.003  1.00  0.00     0.278 C 
ENDBRANCH   3  10
BRANCH   4  12
ATOM     12  O   UNL     1      26.121  44.113  20.506  1.00  0.00    -0.504 OA
ATOM     13  H   UNL     1      25.232  44.192  20.984  1.00  0.00     0.293 HD
ENDBRANCH   4  12
TORSDOF 3
ENDMDL
