MODEL 1
REMARK VINA RESULT:    -3.735      0.000      0.000
REMARK INTER + INTRA:          -4.444
REMARK INTER:                  -4.391
REMARK INTRA:                  -0.054
REMARK UNBOUND:                -0.054
REMARK SMILES CCCCC(=O)[O-]
REMARK SMILES IDX 4 1 5 2 6 3 7 4 3 5 2 6 1 7
REMARK H PARENT
REMARK Flexibility Score: inf
ROOT
ATOM      1  C   UNL     1      -1.675  37.267  16.812  1.00  0.00     0.053 C 
ENDROOT
BRANCH   1   2
ATOM      2  C   UNL     1      -2.187  37.956  18.040  1.00  0.00     0.041 C 
ATOM      3  O   UNL     1      -1.387  38.539  18.819  1.00  0.00    -0.550 OA
ATOM      4  O   UNL     1      -3.550  37.985  18.304  1.00  0.00    -0.550 OA
ENDBRANCH   1   2
BRANCH   1   5
ATOM      5  C   UNL     1      -2.809  36.624  16.003  1.00  0.00     0.006 C 
BRANCH   5   6
ATOM      6  C   UNL     1      -2.734  36.984  14.512  1.00  0.00    -0.003 C 
ATOM      7  C   UNL     1      -3.812  37.997  14.136  1.00  0.00     0.004 C 
ENDBRANCH   5   6
ENDBRANCH   1   5
TORSDOF 3
ENDMDL
MODEL 2
REMARK VINA RESULT:    -3.444      2.276      2.992
REMARK INTER + INTRA:          -4.102
REMARK INTER:                  -4.022
REMARK INTRA:                  -0.080
REMARK UNBOUND:                -0.054
REMARK SMILES CCCCC(=O)[O-]
REMARK SMILES IDX 4 1 5 2 6 3 7 4 3 5 2 6 1 7
REMARK H PARENT
REMARK Flexibility Score: inf
ROOT
ATOM      1  C   UNL     1      -3.838  37.786  19.042  1.00  0.00     0.053 C 
ENDROOT
BRANCH   1   2
ATOM      2  C   UNL     1      -4.114  36.416  19.581  1.00  0.00     0.041 C 
ATOM      3  O   UNL     1      -3.830  36.136  20.776  1.00  0.00    -0.550 OA
ATOM      4  O   UNL     1      -4.718  35.459  18.775  1.00  0.00    -0.550 OA
ENDBRANCH   1   2
BRANCH   1   5
ATOM      5  C   UNL     1      -2.547  37.823  18.214  1.00  0.00     0.006 C 
BRANCH   5   6
ATOM      6  C   UNL     1      -2.820  37.725  16.706  1.00  0.00    -0.003 C 
ATOM      7  C   UNL     1      -1.935  36.667  16.055  1.00  0.00     0.004 C 
ENDBRANCH   5   6
ENDBRANCH   1   5
TORSDOF 3
ENDMDL
MODEL 3
REMARK VINA RESULT:    -3.407      2.374      3.772
REMARK INTER + INTRA:          -4.058
REMARK INTER:                  -3.989
REMARK INTRA:                  -0.069
REMARK UNBOUND:                -0.054
REMARK SMILES CCCCC(=O)[O-]
REMARK SMILES IDX 4 1 5 2 6 3 7 4 3 5 2 6 1 7
REMARK H PARENT
REMARK Flexibility Score: inf
ROOT
ATOM      1  C   UNL     1      -2.185  37.839  18.013  1.00  0.00     0.053 C 
ENDROOT
BRANCH   1   2
ATOM      2  C   UNL     1      -2.276  37.459  16.567  1.00  0.00     0.041 C 
ATOM      3  O   UNL     1      -1.601  36.493  16.122  1.00  0.00    -0.550 OA
ATOM      4  O   UNL     1      -3.132  38.150  15.719  1.00  0.00    -0.550 OA
ENDBRANCH   1   2
BRANCH   1   5
ATOM      5  C   UNL     1      -3.567  37.893  18.678  1.00  0.00     0.006 C 
BRANCH   5   6
ATOM      6  C   UNL     1      -4.072  36.501  19.082  1.00  0.00    -0.003 C 
ATOM      7  C   UNL     1      -3.899  36.267  20.580  1.00  0.00     0.004 C 
ENDBRANCH   5   6
ENDBRANCH   1   5
TORSDOF 3
ENDMDL
MODEL 4
REMARK VINA RESULT:    -3.377      2.216      3.805
REMARK INTER + INTRA:          -4.023
REMARK INTER:                  -3.984
REMARK INTRA:                  -0.039
REMARK UNBOUND:                -0.054
REMARK SMILES CCCCC(=O)[O-]
REMARK SMILES IDX 4 1 5 2 6 3 7 4 3 5 2 6 1 7
REMARK H PARENT
REMARK Flexibility Score: inf
ROOT
ATOM      1  C   UNL     1      -3.121  36.809  17.327  1.00  0.00     0.053 C 
ENDROOT
BRANCH   1   2
ATOM      2  C   UNL     1      -2.713  37.348  15.990  1.00  0.00     0.041 C 
ATOM      3  O   UNL     1      -3.359  38.293  15.464  1.00  0.00    -0.550 OA
ATOM      4  O   UNL     1      -1.598  36.831  15.342  1.00  0.00    -0.550 OA
ENDBRANCH   1   2
BRANCH   1   5
ATOM      5  C   UNL     1      -3.348  37.930  18.350  1.00  0.00     0.006 C 
BRANCH   5   6
ATOM      6  C   UNL     1      -2.304  37.908  19.476  1.00  0.00    -0.003 C 
ATOM      7  C   UNL     1      -0.922  38.287  18.952  1.00  0.00     0.004 C 
ENDBRANCH   5   6
ENDBRANCH   1   5
TORSDOF 3
ENDMDL
MODEL 5
REMARK VINA RESULT:    -3.375      3.039      3.985
REMARK INTER + INTRA:          -4.021
REMARK INTER:                  -3.965
REMARK INTRA:                  -0.056
REMARK UNBOUND:                -0.054
REMARK SMILES CCCCC(=O)[O-]
REMARK SMILES IDX 4 1 5 2 6 3 7 4 3 5 2 6 1 7
REMARK H PARENT
REMARK Flexibility Score: inf
ROOT
ATOM      1  C   UNL     1      -3.461  37.632  19.883  1.00  0.00     0.053 C 
ENDROOT
BRANCH   1   2
ATOM      2  C   UNL     1      -4.084  36.356  20.358  1.00  0.00     0.041 C 
ATOM      3  O   UNL     1      -5.105  35.897  19.780  1.00  0.00    -0.550 OA
ATOM      4  O   UNL     1      -3.517  35.654  21.414  1.00  0.00    -0.550 OA
ENDBRANCH   1   2
BRANCH   1   5
ATOM      5  C   UNL     1      -3.421  37.714  18.352  1.00  0.00     0.006 C 
BRANCH   5   6
ATOM      6  C   UNL     1      -1.990  37.856  17.814  1.00  0.00    -0.003 C 
ATOM      7  C   UNL     1      -1.026  38.271  18.921  1.00  0.00     0.004 C 
ENDBRANCH   5   6
ENDBRANCH   1   5
TORSDOF 3
ENDMDL
MODEL 6
REMARK VINA RESULT:    -3.267      2.684      4.225
REMARK INTER + INTRA:          -3.894
REMARK INTER:                  -3.874
REMARK INTRA:                  -0.020
REMARK UNBOUND:                -0.054
REMARK SMILES CCCCC(=O)[O-]
REMARK SMILES IDX 4 1 5 2 6 3 7 4 3 5 2 6 1 7
REMARK H PARENT
REMARK Flexibility Score: inf
ROOT
ATOM      1  C   UNL     1      -3.435  37.844  18.399  1.00  0.00     0.053 C 
ENDROOT
BRANCH   1   2
ATOM      2  C   UNL     1      -1.996  37.915  17.990  1.00  0.00     0.041 C 
ATOM      3  O   UNL     1      -1.140  38.413  18.769  1.00  0.00    -0.550 OA
ATOM      4  O   UNL     1      -1.594  37.401  16.764  1.00  0.00    -0.550 OA
ENDBRANCH   1   2
BRANCH   1   5
ATOM      5  C   UNL     1      -3.604  37.205  19.784  1.00  0.00     0.006 C 
BRANCH   5   6
ATOM      6  C   UNL     1      -4.997  37.463  20.377  1.00  0.00    -0.003 C 
ATOM      7  C   UNL     1      -5.387  36.365  21.362  1.00  0.00     0.004 C 
ENDBRANCH   5   6
ENDBRANCH   1   5
TORSDOF 3
ENDMDL
MODEL 7
REMARK VINA RESULT:    -3.262      4.702      6.159
REMARK INTER + INTRA:          -3.888
REMARK INTER:                  -3.847
REMARK INTRA:                  -0.041
REMARK UNBOUND:                -0.054
REMARK SMILES CCCCC(=O)[O-]
REMARK SMILES IDX 4 1 5 2 6 3 7 4 3 5 2 6 1 7
REMARK H PARENT
REMARK Flexibility Score: inf
ROOT
ATOM      1  C   UNL     1      -4.290  36.144  20.935  1.00  0.00     0.053 C 
ENDROOT
BRANCH   1   2
ATOM      2  C   UNL     1      -4.013  37.372  20.122  1.00  0.00     0.041 C 
ATOM      3  O   UNL     1      -2.832  37.658  19.790  1.00  0.00    -0.550 OA
ATOM      4  O   UNL     1      -5.061  38.180  19.702  1.00  0.00    -0.550 OA
ENDBRANCH   1   2
BRANCH   1   5
ATOM      5  C   UNL     1      -5.744  36.100  21.424  1.00  0.00     0.006 C 
BRANCH   5   6
ATOM      6  C   UNL     1      -5.849  36.253  22.948  1.00  0.00    -0.003 C 
ATOM      7  C   UNL     1      -6.070  34.903  23.623  1.00  0.00     0.004 C 
ENDBRANCH   5   6
ENDBRANCH   1   5
TORSDOF 3
ENDMDL
MODEL 8
REMARK VINA RESULT:    -3.126      5.716      6.661
REMARK INTER + INTRA:          -3.728
REMARK INTER:                  -3.709
REMARK INTRA:                  -0.020
REMARK UNBOUND:                -0.054
REMARK SMILES CCCCC(=O)[O-]
REMARK SMILES IDX 4 1 5 2 6 3 7 4 3 5 2 6 1 7
REMARK H PARENT
REMARK Flexibility Score: inf
ROOT
ATOM      1  C   UNL     1      -5.727  36.406  22.453  1.00  0.00     0.053 C 
ENDROOT
BRANCH   1   2
ATOM      2  C   UNL     1      -5.642  35.737  23.791  1.00  0.00     0.041 C 
ATOM      3  O   UNL     1      -5.216  36.372  24.791  1.00  0.00    -0.550 OA
ATOM      4  O   UNL     1      -6.068  34.423  23.939  1.00  0.00    -0.550 OA
ENDBRANCH   1   2
BRANCH   1   5
ATOM      5  C   UNL     1      -4.555  36.014  21.543  1.00  0.00     0.006 C 
BRANCH   5   6
ATOM      6  C   UNL     1      -4.751  36.502  20.101  1.00  0.00    -0.003 C 
ATOM      7  C   UNL     1      -4.922  38.018  20.052  1.00  0.00     0.004 C 
ENDBRANCH   5   6
ENDBRANCH   1   5
TORSDOF 3
ENDMDL
