MODEL 1
REMARK VINA RESULT:    -3.221      0.000      0.000
REMARK INTER + INTRA:          -5.150
REMARK INTER:                  -4.916
REMARK INTRA:                  -0.234
REMARK UNBOUND:                -0.234
REMARK SMILES CC1=CCC[C@@H](C)C(=O)C[C@H](C(C)C)C(=O)C1
REMARK SMILES IDX 8 1 9 2 6 3 7 4 5 5 4 6 3 7 2 8 1 9 10 11 11 12 15 13 16 14
REMARK SMILES IDX 17 15 12 17 13 18 14 19
REMARK H PARENT
REMARK Flexibility Score: 70.00
ROOT
ATOM      1  C   UNL     1      69.335  68.040  28.294  1.00  0.00     0.136 C 
ATOM      2  O   UNL     1      68.626  68.565  27.445  1.00  0.00    -0.299 OA
ENDROOT
BRANCH   1   3
ATOM      3  C   UNL     1      69.297  66.537  28.478  1.00  0.00     0.053 C 
ATOM      4  C   UNL     1      69.703  65.825  27.179  1.00  0.00     0.016 C 
BRANCH   3   5
ATOM      5  C   UNL     1      67.891  66.089  28.937  1.00  0.00     0.015 C 
BRANCH   5   6
ATOM      6  C   UNL     1      67.479  66.742  30.272  1.00  0.00     0.028 C 
BRANCH   6   7
ATOM      7  C   UNL     1      68.340  66.255  31.410  1.00  0.00    -0.028 C 
ATOM      8  C   UNL     1      68.869  67.039  32.376  1.00  0.00    -0.070 CG0
ATOM      9  C   UNL     1      69.657  66.371  33.474  1.00  0.00     0.039 C 
ATOM     10  G   UNL     1      68.699  68.550  32.413  1.00  0.00     0.000 G0
ENDBRANCH   6   7
ENDBRANCH   5   6
ENDBRANCH   3   5
ENDBRANCH   1   3
BRANCH   1  11
ATOM     11  C   UNL     1      70.235  68.910  29.140  1.00  0.00     0.087 C 
BRANCH  11  12
ATOM     12  C   UNL     1      69.445  69.747  30.179  1.00  0.00     0.066 C 
BRANCH  12  13
ATOM     13  C   UNL     1      69.744  69.277  31.598  1.00  0.00     0.140 C 
ATOM     14  O   UNL     1      70.872  69.439  32.045  1.00  0.00    -0.299 OA
BRANCH  13  15
ATOM     15  C   UNL     1      68.714  68.556  32.439  1.00  0.00     0.106 CG0
ATOM     16  G   UNL     1      68.867  67.045  32.368  1.00  0.00     0.000 G0
ENDBRANCH  13  15
ENDBRANCH  12  13
BRANCH  12  17
ATOM     17  C   UNL     1      69.674  71.286  30.026  1.00  0.00    -0.006 C 
ATOM     18  C   UNL     1      69.864  71.707  28.557  1.00  0.00     0.008 C 
ATOM     19  C   UNL     1      68.495  72.082  30.618  1.00  0.00     0.008 C 
ENDBRANCH  12  17
ENDBRANCH  11  12
ENDBRANCH   1  11
TORSDOF 1
ENDMDL
MODEL 2
REMARK VINA RESULT:    -3.216      9.833     11.292
REMARK INTER + INTRA:          -5.142
REMARK INTER:                  -4.949
REMARK INTRA:                  -0.192
REMARK UNBOUND:                -0.234
REMARK SMILES CC1=CCC[C@@H](C)C(=O)C[C@H](C(C)C)C(=O)C1
REMARK SMILES IDX 8 1 9 2 6 3 7 4 5 5 4 6 3 7 2 8 1 9 10 11 11 12 15 13 16 14
REMARK SMILES IDX 17 15 12 17 13 18 14 19
REMARK H PARENT
REMARK Flexibility Score: 70.00
ROOT
ATOM      1  C   UNL     1      66.847  67.758  41.364  1.00  0.00     0.136 C 
ATOM      2  O   UNL     1      66.390  67.467  42.462  1.00  0.00    -0.299 OA
ENDROOT
BRANCH   1   3
ATOM      3  C   UNL     1      66.167  67.250  40.109  1.00  0.00     0.053 C 
ATOM      4  C   UNL     1      64.656  67.521  40.168  1.00  0.00     0.016 C 
BRANCH   3   5
ATOM      5  C   UNL     1      66.451  65.743  39.920  1.00  0.00     0.015 C 
BRANCH   5   6
ATOM      6  C   UNL     1      67.597  65.488  38.920  1.00  0.00     0.028 C 
BRANCH   6   7
ATOM      7  C   UNL     1      68.755  64.785  39.578  1.00  0.00    -0.028 C 
ATOM      8  C   UNL     1      69.870  65.391  40.047  1.00  0.00    -0.070 CG0
ATOM      9  C   UNL     1      70.904  64.534  40.734  1.00  0.00     0.039 C 
ATOM     10  G   UNL     1      70.123  66.885  39.924  1.00  0.00     0.000 G0
ENDBRANCH   6   7
ENDBRANCH   5   6
ENDBRANCH   3   5
ENDBRANCH   1   3
BRANCH   1  11
ATOM     11  C   UNL     1      68.085  68.623  41.288  1.00  0.00     0.087 C 
BRANCH  11  12
ATOM     12  C   UNL     1      69.251  68.065  42.145  1.00  0.00     0.066 C 
BRANCH  12  13
ATOM     13  C   UNL     1      70.379  67.550  41.258  1.00  0.00     0.140 C 
ATOM     14  O   UNL     1      71.536  67.727  41.616  1.00  0.00    -0.299 OA
BRANCH  13  15
ATOM     15  C   UNL     1      70.113  66.895  39.921  1.00  0.00     0.106 CG0
ATOM     16  G   UNL     1      69.884  65.397  40.049  1.00  0.00     0.000 G0
ENDBRANCH  13  15
ENDBRANCH  12  13
BRANCH  12  17
ATOM     17  C   UNL     1      69.777  69.089  43.203  1.00  0.00    -0.006 C 
ATOM     18  C   UNL     1      68.912  70.362  43.268  1.00  0.00     0.008 C 
ATOM     19  C   UNL     1      69.827  68.456  44.606  1.00  0.00     0.008 C 
ENDBRANCH  12  17
ENDBRANCH  11  12
ENDBRANCH   1  11
TORSDOF 1
ENDMDL
MODEL 3
REMARK VINA RESULT:    -3.001      7.806     10.596
REMARK INTER + INTRA:          -4.813
REMARK INTER:                  -4.612
REMARK INTRA:                  -0.202
REMARK UNBOUND:                -0.234
REMARK SMILES CC1=CCC[C@@H](C)C(=O)C[C@H](C(C)C)C(=O)C1
REMARK SMILES IDX 8 1 9 2 6 3 7 4 5 5 4 6 3 7 2 8 1 9 10 11 11 12 15 13 16 14
REMARK SMILES IDX 17 15 12 17 13 18 14 19
REMARK H PARENT
REMARK Flexibility Score: 70.00
ROOT
ATOM      1  C   UNL     1      66.987  66.828  39.226  1.00  0.00     0.136 C 
ATOM      2  O   UNL     1      67.360  67.805  38.591  1.00  0.00    -0.299 OA
ENDROOT
BRANCH   1   3
ATOM      3  C   UNL     1      65.979  66.999  40.345  1.00  0.00     0.053 C 
ATOM      4  C   UNL     1      64.669  67.592  39.803  1.00  0.00     0.016 C 
BRANCH   3   5
ATOM      5  C   UNL     1      66.568  67.889  41.463  1.00  0.00     0.015 C 
BRANCH   5   6
ATOM      6  C   UNL     1      67.352  67.068  42.507  1.00  0.00     0.028 C 
BRANCH   6   7
ATOM      7  C   UNL     1      68.835  67.313  42.397  1.00  0.00    -0.028 C 
ATOM      8  C   UNL     1      69.725  66.460  41.841  1.00  0.00    -0.070 CG0
ATOM      9  C   UNL     1      71.167  66.897  41.762  1.00  0.00     0.039 C 
ATOM     10  G   UNL     1      69.344  65.097  41.285  1.00  0.00     0.000 G0
ENDBRANCH   6   7
ENDBRANCH   5   6
ENDBRANCH   3   5
ENDBRANCH   1   3
BRANCH   1  11
ATOM     11  C   UNL     1      67.543  65.467  38.876  1.00  0.00     0.087 C 
BRANCH  11  12
ATOM     12  C   UNL     1      69.080  65.488  38.672  1.00  0.00     0.066 C 
BRANCH  12  13
ATOM     13  C   UNL     1      69.795  64.870  39.868  1.00  0.00     0.140 C 
ATOM     14  O   UNL     1      70.743  64.124  39.664  1.00  0.00    -0.299 OA
BRANCH  13  15
ATOM     15  C   UNL     1      69.325  65.094  41.288  1.00  0.00     0.106 CG0
ATOM     16  G   UNL     1      69.743  66.453  41.826  1.00  0.00     0.000 G0
ENDBRANCH  13  15
ENDBRANCH  12  13
BRANCH  12  17
ATOM     17  C   UNL     1      69.529  64.825  37.330  1.00  0.00    -0.006 C 
ATOM     18  C   UNL     1      68.361  64.145  36.592  1.00  0.00     0.008 C 
ATOM     19  C   UNL     1      70.171  65.861  36.389  1.00  0.00     0.008 C 
ENDBRANCH  12  17
ENDBRANCH  11  12
ENDBRANCH   1  11
TORSDOF 1
ENDMDL
MODEL 4
REMARK VINA RESULT:    -2.856      7.934     10.639
REMARK INTER + INTRA:          -4.593
REMARK INTER:                  -4.498
REMARK INTRA:                  -0.096
REMARK UNBOUND:                -0.234
REMARK SMILES CC1=CCC[C@@H](C)C(=O)C[C@H](C(C)C)C(=O)C1
REMARK SMILES IDX 8 1 9 2 6 3 7 4 5 5 4 6 3 7 2 8 1 9 10 11 11 12 15 13 16 14
REMARK SMILES IDX 17 15 12 17 13 18 14 19
REMARK H PARENT
REMARK Flexibility Score: 70.00
ROOT
ATOM      1  C   UNL     1      66.599  65.411  39.894  1.00  0.00     0.136 C 
ATOM      2  O   UNL     1      66.002  64.578  39.225  1.00  0.00    -0.299 OA
ENDROOT
BRANCH   1   3
ATOM      3  C   UNL     1      65.819  66.486  40.623  1.00  0.00     0.053 C 
ATOM      4  C   UNL     1      65.394  67.597  39.650  1.00  0.00     0.016 C 
BRANCH   3   5
ATOM      5  C   UNL     1      66.659  67.061  41.785  1.00  0.00     0.015 C 
BRANCH   5   6
ATOM      6  C   UNL     1      67.013  68.547  41.568  1.00  0.00     0.028 C 
BRANCH   6   7
ATOM      7  C   UNL     1      68.293  68.915  42.273  1.00  0.00    -0.028 C 
ATOM      8  C   UNL     1      69.510  68.987  41.688  1.00  0.00    -0.070 CG0
ATOM      9  C   UNL     1      70.675  69.433  42.536  1.00  0.00     0.039 C 
ATOM     10  G   UNL     1      69.757  68.652  40.226  1.00  0.00     0.000 G0
ENDBRANCH   6   7
ENDBRANCH   5   6
ENDBRANCH   3   5
ENDBRANCH   1   3
BRANCH   1  11
ATOM     11  C   UNL     1      68.106  65.345  39.977  1.00  0.00     0.087 C 
BRANCH  11  12
ATOM     12  C   UNL     1      68.795  66.442  39.124  1.00  0.00     0.066 C 
BRANCH  12  13
ATOM     13  C   UNL     1      69.851  67.181  39.938  1.00  0.00     0.140 C 
ATOM     14  O   UNL     1      70.772  66.540  40.426  1.00  0.00    -0.299 OA
BRANCH  13  15
ATOM     15  C   UNL     1      69.756  68.664  40.218  1.00  0.00     0.106 CG0
ATOM     16  G   UNL     1      69.516  68.958  41.690  1.00  0.00     0.000 G0
ENDBRANCH  13  15
ENDBRANCH  12  13
BRANCH  12  17
ATOM     17  C   UNL     1      69.385  65.893  37.784  1.00  0.00    -0.006 C 
ATOM     18  C   UNL     1      69.837  64.426  37.899  1.00  0.00     0.008 C 
ATOM     19  C   UNL     1      68.359  66.005  36.641  1.00  0.00     0.008 C 
ENDBRANCH  12  17
ENDBRANCH  11  12
ENDBRANCH   1  11
TORSDOF 1
ENDMDL
MODEL 5
REMARK VINA RESULT:    -2.840      8.370     11.284
REMARK INTER + INTRA:          -4.568
REMARK INTER:                  -4.588
REMARK INTRA:                   0.020
REMARK UNBOUND:                -0.234
REMARK SMILES CC1=CCC[C@@H](C)C(=O)C[C@H](C(C)C)C(=O)C1
REMARK SMILES IDX 8 1 9 2 6 3 7 4 5 5 4 6 3 7 2 8 1 9 10 11 11 12 15 13 16 14
REMARK SMILES IDX 17 15 12 17 13 18 14 19
REMARK H PARENT
REMARK Flexibility Score: 70.00
ROOT
ATOM      1  C   UNL     1      67.844  66.710  42.460  1.00  0.00     0.136 C 
ATOM      2  O   UNL     1      67.000  67.430  42.977  1.00  0.00    -0.299 OA
ENDROOT
BRANCH   1   3
ATOM      3  C   UNL     1      69.133  66.415  43.200  1.00  0.00     0.053 C 
ATOM      4  C   UNL     1      69.399  67.486  44.268  1.00  0.00     0.016 C 
BRANCH   3   5
ATOM      5  C   UNL     1      70.312  66.322  42.205  1.00  0.00     0.015 C 
BRANCH   5   6
ATOM      6  C   UNL     1      70.809  67.712  41.761  1.00  0.00     0.028 C 
BRANCH   6   7
ATOM      7  C   UNL     1      71.233  67.708  40.315  1.00  0.00    -0.028 C 
ATOM      8  C   UNL     1      70.479  68.144  39.281  1.00  0.00    -0.070 CG0
ATOM      9  C   UNL     1      71.090  68.122  37.902  1.00  0.00     0.039 C 
ATOM     10  G   UNL     1      69.058  68.662  39.442  1.00  0.00     0.000 G0
ENDBRANCH   6   7
ENDBRANCH   5   6
ENDBRANCH   3   5
ENDBRANCH   1   3
BRANCH   1  11
ATOM     11  C   UNL     1      67.577  66.130  41.090  1.00  0.00     0.087 C 
BRANCH  11  12
ATOM     12  C   UNL     1      66.957  67.167  40.118  1.00  0.00     0.066 C 
BRANCH  12  13
ATOM     13  C   UNL     1      67.986  67.640  39.098  1.00  0.00     0.140 C 
ATOM     14  O   UNL     1      67.996  67.123  37.989  1.00  0.00    -0.299 OA
BRANCH  13  15
ATOM     15  C   UNL     1      69.036  68.674  39.438  1.00  0.00     0.106 CG0
ATOM     16  G   UNL     1      70.449  68.135  39.277  1.00  0.00     0.000 G0
ENDBRANCH  13  15
ENDBRANCH  12  13
BRANCH  12  17
ATOM     17  C   UNL     1      65.656  66.650  39.422  1.00  0.00    -0.006 C 
ATOM     18  C   UNL     1      65.640  65.117  39.272  1.00  0.00     0.008 C 
ATOM     19  C   UNL     1      64.401  67.082  40.204  1.00  0.00     0.008 C 
ENDBRANCH  12  17
ENDBRANCH  11  12
ENDBRANCH   1  11
TORSDOF 1
ENDMDL
MODEL 6
REMARK VINA RESULT:    -2.751      9.233     11.282
REMARK INTER + INTRA:          -4.432
REMARK INTER:                  -4.269
REMARK INTRA:                  -0.163
REMARK UNBOUND:                -0.234
REMARK SMILES CC1=CCC[C@@H](C)C(=O)C[C@H](C(C)C)C(=O)C1
REMARK SMILES IDX 8 1 9 2 6 3 7 4 5 5 4 6 3 7 2 8 1 9 10 11 11 12 15 13 16 14
REMARK SMILES IDX 17 15 12 17 13 18 14 19
REMARK H PARENT
REMARK Flexibility Score: 70.00
ROOT
ATOM      1  C   UNL     1      69.371  69.437  41.513  1.00  0.00     0.136 C 
ATOM      2  O   UNL     1      70.420  69.938  41.898  1.00  0.00    -0.299 OA
ENDROOT
BRANCH   1   3
ATOM      3  C   UNL     1      68.237  69.225  42.495  1.00  0.00     0.053 C 
ATOM      4  C   UNL     1      68.060  70.461  43.389  1.00  0.00     0.016 C 
BRANCH   3   5
ATOM      5  C   UNL     1      68.495  67.960  43.345  1.00  0.00     0.015 C 
BRANCH   5   6
ATOM      6  C   UNL     1      67.681  66.748  42.847  1.00  0.00     0.028 C 
BRANCH   6   7
ATOM      7  C   UNL     1      66.449  67.185  42.097  1.00  0.00    -0.028 C 
ATOM      8  C   UNL     1      66.173  66.879  40.809  1.00  0.00    -0.070 CG0
ATOM      9  C   UNL     1      64.859  67.352  40.238  1.00  0.00     0.039 C 
ATOM     10  G   UNL     1      67.111  66.079  39.919  1.00  0.00     0.000 G0
ENDBRANCH   6   7
ENDBRANCH   5   6
ENDBRANCH   3   5
ENDBRANCH   1   3
BRANCH   1  11
ATOM     11  C   UNL     1      69.234  69.043  40.061  1.00  0.00     0.087 C 
BRANCH  11  12
ATOM     12  C   UNL     1      69.352  67.511  39.849  1.00  0.00     0.066 C 
BRANCH  12  13
ATOM     13  C   UNL     1      68.104  66.958  39.169  1.00  0.00     0.140 C 
ATOM     14  O   UNL     1      67.870  67.286  38.014  1.00  0.00    -0.299 OA
BRANCH  13  15
ATOM     15  C   UNL     1      67.115  66.079  39.901  1.00  0.00     0.106 CG0
ATOM     16  G   UNL     1      66.192  66.879  40.806  1.00  0.00     0.000 G0
ENDBRANCH  13  15
ENDBRANCH  12  13
BRANCH  12  17
ATOM     17  C   UNL     1      70.651  67.098  39.084  1.00  0.00    -0.006 C 
ATOM     18  C   UNL     1      71.766  68.153  39.209  1.00  0.00     0.008 C 
ATOM     19  C   UNL     1      71.190  65.750  39.597  1.00  0.00     0.008 C 
ENDBRANCH  12  17
ENDBRANCH  11  12
ENDBRANCH   1  11
TORSDOF 1
ENDMDL
MODEL 7
REMARK VINA RESULT:    -2.716      8.327     10.204
REMARK INTER + INTRA:          -4.379
REMARK INTER:                  -4.147
REMARK INTRA:                  -0.232
REMARK UNBOUND:                -0.234
REMARK SMILES CC1=CCC[C@@H](C)C(=O)C[C@H](C(C)C)C(=O)C1
REMARK SMILES IDX 8 1 9 2 6 3 7 4 5 5 4 6 3 7 2 8 1 9 10 11 11 12 15 13 16 14
REMARK SMILES IDX 17 15 12 17 13 18 14 19
REMARK H PARENT
REMARK Flexibility Score: 70.00
ROOT
ATOM      1  C   UNL     1      67.985  65.752  38.513  1.00  0.00     0.136 C 
ATOM      2  O   UNL     1      67.625  65.988  37.368  1.00  0.00    -0.299 OA
ENDROOT
BRANCH   1   3
ATOM      3  C   UNL     1      66.956  65.379  39.561  1.00  0.00     0.053 C 
ATOM      4  C   UNL     1      66.254  64.066  39.184  1.00  0.00     0.016 C 
BRANCH   3   5
ATOM      5  C   UNL     1      65.932  66.523  39.737  1.00  0.00     0.015 C 
BRANCH   5   6
ATOM      6  C   UNL     1      66.463  67.643  40.654  1.00  0.00     0.028 C 
BRANCH   6   7
ATOM      7  C   UNL     1      66.966  67.091  41.962  1.00  0.00    -0.028 C 
ATOM      8  C   UNL     1      68.198  67.304  42.475  1.00  0.00    -0.070 CG0
ATOM      9  C   UNL     1      68.510  66.721  43.830  1.00  0.00     0.039 C 
ATOM     10  G   UNL     1      69.274  68.108  41.761  1.00  0.00     0.000 G0
ENDBRANCH   6   7
ENDBRANCH   5   6
ENDBRANCH   3   5
ENDBRANCH   1   3
BRANCH   1  11
ATOM     11  C   UNL     1      69.455  65.838  38.855  1.00  0.00     0.087 C 
BRANCH  11  12
ATOM     12  C   UNL     1      69.871  67.255  39.328  1.00  0.00     0.066 C 
BRANCH  12  13
ATOM     13  C   UNL     1      70.118  67.275  40.832  1.00  0.00     0.140 C 
ATOM     14  O   UNL     1      70.988  66.551  41.295  1.00  0.00    -0.299 OA
BRANCH  13  15
ATOM     15  C   UNL     1      69.275  68.108  41.773  1.00  0.00     0.106 CG0
ATOM     16  G   UNL     1      68.211  67.281  42.478  1.00  0.00     0.000 G0
ENDBRANCH  13  15
ENDBRANCH  12  13
BRANCH  12  17
ATOM     17  C   UNL     1      71.093  67.828  38.540  1.00  0.00    -0.006 C 
ATOM     18  C   UNL     1      71.746  66.777  37.623  1.00  0.00     0.008 C 
ATOM     19  C   UNL     1      70.679  69.040  37.684  1.00  0.00     0.008 C 
ENDBRANCH  12  17
ENDBRANCH  11  12
ENDBRANCH   1  11
TORSDOF 1
ENDMDL
MODEL 8
REMARK VINA RESULT:    -2.641      1.915      4.372
REMARK INTER + INTRA:          -4.265
REMARK INTER:                  -4.321
REMARK INTRA:                   0.056
REMARK UNBOUND:                -0.234
REMARK SMILES CC1=CCC[C@@H](C)C(=O)C[C@H](C(C)C)C(=O)C1
REMARK SMILES IDX 8 1 9 2 6 3 7 4 5 5 4 6 3 7 2 8 1 9 10 11 11 12 15 13 16 14
REMARK SMILES IDX 17 15 12 17 13 18 14 19
REMARK H PARENT
REMARK Flexibility Score: 70.00
ROOT
ATOM      1  C   UNL     1      68.110  66.632  31.206  1.00  0.00     0.136 C 
ATOM      2  O   UNL     1      66.946  66.461  30.870  1.00  0.00    -0.299 OA
ENDROOT
BRANCH   1   3
ATOM      3  C   UNL     1      68.487  66.561  32.672  1.00  0.00     0.053 C 
ATOM      4  C   UNL     1      67.360  65.909  33.487  1.00  0.00     0.016 C 
BRANCH   3   5
ATOM      5  C   UNL     1      68.811  67.974  33.209  1.00  0.00     0.015 C 
BRANCH   5   6
ATOM      6  C   UNL     1      70.276  68.375  32.941  1.00  0.00     0.028 C 
BRANCH   6   7
ATOM      7  C   UNL     1      70.382  69.821  32.528  1.00  0.00    -0.028 C 
ATOM      8  C   UNL     1      70.564  70.256  31.261  1.00  0.00    -0.070 CG0
ATOM      9  C   UNL     1      70.587  71.745  31.022  1.00  0.00     0.039 C 
ATOM     10  G   UNL     1      70.735  69.323  30.072  1.00  0.00     0.000 G0
ENDBRANCH   6   7
ENDBRANCH   5   6
ENDBRANCH   3   5
ENDBRANCH   1   3
BRANCH   1  11
ATOM     11  C   UNL     1      69.149  66.910  30.143  1.00  0.00     0.087 C 
BRANCH  11  12
ATOM     12  C   UNL     1      68.668  67.955  29.103  1.00  0.00     0.066 C 
BRANCH  12  13
ATOM     13  C   UNL     1      69.491  69.235  29.198  1.00  0.00     0.140 C 
ATOM     14  O   UNL     1      69.168  70.194  28.510  1.00  0.00    -0.299 OA
BRANCH  13  15
ATOM     15  C   UNL     1      70.732  69.329  30.058  1.00  0.00     0.106 CG0
ATOM     16  G   UNL     1      70.541  70.262  31.243  1.00  0.00     0.000 G0
ENDBRANCH  13  15
ENDBRANCH  12  13
BRANCH  12  17
ATOM     17  C   UNL     1      68.642  67.397  27.643  1.00  0.00    -0.006 C 
ATOM     18  C   UNL     1      69.936  66.647  27.279  1.00  0.00     0.008 C 
ATOM     19  C   UNL     1      67.447  66.448  27.435  1.00  0.00     0.008 C 
ENDBRANCH  12  17
ENDBRANCH  11  12
ENDBRANCH   1  11
TORSDOF 1
ENDMDL
MODEL 9
REMARK VINA RESULT:    -2.588     14.338     15.645
REMARK INTER + INTRA:          -4.184
REMARK INTER:                  -3.946
REMARK INTRA:                  -0.238
REMARK UNBOUND:                -0.234
REMARK SMILES CC1=CCC[C@@H](C)C(=O)C[C@H](C(C)C)C(=O)C1
REMARK SMILES IDX 8 1 9 2 6 3 7 4 5 5 4 6 3 7 2 8 1 9 10 11 11 12 15 13 16 14
REMARK SMILES IDX 17 15 12 17 13 18 14 19
REMARK H PARENT
REMARK Flexibility Score: 70.00
ROOT
ATOM      1  C   UNL     1      67.231  73.341  44.533  1.00  0.00     0.136 C 
ATOM      2  O   UNL     1      66.873  72.180  44.386  1.00  0.00    -0.299 OA
ENDROOT
BRANCH   1   3
ATOM      3  C   UNL     1      66.507  74.449  43.795  1.00  0.00     0.053 C 
ATOM      4  C   UNL     1      65.106  73.986  43.368  1.00  0.00     0.016 C 
BRANCH   3   5
ATOM      5  C   UNL     1      67.335  74.906  42.572  1.00  0.00     0.015 C 
BRANCH   5   6
ATOM      6  C   UNL     1      67.977  76.291  42.789  1.00  0.00     0.028 C 
BRANCH   6   7
ATOM      7  C   UNL     1      69.406  76.316  42.311  1.00  0.00    -0.028 C 
ATOM      8  C   UNL     1      70.491  76.112  43.092  1.00  0.00    -0.070 CG0
ATOM      9  C   UNL     1      71.846  76.113  42.431  1.00  0.00     0.039 C 
ATOM     10  G   UNL     1      70.410  75.874  44.591  1.00  0.00     0.000 G0
ENDBRANCH   6   7
ENDBRANCH   5   6
ENDBRANCH   3   5
ENDBRANCH   1   3
BRANCH   1  11
ATOM     11  C   UNL     1      68.391  73.642  45.454  1.00  0.00     0.087 C 
BRANCH  11  12
ATOM     12  C   UNL     1      69.761  73.298  44.812  1.00  0.00     0.066 C 
BRANCH  12  13
ATOM     13  C   UNL     1      70.747  74.447  44.989  1.00  0.00     0.140 C 
ATOM     14  O   UNL     1      71.830  74.218  45.511  1.00  0.00    -0.299 OA
BRANCH  13  15
ATOM     15  C   UNL     1      70.401  75.869  44.603  1.00  0.00     0.106 CG0
ATOM     16  G   UNL     1      70.488  76.096  43.102  1.00  0.00     0.000 G0
ENDBRANCH  13  15
ENDBRANCH  12  13
BRANCH  12  17
ATOM     17  C   UNL     1      70.357  71.948  45.329  1.00  0.00    -0.006 C 
ATOM     18  C   UNL     1      69.479  71.297  46.413  1.00  0.00     0.008 C 
ATOM     19  C   UNL     1      70.537  70.946  44.173  1.00  0.00     0.008 C 
ENDBRANCH  12  17
ENDBRANCH  11  12
ENDBRANCH   1  11
TORSDOF 1
ENDMDL
