MODEL 1
REMARK VINA RESULT:    -7.961      0.000      0.000
REMARK INTER + INTRA:         -11.376
REMARK INTER:                 -10.753
REMARK INTRA:                  -0.624
REMARK UNBOUND:                -0.624
REMARK SMILES O=c1c(-c2ccc(O)cc2)coc2c([C@H]3O[C@@H](CO)[C@@H](O)[C@H](O)[C@H]3O)c(O)ccc12
REMARK SMILES IDX 3 1 11 2 12 3 13 4 30 5 2 6 1 7 29 8 28 9 26 10 14 11 4 12
REMARK SMILES IDX 5 13 6 14 7 15 10 16 9 17 8 18 15 20 24 21 16 22 22 23 17 24
REMARK SMILES IDX 20 25 25 26 23 28 18 30 19 31 21 33 27 35
REMARK H PARENT 8 19 25 27 23 29 19 32 21 34 27 36
REMARK Flexibility Score: inf
ROOT
ATOM      1  C   UNL     1      -2.437  -2.248  -2.716  1.00  0.00     0.065 A 
ATOM      2  C   UNL     1      -1.915  -0.989  -2.387  1.00  0.00     0.208 A 
ATOM      3  O   UNL     1      -0.940  -0.446  -3.104  1.00  0.00    -0.463 OA
ATOM      4  C   UNL     1      -0.396  -1.039  -4.164  1.00  0.00     0.147 A 
ATOM      5  C   UNL     1      -0.854  -2.318  -4.559  1.00  0.00     0.066 A 
ATOM      6  C   UNL     1      -1.885  -2.924  -3.819  1.00  0.00     0.200 A 
ATOM      7  O   UNL     1      -2.299  -4.077  -4.129  1.00  0.00    -0.288 OA
ATOM      8  C   UNL     1      -0.263  -2.955  -5.661  1.00  0.00     0.020 A 
ATOM      9  C   UNL     1       0.775  -2.338  -6.356  1.00  0.00     0.047 A 
ATOM     10  C   UNL     1       1.237  -1.074  -5.973  1.00  0.00     0.125 A 
ATOM     11  C   UNL     1       0.641  -0.397  -4.885  1.00  0.00     0.069 A 
ENDROOT
BRANCH   1  12
ATOM     12  C   UNL     1      -3.533  -2.831  -1.904  1.00  0.00    -0.011 A 
ATOM     13  C   UNL     1      -3.253  -3.798  -0.922  1.00  0.00     0.013 A 
ATOM     14  C   UNL     1      -4.283  -4.342  -0.150  1.00  0.00     0.047 A 
ATOM     15  C   UNL     1      -5.603  -3.925  -0.342  1.00  0.00     0.115 A 
ATOM     16  C   UNL     1      -4.864  -2.411  -2.088  1.00  0.00     0.013 A 
ATOM     17  C   UNL     1      -5.891  -2.957  -1.312  1.00  0.00     0.047 A 
BRANCH  15  18
ATOM     18  O   UNL     1      -6.620  -4.476   0.435  1.00  0.00    -0.508 OA
ATOM     19  H   UNL     1      -7.213  -5.218   0.082  1.00  0.00     0.293 HD
ENDBRANCH  15  18
ENDBRANCH   1  12
BRANCH  11  20
ATOM     20  C   UNL     1       1.171   0.969  -4.466  1.00  0.00     0.188 C 
ATOM     21  C   UNL     1       2.376   0.819  -3.503  1.00  0.00     0.179 C 
ATOM     22  O   UNL     1       0.136   1.738  -3.871  1.00  0.00    -0.362 OA
ATOM     23  C   UNL     1       2.881   2.207  -3.070  1.00  0.00     0.177 C 
ATOM     24  C   UNL     1       0.572   3.068  -3.634  1.00  0.00     0.176 C 
ATOM     25  C   UNL     1       1.708   3.088  -2.586  1.00  0.00     0.177 C 
BRANCH  21  26
ATOM     26  O   UNL     1       2.011   0.085  -2.361  1.00  0.00    -0.387 OA
ATOM     27  H   UNL     1       2.299   0.611  -1.569  1.00  0.00     0.211 HD
ENDBRANCH  21  26
BRANCH  23  28
ATOM     28  O   UNL     1       3.531   2.823  -4.153  1.00  0.00    -0.387 OA
ATOM     29  H   UNL     1       3.216   2.365  -4.976  1.00  0.00     0.211 HD
ENDBRANCH  23  28
BRANCH  24  30
ATOM     30  C   UNL     1      -0.624   3.906  -3.170  1.00  0.00     0.191 C 
BRANCH  30  31
ATOM     31  O   UNL     1      -1.360   3.190  -2.218  1.00  0.00    -0.394 OA
ATOM     32  H   UNL     1      -0.736   3.008  -1.467  1.00  0.00     0.210 HD
ENDBRANCH  30  31
ENDBRANCH  24  30
BRANCH  25  33
ATOM     33  O   UNL     1       1.227   2.616  -1.352  1.00  0.00    -0.388 OA
ATOM     34  H   UNL     1       1.413   3.325  -0.682  1.00  0.00     0.211 HD
ENDBRANCH  25  33
ENDBRANCH  11  20
BRANCH  10  35
ATOM     35  O   UNL     1       2.295  -0.492  -6.671  1.00  0.00    -0.507 OA
ATOM     36  H   UNL     1       3.172  -0.978  -6.814  1.00  0.00     0.293 HD
ENDBRANCH  10  35
TORSDOF 9
ENDMDL
MODEL 2
REMARK VINA RESULT:    -7.948      1.861      2.607
REMARK INTER + INTRA:         -11.359
REMARK INTER:                 -10.662
REMARK INTRA:                  -0.697
REMARK UNBOUND:                -0.624
REMARK SMILES O=c1c(-c2ccc(O)cc2)coc2c([C@H]3O[C@@H](CO)[C@@H](O)[C@H](O)[C@H]3O)c(O)ccc12
REMARK SMILES IDX 3 1 11 2 12 3 13 4 30 5 2 6 1 7 29 8 28 9 26 10 14 11 4 12
REMARK SMILES IDX 5 13 6 14 7 15 10 16 9 17 8 18 15 20 24 21 16 22 22 23 17 24
REMARK SMILES IDX 20 25 25 26 23 28 18 30 19 31 21 33 27 35
REMARK H PARENT 8 19 25 27 23 29 19 32 21 34 27 36
REMARK Flexibility Score: inf
ROOT
ATOM      1  C   UNL     1      -4.287  -2.513  -1.315  1.00  0.00     0.065 A 
ATOM      2  C   UNL     1      -3.957  -1.182  -1.604  1.00  0.00     0.208 A 
ATOM      3  O   UNL     1      -2.971  -0.890  -2.442  1.00  0.00    -0.463 OA
ATOM      4  C   UNL     1      -2.237  -1.815  -3.056  1.00  0.00     0.147 A 
ATOM      5  C   UNL     1      -2.494  -3.185  -2.812  1.00  0.00     0.066 A 
ATOM      6  C   UNL     1      -3.532  -3.529  -1.927  1.00  0.00     0.200 A 
ATOM      7  O   UNL     1      -3.770  -4.742  -1.666  1.00  0.00    -0.288 OA
ATOM      8  C   UNL     1      -1.705  -4.160  -3.440  1.00  0.00     0.020 A 
ATOM      9  C   UNL     1      -0.667  -3.784  -4.290  1.00  0.00     0.047 A 
ATOM     10  C   UNL     1      -0.403  -2.432  -4.538  1.00  0.00     0.125 A 
ATOM     11  C   UNL     1      -1.201  -1.429  -3.942  1.00  0.00     0.069 A 
ENDROOT
BRANCH   1  12
ATOM     12  C   UNL     1      -5.401  -2.814  -0.381  1.00  0.00    -0.011 A 
ATOM     13  C   UNL     1      -5.148  -2.996   0.990  1.00  0.00     0.013 A 
ATOM     14  C   UNL     1      -6.196  -3.271   1.873  1.00  0.00     0.047 A 
ATOM     15  C   UNL     1      -7.508  -3.362   1.401  1.00  0.00     0.115 A 
ATOM     16  C   UNL     1      -6.725  -2.900  -0.848  1.00  0.00     0.013 A 
ATOM     17  C   UNL     1      -7.771  -3.174   0.038  1.00  0.00     0.047 A 
BRANCH  15  18
ATOM     18  O   UNL     1      -8.543  -3.637   2.292  1.00  0.00    -0.508 OA
ATOM     19  H   UNL     1      -9.361  -3.041   2.355  1.00  0.00     0.293 HD
ENDBRANCH  15  18
ENDBRANCH   1  12
BRANCH  11  20
ATOM     20  C   UNL     1      -0.885   0.039  -4.204  1.00  0.00     0.188 C 
ATOM     21  C   UNL     1       0.168   0.563  -3.194  1.00  0.00     0.179 C 
ATOM     22  O   UNL     1      -2.073   0.815  -4.150  1.00  0.00    -0.362 OA
ATOM     23  C   UNL     1       0.454   2.052  -3.457  1.00  0.00     0.177 C 
ATOM     24  C   UNL     1      -1.819   2.150  -4.559  1.00  0.00     0.176 C 
ATOM     25  C   UNL     1      -0.864   2.851  -3.566  1.00  0.00     0.177 C 
BRANCH  21  26
ATOM     26  O   UNL     1      -0.289   0.407  -1.873  1.00  0.00    -0.387 OA
ATOM     27  H   UNL     1      -0.029   1.226  -1.374  1.00  0.00     0.211 HD
ENDBRANCH  21  26
BRANCH  23  28
ATOM     28  O   UNL     1       1.194   2.180  -4.645  1.00  0.00    -0.387 OA
ATOM     29  H   UNL     1       1.776   2.977  -4.537  1.00  0.00     0.211 HD
ENDBRANCH  23  28
BRANCH  24  30
ATOM     30  C   UNL     1      -3.152   2.898  -4.667  1.00  0.00     0.191 C 
BRANCH  30  31
ATOM     31  O   UNL     1      -4.115   2.260  -3.874  1.00  0.00    -0.394 OA
ATOM     32  H   UNL     1      -4.947   2.794  -3.969  1.00  0.00     0.210 HD
ENDBRANCH  30  31
ENDBRANCH  24  30
BRANCH  25  33
ATOM     33  O   UNL     1      -1.476   2.946  -2.304  1.00  0.00    -0.388 OA
ATOM     34  H   UNL     1      -2.424   2.674  -2.422  1.00  0.00     0.211 HD
ENDBRANCH  25  33
ENDBRANCH  11  20
BRANCH  10  35
ATOM     35  O   UNL     1       0.659  -2.084  -5.373  1.00  0.00    -0.507 OA
ATOM     36  H   UNL     1       1.229  -1.265  -5.199  1.00  0.00     0.293 HD
ENDBRANCH  10  35
TORSDOF 9
ENDMDL
MODEL 3
REMARK VINA RESULT:    -7.883      3.157      6.001
REMARK INTER + INTRA:         -11.272
REMARK INTER:                 -10.172
REMARK INTRA:                  -1.099
REMARK UNBOUND:                -0.624
REMARK SMILES O=c1c(-c2ccc(O)cc2)coc2c([C@H]3O[C@@H](CO)[C@@H](O)[C@H](O)[C@H]3O)c(O)ccc12
REMARK SMILES IDX 3 1 11 2 12 3 13 4 30 5 2 6 1 7 29 8 28 9 26 10 14 11 4 12
REMARK SMILES IDX 5 13 6 14 7 15 10 16 9 17 8 18 15 20 24 21 16 22 22 23 17 24
REMARK SMILES IDX 20 25 25 26 23 28 18 30 19 31 21 33 27 35
REMARK H PARENT 8 19 25 27 23 29 19 32 21 34 27 36
REMARK Flexibility Score: inf
ROOT
ATOM      1  C   UNL     1      -6.566  -2.689   1.424  1.00  0.00     0.065 A 
ATOM      2  C   UNL     1      -6.283  -1.498   0.743  1.00  0.00     0.208 A 
ATOM      3  O   UNL     1      -5.321  -1.445  -0.169  1.00  0.00    -0.463 OA
ATOM      4  C   UNL     1      -4.571  -2.493  -0.500  1.00  0.00     0.147 A 
ATOM      5  C   UNL     1      -4.781  -3.734   0.147  1.00  0.00     0.066 A 
ATOM      6  C   UNL     1      -5.791  -3.823   1.122  1.00  0.00     0.200 A 
ATOM      7  O   UNL     1      -5.987  -4.909   1.739  1.00  0.00    -0.288 OA
ATOM      8  C   UNL     1      -3.974  -4.833  -0.183  1.00  0.00     0.020 A 
ATOM      9  C   UNL     1      -2.964  -4.703  -1.134  1.00  0.00     0.047 A 
ATOM     10  C   UNL     1      -2.746  -3.481  -1.779  1.00  0.00     0.125 A 
ATOM     11  C   UNL     1      -3.563  -2.365  -1.488  1.00  0.00     0.069 A 
ENDROOT
BRANCH   1  12
ATOM     12  C   UNL     1      -7.653  -2.725   2.434  1.00  0.00    -0.011 A 
ATOM     13  C   UNL     1      -7.400  -2.336   3.762  1.00  0.00     0.013 A 
ATOM     14  C   UNL     1      -8.424  -2.360   4.714  1.00  0.00     0.047 A 
ATOM     15  C   UNL     1      -9.711  -2.766   4.352  1.00  0.00     0.115 A 
ATOM     16  C   UNL     1      -8.953  -3.125   2.076  1.00  0.00     0.013 A 
ATOM     17  C   UNL     1      -9.974  -3.147   3.030  1.00  0.00     0.047 A 
BRANCH  15  18
ATOM     18  O   UNL     1     -10.722  -2.785   5.311  1.00  0.00    -0.508 OA
ATOM     19  H   UNL     1     -11.398  -3.539   5.354  1.00  0.00     0.293 HD
ENDBRANCH  15  18
ENDBRANCH   1  12
BRANCH  11  20
ATOM     20  C   UNL     1      -3.298  -1.035  -2.183  1.00  0.00     0.188 C 
ATOM     21  C   UNL     1      -4.118  -0.927  -3.493  1.00  0.00     0.179 C 
ATOM     22  O   UNL     1      -1.910  -0.879  -2.436  1.00  0.00    -0.362 OA
ATOM     23  C   UNL     1      -3.817   0.410  -4.195  1.00  0.00     0.177 C 
ATOM     24  C   UNL     1      -1.631   0.423  -2.925  1.00  0.00     0.176 C 
ATOM     25  C   UNL     1      -2.293   0.639  -4.305  1.00  0.00     0.177 C 
BRANCH  21  26
ATOM     26  O   UNL     1      -3.803  -1.985  -4.365  1.00  0.00    -0.387 OA
ATOM     27  H   UNL     1      -3.599  -2.778  -3.803  1.00  0.00     0.211 HD
ENDBRANCH  21  26
BRANCH  23  28
ATOM     28  O   UNL     1      -4.410   1.458  -3.469  1.00  0.00    -0.387 OA
ATOM     29  H   UNL     1      -3.950   2.294  -3.743  1.00  0.00     0.211 HD
ENDBRANCH  23  28
BRANCH  24  30
ATOM     30  C   UNL     1      -0.112   0.609  -3.005  1.00  0.00     0.191 C 
BRANCH  30  31
ATOM     31  O   UNL     1       0.489  -0.594  -3.395  1.00  0.00    -0.394 OA
ATOM     32  H   UNL     1       1.365  -0.348  -3.794  1.00  0.00     0.210 HD
ENDBRANCH  30  31
ENDBRANCH  24  30
BRANCH  25  33
ATOM     33  O   UNL     1      -1.739  -0.250  -5.243  1.00  0.00    -0.388 OA
ATOM     34  H   UNL     1      -0.799   0.035  -5.388  1.00  0.00     0.211 HD
ENDBRANCH  25  33
ENDBRANCH  11  20
BRANCH  10  35
ATOM     35  O   UNL     1      -1.711  -3.372  -2.708  1.00  0.00    -0.507 OA
ATOM     36  H   UNL     1      -0.859  -2.864  -2.502  1.00  0.00     0.293 HD
ENDBRANCH  10  35
TORSDOF 9
ENDMDL
MODEL 4
REMARK VINA RESULT:    -7.859      2.366      3.950
REMARK INTER + INTRA:         -11.239
REMARK INTER:                 -10.243
REMARK INTRA:                  -0.997
REMARK UNBOUND:                -0.624
REMARK SMILES O=c1c(-c2ccc(O)cc2)coc2c([C@H]3O[C@@H](CO)[C@@H](O)[C@H](O)[C@H]3O)c(O)ccc12
REMARK SMILES IDX 3 1 11 2 12 3 13 4 30 5 2 6 1 7 29 8 28 9 26 10 14 11 4 12
REMARK SMILES IDX 5 13 6 14 7 15 10 16 9 17 8 18 15 20 24 21 16 22 22 23 17 24
REMARK SMILES IDX 20 25 25 26 23 28 18 30 19 31 21 33 27 35
REMARK H PARENT 8 19 25 27 23 29 19 32 21 34 27 36
REMARK Flexibility Score: inf
ROOT
ATOM      1  C   UNL     1      -4.353  -2.416  -1.281  1.00  0.00     0.065 A 
ATOM      2  C   UNL     1      -3.708  -1.256  -1.730  1.00  0.00     0.208 A 
ATOM      3  O   UNL     1      -2.662  -1.328  -2.543  1.00  0.00    -0.463 OA
ATOM      4  C   UNL     1      -2.158  -2.478  -2.983  1.00  0.00     0.147 A 
ATOM      5  C   UNL     1      -2.740  -3.699  -2.570  1.00  0.00     0.066 A 
ATOM      6  C   UNL     1      -3.849  -3.659  -1.705  1.00  0.00     0.200 A 
ATOM      7  O   UNL     1      -4.376  -4.732  -1.295  1.00  0.00    -0.288 OA
ATOM      8  C   UNL     1      -2.193  -4.913  -3.013  1.00  0.00     0.020 A 
ATOM      9  C   UNL     1      -1.078  -4.918  -3.848  1.00  0.00     0.047 A 
ATOM     10  C   UNL     1      -0.492  -3.716  -4.262  1.00  0.00     0.125 A 
ATOM     11  C   UNL     1      -1.040  -2.478  -3.854  1.00  0.00     0.069 A 
ENDROOT
BRANCH   1  12
ATOM     12  C   UNL     1      -5.526  -2.310  -0.378  1.00  0.00    -0.011 A 
ATOM     13  C   UNL     1      -6.777  -1.916  -0.884  1.00  0.00     0.013 A 
ATOM     14  C   UNL     1      -7.886  -1.823  -0.037  1.00  0.00     0.047 A 
ATOM     15  C   UNL     1      -7.761  -2.127   1.322  1.00  0.00     0.115 A 
ATOM     16  C   UNL     1      -5.409  -2.620   0.989  1.00  0.00     0.013 A 
ATOM     17  C   UNL     1      -6.520  -2.527   1.833  1.00  0.00     0.047 A 
BRANCH  15  18
ATOM     18  O   UNL     1      -8.874  -2.030   2.154  1.00  0.00    -0.508 OA
ATOM     19  H   UNL     1      -9.500  -1.234   2.111  1.00  0.00     0.293 HD
ENDBRANCH  15  18
ENDBRANCH   1  12
BRANCH  11  20
ATOM     20  C   UNL     1      -0.377  -1.179  -4.296  1.00  0.00     0.188 C 
ATOM     21  C   UNL     1      -0.886  -0.751  -5.696  1.00  0.00     0.179 C 
ATOM     22  O   UNL     1       1.036  -1.319  -4.288  1.00  0.00    -0.362 OA
ATOM     23  C   UNL     1      -0.187   0.548  -6.136  1.00  0.00     0.177 C 
ATOM     24  C   UNL     1       1.665  -0.071  -4.530  1.00  0.00     0.176 C 
ATOM     25  C   UNL     1       1.343   0.432  -5.956  1.00  0.00     0.177 C 
BRANCH  21  26
ATOM     26  O   UNL     1      -0.632  -1.756  -6.646  1.00  0.00    -0.387 OA
ATOM     27  H   UNL     1       0.350  -1.780  -6.793  1.00  0.00     0.211 HD
ENDBRANCH  21  26
BRANCH  23  28
ATOM     28  O   UNL     1      -0.681   1.622  -5.377  1.00  0.00    -0.387 OA
ATOM     29  H   UNL     1      -1.379   2.065  -5.926  1.00  0.00     0.211 HD
ENDBRANCH  23  28
BRANCH  24  30
ATOM     30  C   UNL     1       3.176  -0.230  -4.328  1.00  0.00     0.191 C 
BRANCH  30  31
ATOM     31  O   UNL     1       3.537  -1.571  -4.512  1.00  0.00    -0.394 OA
ATOM     32  H   UNL     1       2.816  -2.110  -4.093  1.00  0.00     0.210 HD
ENDBRANCH  30  31
ENDBRANCH  24  30
BRANCH  25  33
ATOM     33  O   UNL     1       1.875  -0.457  -6.907  1.00  0.00    -0.388 OA
ATOM     34  H   UNL     1       2.634   0.011  -7.344  1.00  0.00     0.211 HD
ENDBRANCH  25  33
ENDBRANCH  11  20
BRANCH  10  35
ATOM     35  O   UNL     1       0.640  -3.751  -5.076  1.00  0.00    -0.507 OA
ATOM     36  H   UNL     1       1.221  -4.578  -5.147  1.00  0.00     0.293 HD
ENDBRANCH  10  35
TORSDOF 9
ENDMDL
MODEL 5
REMARK VINA RESULT:    -7.621      2.600      7.984
REMARK INTER + INTRA:         -10.917
REMARK INTER:                 -10.664
REMARK INTRA:                  -0.253
REMARK UNBOUND:                -0.624
REMARK SMILES O=c1c(-c2ccc(O)cc2)coc2c([C@H]3O[C@@H](CO)[C@@H](O)[C@H](O)[C@H]3O)c(O)ccc12
REMARK SMILES IDX 3 1 11 2 12 3 13 4 30 5 2 6 1 7 29 8 28 9 26 10 14 11 4 12
REMARK SMILES IDX 5 13 6 14 7 15 10 16 9 17 8 18 15 20 24 21 16 22 22 23 17 24
REMARK SMILES IDX 20 25 25 26 23 28 18 30 19 31 21 33 27 35
REMARK H PARENT 8 19 25 27 23 29 19 32 21 34 27 36
REMARK Flexibility Score: inf
ROOT
ATOM      1  C   UNL     1       0.424   3.215  -2.637  1.00  0.00     0.065 A 
ATOM      2  C   UNL     1       0.099   1.874  -2.391  1.00  0.00     0.208 A 
ATOM      3  O   UNL     1      -0.998   1.333  -2.904  1.00  0.00    -0.463 OA
ATOM      4  C   UNL     1      -1.852   2.004  -3.672  1.00  0.00     0.147 A 
ATOM      5  C   UNL     1      -1.607   3.368  -3.961  1.00  0.00     0.066 A 
ATOM      6  C   UNL     1      -0.454   3.974  -3.430  1.00  0.00     0.200 A 
ATOM      7  O   UNL     1      -0.220   5.196  -3.647  1.00  0.00    -0.288 OA
ATOM      8  C   UNL     1      -2.521   4.083  -4.750  1.00  0.00     0.020 A 
ATOM      9  C   UNL     1      -3.667   3.460  -5.238  1.00  0.00     0.047 A 
ATOM     10  C   UNL     1      -3.921   2.112  -4.957  1.00  0.00     0.125 A 
ATOM     11  C   UNL     1      -3.003   1.360  -4.189  1.00  0.00     0.069 A 
ENDROOT
BRANCH   1  12
ATOM     12  C   UNL     1       1.662   3.796  -2.058  1.00  0.00    -0.011 A 
ATOM     13  C   UNL     1       1.639   5.073  -1.470  1.00  0.00     0.013 A 
ATOM     14  C   UNL     1       2.802   5.618  -0.917  1.00  0.00     0.047 A 
ATOM     15  C   UNL     1       3.998   4.895  -0.937  1.00  0.00     0.115 A 
ATOM     16  C   UNL     1       2.868   3.070  -2.069  1.00  0.00     0.013 A 
ATOM     17  C   UNL     1       4.028   3.619  -1.514  1.00  0.00     0.047 A 
BRANCH  15  18
ATOM     18  O   UNL     1       5.148   5.450  -0.382  1.00  0.00    -0.508 OA
ATOM     19  H   UNL     1       5.928   5.742  -0.960  1.00  0.00     0.293 HD
ENDBRANCH  15  18
ENDBRANCH   1  12
BRANCH  11  20
ATOM     20  C   UNL     1      -3.304  -0.100  -3.873  1.00  0.00     0.188 C 
ATOM     21  C   UNL     1      -4.002  -0.231  -2.496  1.00  0.00     0.179 C 
ATOM     22  O   UNL     1      -2.112  -0.870  -3.915  1.00  0.00    -0.362 OA
ATOM     23  C   UNL     1      -4.275  -1.713  -2.182  1.00  0.00     0.177 C 
ATOM     24  C   UNL     1      -2.403  -2.253  -3.793  1.00  0.00     0.176 C 
ATOM     25  C   UNL     1      -3.002  -2.561  -2.402  1.00  0.00     0.177 C 
BRANCH  21  26
ATOM     26  O   UNL     1      -3.200   0.315  -1.478  1.00  0.00    -0.387 OA
ATOM     27  H   UNL     1      -3.533   1.235  -1.303  1.00  0.00     0.211 HD
ENDBRANCH  21  26
BRANCH  23  28
ATOM     28  O   UNL     1      -5.313  -2.179  -3.007  1.00  0.00    -0.387 OA
ATOM     29  H   UNL     1      -5.712  -2.965  -2.551  1.00  0.00     0.211 HD
ENDBRANCH  23  28
BRANCH  24  30
ATOM     30  C   UNL     1      -1.119  -3.054  -4.031  1.00  0.00     0.191 C 
BRANCH  30  31
ATOM     31  O   UNL     1      -0.005  -2.259  -3.729  1.00  0.00    -0.394 OA
ATOM     32  H   UNL     1      -0.209  -1.818  -2.863  1.00  0.00     0.210 HD
ENDBRANCH  30  31
ENDBRANCH  24  30
BRANCH  25  33
ATOM     33  O   UNL     1      -2.056  -2.278  -1.402  1.00  0.00    -0.388 OA
ATOM     34  H   UNL     1      -2.527  -2.354  -0.530  1.00  0.00     0.211 HD
ENDBRANCH  25  33
ENDBRANCH  11  20
BRANCH  10  35
ATOM     35  O   UNL     1      -5.089   1.521  -5.437  1.00  0.00    -0.507 OA
ATOM     36  H   UNL     1      -5.365   0.586  -5.163  1.00  0.00     0.293 HD
ENDBRANCH  10  35
TORSDOF 9
ENDMDL
MODEL 6
REMARK VINA RESULT:    -7.570     11.565     13.256
REMARK INTER + INTRA:         -10.849
REMARK INTER:                  -9.759
REMARK INTRA:                  -1.090
REMARK UNBOUND:                -0.624
REMARK SMILES O=c1c(-c2ccc(O)cc2)coc2c([C@H]3O[C@@H](CO)[C@@H](O)[C@H](O)[C@H]3O)c(O)ccc12
REMARK SMILES IDX 3 1 11 2 12 3 13 4 30 5 2 6 1 7 29 8 28 9 26 10 14 11 4 12
REMARK SMILES IDX 5 13 6 14 7 15 10 16 9 17 8 18 15 20 24 21 16 22 22 23 17 24
REMARK SMILES IDX 20 25 25 26 23 28 18 30 19 31 21 33 27 35
REMARK H PARENT 8 19 25 27 23 29 19 32 21 34 27 36
REMARK Flexibility Score: inf
ROOT
ATOM      1  C   UNL     1       1.321  -1.280   8.471  1.00  0.00     0.065 A 
ATOM      2  C   UNL     1       1.344  -0.075   7.757  1.00  0.00     0.208 A 
ATOM      3  O   UNL     1       0.484   0.897   8.031  1.00  0.00    -0.463 OA
ATOM      4  C   UNL     1      -0.443   0.806   8.982  1.00  0.00     0.147 A 
ATOM      5  C   UNL     1      -0.544  -0.382   9.744  1.00  0.00     0.066 A 
ATOM      6  C   UNL     1       0.350  -1.434   9.477  1.00  0.00     0.200 A 
ATOM      7  O   UNL     1       0.269  -2.518  10.120  1.00  0.00    -0.288 OA
ATOM      8  C   UNL     1      -1.538  -0.490  10.729  1.00  0.00     0.020 A 
ATOM      9  C   UNL     1      -2.425   0.561  10.950  1.00  0.00     0.047 A 
ATOM     10  C   UNL     1      -2.335   1.740  10.201  1.00  0.00     0.125 A 
ATOM     11  C   UNL     1      -1.326   1.887   9.222  1.00  0.00     0.069 A 
ENDROOT
BRANCH   1  12
ATOM     12  C   UNL     1       2.299  -2.350   8.151  1.00  0.00    -0.011 A 
ATOM     13  C   UNL     1       2.000  -3.316   7.174  1.00  0.00     0.013 A 
ATOM     14  C   UNL     1       2.923  -4.319   6.864  1.00  0.00     0.047 A 
ATOM     15  C   UNL     1       4.157  -4.367   7.520  1.00  0.00     0.115 A 
ATOM     16  C   UNL     1       3.545  -2.400   8.802  1.00  0.00     0.013 A 
ATOM     17  C   UNL     1       4.466  -3.405   8.489  1.00  0.00     0.047 A 
BRANCH  15  18
ATOM     18  O   UNL     1       5.067  -5.373   7.202  1.00  0.00    -0.508 OA
ATOM     19  H   UNL     1       4.791  -6.347   7.172  1.00  0.00     0.293 HD
ENDBRANCH  15  18
ENDBRANCH   1  12
BRANCH  11  20
ATOM     20  C   UNL     1      -1.256   3.168   8.400  1.00  0.00     0.188 C 
ATOM     21  C   UNL     1      -0.302   4.194   9.062  1.00  0.00     0.179 C 
ATOM     22  O   UNL     1      -2.554   3.716   8.229  1.00  0.00    -0.362 OA
ATOM     23  C   UNL     1      -0.263   5.490   8.232  1.00  0.00     0.177 C 
ATOM     24  C   UNL     1      -2.523   4.809   7.325  1.00  0.00     0.176 C 
ATOM     25  C   UNL     1      -1.695   5.975   7.911  1.00  0.00     0.177 C 
BRANCH  21  26
ATOM     26  O   UNL     1      -0.725   4.496  10.368  1.00  0.00    -0.387 OA
ATOM     27  H   UNL     1      -0.918   5.470  10.397  1.00  0.00     0.211 HD
ENDBRANCH  21  26
BRANCH  23  28
ATOM     28  O   UNL     1       0.445   5.257   7.041  1.00  0.00    -0.387 OA
ATOM     29  H   UNL     1       0.068   5.871   6.357  1.00  0.00     0.211 HD
ENDBRANCH  23  28
BRANCH  24  30
ATOM     30  C   UNL     1      -3.960   5.247   7.025  1.00  0.00     0.191 C 
BRANCH  30  31
ATOM     31  O   UNL     1      -4.761   5.036   8.155  1.00  0.00    -0.394 OA
ATOM     32  H   UNL     1      -4.282   4.369   8.712  1.00  0.00     0.210 HD
ENDBRANCH  30  31
ENDBRANCH  24  30
BRANCH  25  33
ATOM     33  O   UNL     1      -2.312   6.459   9.077  1.00  0.00    -0.388 OA
ATOM     34  H   UNL     1      -3.210   6.037   9.123  1.00  0.00     0.211 HD
ENDBRANCH  25  33
ENDBRANCH  11  20
BRANCH  10  35
ATOM     35  O   UNL     1      -3.254   2.765  10.426  1.00  0.00    -0.507 OA
ATOM     36  H   UNL     1      -2.960   3.691  10.715  1.00  0.00     0.293 HD
ENDBRANCH  10  35
TORSDOF 9
ENDMDL
MODEL 7
REMARK VINA RESULT:    -7.564      3.460      6.300
REMARK INTER + INTRA:         -10.840
REMARK INTER:                 -10.617
REMARK INTRA:                  -0.224
REMARK UNBOUND:                -0.624
REMARK SMILES O=c1c(-c2ccc(O)cc2)coc2c([C@H]3O[C@@H](CO)[C@@H](O)[C@H](O)[C@H]3O)c(O)ccc12
REMARK SMILES IDX 3 1 11 2 12 3 13 4 30 5 2 6 1 7 29 8 28 9 26 10 14 11 4 12
REMARK SMILES IDX 5 13 6 14 7 15 10 16 9 17 8 18 15 20 24 21 16 22 22 23 17 24
REMARK SMILES IDX 20 25 25 26 23 28 18 30 19 31 21 33 27 35
REMARK H PARENT 8 19 25 27 23 29 19 32 21 34 27 36
REMARK Flexibility Score: inf
ROOT
ATOM      1  C   UNL     1      -6.560  -2.350   1.185  1.00  0.00     0.065 A 
ATOM      2  C   UNL     1      -6.288  -1.444   0.151  1.00  0.00     0.208 A 
ATOM      3  O   UNL     1      -5.388  -1.725  -0.782  1.00  0.00    -0.463 OA
ATOM      4  C   UNL     1      -4.692  -2.858  -0.808  1.00  0.00     0.147 A 
ATOM      5  C   UNL     1      -4.895  -3.825   0.206  1.00  0.00     0.066 A 
ATOM      6  C   UNL     1      -5.840  -3.558   1.213  1.00  0.00     0.200 A 
ATOM      7  O   UNL     1      -6.026  -4.387   2.148  1.00  0.00    -0.288 OA
ATOM      8  C   UNL     1      -4.143  -5.009   0.194  1.00  0.00     0.020 A 
ATOM      9  C   UNL     1      -3.195  -5.230  -0.803  1.00  0.00     0.047 A 
ATOM     10  C   UNL     1      -2.984  -4.281  -1.809  1.00  0.00     0.125 A 
ATOM     11  C   UNL     1      -3.748  -3.092  -1.839  1.00  0.00     0.069 A 
ENDROOT
BRANCH   1  12
ATOM     12  C   UNL     1      -7.578  -2.017   2.213  1.00  0.00    -0.011 A 
ATOM     13  C   UNL     1      -8.809  -1.452   1.836  1.00  0.00     0.013 A 
ATOM     14  C   UNL     1      -9.773  -1.146   2.801  1.00  0.00     0.047 A 
ATOM     15  C   UNL     1      -9.523  -1.405   4.152  1.00  0.00     0.115 A 
ATOM     16  C   UNL     1      -7.336  -2.281   3.574  1.00  0.00     0.013 A 
ATOM     17  C   UNL     1      -8.303  -1.974   4.536  1.00  0.00     0.047 A 
BRANCH  15  18
ATOM     18  O   UNL     1     -10.493  -1.094   5.103  1.00  0.00    -0.508 OA
ATOM     19  H   UNL     1     -10.348  -1.282   6.088  1.00  0.00     0.293 HD
ENDBRANCH  15  18
ENDBRANCH   1  12
BRANCH  11  20
ATOM     20  C   UNL     1      -3.491  -2.058  -2.928  1.00  0.00     0.188 C 
ATOM     21  C   UNL     1      -2.552  -0.938  -2.412  1.00  0.00     0.179 C 
ATOM     22  O   UNL     1      -4.718  -1.518  -3.395  1.00  0.00    -0.362 OA
ATOM     23  C   UNL     1      -2.325   0.110  -3.517  1.00  0.00     0.177 C 
ATOM     24  C   UNL     1      -4.503  -0.685  -4.523  1.00  0.00     0.176 C 
ATOM     25  C   UNL     1      -3.670   0.556  -4.131  1.00  0.00     0.177 C 
BRANCH  21  26
ATOM     26  O   UNL     1      -3.104  -0.306  -1.284  1.00  0.00    -0.387 OA
ATOM     27  H   UNL     1      -2.424   0.331  -0.942  1.00  0.00     0.211 HD
ENDBRANCH  21  26
BRANCH  23  28
ATOM     28  O   UNL     1      -1.499  -0.438  -4.514  1.00  0.00    -0.387 OA
ATOM     29  H   UNL     1      -0.849   0.268  -4.769  1.00  0.00     0.211 HD
ENDBRANCH  23  28
BRANCH  24  30
ATOM     30  C   UNL     1      -5.861  -0.278  -5.106  1.00  0.00     0.191 C 
BRANCH  30  31
ATOM     31  O   UNL     1      -6.833  -0.306  -4.097  1.00  0.00    -0.394 OA
ATOM     32  H   UNL     1      -7.220   0.608  -4.062  1.00  0.00     0.210 HD
ENDBRANCH  30  31
ENDBRANCH  24  30
BRANCH  25  33
ATOM     33  O   UNL     1      -4.385   1.338  -3.207  1.00  0.00    -0.388 OA
ATOM     34  H   UNL     1      -5.082   1.825  -3.721  1.00  0.00     0.211 HD
ENDBRANCH  25  33
ENDBRANCH  11  20
BRANCH  10  35
ATOM     35  O   UNL     1      -2.010  -4.517  -2.779  1.00  0.00    -0.507 OA
ATOM     36  H   UNL     1      -1.021  -4.443  -2.572  1.00  0.00     0.293 HD
ENDBRANCH  10  35
TORSDOF 9
ENDMDL
MODEL 8
REMARK VINA RESULT:    -7.491      2.895      8.349
REMARK INTER + INTRA:         -10.742
REMARK INTER:                  -9.811
REMARK INTRA:                  -0.930
REMARK UNBOUND:                -0.624
REMARK SMILES O=c1c(-c2ccc(O)cc2)coc2c([C@H]3O[C@@H](CO)[C@@H](O)[C@H](O)[C@H]3O)c(O)ccc12
REMARK SMILES IDX 3 1 11 2 12 3 13 4 30 5 2 6 1 7 29 8 28 9 26 10 14 11 4 12
REMARK SMILES IDX 5 13 6 14 7 15 10 16 9 17 8 18 15 20 24 21 16 22 22 23 17 24
REMARK SMILES IDX 20 25 25 26 23 28 18 30 19 31 21 33 27 35
REMARK H PARENT 8 19 25 27 23 29 19 32 21 34 27 36
REMARK Flexibility Score: inf
ROOT
ATOM      1  C   UNL     1       0.151   3.763  -3.112  1.00  0.00     0.065 A 
ATOM      2  C   UNL     1      -0.063   2.590  -2.376  1.00  0.00     0.208 A 
ATOM      3  O   UNL     1      -1.121   1.824  -2.605  1.00  0.00    -0.463 OA
ATOM      4  C   UNL     1      -2.038   2.103  -3.528  1.00  0.00     0.147 A 
ATOM      5  C   UNL     1      -1.907   3.276  -4.309  1.00  0.00     0.066 A 
ATOM      6  C   UNL     1      -0.798   4.113  -4.089  1.00  0.00     0.200 A 
ATOM      7  O   UNL     1      -0.665   5.181  -4.750  1.00  0.00    -0.288 OA
ATOM      8  C   UNL     1      -2.887   3.585  -5.265  1.00  0.00     0.020 A 
ATOM      9  C   UNL     1      -3.988   2.749  -5.438  1.00  0.00     0.047 A 
ATOM     10  C   UNL     1      -4.129   1.587  -4.671  1.00  0.00     0.125 A 
ATOM     11  C   UNL     1      -3.142   1.236  -3.721  1.00  0.00     0.069 A 
ENDROOT
BRANCH   1  12
ATOM     12  C   UNL     1       1.347   4.600  -2.842  1.00  0.00    -0.011 A 
ATOM     13  C   UNL     1       1.278   5.663  -1.925  1.00  0.00     0.013 A 
ATOM     14  C   UNL     1       2.406   6.446  -1.663  1.00  0.00     0.047 A 
ATOM     15  C   UNL     1       3.616   6.175  -2.307  1.00  0.00     0.115 A 
ATOM     16  C   UNL     1       2.571   4.328  -3.482  1.00  0.00     0.013 A 
ATOM     17  C   UNL     1       3.697   5.113  -3.216  1.00  0.00     0.047 A 
BRANCH  15  18
ATOM     18  O   UNL     1       4.732   6.964  -2.036  1.00  0.00    -0.508 OA
ATOM     19  H   UNL     1       5.669   6.654  -2.265  1.00  0.00     0.293 HD
ENDBRANCH  15  18
ENDBRANCH   1  12
BRANCH  11  20
ATOM     20  C   UNL     1      -3.322  -0.020  -2.877  1.00  0.00     0.188 C 
ATOM     21  C   UNL     1      -2.714  -1.253  -3.592  1.00  0.00     0.179 C 
ATOM     22  O   UNL     1      -4.696  -0.226  -2.586  1.00  0.00    -0.362 OA
ATOM     23  C   UNL     1      -2.928  -2.516  -2.738  1.00  0.00     0.177 C 
ATOM     24  C   UNL     1      -4.859  -1.290  -1.662  1.00  0.00     0.176 C 
ATOM     25  C   UNL     1      -4.402  -2.627  -2.288  1.00  0.00     0.177 C 
BRANCH  21  26
ATOM     26  O   UNL     1      -3.310  -1.442  -4.851  1.00  0.00    -0.387 OA
ATOM     27  H   UNL     1      -4.271  -1.207  -4.760  1.00  0.00     0.211 HD
ENDBRANCH  21  26
BRANCH  23  28
ATOM     28  O   UNL     1      -2.084  -2.465  -1.616  1.00  0.00    -0.387 OA
ATOM     29  H   UNL     1      -1.179  -2.228  -1.947  1.00  0.00     0.211 HD
ENDBRANCH  23  28
BRANCH  24  30
ATOM     30  C   UNL     1      -6.329  -1.355  -1.235  1.00  0.00     0.191 C 
BRANCH  30  31
ATOM     31  O   UNL     1      -7.064  -0.384  -1.927  1.00  0.00    -0.394 OA
ATOM     32  H   UNL     1      -6.569  -0.213  -2.770  1.00  0.00     0.210 HD
ENDBRANCH  30  31
ENDBRANCH  24  30
BRANCH  25  33
ATOM     33  O   UNL     1      -5.218  -2.944  -3.387  1.00  0.00    -0.388 OA
ATOM     34  H   UNL     1      -4.891  -3.810  -3.748  1.00  0.00     0.211 HD
ENDBRANCH  25  33
ENDBRANCH  11  20
BRANCH  10  35
ATOM     35  O   UNL     1      -5.254   0.782  -4.847  1.00  0.00    -0.507 OA
ATOM     36  H   UNL     1      -5.212  -0.224  -4.745  1.00  0.00     0.293 HD
ENDBRANCH  10  35
TORSDOF 9
ENDMDL
MODEL 9
REMARK VINA RESULT:    -7.394      2.665      3.805
REMARK INTER + INTRA:         -10.611
REMARK INTER:                 -10.480
REMARK INTRA:                  -0.132
REMARK UNBOUND:                -0.624
REMARK SMILES O=c1c(-c2ccc(O)cc2)coc2c([C@H]3O[C@@H](CO)[C@@H](O)[C@H](O)[C@H]3O)c(O)ccc12
REMARK SMILES IDX 3 1 11 2 12 3 13 4 30 5 2 6 1 7 29 8 28 9 26 10 14 11 4 12
REMARK SMILES IDX 5 13 6 14 7 15 10 16 9 17 8 18 15 20 24 21 16 22 22 23 17 24
REMARK SMILES IDX 20 25 25 26 23 28 18 30 19 31 21 33 27 35
REMARK H PARENT 8 19 25 27 23 29 19 32 21 34 27 36
REMARK Flexibility Score: inf
ROOT
ATOM      1  C   UNL     1      -2.556  -1.027  -3.215  1.00  0.00     0.065 A 
ATOM      2  C   UNL     1      -1.364  -0.316  -3.022  1.00  0.00     0.208 A 
ATOM      3  O   UNL     1      -1.218   0.912  -3.503  1.00  0.00    -0.463 OA
ATOM      4  C   UNL     1      -2.166   1.547  -4.186  1.00  0.00     0.147 A 
ATOM      5  C   UNL     1      -3.398   0.897  -4.437  1.00  0.00     0.066 A 
ATOM      6  C   UNL     1      -3.586  -0.407  -3.944  1.00  0.00     0.200 A 
ATOM      7  O   UNL     1      -4.663  -1.025  -4.174  1.00  0.00    -0.288 OA
ATOM      8  C   UNL     1      -4.390   1.556  -5.179  1.00  0.00     0.020 A 
ATOM      9  C   UNL     1      -4.161   2.838  -5.675  1.00  0.00     0.047 A 
ATOM     10  C   UNL     1      -2.946   3.489  -5.435  1.00  0.00     0.125 A 
ATOM     11  C   UNL     1      -1.941   2.861  -4.665  1.00  0.00     0.069 A 
ENDROOT
BRANCH   1  12
ATOM     12  C   UNL     1      -2.699  -2.397  -2.661  1.00  0.00    -0.011 A 
ATOM     13  C   UNL     1      -2.220  -3.507  -3.379  1.00  0.00     0.013 A 
ATOM     14  C   UNL     1      -2.346  -4.797  -2.855  1.00  0.00     0.047 A 
ATOM     15  C   UNL     1      -2.945  -4.995  -1.608  1.00  0.00     0.115 A 
ATOM     16  C   UNL     1      -3.296  -2.603  -1.403  1.00  0.00     0.013 A 
ATOM     17  C   UNL     1      -3.419  -3.895  -0.882  1.00  0.00     0.047 A 
BRANCH  15  18
ATOM     18  O   UNL     1      -3.064  -6.286  -1.098  1.00  0.00    -0.508 OA
ATOM     19  H   UNL     1      -3.102  -6.461  -0.101  1.00  0.00     0.293 HD
ENDBRANCH  15  18
ENDBRANCH   1  12
BRANCH  11  20
ATOM     20  C   UNL     1      -0.615   3.574  -4.432  1.00  0.00     0.188 C 
ATOM     21  C   UNL     1       0.007   3.148  -3.078  1.00  0.00     0.179 C 
ATOM     22  O   UNL     1      -0.795   4.981  -4.489  1.00  0.00    -0.362 OA
ATOM     23  C   UNL     1       1.332   3.898  -2.847  1.00  0.00     0.177 C 
ATOM     24  C   UNL     1       0.455   5.650  -4.444  1.00  0.00     0.176 C 
ATOM     25  C   UNL     1       1.149   5.413  -3.084  1.00  0.00     0.177 C 
BRANCH  21  26
ATOM     26  O   UNL     1      -0.872   3.428  -2.016  1.00  0.00    -0.387 OA
ATOM     27  H   UNL     1      -0.317   3.571  -1.205  1.00  0.00     0.211 HD
ENDBRANCH  21  26
BRANCH  23  28
ATOM     28  O   UNL     1       2.311   3.389  -3.717  1.00  0.00    -0.387 OA
ATOM     29  H   UNL     1       2.323   3.980  -4.514  1.00  0.00     0.211 HD
ENDBRANCH  23  28
BRANCH  24  30
ATOM     30  C   UNL     1       0.228   7.144  -4.697  1.00  0.00     0.191 C 
BRANCH  30  31
ATOM     31  O   UNL     1      -0.850   7.594  -3.923  1.00  0.00    -0.394 OA
ATOM     32  H   UNL     1      -0.850   8.584  -3.999  1.00  0.00     0.210 HD
ENDBRANCH  30  31
ENDBRANCH  24  30
BRANCH  25  33
ATOM     33  O   UNL     1       0.378   5.973  -2.050  1.00  0.00    -0.388 OA
ATOM     34  H   UNL     1      -0.555   6.029  -2.387  1.00  0.00     0.211 HD
ENDBRANCH  25  33
ENDBRANCH  11  20
BRANCH  10  35
ATOM     35  O   UNL     1      -2.735   4.761  -5.966  1.00  0.00    -0.507 OA
ATOM     36  H   UNL     1      -2.712   5.587  -5.380  1.00  0.00     0.293 HD
ENDBRANCH  10  35
TORSDOF 9
ENDMDL
