MODEL 1
REMARK VINA RESULT:    -5.666      0.000      0.000
REMARK INTER + INTRA:          -5.666
REMARK INTER:                  -5.666
REMARK INTRA:                   0.000
REMARK UNBOUND:                 0.000
REMARK SMILES c1ccc2ccccc2c1
REMARK SMILES IDX 2 1 1 2 10 3 9 4 8 5 7 6 6 7 5 8 4 9 3 10
REMARK H PARENT
REMARK Flexibility Score: inf
ROOT
ATOM      1  C   UNL     1     -34.871   2.220  -8.052  1.00  0.00     0.001 A 
ATOM      2  C   UNL     1     -35.182   2.673  -6.766  1.00  0.00     0.001 A 
ATOM      3  C   UNL     1     -34.880   3.987  -6.391  1.00  0.00     0.009 A 
ATOM      4  C   UNL     1     -34.263   4.857  -7.304  1.00  0.00    -0.018 A 
ATOM      5  C   UNL     1     -33.955   6.176  -6.940  1.00  0.00     0.009 A 
ATOM      6  C   UNL     1     -33.340   7.032  -7.859  1.00  0.00     0.001 A 
ATOM      7  C   UNL     1     -33.029   6.579  -9.144  1.00  0.00     0.001 A 
ATOM      8  C   UNL     1     -33.331   5.265  -9.520  1.00  0.00     0.009 A 
ATOM      9  C   UNL     1     -33.948   4.395  -8.607  1.00  0.00    -0.018 A 
ATOM     10  C   UNL     1     -34.256   3.076  -8.971  1.00  0.00     0.009 A 
ENDROOT
TORSDOF 0
ENDMDL
MODEL 2
REMARK VINA RESULT:    -5.651      0.059      3.437
REMARK INTER + INTRA:          -5.651
REMARK INTER:                  -5.651
REMARK INTRA:                   0.000
REMARK UNBOUND:                 0.000
REMARK SMILES c1ccc2ccccc2c1
REMARK SMILES IDX 2 1 1 2 10 3 9 4 8 5 7 6 6 7 5 8 4 9 3 10
REMARK H PARENT
REMARK Flexibility Score: inf
ROOT
ATOM      1  C   UNL     1     -33.052   6.555  -9.213  1.00  0.00     0.001 A 
ATOM      2  C   UNL     1     -33.349   7.012  -7.926  1.00  0.00     0.001 A 
ATOM      3  C   UNL     1     -33.948   6.155  -6.996  1.00  0.00     0.009 A 
ATOM      4  C   UNL     1     -34.253   4.832  -7.351  1.00  0.00    -0.018 A 
ATOM      5  C   UNL     1     -34.855   3.963  -6.429  1.00  0.00     0.009 A 
ATOM      6  C   UNL     1     -35.154   2.648  -6.796  1.00  0.00     0.001 A 
ATOM      7  C   UNL     1     -34.856   2.191  -8.083  1.00  0.00     0.001 A 
ATOM      8  C   UNL     1     -34.258   3.047  -9.013  1.00  0.00     0.009 A 
ATOM      9  C   UNL     1     -33.952   4.370  -8.658  1.00  0.00    -0.018 A 
ATOM     10  C   UNL     1     -33.351   5.240  -9.580  1.00  0.00     0.009 A 
ENDROOT
TORSDOF 0
ENDMDL
MODEL 3
REMARK VINA RESULT:    -5.651      0.064      2.082
REMARK INTER + INTRA:          -5.651
REMARK INTER:                  -5.651
REMARK INTRA:                   0.000
REMARK UNBOUND:                 0.000
REMARK SMILES c1ccc2ccccc2c1
REMARK SMILES IDX 2 1 1 2 10 3 9 4 8 5 7 6 6 7 5 8 4 9 3 10
REMARK H PARENT
REMARK Flexibility Score: inf
ROOT
ATOM      1  C   UNL     1     -35.173   2.697  -6.755  1.00  0.00     0.001 A 
ATOM      2  C   UNL     1     -34.878   2.217  -8.034  1.00  0.00     0.001 A 
ATOM      3  C   UNL     1     -34.275   3.053  -8.979  1.00  0.00     0.009 A 
ATOM      4  C   UNL     1     -33.961   4.380  -8.646  1.00  0.00    -0.018 A 
ATOM      5  C   UNL     1     -33.355   5.230  -9.584  1.00  0.00     0.009 A 
ATOM      6  C   UNL     1     -33.048   6.550  -9.240  1.00  0.00     0.001 A 
ATOM      7  C   UNL     1     -33.343   7.030  -7.961  1.00  0.00     0.001 A 
ATOM      8  C   UNL     1     -33.947   6.194  -7.016  1.00  0.00     0.009 A 
ATOM      9  C   UNL     1     -34.261   4.867  -7.349  1.00  0.00    -0.018 A 
ATOM     10  C   UNL     1     -34.866   4.017  -6.410  1.00  0.00     0.009 A 
ENDROOT
TORSDOF 0
ENDMDL
MODEL 4
REMARK VINA RESULT:    -5.649      0.065      4.018
REMARK INTER + INTRA:          -5.649
REMARK INTER:                  -5.649
REMARK INTRA:                   0.000
REMARK UNBOUND:                 0.000
REMARK SMILES c1ccc2ccccc2c1
REMARK SMILES IDX 2 1 1 2 10 3 9 4 8 5 7 6 6 7 5 8 4 9 3 10
REMARK H PARENT
REMARK Flexibility Score: inf
ROOT
ATOM      1  C   UNL     1     -33.356   7.035  -7.960  1.00  0.00     0.001 A 
ATOM      2  C   UNL     1     -33.066   6.559  -9.242  1.00  0.00     0.001 A 
ATOM      3  C   UNL     1     -33.368   5.237  -9.586  1.00  0.00     0.009 A 
ATOM      4  C   UNL     1     -33.965   4.383  -8.647  1.00  0.00    -0.018 A 
ATOM      5  C   UNL     1     -34.273   3.055  -8.979  1.00  0.00     0.009 A 
ATOM      6  C   UNL     1     -34.868   2.215  -8.033  1.00  0.00     0.001 A 
ATOM      7  C   UNL     1     -35.158   2.691  -6.751  1.00  0.00     0.001 A 
ATOM      8  C   UNL     1     -34.855   4.013  -6.407  1.00  0.00     0.009 A 
ATOM      9  C   UNL     1     -34.258   4.867  -7.346  1.00  0.00    -0.018 A 
ATOM     10  C   UNL     1     -33.950   6.195  -7.014  1.00  0.00     0.009 A 
ENDROOT
TORSDOF 0
ENDMDL
MODEL 5
REMARK VINA RESULT:    -4.257      0.981      1.871
REMARK INTER + INTRA:          -4.257
REMARK INTER:                  -4.257
REMARK INTRA:                   0.000
REMARK UNBOUND:                 0.000
REMARK SMILES c1ccc2ccccc2c1
REMARK SMILES IDX 2 1 1 2 10 3 9 4 8 5 7 6 6 7 5 8 4 9 3 10
REMARK H PARENT
REMARK Flexibility Score: inf
ROOT
ATOM      1  C   UNL     1     -34.758   3.645 -10.382  1.00  0.00     0.001 A 
ATOM      2  C   UNL     1     -35.141   2.837  -9.308  1.00  0.00     0.001 A 
ATOM      3  C   UNL     1     -34.991   3.294  -7.994  1.00  0.00     0.009 A 
ATOM      4  C   UNL     1     -34.455   4.568  -7.748  1.00  0.00    -0.018 A 
ATOM      5  C   UNL     1     -34.299   5.038  -6.436  1.00  0.00     0.009 A 
ATOM      6  C   UNL     1     -33.763   6.309  -6.205  1.00  0.00     0.001 A 
ATOM      7  C   UNL     1     -33.381   7.117  -7.280  1.00  0.00     0.001 A 
ATOM      8  C   UNL     1     -33.531   6.660  -8.593  1.00  0.00     0.009 A 
ATOM      9  C   UNL     1     -34.066   5.386  -8.839  1.00  0.00    -0.018 A 
ATOM     10  C   UNL     1     -34.222   4.916 -10.151  1.00  0.00     0.009 A 
ENDROOT
TORSDOF 0
ENDMDL
MODEL 6
REMARK VINA RESULT:    -4.153      2.203      3.397
REMARK INTER + INTRA:          -4.153
REMARK INTER:                  -4.153
REMARK INTRA:                   0.000
REMARK UNBOUND:                 0.000
REMARK SMILES c1ccc2ccccc2c1
REMARK SMILES IDX 2 1 1 2 10 3 9 4 8 5 7 6 6 7 5 8 4 9 3 10
REMARK H PARENT
REMARK Flexibility Score: inf
ROOT
ATOM      1  C   UNL     1     -35.622   4.220 -12.587  1.00  0.00     0.001 A 
ATOM      2  C   UNL     1     -36.071   3.082 -11.912  1.00  0.00     0.001 A 
ATOM      3  C   UNL     1     -35.767   2.900 -10.559  1.00  0.00     0.009 A 
ATOM      4  C   UNL     1     -35.008   3.860  -9.872  1.00  0.00    -0.018 A 
ATOM      5  C   UNL     1     -34.695   3.690  -8.515  1.00  0.00     0.009 A 
ATOM      6  C   UNL     1     -33.938   4.654  -7.843  1.00  0.00     0.001 A 
ATOM      7  C   UNL     1     -33.489   5.793  -8.518  1.00  0.00     0.001 A 
ATOM      8  C   UNL     1     -33.793   5.975  -9.871  1.00  0.00     0.009 A 
ATOM      9  C   UNL     1     -34.552   5.014 -10.558  1.00  0.00    -0.018 A 
ATOM     10  C   UNL     1     -34.865   5.185 -11.915  1.00  0.00     0.009 A 
ENDROOT
TORSDOF 0
ENDMDL
MODEL 7
REMARK VINA RESULT:    -4.147      2.183      3.774
REMARK INTER + INTRA:          -4.147
REMARK INTER:                  -4.147
REMARK INTRA:                   0.000
REMARK UNBOUND:                 0.000
REMARK SMILES c1ccc2ccccc2c1
REMARK SMILES IDX 2 1 1 2 10 3 9 4 8 5 7 6 6 7 5 8 4 9 3 10
REMARK H PARENT
REMARK Flexibility Score: inf
ROOT
ATOM      1  C   UNL     1     -33.492   5.811  -8.383  1.00  0.00     0.001 A 
ATOM      2  C   UNL     1     -34.030   4.670  -7.781  1.00  0.00     0.001 A 
ATOM      3  C   UNL     1     -34.784   3.765  -8.536  1.00  0.00     0.009 A 
ATOM      4  C   UNL     1     -35.005   4.000  -9.902  1.00  0.00    -0.018 A 
ATOM      5  C   UNL     1     -35.760   3.102 -10.671  1.00  0.00     0.009 A 
ATOM      6  C   UNL     1     -35.973   3.348 -12.030  1.00  0.00     0.001 A 
ATOM      7  C   UNL     1     -35.435   4.490 -12.632  1.00  0.00     0.001 A 
ATOM      8  C   UNL     1     -34.681   5.394 -11.877  1.00  0.00     0.009 A 
ATOM      9  C   UNL     1     -34.460   5.159 -10.511  1.00  0.00    -0.018 A 
ATOM     10  C   UNL     1     -33.705   6.058  -9.742  1.00  0.00     0.009 A 
ENDROOT
TORSDOF 0
ENDMDL
MODEL 8
REMARK VINA RESULT:    -4.116      2.011      3.325
REMARK INTER + INTRA:          -4.116
REMARK INTER:                  -4.116
REMARK INTRA:                   0.000
REMARK UNBOUND:                 0.000
REMARK SMILES c1ccc2ccccc2c1
REMARK SMILES IDX 2 1 1 2 10 3 9 4 8 5 7 6 6 7 5 8 4 9 3 10
REMARK H PARENT
REMARK Flexibility Score: inf
ROOT
ATOM      1  C   UNL     1     -35.984   2.947 -11.483  1.00  0.00     0.001 A 
ATOM      2  C   UNL     1     -35.583   4.017 -12.289  1.00  0.00     0.001 A 
ATOM      3  C   UNL     1     -34.856   5.078 -11.739  1.00  0.00     0.009 A 
ATOM      4  C   UNL     1     -34.525   5.073 -10.375  1.00  0.00    -0.018 A 
ATOM      5  C   UNL     1     -33.797   6.132  -9.811  1.00  0.00     0.009 A 
ATOM      6  C   UNL     1     -33.474   6.114  -8.451  1.00  0.00     0.001 A 
ATOM      7  C   UNL     1     -33.875   5.045  -7.645  1.00  0.00     0.001 A 
ATOM      8  C   UNL     1     -34.602   3.984  -8.195  1.00  0.00     0.009 A 
ATOM      9  C   UNL     1     -34.933   3.988  -9.559  1.00  0.00    -0.018 A 
ATOM     10  C   UNL     1     -35.662   2.930 -10.123  1.00  0.00     0.009 A 
ENDROOT
TORSDOF 0
ENDMDL
MODEL 9
REMARK VINA RESULT:    -3.981      2.144      3.083
REMARK INTER + INTRA:          -3.981
REMARK INTER:                  -3.981
REMARK INTRA:                   0.000
REMARK UNBOUND:                 0.000
REMARK SMILES c1ccc2ccccc2c1
REMARK SMILES IDX 2 1 1 2 10 3 9 4 8 5 7 6 6 7 5 8 4 9 3 10
REMARK H PARENT
REMARK Flexibility Score: inf
ROOT
ATOM      1  C   UNL     1     -34.936   2.484  -8.428  1.00  0.00     0.001 A 
ATOM      2  C   UNL     1     -34.267   3.585  -7.885  1.00  0.00     0.001 A 
ATOM      3  C   UNL     1     -34.037   4.723  -8.664  1.00  0.00     0.009 A 
ATOM      4  C   UNL     1     -34.479   4.766  -9.996  1.00  0.00    -0.018 A 
ATOM      5  C   UNL     1     -34.255   5.902 -10.789  1.00  0.00     0.009 A 
ATOM      6  C   UNL     1     -34.700   5.931 -12.114  1.00  0.00     0.001 A 
ATOM      7  C   UNL     1     -35.369   4.830 -12.657  1.00  0.00     0.001 A 
ATOM      8  C   UNL     1     -35.599   3.692 -11.877  1.00  0.00     0.009 A 
ATOM      9  C   UNL     1     -35.157   3.649 -10.546  1.00  0.00    -0.018 A 
ATOM     10  C   UNL     1     -35.381   2.513  -9.753  1.00  0.00     0.009 A 
ENDROOT
TORSDOF 0
ENDMDL
