MODEL 1
REMARK VINA RESULT:    -4.967      0.000      0.000
REMARK INTER + INTRA:          -6.329
REMARK INTER:                  -6.129
REMARK INTRA:                  -0.201
REMARK UNBOUND:                -0.201
REMARK SMILES O=c1c(O)c(-c2cc(O)c(O)c(O)c2)oc2cc(O)cc(O)c12
REMARK SMILES IDX 5 1 3 2 2 3 1 4 23 5 21 6 20 7 18 8 17 9 16 10 15 11 6 12
REMARK SMILES IDX 7 13 8 14 14 15 10 16 12 17 9 18 11 20 13 22 4 24 22 26
REMARK SMILES IDX 19 28
REMARK H PARENT 9 19 11 21 13 23 4 25 22 27 19 29
REMARK Flexibility Score: inf
ROOT
ATOM      1  C   UNL     1      -7.416  29.291  37.305  1.00  0.00     0.180 A 
ATOM      2  C   UNL     1      -6.497  29.020  38.333  1.00  0.00     0.208 A 
ATOM      3  C   UNL     1      -6.303  27.689  38.740  1.00  0.00     0.238 A 
ATOM      4  O   UNL     1      -5.439  27.447  39.622  1.00  0.00    -0.285 OA
ATOM      5  C   UNL     1      -7.042  26.650  38.125  1.00  0.00     0.111 A 
ATOM      6  C   UNL     1      -6.956  25.271  38.486  1.00  0.00     0.134 A 
ATOM      7  C   UNL     1      -7.637  24.314  37.722  1.00  0.00     0.093 A 
ATOM      8  C   UNL     1      -8.450  24.690  36.655  1.00  0.00     0.123 A 
ATOM      9  C   UNL     1      -8.589  26.041  36.331  1.00  0.00     0.094 A 
ATOM     10  C   UNL     1      -7.894  27.016  37.050  1.00  0.00     0.146 A 
ATOM     11  O   UNL     1      -8.045  28.289  36.704  1.00  0.00    -0.452 OA
ENDROOT
BRANCH   1  12
ATOM     12  C   UNL     1      -7.693  30.669  36.840  1.00  0.00     0.029 A 
ATOM     13  C   UNL     1      -7.331  31.093  35.550  1.00  0.00     0.062 A 
ATOM     14  C   UNL     1      -7.579  32.408  35.136  1.00  0.00     0.162 A 
ATOM     15  C   UNL     1      -8.277  31.591  37.722  1.00  0.00     0.062 A 
ATOM     16  C   UNL     1      -8.185  33.318  36.019  1.00  0.00     0.200 A 
ATOM     17  C   UNL     1      -8.530  32.906  37.317  1.00  0.00     0.162 A 
BRANCH  14  18
ATOM     18  O   UNL     1      -7.221  32.815  33.851  1.00  0.00    -0.504 OA
ATOM     19  H   UNL     1      -6.949  33.771  33.653  1.00  0.00     0.293 HD
ENDBRANCH  14  18
BRANCH  16  20
ATOM     20  O   UNL     1      -8.443  34.631  35.621  1.00  0.00    -0.502 OA
ATOM     21  H   UNL     1      -7.852  35.122  34.960  1.00  0.00     0.293 HD
ENDBRANCH  16  20
BRANCH  17  22
ATOM     22  O   UNL     1      -9.125  33.787  38.219  1.00  0.00    -0.504 OA
ATOM     23  H   UNL     1      -9.872  34.414  37.946  1.00  0.00     0.293 HD
ENDBRANCH  17  22
ENDBRANCH   1  12
BRANCH   2  24
ATOM     24  O   UNL     1      -5.762  30.057  38.912  1.00  0.00    -0.502 OA
ATOM     25  H   UNL     1      -5.126  30.638  38.379  1.00  0.00     0.293 HD
ENDBRANCH   2  24
BRANCH   6  26
ATOM     26  O   UNL     1      -6.244  24.797  39.591  1.00  0.00    -0.507 OA
ATOM     27  H   UNL     1      -5.293  25.050  39.814  1.00  0.00     0.293 HD
ENDBRANCH   6  26
BRANCH   8  28
ATOM     28  O   UNL     1      -9.125  23.712  35.927  1.00  0.00    -0.508 OA
ATOM     29  H   UNL     1      -8.723  22.795  35.772  1.00  0.00     0.293 HD
ENDBRANCH   8  28
TORSDOF 7
ENDMDL
MODEL 2
REMARK VINA RESULT:    -4.925      0.132      1.759
REMARK INTER + INTRA:          -6.277
REMARK INTER:                  -6.050
REMARK INTRA:                  -0.227
REMARK UNBOUND:                -0.201
REMARK SMILES O=c1c(O)c(-c2cc(O)c(O)c(O)c2)oc2cc(O)cc(O)c12
REMARK SMILES IDX 5 1 3 2 2 3 1 4 23 5 21 6 20 7 18 8 17 9 16 10 15 11 6 12
REMARK SMILES IDX 7 13 8 14 14 15 10 16 12 17 9 18 11 20 13 22 4 24 22 26
REMARK SMILES IDX 19 28
REMARK H PARENT 9 19 11 21 13 23 4 25 22 27 19 29
REMARK Flexibility Score: inf
ROOT
ATOM      1  C   UNL     1      -7.333  29.243  37.399  1.00  0.00     0.180 A 
ATOM      2  C   UNL     1      -6.456  28.951  38.457  1.00  0.00     0.208 A 
ATOM      3  C   UNL     1      -6.276  27.612  38.842  1.00  0.00     0.238 A 
ATOM      4  O   UNL     1      -5.449  27.351  39.754  1.00  0.00    -0.285 OA
ATOM      5  C   UNL     1      -6.986  26.585  38.173  1.00  0.00     0.111 A 
ATOM      6  C   UNL     1      -6.911  25.199  38.506  1.00  0.00     0.134 A 
ATOM      7  C   UNL     1      -7.556  24.258  37.693  1.00  0.00     0.093 A 
ATOM      8  C   UNL     1      -8.325  24.657  36.601  1.00  0.00     0.123 A 
ATOM      9  C   UNL     1      -8.455  26.015  36.303  1.00  0.00     0.094 A 
ATOM     10  C   UNL     1      -7.793  26.974  37.073  1.00  0.00     0.146 A 
ATOM     11  O   UNL     1      -7.933  28.254  36.749  1.00  0.00    -0.452 OA
ENDROOT
BRANCH   1  12
ATOM     12  C   UNL     1      -7.594  30.631  36.954  1.00  0.00     0.029 A 
ATOM     13  C   UNL     1      -8.234  31.560  37.791  1.00  0.00     0.062 A 
ATOM     14  C   UNL     1      -8.494  32.863  37.344  1.00  0.00     0.162 A 
ATOM     15  C   UNL     1      -7.246  31.015  35.650  1.00  0.00     0.062 A 
ATOM     16  C   UNL     1      -8.122  33.245  36.044  1.00  0.00     0.200 A 
ATOM     17  C   UNL     1      -7.499  32.314  35.195  1.00  0.00     0.162 A 
BRANCH  14  18
ATOM     18  O   UNL     1      -9.125  33.777  38.186  1.00  0.00    -0.504 OA
ATOM     19  H   UNL     1      -9.299  33.569  39.163  1.00  0.00     0.293 HD
ENDBRANCH  14  18
BRANCH  16  20
ATOM     20  O   UNL     1      -8.368  34.539  35.584  1.00  0.00    -0.502 OA
ATOM     21  H   UNL     1      -7.641  35.242  35.531  1.00  0.00     0.293 HD
ENDBRANCH  16  20
BRANCH  17  22
ATOM     22  O   UNL     1      -7.125  32.660  33.897  1.00  0.00    -0.504 OA
ATOM     23  H   UNL     1      -7.753  32.555  33.110  1.00  0.00     0.293 HD
ENDBRANCH  17  22
ENDBRANCH   1  12
BRANCH   2  24
ATOM     24  O   UNL     1      -5.749  29.976  39.090  1.00  0.00    -0.502 OA
ATOM     25  H   UNL     1      -5.850  30.181  40.077  1.00  0.00     0.293 HD
ENDBRANCH   2  24
BRANCH   6  26
ATOM     26  O   UNL     1      -6.244  24.701  39.629  1.00  0.00    -0.507 OA
ATOM     27  H   UNL     1      -5.301  24.944  39.892  1.00  0.00     0.293 HD
ENDBRANCH   6  26
BRANCH   8  28
ATOM     28  O   UNL     1      -8.967  23.694  35.824  1.00  0.00    -0.508 OA
ATOM     29  H   UNL     1      -8.713  23.540  34.855  1.00  0.00     0.293 HD
ENDBRANCH   8  28
TORSDOF 7
ENDMDL
MODEL 3
REMARK VINA RESULT:    -4.916      2.352      8.031
REMARK INTER + INTRA:          -6.266
REMARK INTER:                  -6.099
REMARK INTRA:                  -0.167
REMARK UNBOUND:                -0.201
REMARK SMILES O=c1c(O)c(-c2cc(O)c(O)c(O)c2)oc2cc(O)cc(O)c12
REMARK SMILES IDX 5 1 3 2 2 3 1 4 23 5 21 6 20 7 18 8 17 9 16 10 15 11 6 12
REMARK SMILES IDX 7 13 8 14 14 15 10 16 12 17 9 18 11 20 13 22 4 24 22 26
REMARK SMILES IDX 19 28
REMARK H PARENT 9 19 11 21 13 23 4 25 22 27 19 29
REMARK Flexibility Score: inf
ROOT
ATOM      1  C   UNL     1      -8.136  32.893  36.639  1.00  0.00     0.180 A 
ATOM      2  C   UNL     1      -8.494  33.879  37.574  1.00  0.00     0.208 A 
ATOM      3  C   UNL     1      -8.751  35.184  37.123  1.00  0.00     0.238 A 
ATOM      4  O   UNL     1      -9.125  36.050  37.956  1.00  0.00    -0.285 OA
ATOM      5  C   UNL     1      -8.630  35.490  35.745  1.00  0.00     0.111 A 
ATOM      6  C   UNL     1      -8.826  36.787  35.183  1.00  0.00     0.134 A 
ATOM      7  C   UNL     1      -8.809  36.946  33.791  1.00  0.00     0.093 A 
ATOM      8  C   UNL     1      -8.537  35.871  32.947  1.00  0.00     0.123 A 
ATOM      9  C   UNL     1      -8.283  34.610  33.490  1.00  0.00     0.094 A 
ATOM     10  C   UNL     1      -8.331  34.412  34.871  1.00  0.00     0.146 A 
ATOM     11  O   UNL     1      -8.095  33.195  35.347  1.00  0.00    -0.452 OA
ENDROOT
BRANCH   1  12
ATOM     12  C   UNL     1      -7.826  31.502  37.041  1.00  0.00     0.029 A 
ATOM     13  C   UNL     1      -8.624  30.424  36.624  1.00  0.00     0.062 A 
ATOM     14  C   UNL     1      -8.329  29.117  37.034  1.00  0.00     0.162 A 
ATOM     15  C   UNL     1      -6.747  31.257  37.904  1.00  0.00     0.062 A 
ATOM     16  C   UNL     1      -7.232  28.879  37.881  1.00  0.00     0.200 A 
ATOM     17  C   UNL     1      -6.443  29.957  38.319  1.00  0.00     0.162 A 
BRANCH  14  18
ATOM     18  O   UNL     1      -9.124  28.055  36.608  1.00  0.00    -0.504 OA
ATOM     19  H   UNL     1      -8.951  27.104  36.913  1.00  0.00     0.293 HD
ENDBRANCH  14  18
BRANCH  16  20
ATOM     20  O   UNL     1      -6.922  27.583  38.296  1.00  0.00    -0.502 OA
ATOM     21  H   UNL     1      -7.482  26.782  38.030  1.00  0.00     0.293 HD
ENDBRANCH  16  20
BRANCH  17  22
ATOM     22  O   UNL     1      -5.354  29.754  39.165  1.00  0.00    -0.504 OA
ATOM     23  H   UNL     1      -5.008  28.828  39.387  1.00  0.00     0.293 HD
ENDBRANCH  17  22
ENDBRANCH   1  12
BRANCH   2  24
ATOM     24  O   UNL     1      -8.629  33.552  38.925  1.00  0.00    -0.502 OA
ATOM     25  H   UNL     1      -7.945  32.994  39.422  1.00  0.00     0.293 HD
ENDBRANCH   2  24
BRANCH   6  26
ATOM     26  O   UNL     1      -9.015  37.946  35.941  1.00  0.00    -0.507 OA
ATOM     27  H   UNL     1      -9.289  37.959  36.912  1.00  0.00     0.293 HD
ENDBRANCH   6  26
BRANCH   8  28
ATOM     28  O   UNL     1      -8.512  36.069  31.568  1.00  0.00    -0.508 OA
ATOM     29  H   UNL     1      -9.239  35.701  30.966  1.00  0.00     0.293 HD
ENDBRANCH   8  28
TORSDOF 7
ENDMDL
MODEL 4
REMARK VINA RESULT:    -4.428      1.587      7.652
REMARK INTER + INTRA:          -5.664
REMARK INTER:                  -5.476
REMARK INTRA:                  -0.188
REMARK UNBOUND:                -0.201
REMARK SMILES O=c1c(O)c(-c2cc(O)c(O)c(O)c2)oc2cc(O)cc(O)c12
REMARK SMILES IDX 5 1 3 2 2 3 1 4 23 5 21 6 20 7 18 8 17 9 16 10 15 11 6 12
REMARK SMILES IDX 7 13 8 14 14 15 10 16 12 17 9 18 11 20 13 22 4 24 22 26
REMARK SMILES IDX 19 28
REMARK H PARENT 9 19 11 21 13 23 4 25 22 27 19 29
REMARK Flexibility Score: inf
ROOT
ATOM      1  C   UNL     1      -7.812  31.213  36.772  1.00  0.00     0.180 A 
ATOM      2  C   UNL     1      -7.606  31.634  35.446  1.00  0.00     0.208 A 
ATOM      3  C   UNL     1      -7.800  32.987  35.123  1.00  0.00     0.238 A 
ATOM      4  O   UNL     1      -7.562  33.368  33.948  1.00  0.00    -0.285 OA
ATOM      5  C   UNL     1      -8.211  33.898  36.126  1.00  0.00     0.111 A 
ATOM      6  C   UNL     1      -8.476  35.283  35.903  1.00  0.00     0.134 A 
ATOM      7  C   UNL     1      -8.751  36.118  36.994  1.00  0.00     0.093 A 
ATOM      8  C   UNL     1      -8.834  35.608  38.288  1.00  0.00     0.123 A 
ATOM      9  C   UNL     1      -8.636  34.244  38.510  1.00  0.00     0.094 A 
ATOM     10  C   UNL     1      -8.324  33.393  37.448  1.00  0.00     0.146 A 
ATOM     11  O   UNL     1      -8.133  32.103  37.702  1.00  0.00    -0.452 OA
ENDROOT
BRANCH   1  12
ATOM     12  C   UNL     1      -7.652  29.800  37.183  1.00  0.00     0.029 A 
ATOM     13  C   UNL     1      -8.450  28.783  36.632  1.00  0.00     0.062 A 
ATOM     14  C   UNL     1      -8.301  27.453  37.050  1.00  0.00     0.162 A 
ATOM     15  C   UNL     1      -6.724  29.472  38.183  1.00  0.00     0.062 A 
ATOM     16  C   UNL     1      -7.354  27.132  38.037  1.00  0.00     0.200 A 
ATOM     17  C   UNL     1      -6.567  28.148  38.606  1.00  0.00     0.162 A 
BRANCH  14  18
ATOM     18  O   UNL     1      -9.095  26.453  36.492  1.00  0.00    -0.504 OA
ATOM     19  H   UNL     1      -9.785  25.953  37.041  1.00  0.00     0.293 HD
ENDBRANCH  14  18
BRANCH  16  20
ATOM     20  O   UNL     1      -7.189  25.813  38.462  1.00  0.00    -0.502 OA
ATOM     21  H   UNL     1      -7.396  25.520  39.409  1.00  0.00     0.293 HD
ENDBRANCH  16  20
BRANCH  17  22
ATOM     22  O   UNL     1      -5.624  27.862  39.592  1.00  0.00    -0.504 OA
ATOM     23  H   UNL     1      -4.645  27.718  39.376  1.00  0.00     0.293 HD
ENDBRANCH  17  22
ENDBRANCH   1  12
BRANCH   2  24
ATOM     24  O   UNL     1      -7.180  30.722  34.477  1.00  0.00    -0.502 OA
ATOM     25  H   UNL     1      -7.284  29.721  34.586  1.00  0.00     0.293 HD
ENDBRANCH   2  24
BRANCH   6  26
ATOM     26  O   UNL     1      -8.508  35.877  34.638  1.00  0.00    -0.507 OA
ATOM     27  H   UNL     1      -7.721  36.326  34.194  1.00  0.00     0.293 HD
ENDBRANCH   6  26
BRANCH   8  28
ATOM     28  O   UNL     1      -9.125  36.465  39.348  1.00  0.00    -0.508 OA
ATOM     29  H   UNL     1      -9.892  36.280  39.983  1.00  0.00     0.293 HD
ENDBRANCH   8  28
TORSDOF 7
ENDMDL
MODEL 5
REMARK VINA RESULT:    -4.179      2.589      4.581
REMARK INTER + INTRA:          -5.357
REMARK INTER:                  -4.994
REMARK INTRA:                  -0.363
REMARK UNBOUND:                -0.201
REMARK SMILES O=c1c(O)c(-c2cc(O)c(O)c(O)c2)oc2cc(O)cc(O)c12
REMARK SMILES IDX 5 1 3 2 2 3 1 4 23 5 21 6 20 7 18 8 17 9 16 10 15 11 6 12
REMARK SMILES IDX 7 13 8 14 14 15 10 16 12 17 9 18 11 20 13 22 4 24 22 26
REMARK SMILES IDX 19 28
REMARK H PARENT 9 19 11 21 13 23 4 25 22 27 19 29
REMARK Flexibility Score: inf
ROOT
ATOM      1  C   UNL     1      -7.254  25.497  38.163  1.00  0.00     0.180 A 
ATOM      2  C   UNL     1      -8.197  24.855  38.984  1.00  0.00     0.208 A 
ATOM      3  C   UNL     1      -8.316  23.457  38.921  1.00  0.00     0.238 A 
ATOM      4  O   UNL     1      -9.123  22.883  39.697  1.00  0.00    -0.285 OA
ATOM      5  C   UNL     1      -7.501  22.721  38.027  1.00  0.00     0.111 A 
ATOM      6  C   UNL     1      -7.565  21.306  37.851  1.00  0.00     0.134 A 
ATOM      7  C   UNL     1      -6.621  20.669  37.034  1.00  0.00     0.093 A 
ATOM      8  C   UNL     1      -5.661  21.400  36.338  1.00  0.00     0.123 A 
ATOM      9  C   UNL     1      -5.628  22.791  36.456  1.00  0.00     0.094 A 
ATOM     10  C   UNL     1      -6.531  23.451  37.291  1.00  0.00     0.146 A 
ATOM     11  O   UNL     1      -6.460  24.774  37.384  1.00  0.00    -0.452 OA
ENDROOT
BRANCH   1  12
ATOM     12  C   UNL     1      -7.089  26.968  38.156  1.00  0.00     0.029 A 
ATOM     13  C   UNL     1      -7.898  27.792  37.355  1.00  0.00     0.062 A 
ATOM     14  C   UNL     1      -7.712  29.181  37.343  1.00  0.00     0.162 A 
ATOM     15  C   UNL     1      -6.068  27.553  38.921  1.00  0.00     0.062 A 
ATOM     16  C   UNL     1      -6.700  29.758  38.130  1.00  0.00     0.200 A 
ATOM     17  C   UNL     1      -5.875  28.938  38.917  1.00  0.00     0.162 A 
BRANCH  14  18
ATOM     18  O   UNL     1      -8.525  29.988  36.549  1.00  0.00    -0.504 OA
ATOM     19  H   UNL     1      -9.247  29.595  35.955  1.00  0.00     0.293 HD
ENDBRANCH  14  18
BRANCH  16  20
ATOM     20  O   UNL     1      -6.505  31.140  38.134  1.00  0.00    -0.502 OA
ATOM     21  H   UNL     1      -7.277  31.796  38.164  1.00  0.00     0.293 HD
ENDBRANCH  16  20
BRANCH  17  22
ATOM     22  O   UNL     1      -4.859  29.480  39.702  1.00  0.00    -0.504 OA
ATOM     23  H   UNL     1      -5.050  30.110  40.472  1.00  0.00     0.293 HD
ENDBRANCH  17  22
ENDBRANCH   1  12
BRANCH   2  24
ATOM     24  O   UNL     1      -8.976  25.598  39.875  1.00  0.00    -0.502 OA
ATOM     25  H   UNL     1      -8.799  25.614  40.872  1.00  0.00     0.293 HD
ENDBRANCH   2  24
BRANCH   6  26
ATOM     26  O   UNL     1      -8.542  20.491  38.428  1.00  0.00    -0.507 OA
ATOM     27  H   UNL     1      -9.527  20.705  38.454  1.00  0.00     0.293 HD
ENDBRANCH   6  26
BRANCH   8  28
ATOM     28  O   UNL     1      -4.748  20.734  35.522  1.00  0.00    -0.508 OA
ATOM     29  H   UNL     1      -4.453  21.120  34.633  1.00  0.00     0.293 HD
ENDBRANCH   8  28
TORSDOF 7
ENDMDL
MODEL 6
REMARK VINA RESULT:    -4.120      1.537      3.120
REMARK INTER + INTRA:          -5.284
REMARK INTER:                  -4.989
REMARK INTRA:                  -0.295
REMARK UNBOUND:                -0.201
REMARK SMILES O=c1c(O)c(-c2cc(O)c(O)c(O)c2)oc2cc(O)cc(O)c12
REMARK SMILES IDX 5 1 3 2 2 3 1 4 23 5 21 6 20 7 18 8 17 9 16 10 15 11 6 12
REMARK SMILES IDX 7 13 8 14 14 15 10 16 12 17 9 18 11 20 13 22 4 24 22 26
REMARK SMILES IDX 19 28
REMARK H PARENT 9 19 11 21 13 23 4 25 22 27 19 29
REMARK Flexibility Score: inf
ROOT
ATOM      1  C   UNL     1      -7.393  27.877  37.019  1.00  0.00     0.180 A 
ATOM      2  C   UNL     1      -8.095  26.907  36.281  1.00  0.00     0.208 A 
ATOM      3  C   UNL     1      -7.796  25.550  36.483  1.00  0.00     0.238 A 
ATOM      4  O   UNL     1      -8.465  24.684  35.861  1.00  0.00    -0.285 OA
ATOM      5  C   UNL     1      -6.789  25.181  37.408  1.00  0.00     0.111 A 
ATOM      6  C   UNL     1      -6.377  23.838  37.663  1.00  0.00     0.134 A 
ATOM      7  C   UNL     1      -5.463  23.580  38.694  1.00  0.00     0.093 A 
ATOM      8  C   UNL     1      -4.900  24.619  39.433  1.00  0.00     0.123 A 
ATOM      9  C   UNL     1      -5.251  25.940  39.151  1.00  0.00     0.094 A 
ATOM     10  C   UNL     1      -6.187  26.226  38.155  1.00  0.00     0.146 A 
ATOM     11  O   UNL     1      -6.502  27.496  37.925  1.00  0.00    -0.452 OA
ENDROOT
BRANCH   1  12
ATOM     12  C   UNL     1      -7.635  29.327  36.842  1.00  0.00     0.029 A 
ATOM     13  C   UNL     1      -7.199  30.007  35.692  1.00  0.00     0.062 A 
ATOM     14  C   UNL     1      -7.416  31.384  35.553  1.00  0.00     0.162 A 
ATOM     15  C   UNL     1      -8.261  30.052  37.867  1.00  0.00     0.062 A 
ATOM     16  C   UNL     1      -8.064  32.098  36.576  1.00  0.00     0.200 A 
ATOM     17  C   UNL     1      -8.483  31.427  37.737  1.00  0.00     0.162 A 
BRANCH  14  18
ATOM     18  O   UNL     1      -6.985  32.046  34.405  1.00  0.00    -0.504 OA
ATOM     19  H   UNL     1      -6.709  33.021  34.425  1.00  0.00     0.293 HD
ENDBRANCH  14  18
BRANCH  16  20
ATOM     20  O   UNL     1      -8.292  33.470  36.451  1.00  0.00    -0.502 OA
ATOM     21  H   UNL     1      -7.964  34.002  35.654  1.00  0.00     0.293 HD
ENDBRANCH  16  20
BRANCH  17  22
ATOM     22  O   UNL     1      -9.122  32.109  38.772  1.00  0.00    -0.504 OA
ATOM     23  H   UNL     1      -9.795  32.846  38.598  1.00  0.00     0.293 HD
ENDBRANCH  17  22
ENDBRANCH   1  12
BRANCH   2  24
ATOM     24  O   UNL     1      -9.099  27.292  35.389  1.00  0.00    -0.502 OA
ATOM     25  H   UNL     1      -8.949  27.983  34.665  1.00  0.00     0.293 HD
ENDBRANCH   2  24
BRANCH   6  26
ATOM     26  O   UNL     1      -6.809  22.735  36.922  1.00  0.00    -0.507 OA
ATOM     27  H   UNL     1      -7.765  22.419  36.866  1.00  0.00     0.293 HD
ENDBRANCH   6  26
BRANCH   8  28
ATOM     28  O   UNL     1      -3.982  24.327  40.440  1.00  0.00    -0.508 OA
ATOM     29  H   UNL     1      -4.278  24.160  41.394  1.00  0.00     0.293 HD
ENDBRANCH   8  28
TORSDOF 7
ENDMDL
MODEL 7
REMARK VINA RESULT:    -4.085     19.855     21.345
REMARK INTER + INTRA:          -5.241
REMARK INTER:                  -5.372
REMARK INTRA:                   0.131
REMARK UNBOUND:                -0.201
REMARK SMILES O=c1c(O)c(-c2cc(O)c(O)c(O)c2)oc2cc(O)cc(O)c12
REMARK SMILES IDX 5 1 3 2 2 3 1 4 23 5 21 6 20 7 18 8 17 9 16 10 15 11 6 12
REMARK SMILES IDX 7 13 8 14 14 15 10 16 12 17 9 18 11 20 13 22 4 24 22 26
REMARK SMILES IDX 19 28
REMARK H PARENT 9 19 11 21 13 23 4 25 22 27 19 29
REMARK Flexibility Score: inf
ROOT
ATOM      1  C   UNL     1       8.621  21.383  27.021  1.00  0.00     0.180 A 
ATOM      2  C   UNL     1       9.702  22.088  26.465  1.00  0.00     0.208 A 
ATOM      3  C   UNL     1       9.685  22.390  25.094  1.00  0.00     0.238 A 
ATOM      4  O   UNL     1      10.629  23.070  24.612  1.00  0.00    -0.285 OA
ATOM      5  C   UNL     1       8.595  21.969  24.294  1.00  0.00     0.111 A 
ATOM      6  C   UNL     1       8.492  22.185  22.886  1.00  0.00     0.134 A 
ATOM      7  C   UNL     1       7.309  21.840  22.220  1.00  0.00     0.093 A 
ATOM      8  C   UNL     1       6.254  21.230  22.895  1.00  0.00     0.123 A 
ATOM      9  C   UNL     1       6.368  20.959  24.260  1.00  0.00     0.094 A 
ATOM     10  C   UNL     1       7.520  21.325  24.959  1.00  0.00     0.146 A 
ATOM     11  O   UNL     1       7.585  21.060  26.259  1.00  0.00    -0.452 OA
ENDROOT
BRANCH   1  12
ATOM     12  C   UNL     1       8.580  21.007  28.453  1.00  0.00     0.029 A 
ATOM     13  C   UNL     1       9.743  20.623  29.142  1.00  0.00     0.062 A 
ATOM     14  C   UNL     1       9.682  20.248  30.491  1.00  0.00     0.162 A 
ATOM     15  C   UNL     1       7.349  20.977  29.124  1.00  0.00     0.062 A 
ATOM     16  C   UNL     1       8.446  20.242  31.161  1.00  0.00     0.200 A 
ATOM     17  C   UNL     1       7.277  20.605  30.470  1.00  0.00     0.162 A 
BRANCH  14  18
ATOM     18  O   UNL     1      10.843  19.875  31.166  1.00  0.00    -0.504 OA
ATOM     19  H   UNL     1      11.755  19.935  30.728  1.00  0.00     0.293 HD
ENDBRANCH  14  18
BRANCH  16  20
ATOM     20  O   UNL     1       8.367  19.875  32.505  1.00  0.00    -0.502 OA
ATOM     21  H   UNL     1       8.503  20.541  33.256  1.00  0.00     0.293 HD
ENDBRANCH  16  20
BRANCH  17  22
ATOM     22  O   UNL     1       6.035  20.602  31.105  1.00  0.00    -0.504 OA
ATOM     23  H   UNL     1       5.194  20.927  30.644  1.00  0.00     0.293 HD
ENDBRANCH  17  22
ENDBRANCH   1  12
BRANCH   2  24
ATOM     24  O   UNL     1      10.758  22.513  27.276  1.00  0.00    -0.502 OA
ATOM     25  H   UNL     1      11.727  22.327  27.051  1.00  0.00     0.293 HD
ENDBRANCH   2  24
BRANCH   6  26
ATOM     26  O   UNL     1       9.523  22.705  22.099  1.00  0.00    -0.507 OA
ATOM     27  H   UNL     1      10.400  22.239  21.919  1.00  0.00     0.293 HD
ENDBRANCH   6  26
BRANCH   8  28
ATOM     28  O   UNL     1       5.098  20.886  22.196  1.00  0.00    -0.508 OA
ATOM     29  H   UNL     1       5.027  21.015  21.194  1.00  0.00     0.293 HD
ENDBRANCH   8  28
TORSDOF 7
ENDMDL
MODEL 8
REMARK VINA RESULT:    -4.049      2.356      4.616
REMARK INTER + INTRA:          -5.196
REMARK INTER:                  -5.095
REMARK INTRA:                  -0.101
REMARK UNBOUND:                -0.201
REMARK SMILES O=c1c(O)c(-c2cc(O)c(O)c(O)c2)oc2cc(O)cc(O)c12
REMARK SMILES IDX 5 1 3 2 2 3 1 4 23 5 21 6 20 7 18 8 17 9 16 10 15 11 6 12
REMARK SMILES IDX 7 13 8 14 14 15 10 16 12 17 9 18 11 20 13 22 4 24 22 26
REMARK SMILES IDX 19 28
REMARK H PARENT 9 19 11 21 13 23 4 25 22 27 19 29
REMARK Flexibility Score: inf
ROOT
ATOM      1  C   UNL     1      -7.441  25.635  37.274  1.00  0.00     0.180 A 
ATOM      2  C   UNL     1      -7.255  25.066  36.001  1.00  0.00     0.208 A 
ATOM      3  C   UNL     1      -7.435  23.683  35.841  1.00  0.00     0.238 A 
ATOM      4  O   UNL     1      -7.321  23.188  34.689  1.00  0.00    -0.285 OA
ATOM      5  C   UNL     1      -7.783  22.884  36.957  1.00  0.00     0.111 A 
ATOM      6  C   UNL     1      -7.951  21.466  36.918  1.00  0.00     0.134 A 
ATOM      7  C   UNL     1      -8.424  20.796  38.054  1.00  0.00     0.093 A 
ATOM      8  C   UNL     1      -8.671  21.479  39.242  1.00  0.00     0.123 A 
ATOM      9  C   UNL     1      -8.452  22.856  39.309  1.00  0.00     0.094 A 
ATOM     10  C   UNL     1      -8.017  23.558  38.183  1.00  0.00     0.146 A 
ATOM     11  O   UNL     1      -7.831  24.869  38.285  1.00  0.00    -0.452 OA
ENDROOT
BRANCH   1  12
ATOM     12  C   UNL     1      -7.244  27.080  37.526  1.00  0.00     0.029 A 
ATOM     13  C   UNL     1      -7.957  28.053  36.804  1.00  0.00     0.062 A 
ATOM     14  C   UNL     1      -7.741  29.417  37.040  1.00  0.00     0.162 A 
ATOM     15  C   UNL     1      -6.286  27.494  38.464  1.00  0.00     0.062 A 
ATOM     16  C   UNL     1      -6.794  29.821  37.998  1.00  0.00     0.200 A 
ATOM     17  C   UNL     1      -6.064  28.853  38.707  1.00  0.00     0.162 A 
BRANCH  14  18
ATOM     18  O   UNL     1      -8.459  30.372  36.322  1.00  0.00    -0.504 OA
ATOM     19  H   UNL     1      -8.149  31.335  36.261  1.00  0.00     0.293 HD
ENDBRANCH  14  18
BRANCH  16  20
ATOM     20  O   UNL     1      -6.570  31.175  38.248  1.00  0.00    -0.502 OA
ATOM     21  H   UNL     1      -7.155  31.902  37.855  1.00  0.00     0.293 HD
ENDBRANCH  16  20
BRANCH  17  22
ATOM     22  O   UNL     1      -5.113  29.222  39.658  1.00  0.00    -0.504 OA
ATOM     23  H   UNL     1      -4.698  30.146  39.675  1.00  0.00     0.293 HD
ENDBRANCH  17  22
ENDBRANCH   1  12
BRANCH   2  24
ATOM     24  O   UNL     1      -6.933  25.876  34.909  1.00  0.00    -0.502 OA
ATOM     25  H   UNL     1      -7.171  26.859  34.870  1.00  0.00     0.293 HD
ENDBRANCH   2  24
BRANCH   6  26
ATOM     26  O   UNL     1      -7.646  20.675  35.807  1.00  0.00    -0.507 OA
ATOM     27  H   UNL     1      -8.096  20.749  34.908  1.00  0.00     0.293 HD
ENDBRANCH   6  26
BRANCH   8  28
ATOM     28  O   UNL     1      -9.125  20.777  40.358  1.00  0.00    -0.508 OA
ATOM     29  H   UNL     1     -10.114  20.665  40.546  1.00  0.00     0.293 HD
ENDBRANCH   8  28
TORSDOF 7
ENDMDL
