MODEL 1
REMARK VINA RESULT:    -5.231      0.000      0.000
REMARK INTER + INTRA:         -10.237
REMARK INTER:                  -8.136
REMARK INTRA:                  -2.101
REMARK UNBOUND:                -2.101
REMARK SMILES COc1cc(CNC(=O)CCCCC=CC(C)C)ccc1O
REMARK SMILES IDX 11 1 12 2 13 3 14 4 15 5 16 6 17 7 18 8 10 9 8 10 9 11 7 12
REMARK SMILES IDX 6 14 5 15 4 16 19 17 3 18 20 19 21 20 2 21 1 22 22 23
REMARK H PARENT 7 13 22 24
REMARK Flexibility Score: inf
ROOT
ATOM      1  C   UNL     1      -2.731 -39.098 -36.514  1.00  0.00     0.010 C 
ENDROOT
BRANCH   1   2
ATOM      2  C   UNL     1      -2.407 -40.598 -36.457  1.00  0.00     0.005 C 
BRANCH   2   3
ATOM      3  C   UNL     1      -2.893 -41.246 -35.151  1.00  0.00     0.027 C 
BRANCH   3   4
ATOM      4  C   UNL     1      -4.170 -40.623 -34.639  1.00  0.00    -0.031 C 
ATOM      5  C   UNL     1      -5.221 -41.306 -34.151  1.00  0.00    -0.028 C 
BRANCH   5   6
ATOM      6  C   UNL     1      -5.322 -42.815 -34.073  1.00  0.00     0.005 C 
ATOM      7  C   UNL     1      -4.784 -43.301 -32.723  1.00  0.00     0.012 C 
ATOM      8  C   UNL     1      -6.781 -43.242 -34.257  1.00  0.00     0.012 C 
ENDBRANCH   5   6
ENDBRANCH   3   4
ENDBRANCH   2   3
ENDBRANCH   1   2
BRANCH   1   9
ATOM      9  C   UNL     1      -1.448 -38.258 -36.488  1.00  0.00     0.100 C 
BRANCH   9  10
ATOM     10  C   UNL     1      -0.995 -38.042 -35.076  1.00  0.00     0.220 C 
ATOM     11  O   UNL     1       0.169 -38.383 -34.741  1.00  0.00    -0.275 OA
ATOM     12  N   UNL     1      -1.892 -37.485 -34.105  1.00  0.00    -0.352 N 
ATOM     13  H   UNL     1      -2.812 -37.105 -34.420  1.00  0.00     0.163 HD
BRANCH  12  14
ATOM     14  C   UNL     1      -1.630 -37.559 -32.671  1.00  0.00     0.151 C 
BRANCH  14  15
ATOM     15  C   UNL     1      -2.673 -38.417 -32.010  1.00  0.00    -0.025 A 
ATOM     16  C   UNL     1      -3.998 -37.956 -31.909  1.00  0.00     0.056 A 
ATOM     17  C   UNL     1      -2.353 -39.701 -31.543  1.00  0.00     0.009 A 
ATOM     18  C   UNL     1      -4.994 -38.761 -31.323  1.00  0.00     0.160 A 
ATOM     19  C   UNL     1      -3.339 -40.505 -30.965  1.00  0.00     0.050 A 
ATOM     20  C   UNL     1      -4.656 -40.038 -30.850  1.00  0.00     0.157 A 
BRANCH  18  21
ATOM     21  O   UNL     1      -6.324 -38.327 -31.193  1.00  0.00    -0.493 OA
ATOM     22  C   UNL     1      -6.853 -37.162 -31.818  1.00  0.00     0.278 C 
ENDBRANCH  18  21
BRANCH  20  23
ATOM     23  O   UNL     1      -5.637 -40.840 -30.268  1.00  0.00    -0.504 OA
ATOM     24  H   UNL     1      -6.278 -41.388 -30.831  1.00  0.00     0.293 HD
ENDBRANCH  20  23
ENDBRANCH  14  15
ENDBRANCH  12  14
ENDBRANCH   9  10
ENDBRANCH   1   9
TORSDOF 10
ENDMDL
MODEL 2
REMARK VINA RESULT:    -5.212      2.639      5.330
REMARK INTER + INTRA:         -10.208
REMARK INTER:                  -9.104
REMARK INTRA:                  -1.103
REMARK UNBOUND:                -2.101
REMARK SMILES COc1cc(CNC(=O)CCCCC=CC(C)C)ccc1O
REMARK SMILES IDX 11 1 12 2 13 3 14 4 15 5 16 6 17 7 18 8 10 9 8 10 9 11 7 12
REMARK SMILES IDX 6 14 5 15 4 16 19 17 3 18 20 19 21 20 2 21 1 22 22 23
REMARK H PARENT 7 13 22 24
REMARK Flexibility Score: inf
ROOT
ATOM      1  C   UNL     1      -4.243 -42.187 -31.700  1.00  0.00     0.010 C 
ENDROOT
BRANCH   1   2
ATOM      2  C   UNL     1      -5.137 -42.870 -32.744  1.00  0.00     0.005 C 
BRANCH   2   3
ATOM      3  C   UNL     1      -4.765 -42.466 -34.179  1.00  0.00     0.027 C 
BRANCH   3   4
ATOM      4  C   UNL     1      -4.890 -40.978 -34.409  1.00  0.00    -0.031 C 
ATOM      5  C   UNL     1      -3.924 -40.192 -34.918  1.00  0.00    -0.028 C 
BRANCH   5   6
ATOM      6  C   UNL     1      -2.534 -40.653 -35.303  1.00  0.00     0.005 C 
ATOM      7  C   UNL     1      -2.276 -40.339 -36.781  1.00  0.00     0.012 C 
ATOM      8  C   UNL     1      -1.498 -39.960 -34.415  1.00  0.00     0.012 C 
ENDBRANCH   5   6
ENDBRANCH   3   4
ENDBRANCH   2   3
ENDBRANCH   1   2
BRANCH   1   9
ATOM      9  C   UNL     1      -5.080 -41.363 -30.715  1.00  0.00     0.100 C 
BRANCH   9  10
ATOM     10  C   UNL     1      -4.858 -39.898 -30.942  1.00  0.00     0.220 C 
ATOM     11  O   UNL     1      -3.748 -39.503 -31.386  1.00  0.00    -0.275 OA
ATOM     12  N   UNL     1      -5.886 -38.952 -30.623  1.00  0.00    -0.352 N 
ATOM     13  H   UNL     1      -6.836 -39.299 -30.362  1.00  0.00     0.163 HD
BRANCH  12  14
ATOM     14  C   UNL     1      -5.619 -37.521 -30.507  1.00  0.00     0.151 C 
BRANCH  14  15
ATOM     15  C   UNL     1      -6.744 -36.744 -31.133  1.00  0.00    -0.025 A 
ATOM     16  C   UNL     1      -6.459 -35.674 -32.000  1.00  0.00     0.056 A 
ATOM     17  C   UNL     1      -8.080 -37.111 -30.908  1.00  0.00     0.009 A 
ATOM     18  C   UNL     1      -7.501 -34.958 -32.621  1.00  0.00     0.160 A 
ATOM     19  C   UNL     1      -9.116 -36.406 -31.525  1.00  0.00     0.050 A 
ATOM     20  C   UNL     1      -8.832 -35.329 -32.377  1.00  0.00     0.157 A 
BRANCH  18  21
ATOM     21  O   UNL     1      -7.253 -33.876 -33.482  1.00  0.00    -0.493 OA
ATOM     22  C   UNL     1      -7.010 -32.542 -33.047  1.00  0.00     0.278 C 
ENDBRANCH  18  21
BRANCH  20  23
ATOM     23  O   UNL     1      -9.867 -34.624 -32.988  1.00  0.00    -0.504 OA
ATOM     24  H   UNL     1     -10.792 -34.575 -32.576  1.00  0.00     0.293 HD
ENDBRANCH  20  23
ENDBRANCH  14  15
ENDBRANCH  12  14
ENDBRANCH   9  10
ENDBRANCH   1   9
TORSDOF 10
ENDMDL
MODEL 3
REMARK VINA RESULT:    -4.957      0.854      2.102
REMARK INTER + INTRA:          -9.811
REMARK INTER:                  -7.859
REMARK INTRA:                  -1.952
REMARK UNBOUND:                -2.101
REMARK SMILES COc1cc(CNC(=O)CCCCC=CC(C)C)ccc1O
REMARK SMILES IDX 11 1 12 2 13 3 14 4 15 5 16 6 17 7 18 8 10 9 8 10 9 11 7 12
REMARK SMILES IDX 6 14 5 15 4 16 19 17 3 18 20 19 21 20 2 21 1 22 22 23
REMARK H PARENT 7 13 22 24
REMARK Flexibility Score: inf
ROOT
ATOM      1  C   UNL     1      -2.315 -38.772 -36.428  1.00  0.00     0.010 C 
ENDROOT
BRANCH   1   2
ATOM      2  C   UNL     1      -2.604 -40.260 -36.669  1.00  0.00     0.005 C 
BRANCH   2   3
ATOM      3  C   UNL     1      -2.956 -40.999 -35.368  1.00  0.00     0.027 C 
BRANCH   3   4
ATOM      4  C   UNL     1      -4.166 -40.411 -34.680  1.00  0.00    -0.031 C 
ATOM      5  C   UNL     1      -5.110 -41.122 -34.038  1.00  0.00    -0.028 C 
BRANCH   5   6
ATOM      6  C   UNL     1      -5.147 -42.633 -33.933  1.00  0.00     0.005 C 
ATOM      7  C   UNL     1      -4.718 -43.064 -32.527  1.00  0.00     0.012 C 
ATOM      8  C   UNL     1      -6.559 -43.134 -34.244  1.00  0.00     0.012 C 
ENDBRANCH   5   6
ENDBRANCH   3   4
ENDBRANCH   2   3
ENDBRANCH   1   2
BRANCH   1   9
ATOM      9  C   UNL     1      -0.850 -38.554 -36.031  1.00  0.00     0.100 C 
BRANCH   9  10
ATOM     10  C   UNL     1      -0.765 -37.982 -34.648  1.00  0.00     0.220 C 
ATOM     11  O   UNL     1       0.343 -37.974 -34.050  1.00  0.00    -0.275 OA
ATOM     12  N   UNL     1      -1.940 -37.482 -33.998  1.00  0.00    -0.352 N 
ATOM     13  H   UNL     1      -2.826 -37.393 -34.543  1.00  0.00     0.163 HD
BRANCH  12  14
ATOM     14  C   UNL     1      -1.986 -37.229 -32.561  1.00  0.00     0.151 C 
BRANCH  14  15
ATOM     15  C   UNL     1      -3.006 -38.130 -31.921  1.00  0.00    -0.025 A 
ATOM     16  C   UNL     1      -2.586 -39.231 -31.154  1.00  0.00     0.056 A 
ATOM     17  C   UNL     1      -4.378 -37.850 -32.031  1.00  0.00     0.009 A 
ATOM     18  C   UNL     1      -3.528 -40.065 -30.520  1.00  0.00     0.160 A 
ATOM     19  C   UNL     1      -5.315 -38.672 -31.400  1.00  0.00     0.050 A 
ATOM     20  C   UNL     1      -4.896 -39.780 -30.649  1.00  0.00     0.157 A 
BRANCH  18  21
ATOM     21  O   UNL     1      -3.144 -41.180 -29.758  1.00  0.00    -0.493 OA
ATOM     22  C   UNL     1      -2.088 -42.068 -30.111  1.00  0.00     0.278 C 
ENDBRANCH  18  21
BRANCH  20  23
ATOM     23  O   UNL     1      -5.833 -40.601 -30.025  1.00  0.00    -0.504 OA
ATOM     24  H   UNL     1      -6.572 -41.057 -30.548  1.00  0.00     0.293 HD
ENDBRANCH  20  23
ENDBRANCH  14  15
ENDBRANCH  12  14
ENDBRANCH   9  10
ENDBRANCH   1   9
TORSDOF 10
ENDMDL
MODEL 4
REMARK VINA RESULT:    -4.915      3.149      7.068
REMARK INTER + INTRA:          -9.746
REMARK INTER:                  -8.530
REMARK INTRA:                  -1.217
REMARK UNBOUND:                -2.101
REMARK SMILES COc1cc(CNC(=O)CCCCC=CC(C)C)ccc1O
REMARK SMILES IDX 11 1 12 2 13 3 14 4 15 5 16 6 17 7 18 8 10 9 8 10 9 11 7 12
REMARK SMILES IDX 6 14 5 15 4 16 19 17 3 18 20 19 21 20 2 21 1 22 22 23
REMARK H PARENT 7 13 22 24
REMARK Flexibility Score: inf
ROOT
ATOM      1  C   UNL     1      -9.255 -37.163 -30.439  1.00  0.00     0.010 C 
ENDROOT
BRANCH   1   2
ATOM      2  C   UNL     1      -9.910 -35.865 -29.946  1.00  0.00     0.005 C 
BRANCH   2   3
ATOM      3  C   UNL     1      -9.465 -34.644 -30.768  1.00  0.00     0.027 C 
BRANCH   3   4
ATOM      4  C   UNL     1      -9.449 -34.924 -32.252  1.00  0.00    -0.031 C 
ATOM      5  C   UNL     1      -8.563 -34.410 -33.125  1.00  0.00    -0.028 C 
BRANCH   5   6
ATOM      6  C   UNL     1      -7.463 -33.429 -32.778  1.00  0.00     0.005 C 
ATOM      7  C   UNL     1      -6.166 -34.190 -32.484  1.00  0.00     0.012 C 
ATOM      8  C   UNL     1      -7.263 -32.450 -33.938  1.00  0.00     0.012 C 
ENDBRANCH   5   6
ENDBRANCH   3   4
ENDBRANCH   2   3
ENDBRANCH   1   2
BRANCH   1   9
ATOM      9  C   UNL     1      -7.826 -37.297 -29.900  1.00  0.00     0.100 C 
BRANCH   9  10
ATOM     10  C   UNL     1      -6.851 -37.409 -31.033  1.00  0.00     0.220 C 
ATOM     11  O   UNL     1      -7.282 -37.500 -32.212  1.00  0.00    -0.275 OA
ATOM     12  N   UNL     1      -5.441 -37.448 -30.775  1.00  0.00    -0.352 N 
ATOM     13  H   UNL     1      -5.095 -37.261 -29.808  1.00  0.00     0.163 HD
BRANCH  12  14
ATOM     14  C   UNL     1      -4.477 -37.884 -31.780  1.00  0.00     0.151 C 
BRANCH  14  15
ATOM     15  C   UNL     1      -4.550 -39.379 -31.937  1.00  0.00    -0.025 A 
ATOM     16  C   UNL     1      -4.248 -40.212 -30.846  1.00  0.00     0.056 A 
ATOM     17  C   UNL     1      -4.974 -39.952 -33.146  1.00  0.00     0.009 A 
ATOM     18  C   UNL     1      -4.344 -41.613 -30.966  1.00  0.00     0.160 A 
ATOM     19  C   UNL     1      -5.074 -41.340 -33.268  1.00  0.00     0.050 A 
ATOM     20  C   UNL     1      -4.757 -42.172 -32.185  1.00  0.00     0.157 A 
BRANCH  18  21
ATOM     21  O   UNL     1      -4.036 -42.476 -29.901  1.00  0.00    -0.493 OA
ATOM     22  C   UNL     1      -2.716 -42.866 -29.539  1.00  0.00     0.278 C 
ENDBRANCH  18  21
BRANCH  20  23
ATOM     23  O   UNL     1      -4.854 -43.557 -32.311  1.00  0.00    -0.504 OA
ATOM     24  H   UNL     1      -5.707 -44.004 -32.626  1.00  0.00     0.293 HD
ENDBRANCH  20  23
ENDBRANCH  14  15
ENDBRANCH  12  14
ENDBRANCH   9  10
ENDBRANCH   1   9
TORSDOF 10
ENDMDL
MODEL 5
REMARK VINA RESULT:    -4.883      2.714      5.162
REMARK INTER + INTRA:          -9.696
REMARK INTER:                  -8.539
REMARK INTRA:                  -1.157
REMARK UNBOUND:                -2.101
REMARK SMILES COc1cc(CNC(=O)CCCCC=CC(C)C)ccc1O
REMARK SMILES IDX 11 1 12 2 13 3 14 4 15 5 16 6 17 7 18 8 10 9 8 10 9 11 7 12
REMARK SMILES IDX 6 14 5 15 4 16 19 17 3 18 20 19 21 20 2 21 1 22 22 23
REMARK H PARENT 7 13 22 24
REMARK Flexibility Score: inf
ROOT
ATOM      1  C   UNL     1      -2.823 -40.102 -31.503  1.00  0.00     0.010 C 
ENDROOT
BRANCH   1   2
ATOM      2  C   UNL     1      -3.051 -39.416 -32.857  1.00  0.00     0.005 C 
BRANCH   2   3
ATOM      3  C   UNL     1      -4.374 -39.848 -33.509  1.00  0.00     0.027 C 
BRANCH   3   4
ATOM      4  C   UNL     1      -4.177 -40.911 -34.564  1.00  0.00    -0.031 C 
ATOM      5  C   UNL     1      -4.762 -42.122 -34.558  1.00  0.00    -0.028 C 
BRANCH   5   6
ATOM      6  C   UNL     1      -5.680 -42.644 -33.472  1.00  0.00     0.005 C 
ATOM      7  C   UNL     1      -6.884 -43.347 -34.107  1.00  0.00     0.012 C 
ATOM      8  C   UNL     1      -4.908 -43.608 -32.568  1.00  0.00     0.012 C 
ENDBRANCH   5   6
ENDBRANCH   3   4
ENDBRANCH   2   3
ENDBRANCH   1   2
BRANCH   1   9
ATOM      9  C   UNL     1      -4.157 -40.444 -30.829  1.00  0.00     0.100 C 
BRANCH   9  10
ATOM     10  C   UNL     1      -4.694 -39.249 -30.101  1.00  0.00     0.220 C 
ATOM     11  O   UNL     1      -3.967 -38.662 -29.257  1.00  0.00    -0.275 OA
ATOM     12  N   UNL     1      -6.034 -38.798 -30.338  1.00  0.00    -0.352 N 
ATOM     13  H   UNL     1      -6.585 -39.223 -31.117  1.00  0.00     0.163 HD
BRANCH  12  14
ATOM     14  C   UNL     1      -6.713 -37.870 -29.439  1.00  0.00     0.151 C 
BRANCH  14  15
ATOM     15  C   UNL     1      -7.585 -36.940 -30.237  1.00  0.00    -0.025 A 
ATOM     16  C   UNL     1      -7.052 -36.258 -31.345  1.00  0.00     0.056 A 
ATOM     17  C   UNL     1      -8.945 -36.789 -29.923  1.00  0.00     0.009 A 
ATOM     18  C   UNL     1      -7.865 -35.410 -32.123  1.00  0.00     0.160 A 
ATOM     19  C   UNL     1      -9.755 -35.951 -30.694  1.00  0.00     0.050 A 
ATOM     20  C   UNL     1      -9.220 -35.259 -31.790  1.00  0.00     0.157 A 
BRANCH  18  21
ATOM     21  O   UNL     1      -7.363 -34.704 -33.229  1.00  0.00    -0.493 OA
ATOM     22  C   UNL     1      -6.796 -33.399 -33.158  1.00  0.00     0.278 C 
ENDBRANCH  18  21
BRANCH  20  23
ATOM     23  O   UNL     1     -10.029 -34.421 -32.555  1.00  0.00    -0.504 OA
ATOM     24  H   UNL     1     -10.597 -33.697 -32.130  1.00  0.00     0.293 HD
ENDBRANCH  20  23
ENDBRANCH  14  15
ENDBRANCH  12  14
ENDBRANCH   9  10
ENDBRANCH   1   9
TORSDOF 10
ENDMDL
MODEL 6
REMARK VINA RESULT:    -4.877      3.162      7.162
REMARK INTER + INTRA:          -9.687
REMARK INTER:                  -8.709
REMARK INTRA:                  -0.978
REMARK UNBOUND:                -2.101
REMARK SMILES COc1cc(CNC(=O)CCCCC=CC(C)C)ccc1O
REMARK SMILES IDX 11 1 12 2 13 3 14 4 15 5 16 6 17 7 18 8 10 9 8 10 9 11 7 12
REMARK SMILES IDX 6 14 5 15 4 16 19 17 3 18 20 19 21 20 2 21 1 22 22 23
REMARK H PARENT 7 13 22 24
REMARK Flexibility Score: inf
ROOT
ATOM      1  C   UNL     1      -8.952 -37.185 -30.416  1.00  0.00     0.010 C 
ENDROOT
BRANCH   1   2
ATOM      2  C   UNL     1      -9.923 -36.048 -30.072  1.00  0.00     0.005 C 
BRANCH   2   3
ATOM      3  C   UNL     1      -9.655 -34.786 -30.907  1.00  0.00     0.027 C 
BRANCH   3   4
ATOM      4  C   UNL     1      -9.505 -35.090 -32.379  1.00  0.00    -0.031 C 
ATOM      5  C   UNL     1      -8.539 -34.596 -33.175  1.00  0.00    -0.028 C 
BRANCH   5   6
ATOM      6  C   UNL     1      -7.467 -33.618 -32.744  1.00  0.00     0.005 C 
ATOM      7  C   UNL     1      -6.184 -34.379 -32.393  1.00  0.00     0.012 C 
ATOM      8  C   UNL     1      -7.207 -32.613 -33.869  1.00  0.00     0.012 C 
ENDBRANCH   5   6
ENDBRANCH   3   4
ENDBRANCH   2   3
ENDBRANCH   1   2
BRANCH   1   9
ATOM      9  C   UNL     1      -8.147 -37.613 -29.182  1.00  0.00     0.100 C 
BRANCH   9  10
ATOM     10  C   UNL     1      -6.685 -37.663 -29.506  1.00  0.00     0.220 C 
ATOM     11  O   UNL     1      -6.036 -36.589 -29.605  1.00  0.00    -0.275 OA
ATOM     12  N   UNL     1      -6.037 -38.921 -29.735  1.00  0.00    -0.352 N 
ATOM     13  H   UNL     1      -6.557 -39.806 -29.541  1.00  0.00     0.163 HD
BRANCH  12  14
ATOM     14  C   UNL     1      -4.725 -39.017 -30.369  1.00  0.00     0.151 C 
BRANCH  14  15
ATOM     15  C   UNL     1      -4.781 -40.010 -31.498  1.00  0.00    -0.025 A 
ATOM     16  C   UNL     1      -4.481 -39.597 -32.808  1.00  0.00     0.056 A 
ATOM     17  C   UNL     1      -5.072 -41.360 -31.250  1.00  0.00     0.009 A 
ATOM     18  C   UNL     1      -4.495 -40.521 -33.872  1.00  0.00     0.160 A 
ATOM     19  C   UNL     1      -5.084 -42.281 -32.301  1.00  0.00     0.050 A 
ATOM     20  C   UNL     1      -4.800 -41.866 -33.610  1.00  0.00     0.157 A 
BRANCH  18  21
ATOM     21  O   UNL     1      -4.214 -40.142 -35.194  1.00  0.00    -0.493 OA
ATOM     22  C   UNL     1      -2.979 -39.575 -35.622  1.00  0.00     0.278 C 
ENDBRANCH  18  21
BRANCH  20  23
ATOM     23  O   UNL     1      -4.817 -42.785 -34.658  1.00  0.00    -0.504 OA
ATOM     24  H   UNL     1      -4.526 -43.747 -34.526  1.00  0.00     0.293 HD
ENDBRANCH  20  23
ENDBRANCH  14  15
ENDBRANCH  12  14
ENDBRANCH   9  10
ENDBRANCH   1   9
TORSDOF 10
ENDMDL
MODEL 7
REMARK VINA RESULT:    -4.843      2.625      5.337
REMARK INTER + INTRA:          -9.634
REMARK INTER:                  -8.813
REMARK INTRA:                  -0.821
REMARK UNBOUND:                -2.101
REMARK SMILES COc1cc(CNC(=O)CCCCC=CC(C)C)ccc1O
REMARK SMILES IDX 11 1 12 2 13 3 14 4 15 5 16 6 17 7 18 8 10 9 8 10 9 11 7 12
REMARK SMILES IDX 6 14 5 15 4 16 19 17 3 18 20 19 21 20 2 21 1 22 22 23
REMARK H PARENT 7 13 22 24
REMARK Flexibility Score: inf
ROOT
ATOM      1  C   UNL     1      -4.032 -41.401 -34.435  1.00  0.00     0.010 C 
ENDROOT
BRANCH   1   2
ATOM      2  C   UNL     1      -3.151 -40.163 -34.654  1.00  0.00     0.005 C 
BRANCH   2   3
ATOM      3  C   UNL     1      -2.984 -39.828 -36.145  1.00  0.00     0.027 C 
BRANCH   3   4
ATOM      4  C   UNL     1      -2.001 -40.745 -36.835  1.00  0.00    -0.031 C 
ATOM      5  C   UNL     1      -0.662 -40.636 -36.760  1.00  0.00    -0.028 C 
BRANCH   5   6
ATOM      6  C   UNL     1       0.088 -39.553 -36.013  1.00  0.00     0.005 C 
ATOM      7  C   UNL     1       0.727 -40.143 -34.752  1.00  0.00     0.012 C 
ATOM      8  C   UNL     1       1.155 -38.945 -36.926  1.00  0.00     0.012 C 
ENDBRANCH   5   6
ENDBRANCH   3   4
ENDBRANCH   2   3
ENDBRANCH   1   2
BRANCH   1   9
ATOM      9  C   UNL     1      -5.389 -41.010 -33.835  1.00  0.00     0.100 C 
BRANCH   9  10
ATOM     10  C   UNL     1      -5.208 -40.468 -32.449  1.00  0.00     0.220 C 
ATOM     11  O   UNL     1      -4.879 -41.249 -31.518  1.00  0.00    -0.275 OA
ATOM     12  N   UNL     1      -5.440 -39.079 -32.179  1.00  0.00    -0.352 N 
ATOM     13  H   UNL     1      -5.602 -38.424 -32.976  1.00  0.00     0.163 HD
BRANCH  12  14
ATOM     14  C   UNL     1      -5.604 -38.567 -30.822  1.00  0.00     0.151 C 
BRANCH  14  15
ATOM     15  C   UNL     1      -6.758 -37.602 -30.781  1.00  0.00    -0.025 A 
ATOM     16  C   UNL     1      -7.140 -36.919 -31.948  1.00  0.00     0.056 A 
ATOM     17  C   UNL     1      -7.496 -37.419 -29.601  1.00  0.00     0.009 A 
ATOM     18  C   UNL     1      -8.239 -36.037 -31.935  1.00  0.00     0.160 A 
ATOM     19  C   UNL     1      -8.589 -36.549 -29.585  1.00  0.00     0.050 A 
ATOM     20  C   UNL     1      -8.961 -35.855 -30.745  1.00  0.00     0.157 A 
BRANCH  18  21
ATOM     21  O   UNL     1      -8.641 -35.328 -33.078  1.00  0.00    -0.493 OA
ATOM     22  C   UNL     1      -8.041 -34.115 -33.523  1.00  0.00     0.278 C 
ENDBRANCH  18  21
BRANCH  20  23
ATOM     23  O   UNL     1     -10.048 -34.984 -30.725  1.00  0.00    -0.504 OA
ATOM     24  H   UNL     1     -10.181 -34.317 -29.973  1.00  0.00     0.293 HD
ENDBRANCH  20  23
ENDBRANCH  14  15
ENDBRANCH  12  14
ENDBRANCH   9  10
ENDBRANCH   1   9
TORSDOF 10
ENDMDL
MODEL 8
REMARK VINA RESULT:    -4.789      3.068      7.361
REMARK INTER + INTRA:          -9.550
REMARK INTER:                  -8.320
REMARK INTRA:                  -1.230
REMARK UNBOUND:                -2.101
REMARK SMILES COc1cc(CNC(=O)CCCCC=CC(C)C)ccc1O
REMARK SMILES IDX 11 1 12 2 13 3 14 4 15 5 16 6 17 7 18 8 10 9 8 10 9 11 7 12
REMARK SMILES IDX 6 14 5 15 4 16 19 17 3 18 20 19 21 20 2 21 1 22 22 23
REMARK H PARENT 7 13 22 24
REMARK Flexibility Score: inf
ROOT
ATOM      1  C   UNL     1      -9.508 -37.053 -29.761  1.00  0.00     0.010 C 
ENDROOT
BRANCH   1   2
ATOM      2  C   UNL     1     -10.133 -35.654 -29.667  1.00  0.00     0.005 C 
BRANCH   2   3
ATOM      3  C   UNL     1      -9.755 -34.769 -30.866  1.00  0.00     0.027 C 
BRANCH   3   4
ATOM      4  C   UNL     1      -8.791 -33.669 -30.489  1.00  0.00    -0.031 C 
ATOM      5  C   UNL     1      -7.699 -33.325 -31.194  1.00  0.00    -0.028 C 
BRANCH   5   6
ATOM      6  C   UNL     1      -7.222 -34.009 -32.458  1.00  0.00     0.005 C 
ATOM      7  C   UNL     1      -7.572 -33.146 -33.675  1.00  0.00     0.012 C 
ATOM      8  C   UNL     1      -5.712 -34.242 -32.378  1.00  0.00     0.012 C 
ENDBRANCH   5   6
ENDBRANCH   3   4
ENDBRANCH   2   3
ENDBRANCH   1   2
BRANCH   1   9
ATOM      9  C   UNL     1      -8.634 -37.181 -31.015  1.00  0.00     0.100 C 
BRANCH   9  10
ATOM     10  C   UNL     1      -7.189 -37.291 -30.632  1.00  0.00     0.220 C 
ATOM     11  O   UNL     1      -6.690 -36.442 -29.848  1.00  0.00    -0.275 OA
ATOM     12  N   UNL     1      -6.372 -38.334 -31.180  1.00  0.00    -0.352 N 
ATOM     13  H   UNL     1      -6.822 -39.094 -31.738  1.00  0.00     0.163 HD
BRANCH  12  14
ATOM     14  C   UNL     1      -4.914 -38.299 -31.112  1.00  0.00     0.151 C 
BRANCH  14  15
ATOM     15  C   UNL     1      -4.335 -39.022 -32.296  1.00  0.00    -0.025 A 
ATOM     16  C   UNL     1      -5.049 -40.077 -32.891  1.00  0.00     0.056 A 
ATOM     17  C   UNL     1      -3.112 -38.617 -32.854  1.00  0.00     0.009 A 
ATOM     18  C   UNL     1      -4.535 -40.743 -34.021  1.00  0.00     0.160 A 
ATOM     19  C   UNL     1      -2.601 -39.272 -33.977  1.00  0.00     0.050 A 
ATOM     20  C   UNL     1      -3.306 -40.334 -34.560  1.00  0.00     0.157 A 
BRANCH  18  21
ATOM     21  O   UNL     1      -5.215 -41.809 -34.632  1.00  0.00    -0.493 OA
ATOM     22  C   UNL     1      -5.788 -42.906 -33.927  1.00  0.00     0.278 C 
ENDBRANCH  18  21
BRANCH  20  23
ATOM     23  O   UNL     1      -2.792 -40.989 -35.679  1.00  0.00    -0.504 OA
ATOM     24  H   UNL     1      -2.782 -40.551 -36.593  1.00  0.00     0.293 HD
ENDBRANCH  20  23
ENDBRANCH  14  15
ENDBRANCH  12  14
ENDBRANCH   9  10
ENDBRANCH   1   9
TORSDOF 10
ENDMDL
MODEL 9
REMARK VINA RESULT:    -4.714      2.529      7.047
REMARK INTER + INTRA:          -9.433
REMARK INTER:                  -8.351
REMARK INTRA:                  -1.082
REMARK UNBOUND:                -2.101
REMARK SMILES COc1cc(CNC(=O)CCCCC=CC(C)C)ccc1O
REMARK SMILES IDX 11 1 12 2 13 3 14 4 15 5 16 6 17 7 18 8 10 9 8 10 9 11 7 12
REMARK SMILES IDX 6 14 5 15 4 16 19 17 3 18 20 19 21 20 2 21 1 22 22 23
REMARK H PARENT 7 13 22 24
REMARK Flexibility Score: inf
ROOT
ATOM      1  C   UNL     1      -7.424 -37.276 -32.051  1.00  0.00     0.010 C 
ENDROOT
BRANCH   1   2
ATOM      2  C   UNL     1      -8.688 -36.890 -31.271  1.00  0.00     0.005 C 
BRANCH   2   3
ATOM      3  C   UNL     1      -9.187 -35.484 -31.638  1.00  0.00     0.027 C 
BRANCH   3   4
ATOM      4  C   UNL     1      -9.009 -35.173 -33.105  1.00  0.00    -0.031 C 
ATOM      5  C   UNL     1      -8.204 -34.215 -33.598  1.00  0.00    -0.028 C 
BRANCH   5   6
ATOM      6  C   UNL     1      -7.375 -33.256 -32.769  1.00  0.00     0.005 C 
ATOM      7  C   UNL     1      -5.991 -33.859 -32.510  1.00  0.00     0.012 C 
ATOM      8  C   UNL     1      -7.252 -31.918 -33.502  1.00  0.00     0.012 C 
ENDBRANCH   5   6
ENDBRANCH   3   4
ENDBRANCH   2   3
ENDBRANCH   1   2
BRANCH   1   9
ATOM      9  C   UNL     1      -6.216 -37.399 -31.114  1.00  0.00     0.100 C 
BRANCH   9  10
ATOM     10  C   UNL     1      -5.574 -38.745 -31.266  1.00  0.00     0.220 C 
ATOM     11  O   UNL     1      -5.090 -39.317 -30.254  1.00  0.00    -0.275 OA
ATOM     12  N   UNL     1      -5.480 -39.361 -32.557  1.00  0.00    -0.352 N 
ATOM     13  H   UNL     1      -5.982 -38.930 -33.365  1.00  0.00     0.163 HD
BRANCH  12  14
ATOM     14  C   UNL     1      -4.591 -40.489 -32.819  1.00  0.00     0.151 C 
BRANCH  14  15
ATOM     15  C   UNL     1      -3.641 -40.137 -33.931  1.00  0.00    -0.025 A 
ATOM     16  C   UNL     1      -2.814 -39.006 -33.813  1.00  0.00     0.056 A 
ATOM     17  C   UNL     1      -3.528 -40.960 -35.062  1.00  0.00     0.009 A 
ATOM     18  C   UNL     1      -1.895 -38.682 -34.831  1.00  0.00     0.160 A 
ATOM     19  C   UNL     1      -2.615 -40.644 -36.072  1.00  0.00     0.050 A 
ATOM     20  C   UNL     1      -1.802 -39.507 -35.962  1.00  0.00     0.157 A 
BRANCH  18  21
ATOM     21  O   UNL     1      -1.064 -37.553 -34.753  1.00  0.00    -0.493 OA
ATOM     22  C   UNL     1       0.136 -37.490 -33.989  1.00  0.00     0.278 C 
ENDBRANCH  18  21
BRANCH  20  23
ATOM     23  O   UNL     1      -0.895 -39.192 -36.972  1.00  0.00    -0.504 OA
ATOM     24  H   UNL     1      -1.070 -38.438 -37.628  1.00  0.00     0.293 HD
ENDBRANCH  20  23
ENDBRANCH  14  15
ENDBRANCH  12  14
ENDBRANCH   9  10
ENDBRANCH   1   9
TORSDOF 10
ENDMDL
