MODEL 1
REMARK VINA RESULT:    -3.131      0.000      0.000
REMARK INTER + INTRA:          -5.310
REMARK INTER:                  -4.778
REMARK INTRA:                  -0.532
REMARK UNBOUND:                -0.532
REMARK SMILES CCCCCCCCCCC(=O)[O-]
REMARK SMILES IDX 7 1 8 2 9 3 10 4 11 5 12 6 13 7 6 8 5 9 4 10 3 11 2 12 1 13
REMARK H PARENT
REMARK Flexibility Score: inf
ROOT
ATOM      1  C   UNL     1     -15.115  13.520  -6.816  1.00  0.00     0.000 C 
ENDROOT
BRANCH   1   2
ATOM      2  C   UNL     1     -14.283  12.818  -7.901  1.00  0.00     0.000 C 
BRANCH   2   3
ATOM      3  C   UNL     1     -14.819  13.147  -9.302  1.00  0.00     0.006 C 
BRANCH   3   4
ATOM      4  C   UNL     1     -14.392  12.108 -10.347  1.00  0.00     0.053 C 
BRANCH   4   5
ATOM      5  C   UNL     1     -14.293  12.705 -11.717  1.00  0.00     0.041 C 
ATOM      6  O   UNL     1     -15.176  13.505 -12.125  1.00  0.00    -0.550 OA
ATOM      7  O   UNL     1     -13.208  12.404 -12.531  1.00  0.00    -0.550 OA
ENDBRANCH   4   5
ENDBRANCH   3   4
ENDBRANCH   2   3
ENDBRANCH   1   2
BRANCH   1   8
ATOM      8  C   UNL     1     -16.510  13.935  -7.312  1.00  0.00     0.000 C 
BRANCH   8   9
ATOM      9  C   UNL     1     -16.750  15.450  -7.205  1.00  0.00    -0.000 C 
BRANCH   9  10
ATOM     10  C   UNL     1     -16.941  16.115  -8.578  1.00  0.00    -0.000 C 
BRANCH  10  11
ATOM     11  C   UNL     1     -15.883  17.191  -8.869  1.00  0.00    -0.000 C 
BRANCH  11  12
ATOM     12  C   UNL     1     -16.528  18.445  -9.470  1.00  0.00    -0.003 C 
ATOM     13  C   UNL     1     -15.747  18.942 -10.682  1.00  0.00     0.004 C 
ENDBRANCH  11  12
ENDBRANCH  10  11
ENDBRANCH   9  10
ENDBRANCH   8   9
ENDBRANCH   1   8
TORSDOF 9
ENDMDL
MODEL 2
REMARK VINA RESULT:    -3.101      2.225      4.023
REMARK INTER + INTRA:          -5.265
REMARK INTER:                  -4.847
REMARK INTRA:                  -0.418
REMARK UNBOUND:                -0.532
REMARK SMILES CCCCCCCCCCC(=O)[O-]
REMARK SMILES IDX 7 1 8 2 9 3 10 4 11 5 12 6 13 7 6 8 5 9 4 10 3 11 2 12 1 13
REMARK H PARENT
REMARK Flexibility Score: inf
ROOT
ATOM      1  C   UNL     1     -15.909  17.383  -8.780  1.00  0.00     0.000 C 
ENDROOT
BRANCH   1   2
ATOM      2  C   UNL     1     -16.246  16.321  -7.720  1.00  0.00     0.000 C 
BRANCH   2   3
ATOM      3  C   UNL     1     -16.557  14.969  -8.379  1.00  0.00     0.006 C 
BRANCH   3   4
ATOM      4  C   UNL     1     -15.459  14.532  -9.357  1.00  0.00     0.053 C 
BRANCH   4   5
ATOM      5  C   UNL     1     -14.790  13.267  -8.915  1.00  0.00     0.041 C 
ATOM      6  O   UNL     1     -14.532  12.361  -9.750  1.00  0.00    -0.550 OA
ATOM      7  O   UNL     1     -14.421  13.103  -7.586  1.00  0.00    -0.550 OA
ENDBRANCH   4   5
ENDBRANCH   3   4
ENDBRANCH   2   3
ENDBRANCH   1   2
BRANCH   1   8
ATOM      8  C   UNL     1     -16.973  18.489  -8.870  1.00  0.00     0.000 C 
BRANCH   8   9
ATOM      9  C   UNL     1     -16.923  19.251 -10.205  1.00  0.00    -0.000 C 
BRANCH   9  10
ATOM     10  C   UNL     1     -15.554  19.138 -10.898  1.00  0.00    -0.000 C 
BRANCH  10  11
ATOM     11  C   UNL     1     -15.182  20.401 -11.687  1.00  0.00    -0.000 C 
BRANCH  11  12
ATOM     12  C   UNL     1     -13.750  20.306 -12.228  1.00  0.00    -0.003 C 
ATOM     13  C   UNL     1     -13.012  21.632 -12.072  1.00  0.00     0.004 C 
ENDBRANCH  11  12
ENDBRANCH  10  11
ENDBRANCH   9  10
ENDBRANCH   8   9
ENDBRANCH   1   8
TORSDOF 9
ENDMDL
MODEL 3
REMARK VINA RESULT:    -2.932      2.923      5.827
REMARK INTER + INTRA:          -5.006
REMARK INTER:                  -4.546
REMARK INTRA:                  -0.461
REMARK UNBOUND:                -0.532
REMARK SMILES CCCCCCCCCCC(=O)[O-]
REMARK SMILES IDX 7 1 8 2 9 3 10 4 11 5 12 6 13 7 6 8 5 9 4 10 3 11 2 12 1 13
REMARK H PARENT
REMARK Flexibility Score: inf
ROOT
ATOM      1  C   UNL     1     -15.806  16.878  -8.563  1.00  0.00     0.000 C 
ENDROOT
BRANCH   1   2
ATOM      2  C   UNL     1     -16.586  18.094  -9.089  1.00  0.00     0.000 C 
BRANCH   2   3
ATOM      3  C   UNL     1     -16.168  18.431 -10.529  1.00  0.00     0.006 C 
BRANCH   3   4
ATOM      4  C   UNL     1     -16.150  19.943 -10.789  1.00  0.00     0.053 C 
BRANCH   4   5
ATOM      5  C   UNL     1     -15.015  20.341 -11.681  1.00  0.00     0.041 C 
ATOM      6  O   UNL     1     -14.192  19.477 -12.082  1.00  0.00    -0.550 OA
ATOM      7  O   UNL     1     -14.886  21.660 -12.098  1.00  0.00    -0.550 OA
ENDBRANCH   4   5
ENDBRANCH   3   4
ENDBRANCH   2   3
ENDBRANCH   1   2
BRANCH   1   8
ATOM      8  C   UNL     1     -16.636  16.011  -7.601  1.00  0.00     0.000 C 
BRANCH   8   9
ATOM      9  C   UNL     1     -16.650  14.528  -8.006  1.00  0.00    -0.000 C 
BRANCH   9  10
ATOM     10  C   UNL     1     -15.589  13.702  -7.260  1.00  0.00    -0.000 C 
BRANCH  10  11
ATOM     11  C   UNL     1     -14.531  13.106  -8.200  1.00  0.00    -0.000 C 
BRANCH  11  12
ATOM     12  C   UNL     1     -14.934  13.293  -9.667  1.00  0.00    -0.003 C 
ATOM     13  C   UNL     1     -14.562  12.071 -10.502  1.00  0.00     0.004 C 
ENDBRANCH  11  12
ENDBRANCH  10  11
ENDBRANCH   9  10
ENDBRANCH   8   9
ENDBRANCH   1   8
TORSDOF 9
ENDMDL
MODEL 4
REMARK VINA RESULT:    -2.784      3.130      6.070
REMARK INTER + INTRA:          -4.781
REMARK INTER:                  -4.194
REMARK INTRA:                  -0.586
REMARK UNBOUND:                -0.532
REMARK SMILES CCCCCCCCCCC(=O)[O-]
REMARK SMILES IDX 7 1 8 2 9 3 10 4 11 5 12 6 13 7 6 8 5 9 4 10 3 11 2 12 1 13
REMARK H PARENT
REMARK Flexibility Score: inf
ROOT
ATOM      1  C   UNL     1     -16.018  17.664  -9.258  1.00  0.00     0.000 C 
ENDROOT
BRANCH   1   2
ATOM      2  C   UNL     1     -16.815  18.978  -9.301  1.00  0.00     0.000 C 
BRANCH   2   3
ATOM      3  C   UNL     1     -16.567  19.727 -10.619  1.00  0.00     0.006 C 
BRANCH   3   4
ATOM      4  C   UNL     1     -15.325  19.210 -11.357  1.00  0.00     0.053 C 
BRANCH   4   5
ATOM      5  C   UNL     1     -14.494  20.331 -11.901  1.00  0.00     0.041 C 
ATOM      6  O   UNL     1     -13.358  20.097 -12.390  1.00  0.00    -0.550 OA
ATOM      7  O   UNL     1     -14.989  21.629 -11.899  1.00  0.00    -0.550 OA
ENDBRANCH   4   5
ENDBRANCH   3   4
ENDBRANCH   2   3
ENDBRANCH   1   2
BRANCH   1   8
ATOM      8  C   UNL     1     -16.890  16.452  -8.889  1.00  0.00     0.000 C 
BRANCH   8   9
ATOM      9  C   UNL     1     -16.805  15.324  -9.931  1.00  0.00    -0.000 C 
BRANCH   9  10
ATOM     10  C   UNL     1     -16.468  13.963  -9.300  1.00  0.00    -0.000 C 
BRANCH  10  11
ATOM     11  C   UNL     1     -14.962  13.662  -9.304  1.00  0.00    -0.000 C 
BRANCH  11  12
ATOM     12  C   UNL     1     -14.509  13.115  -7.945  1.00  0.00    -0.003 C 
ATOM     13  C   UNL     1     -15.497  13.486  -6.844  1.00  0.00     0.004 C 
ENDBRANCH  11  12
ENDBRANCH  10  11
ENDBRANCH   9  10
ENDBRANCH   8   9
ENDBRANCH   1   8
TORSDOF 9
ENDMDL
MODEL 5
REMARK VINA RESULT:    -2.596      1.208      2.001
REMARK INTER + INTRA:          -4.494
REMARK INTER:                  -4.097
REMARK INTRA:                  -0.397
REMARK UNBOUND:                -0.532
REMARK SMILES CCCCCCCCCCC(=O)[O-]
REMARK SMILES IDX 7 1 8 2 9 3 10 4 11 5 12 6 13 7 6 8 5 9 4 10 3 11 2 12 1 13
REMARK H PARENT
REMARK Flexibility Score: inf
ROOT
ATOM      1  C   UNL     1     -15.713  14.894  -9.412  1.00  0.00     0.000 C 
ENDROOT
BRANCH   1   2
ATOM      2  C   UNL     1     -15.206  13.467  -9.146  1.00  0.00     0.000 C 
BRANCH   2   3
ATOM      3  C   UNL     1     -15.412  12.573 -10.378  1.00  0.00     0.006 C 
BRANCH   3   4
ATOM      4  C   UNL     1     -14.083  12.153 -11.020  1.00  0.00     0.053 C 
BRANCH   4   5
ATOM      5  C   UNL     1     -13.927  12.716 -12.399  1.00  0.00     0.041 C 
ATOM      6  O   UNL     1     -12.932  12.401 -13.103  1.00  0.00    -0.550 OA
ATOM      7  O   UNL     1     -14.899  13.561 -12.919  1.00  0.00    -0.550 OA
ENDBRANCH   4   5
ENDBRANCH   3   4
ENDBRANCH   2   3
ENDBRANCH   1   2
BRANCH   1   8
ATOM      8  C   UNL     1     -16.117  15.630  -8.124  1.00  0.00     0.000 C 
BRANCH   8   9
ATOM      9  C   UNL     1     -16.087  17.160  -8.284  1.00  0.00    -0.000 C 
BRANCH   9  10
ATOM     10  C   UNL     1     -16.044  17.598  -9.757  1.00  0.00    -0.000 C 
BRANCH  10  11
ATOM     11  C   UNL     1     -16.461  19.064  -9.953  1.00  0.00    -0.000 C 
BRANCH  11  12
ATOM     12  C   UNL     1     -16.297  19.488 -11.417  1.00  0.00    -0.003 C 
ATOM     13  C   UNL     1     -14.980  20.228 -11.633  1.00  0.00     0.004 C 
ENDBRANCH  11  12
ENDBRANCH  10  11
ENDBRANCH   9  10
ENDBRANCH   8   9
ENDBRANCH   1   8
TORSDOF 9
ENDMDL
MODEL 6
REMARK VINA RESULT:    -2.501      1.836      3.491
REMARK INTER + INTRA:          -4.349
REMARK INTER:                  -3.979
REMARK INTRA:                  -0.370
REMARK UNBOUND:                -0.532
REMARK SMILES CCCCCCCCCCC(=O)[O-]
REMARK SMILES IDX 7 1 8 2 9 3 10 4 11 5 12 6 13 7 6 8 5 9 4 10 3 11 2 12 1 13
REMARK H PARENT
REMARK Flexibility Score: inf
ROOT
ATOM      1  C   UNL     1     -16.317  16.149  -9.660  1.00  0.00     0.000 C 
ENDROOT
BRANCH   1   2
ATOM      2  C   UNL     1     -16.538  14.819 -10.400  1.00  0.00     0.000 C 
BRANCH   2   3
ATOM      3  C   UNL     1     -16.265  13.624  -9.473  1.00  0.00     0.006 C 
BRANCH   3   4
ATOM      4  C   UNL     1     -14.854  13.052  -9.662  1.00  0.00     0.053 C 
BRANCH   4   5
ATOM      5  C   UNL     1     -14.753  12.217 -10.901  1.00  0.00     0.041 C 
ATOM      6  O   UNL     1     -13.747  12.315 -11.651  1.00  0.00    -0.550 OA
ATOM      7  O   UNL     1     -15.755  11.305 -11.209  1.00  0.00    -0.550 OA
ENDBRANCH   4   5
ENDBRANCH   3   4
ENDBRANCH   2   3
ENDBRANCH   1   2
BRANCH   1   8
ATOM      8  C   UNL     1     -16.672  17.372 -10.520  1.00  0.00     0.000 C 
BRANCH   8   9
ATOM      9  C   UNL     1     -16.071  18.677  -9.970  1.00  0.00    -0.000 C 
BRANCH   9  10
ATOM     10  C   UNL     1     -15.981  19.781 -11.036  1.00  0.00    -0.000 C 
BRANCH  10  11
ATOM     11  C   UNL     1     -15.090  19.388 -12.224  1.00  0.00    -0.000 C 
BRANCH  11  12
ATOM     12  C   UNL     1     -13.778  20.182 -12.211  1.00  0.00    -0.003 C 
ATOM     13  C   UNL     1     -14.043  21.684 -12.175  1.00  0.00     0.004 C 
ENDBRANCH  11  12
ENDBRANCH  10  11
ENDBRANCH   9  10
ENDBRANCH   8   9
ENDBRANCH   1   8
TORSDOF 9
ENDMDL
MODEL 7
REMARK VINA RESULT:    -2.439      2.831      4.848
REMARK INTER + INTRA:          -4.254
REMARK INTER:                  -3.285
REMARK INTRA:                  -0.969
REMARK UNBOUND:                -0.532
REMARK SMILES CCCCCCCCCCC(=O)[O-]
REMARK SMILES IDX 7 1 8 2 9 3 10 4 11 5 12 6 13 7 6 8 5 9 4 10 3 11 2 12 1 13
REMARK H PARENT
REMARK Flexibility Score: inf
ROOT
ATOM      1  C   UNL     1     -15.528  13.628  -8.169  1.00  0.00     0.000 C 
ENDROOT
BRANCH   1   2
ATOM      2  C   UNL     1     -16.595  14.534  -8.804  1.00  0.00     0.000 C 
BRANCH   2   3
ATOM      3  C   UNL     1     -16.553  15.943  -8.191  1.00  0.00     0.006 C 
BRANCH   3   4
ATOM      4  C   UNL     1     -15.513  16.842  -8.873  1.00  0.00     0.053 C 
BRANCH   4   5
ATOM      5  C   UNL     1     -16.139  18.067  -9.465  1.00  0.00     0.041 C 
ATOM      6  O   UNL     1     -16.966  18.741  -8.797  1.00  0.00    -0.550 OA
ATOM      7  O   UNL     1     -15.781  18.484 -10.741  1.00  0.00    -0.550 OA
ENDBRANCH   4   5
ENDBRANCH   3   4
ENDBRANCH   2   3
ENDBRANCH   1   2
BRANCH   1   8
ATOM      8  C   UNL     1     -14.634  12.941  -9.214  1.00  0.00     0.000 C 
BRANCH   8   9
ATOM      9  C   UNL     1     -15.413  12.515 -10.470  1.00  0.00    -0.000 C 
BRANCH   9  10
ATOM     10  C   UNL     1     -14.830  13.119 -11.759  1.00  0.00    -0.000 C 
BRANCH  10  11
ATOM     11  C   UNL     1     -15.850  13.171 -12.906  1.00  0.00    -0.000 C 
BRANCH  11  12
ATOM     12  C   UNL     1     -17.093  13.970 -12.497  1.00  0.00    -0.003 C 
ATOM     13  C   UNL     1     -16.783  15.461 -12.399  1.00  0.00     0.004 C 
ENDBRANCH  11  12
ENDBRANCH  10  11
ENDBRANCH   9  10
ENDBRANCH   8   9
ENDBRANCH   1   8
TORSDOF 9
ENDMDL
MODEL 8
REMARK VINA RESULT:    -2.429      2.836      4.220
REMARK INTER + INTRA:          -4.239
REMARK INTER:                  -3.376
REMARK INTRA:                  -0.862
REMARK UNBOUND:                -0.532
REMARK SMILES CCCCCCCCCCC(=O)[O-]
REMARK SMILES IDX 7 1 8 2 9 3 10 4 11 5 12 6 13 7 6 8 5 9 4 10 3 11 2 12 1 13
REMARK H PARENT
REMARK Flexibility Score: inf
ROOT
ATOM      1  C   UNL     1     -16.172  12.351 -11.735  1.00  0.00     0.000 C 
ENDROOT
BRANCH   1   2
ATOM      2  C   UNL     1     -14.974  12.106 -10.804  1.00  0.00     0.000 C 
BRANCH   2   3
ATOM      3  C   UNL     1     -14.820  13.255  -9.795  1.00  0.00     0.006 C 
BRANCH   3   4
ATOM      4  C   UNL     1     -16.061  13.418  -8.907  1.00  0.00     0.053 C 
BRANCH   4   5
ATOM      5  C   UNL     1     -15.704  13.904  -7.536  1.00  0.00     0.041 C 
ATOM      6  O   UNL     1     -14.948  13.218  -6.798  1.00  0.00    -0.550 OA
ATOM      7  O   UNL     1     -16.178  15.130  -7.086  1.00  0.00    -0.550 OA
ENDBRANCH   4   5
ENDBRANCH   3   4
ENDBRANCH   2   3
ENDBRANCH   1   2
BRANCH   1   8
ATOM      8  C   UNL     1     -15.952  13.539 -12.686  1.00  0.00     0.000 C 
BRANCH   8   9
ATOM      9  C   UNL     1     -17.069  14.591 -12.586  1.00  0.00    -0.000 C 
BRANCH   9  10
ATOM     10  C   UNL     1     -16.545  16.026 -12.760  1.00  0.00    -0.000 C 
BRANCH  10  11
ATOM     11  C   UNL     1     -17.125  17.001 -11.724  1.00  0.00    -0.000 C 
BRANCH  11  12
ATOM     12  C   UNL     1     -16.673  16.625 -10.307  1.00  0.00    -0.003 C 
ATOM     13  C   UNL     1     -16.181  17.849  -9.542  1.00  0.00     0.004 C 
ENDBRANCH  11  12
ENDBRANCH  10  11
ENDBRANCH   9  10
ENDBRANCH   8   9
ENDBRANCH   1   8
TORSDOF 9
ENDMDL
MODEL 9
REMARK VINA RESULT:    -1.822      2.668      5.234
REMARK INTER + INTRA:          -3.313
REMARK INTER:                  -2.491
REMARK INTRA:                  -0.822
REMARK UNBOUND:                -0.532
REMARK SMILES CCCCCCCCCCC(=O)[O-]
REMARK SMILES IDX 7 1 8 2 9 3 10 4 11 5 12 6 13 7 6 8 5 9 4 10 3 11 2 12 1 13
REMARK H PARENT
REMARK Flexibility Score: inf
ROOT
ATOM      1  C   UNL     1     -16.114  14.672  -7.116  1.00  0.00     0.000 C 
ENDROOT
BRANCH   1   2
ATOM      2  C   UNL     1     -17.125  15.810  -7.334  1.00  0.00     0.000 C 
BRANCH   2   3
ATOM      3  C   UNL     1     -17.079  16.313  -8.784  1.00  0.00     0.006 C 
BRANCH   3   4
ATOM      4  C   UNL     1     -15.907  17.273  -9.029  1.00  0.00     0.053 C 
BRANCH   4   5
ATOM      5  C   UNL     1     -16.289  18.397  -9.943  1.00  0.00     0.041 C 
ATOM      6  O   UNL     1     -16.120  18.288 -11.186  1.00  0.00    -0.550 OA
ATOM      7  O   UNL     1     -16.865  19.550  -9.425  1.00  0.00    -0.550 OA
ENDBRANCH   4   5
ENDBRANCH   3   4
ENDBRANCH   2   3
ENDBRANCH   1   2
BRANCH   1   8
ATOM      8  C   UNL     1     -16.212  13.577  -8.191  1.00  0.00     0.000 C 
BRANCH   8   9
ATOM      9  C   UNL     1     -14.835  13.151  -8.728  1.00  0.00    -0.000 C 
BRANCH   9  10
ATOM     10  C   UNL     1     -14.858  12.847 -10.235  1.00  0.00    -0.000 C 
BRANCH  10  11
ATOM     11  C   UNL     1     -16.054  13.490 -10.953  1.00  0.00    -0.000 C 
BRANCH  11  12
ATOM     12  C   UNL     1     -16.587  12.571 -12.058  1.00  0.00    -0.003 C 
ATOM     13  C   UNL     1     -16.749  11.139 -11.555  1.00  0.00     0.004 C 
ENDBRANCH  11  12
ENDBRANCH  10  11
ENDBRANCH   9  10
ENDBRANCH   8   9
ENDBRANCH   1   8
TORSDOF 9
ENDMDL
