MODEL 1
REMARK VINA RESULT:    -5.360      0.000      0.000
REMARK INTER + INTRA:          -6.949
REMARK INTER:                  -6.613
REMARK INTRA:                  -0.335
REMARK UNBOUND:                -0.335
REMARK SMILES C=C(CCC=C(C)C)[C@@H]1CC=C(C)CC1
REMARK SMILES IDX 3 1 2 2 1 3 9 4 13 5 12 6 11 7 14 8 10 9 15 10 4 11 5 12
REMARK SMILES IDX 6 13 7 14 8 15
REMARK H PARENT
REMARK Flexibility Score: inf
ROOT
ATOM      1  C   UNL     1      57.668  46.231  42.098  1.00  0.00     0.035 C 
ENDROOT
BRANCH   1   2
ATOM      2  C   UNL     1      56.508  45.540  42.787  1.00  0.00    -0.074 C 
ATOM      3  C   UNL     1      56.732  44.367  43.414  1.00  0.00     0.008 C 
BRANCH   2   4
ATOM      4  C   UNL     1      55.066  46.019  42.655  1.00  0.00     0.018 C 
ATOM      5  C   UNL     1      50.825  46.978  43.059  1.00  0.00     0.039 C 
ATOM      6  C   UNL     1      52.249  46.498  43.052  1.00  0.00    -0.077 C 
ATOM      7  C   UNL     1      53.143  47.093  43.875  1.00  0.00    -0.027 C 
ATOM      8  C   UNL     1      52.687  45.526  41.973  1.00  0.00     0.031 C 
ATOM      9  C   UNL     1      54.584  46.662  43.961  1.00  0.00     0.035 C 
ATOM     10  C   UNL     1      54.075  44.920  42.230  1.00  0.00     0.013 C 
ENDBRANCH   2   4
ENDBRANCH   1   2
BRANCH   1  11
ATOM     11  C   UNL     1      58.524  45.253  41.273  1.00  0.00     0.032 C 
BRANCH  11  12
ATOM     12  C   UNL     1      59.650  44.672  42.091  1.00  0.00    -0.028 C 
ATOM     13  C   UNL     1      60.077  43.392  42.028  1.00  0.00    -0.080 C 
ATOM     14  C   UNL     1      61.199  42.968  42.943  1.00  0.00     0.039 C 
ATOM     15  C   UNL     1      59.440  42.376  41.112  1.00  0.00     0.039 C 
ENDBRANCH  11  12
ENDBRANCH   1  11
TORSDOF 4
ENDMDL
MODEL 2
REMARK VINA RESULT:    -5.093      1.495      3.481
REMARK INTER + INTRA:          -6.620
REMARK INTER:                  -5.590
REMARK INTRA:                  -1.029
REMARK UNBOUND:                -0.335
REMARK SMILES C=C(CCC=C(C)C)[C@@H]1CC=C(C)CC1
REMARK SMILES IDX 3 1 2 2 1 3 9 4 13 5 12 6 11 7 14 8 10 9 15 10 4 11 5 12
REMARK SMILES IDX 6 13 7 14 8 15
REMARK H PARENT
REMARK Flexibility Score: inf
ROOT
ATOM      1  C   UNL     1      59.502  42.772  41.346  1.00  0.00     0.035 C 
ENDROOT
BRANCH   1   2
ATOM      2  C   UNL     1      58.855  44.106  41.033  1.00  0.00    -0.074 C 
ATOM      3  C   UNL     1      59.386  44.871  40.058  1.00  0.00     0.008 C 
BRANCH   2   4
ATOM      4  C   UNL     1      57.741  44.703  41.886  1.00  0.00     0.018 C 
ATOM      5  C   UNL     1      54.037  46.232  43.622  1.00  0.00     0.039 C 
ATOM      6  C   UNL     1      55.221  45.731  42.845  1.00  0.00    -0.077 C 
ATOM      7  C   UNL     1      55.362  44.398  42.655  1.00  0.00    -0.027 C 
ATOM      8  C   UNL     1      56.329  46.704  42.494  1.00  0.00     0.031 C 
ATOM      9  C   UNL     1      56.498  43.803  41.866  1.00  0.00     0.035 C 
ATOM     10  C   UNL     1      57.341  46.135  41.488  1.00  0.00     0.013 C 
ENDBRANCH   2   4
ENDBRANCH   1   2
BRANCH   1  11
ATOM     11  C   UNL     1      59.925  42.658  42.822  1.00  0.00     0.032 C 
BRANCH  11  12
ATOM     12  C   UNL     1      61.306  43.219  43.050  1.00  0.00    -0.028 C 
ATOM     13  C   UNL     1      61.576  44.406  43.636  1.00  0.00    -0.080 C 
ATOM     14  C   UNL     1      63.018  44.830  43.758  1.00  0.00     0.039 C 
ATOM     15  C   UNL     1      60.486  45.329  44.124  1.00  0.00     0.039 C 
ENDBRANCH  11  12
ENDBRANCH   1  11
TORSDOF 4
ENDMDL
MODEL 3
REMARK VINA RESULT:    -5.087      1.669      3.726
REMARK INTER + INTRA:          -6.612
REMARK INTER:                  -5.883
REMARK INTRA:                  -0.729
REMARK UNBOUND:                -0.335
REMARK SMILES C=C(CCC=C(C)C)[C@@H]1CC=C(C)CC1
REMARK SMILES IDX 3 1 2 2 1 3 9 4 13 5 12 6 11 7 14 8 10 9 15 10 4 11 5 12
REMARK SMILES IDX 6 13 7 14 8 15
REMARK H PARENT
REMARK Flexibility Score: inf
ROOT
ATOM      1  C   UNL     1      60.313  43.802  42.497  1.00  0.00     0.035 C 
ENDROOT
BRANCH   1   2
ATOM      2  C   UNL     1      59.196  43.167  41.693  1.00  0.00    -0.074 C 
ATOM      3  C   UNL     1      59.511  42.235  40.770  1.00  0.00     0.008 C 
BRANCH   2   4
ATOM      4  C   UNL     1      57.754  43.659  41.753  1.00  0.00     0.018 C 
ATOM      5  C   UNL     1      53.904  45.518  42.642  1.00  0.00     0.039 C 
ATOM      6  C   UNL     1      55.276  44.916  42.529  1.00  0.00    -0.077 C 
ATOM      7  C   UNL     1      56.291  45.684  42.069  1.00  0.00    -0.027 C 
ATOM      8  C   UNL     1      55.435  43.420  42.719  1.00  0.00     0.031 C 
ATOM      9  C   UNL     1      57.705  45.179  41.950  1.00  0.00     0.035 C 
ATOM     10  C   UNL     1      56.901  42.975  42.836  1.00  0.00     0.013 C 
ENDBRANCH   2   4
ENDBRANCH   1   2
BRANCH   1  11
ATOM     11  C   UNL     1      60.873  42.854  43.573  1.00  0.00     0.032 C 
BRANCH  11  12
ATOM     12  C   UNL     1      62.369  42.707  43.461  1.00  0.00    -0.028 C 
ATOM     13  C   UNL     1      63.010  41.628  42.960  1.00  0.00    -0.080 C 
ATOM     14  C   UNL     1      64.518  41.634  42.951  1.00  0.00     0.039 C 
ATOM     15  C   UNL     1      62.268  40.412  42.462  1.00  0.00     0.039 C 
ENDBRANCH  11  12
ENDBRANCH   1  11
TORSDOF 4
ENDMDL
MODEL 4
REMARK VINA RESULT:    -4.960      1.537      6.244
REMARK INTER + INTRA:          -6.455
REMARK INTER:                  -5.491
REMARK INTRA:                  -0.964
REMARK UNBOUND:                -0.335
REMARK SMILES C=C(CCC=C(C)C)[C@@H]1CC=C(C)CC1
REMARK SMILES IDX 3 1 2 2 1 3 9 4 13 5 12 6 11 7 14 8 10 9 15 10 4 11 5 12
REMARK SMILES IDX 6 13 7 14 8 15
REMARK H PARENT
REMARK Flexibility Score: inf
ROOT
ATOM      1  C   UNL     1      57.132  46.815  43.621  1.00  0.00     0.035 C 
ENDROOT
BRANCH   1   2
ATOM      2  C   UNL     1      57.882  46.460  42.353  1.00  0.00    -0.074 C 
ATOM      3  C   UNL     1      57.514  47.047  41.196  1.00  0.00     0.008 C 
BRANCH   2   4
ATOM      4  C   UNL     1      58.915  45.340  42.293  1.00  0.00     0.018 C 
ATOM      5  C   UNL     1      61.163  41.597  42.208  1.00  0.00     0.039 C 
ATOM      6  C   UNL     1      60.243  42.778  42.328  1.00  0.00    -0.077 C 
ATOM      7  C   UNL     1      59.449  43.097  41.279  1.00  0.00    -0.027 C 
ATOM      8  C   UNL     1      60.392  43.703  43.521  1.00  0.00     0.031 C 
ATOM      9  C   UNL     1      58.473  44.243  41.315  1.00  0.00     0.035 C 
ATOM     10  C   UNL     1      59.237  44.707  43.658  1.00  0.00     0.013 C 
ENDBRANCH   2   4
ENDBRANCH   1   2
BRANCH   1  11
ATOM     11  C   UNL     1      55.664  46.352  43.582  1.00  0.00     0.032 C 
BRANCH  11  12
ATOM     12  C   UNL     1      55.556  44.872  43.314  1.00  0.00    -0.028 C 
ATOM     13  C   UNL     1      54.585  44.283  42.581  1.00  0.00    -0.080 C 
ATOM     14  C   UNL     1      54.609  42.782  42.438  1.00  0.00     0.039 C 
ATOM     15  C   UNL     1      53.464  45.072  41.949  1.00  0.00     0.039 C 
ENDBRANCH  11  12
ENDBRANCH   1  11
TORSDOF 4
ENDMDL
MODEL 5
REMARK VINA RESULT:    -4.915      1.288      2.445
REMARK INTER + INTRA:          -6.400
REMARK INTER:                  -5.443
REMARK INTRA:                  -0.957
REMARK UNBOUND:                -0.335
REMARK SMILES C=C(CCC=C(C)C)[C@@H]1CC=C(C)CC1
REMARK SMILES IDX 3 1 2 2 1 3 9 4 13 5 12 6 11 7 14 8 10 9 15 10 4 11 5 12
REMARK SMILES IDX 6 13 7 14 8 15
REMARK H PARENT
REMARK Flexibility Score: inf
ROOT
ATOM      1  C   UNL     1      57.872  43.163  41.721  1.00  0.00     0.035 C 
ENDROOT
BRANCH   1   2
ATOM      2  C   UNL     1      57.251  43.350  43.091  1.00  0.00    -0.074 C 
ATOM      3  C   UNL     1      57.734  42.631  44.125  1.00  0.00     0.008 C 
BRANCH   2   4
ATOM      4  C   UNL     1      55.992  44.179  43.320  1.00  0.00     0.018 C 
ATOM      5  C   UNL     1      52.469  46.750  43.106  1.00  0.00     0.039 C 
ATOM      6  C   UNL     1      53.743  45.961  43.012  1.00  0.00    -0.077 C 
ATOM      7  C   UNL     1      53.724  44.758  42.391  1.00  0.00    -0.027 C 
ATOM      8  C   UNL     1      54.951  46.426  43.803  1.00  0.00     0.031 C 
ATOM      9  C   UNL     1      54.955  43.909  42.221  1.00  0.00     0.035 C 
ATOM     10  C   UNL     1      56.246  45.694  43.421  1.00  0.00     0.013 C 
ENDBRANCH   2   4
ENDBRANCH   1   2
BRANCH   1  11
ATOM     11  C   UNL     1      58.848  44.298  41.361  1.00  0.00     0.032 C 
BRANCH  11  12
ATOM     12  C   UNL     1      60.234  44.029  41.892  1.00  0.00    -0.028 C 
ATOM     13  C   UNL     1      60.760  44.580  43.009  1.00  0.00    -0.080 C 
ATOM     14  C   UNL     1      62.177  44.224  43.381  1.00  0.00     0.039 C 
ATOM     15  C   UNL     1      59.993  45.566  43.856  1.00  0.00     0.039 C 
ENDBRANCH  11  12
ENDBRANCH   1  11
TORSDOF 4
ENDMDL
MODEL 6
REMARK VINA RESULT:    -4.725     19.410     22.253
REMARK INTER + INTRA:          -6.166
REMARK INTER:                  -5.476
REMARK INTRA:                  -0.690
REMARK UNBOUND:                -0.335
REMARK SMILES C=C(CCC=C(C)C)[C@@H]1CC=C(C)CC1
REMARK SMILES IDX 3 1 2 2 1 3 9 4 13 5 12 6 11 7 14 8 10 9 15 10 4 11 5 12
REMARK SMILES IDX 6 13 7 14 8 15
REMARK H PARENT
REMARK Flexibility Score: inf
ROOT
ATOM      1  C   UNL     1      52.396  31.959  26.565  1.00  0.00     0.035 C 
ENDROOT
BRANCH   1   2
ATOM      2  C   UNL     1      52.469  30.445  26.558  1.00  0.00    -0.074 C 
ATOM      3  C   UNL     1      51.381  29.742  26.935  1.00  0.00     0.008 C 
BRANCH   2   4
ATOM      4  C   UNL     1      53.768  29.683  26.316  1.00  0.00     0.018 C 
ATOM      5  C   UNL     1      57.543  27.497  26.515  1.00  0.00     0.039 C 
ATOM      6  C   UNL     1      56.287  28.313  26.634  1.00  0.00    -0.077 C 
ATOM      7  C   UNL     1      55.148  27.705  27.040  1.00  0.00    -0.027 C 
ATOM      8  C   UNL     1      56.280  29.727  26.086  1.00  0.00     0.031 C 
ATOM      9  C   UNL     1      53.849  28.445  27.219  1.00  0.00     0.035 C 
ATOM     10  C   UNL     1      55.039  30.532  26.498  1.00  0.00     0.013 C 
ENDBRANCH   2   4
ENDBRANCH   1   2
BRANCH   1  11
ATOM     11  C   UNL     1      51.019  32.477  27.017  1.00  0.00     0.032 C 
BRANCH  11  12
ATOM     12  C   UNL     1      51.129  33.363  28.233  1.00  0.00    -0.028 C 
ATOM     13  C   UNL     1      50.717  33.032  29.476  1.00  0.00    -0.080 C 
ATOM     14  C   UNL     1      50.875  34.052  30.576  1.00  0.00     0.039 C 
ATOM     15  C   UNL     1      50.067  31.704  29.781  1.00  0.00     0.039 C 
ENDBRANCH  11  12
ENDBRANCH   1  11
TORSDOF 4
ENDMDL
MODEL 7
REMARK VINA RESULT:    -4.704      1.372      6.927
REMARK INTER + INTRA:          -6.139
REMARK INTER:                  -5.504
REMARK INTRA:                  -0.635
REMARK UNBOUND:                -0.335
REMARK SMILES C=C(CCC=C(C)C)[C@@H]1CC=C(C)CC1
REMARK SMILES IDX 3 1 2 2 1 3 9 4 13 5 12 6 11 7 14 8 10 9 15 10 4 11 5 12
REMARK SMILES IDX 6 13 7 14 8 15
REMARK H PARENT
REMARK Flexibility Score: inf
ROOT
ATOM      1  C   UNL     1      56.534  43.399  41.883  1.00  0.00     0.035 C 
ENDROOT
BRANCH   1   2
ATOM      2  C   UNL     1      57.782  44.250  42.009  1.00  0.00    -0.074 C 
ATOM      3  C   UNL     1      57.823  45.439  41.373  1.00  0.00     0.008 C 
BRANCH   2   4
ATOM      4  C   UNL     1      59.058  43.747  42.674  1.00  0.00     0.018 C 
ATOM      5  C   UNL     1      63.122  42.849  43.997  1.00  0.00     0.039 C 
ATOM      6  C   UNL     1      61.809  43.220  43.369  1.00  0.00    -0.077 C 
ATOM      7  C   UNL     1      61.285  44.442  43.623  1.00  0.00    -0.027 C 
ATOM      8  C   UNL     1      61.008  42.146  42.659  1.00  0.00     0.031 C 
ATOM      9  C   UNL     1      59.991  44.916  43.016  1.00  0.00     0.035 C 
ATOM     10  C   UNL     1      59.830  42.703  41.847  1.00  0.00     0.013 C 
ENDBRANCH   2   4
ENDBRANCH   1   2
BRANCH   1  11
ATOM     11  C   UNL     1      55.707  43.377  43.181  1.00  0.00     0.032 C 
BRANCH  11  12
ATOM     12  C   UNL     1      55.435  44.770  43.692  1.00  0.00    -0.028 C 
ATOM     13  C   UNL     1      54.445  45.579  43.256  1.00  0.00    -0.080 C 
ATOM     14  C   UNL     1      54.334  46.958  43.856  1.00  0.00     0.039 C 
ATOM     15  C   UNL     1      53.488  45.163  42.166  1.00  0.00     0.039 C 
ENDBRANCH  11  12
ENDBRANCH   1  11
TORSDOF 4
ENDMDL
MODEL 8
REMARK VINA RESULT:    -4.540      1.239      6.446
REMARK INTER + INTRA:          -5.937
REMARK INTER:                  -5.349
REMARK INTRA:                  -0.587
REMARK UNBOUND:                -0.335
REMARK SMILES C=C(CCC=C(C)C)[C@@H]1CC=C(C)CC1
REMARK SMILES IDX 3 1 2 2 1 3 9 4 13 5 12 6 11 7 14 8 10 9 15 10 4 11 5 12
REMARK SMILES IDX 6 13 7 14 8 15
REMARK H PARENT
REMARK Flexibility Score: inf
ROOT
ATOM      1  C   UNL     1      56.144  46.080  44.093  1.00  0.00     0.035 C 
ENDROOT
BRANCH   1   2
ATOM      2  C   UNL     1      57.633  46.023  43.812  1.00  0.00    -0.074 C 
ATOM      3  C   UNL     1      58.377  47.125  44.035  1.00  0.00     0.008 C 
BRANCH   2   4
ATOM      4  C   UNL     1      58.296  44.835  43.123  1.00  0.00     0.018 C 
ATOM      5  C   UNL     1      59.747  41.718  40.431  1.00  0.00     0.039 C 
ATOM      6  C   UNL     1      59.095  42.813  41.226  1.00  0.00    -0.077 C 
ATOM      7  C   UNL     1      59.513  44.088  41.048  1.00  0.00    -0.027 C 
ATOM      8  C   UNL     1      58.155  42.435  42.355  1.00  0.00     0.031 C 
ATOM      9  C   UNL     1      58.900  45.255  41.776  1.00  0.00     0.035 C 
ATOM     10  C   UNL     1      57.364  43.629  42.911  1.00  0.00     0.013 C 
ENDBRANCH   2   4
ENDBRANCH   1   2
BRANCH   1  11
ATOM     11  C   UNL     1      55.376  46.875  43.022  1.00  0.00     0.032 C 
BRANCH  11  12
ATOM     12  C   UNL     1      53.947  47.125  43.433  1.00  0.00    -0.028 C 
ATOM     13  C   UNL     1      52.876  46.440  42.976  1.00  0.00    -0.080 C 
ATOM     14  C   UNL     1      51.508  46.842  43.470  1.00  0.00     0.039 C 
ATOM     15  C   UNL     1      53.003  45.329  41.963  1.00  0.00     0.039 C 
ENDBRANCH  11  12
ENDBRANCH   1  11
TORSDOF 4
ENDMDL
MODEL 9
REMARK VINA RESULT:    -4.515     20.258     22.424
REMARK INTER + INTRA:          -5.906
REMARK INTER:                  -5.027
REMARK INTRA:                  -0.879
REMARK UNBOUND:                -0.335
REMARK SMILES C=C(CCC=C(C)C)[C@@H]1CC=C(C)CC1
REMARK SMILES IDX 3 1 2 2 1 3 9 4 13 5 12 6 11 7 14 8 10 9 15 10 4 11 5 12
REMARK SMILES IDX 6 13 7 14 8 15
REMARK H PARENT
REMARK Flexibility Score: inf
ROOT
ATOM      1  C   UNL     1      54.733  30.150  24.073  1.00  0.00     0.035 C 
ENDROOT
BRANCH   1   2
ATOM      2  C   UNL     1      53.742  29.629  25.095  1.00  0.00    -0.074 C 
ATOM      3  C   UNL     1      53.288  28.365  24.971  1.00  0.00     0.008 C 
BRANCH   2   4
ATOM      4  C   UNL     1      53.101  30.522  26.151  1.00  0.00     0.018 C 
ATOM      5  C   UNL     1      50.527  32.978  28.684  1.00  0.00     0.039 C 
ATOM      6  C   UNL     1      51.277  32.166  27.667  1.00  0.00    -0.077 C 
ATOM      7  C   UNL     1      51.083  30.827  27.626  1.00  0.00    -0.027 C 
ATOM      8  C   UNL     1      52.385  32.832  26.873  1.00  0.00     0.031 C 
ATOM      9  C   UNL     1      51.764  29.935  26.623  1.00  0.00     0.035 C 
ATOM     10  C   UNL     1      52.888  31.978  25.700  1.00  0.00     0.013 C 
ENDBRANCH   2   4
ENDBRANCH   1   2
BRANCH   1  11
ATOM     11  C   UNL     1      56.156  30.271  24.647  1.00  0.00     0.032 C 
BRANCH  11  12
ATOM     12  C   UNL     1      56.757  28.918  24.935  1.00  0.00    -0.028 C 
ATOM     13  C   UNL     1      57.007  28.424  26.167  1.00  0.00    -0.080 C 
ATOM     14  C   UNL     1      57.642  27.060  26.275  1.00  0.00     0.039 C 
ATOM     15  C   UNL     1      56.715  29.210  27.422  1.00  0.00     0.039 C 
ENDBRANCH  11  12
ENDBRANCH   1  11
TORSDOF 4
ENDMDL
