MODEL 1
REMARK VINA RESULT:    -4.013      0.000      0.000
REMARK INTER + INTRA:          -4.816
REMARK INTER:                  -4.716
REMARK INTRA:                  -0.100
REMARK UNBOUND:                -0.100
REMARK SMILES O=C([O-])CCC(=O)[O-]
REMARK SMILES IDX 4 1 2 2 1 3 3 4 5 5 6 6 7 7 8 8
REMARK H PARENT
REMARK Flexibility Score: inf
ROOT
ATOM      1  C   UNL     1       3.948 -21.352   7.530  1.00  0.00     0.059 C 
ENDROOT
BRANCH   1   2
ATOM      2  C   UNL     1       3.227 -20.952   6.279  1.00  0.00     0.042 C 
ATOM      3  O   UNL     1       3.814 -21.000   5.166  1.00  0.00    -0.550 OA
ATOM      4  O   UNL     1       1.919 -20.488   6.349  1.00  0.00    -0.550 OA
ENDBRANCH   1   2
BRANCH   1   5
ATOM      5  C   UNL     1       3.171 -20.938   8.785  1.00  0.00     0.059 C 
BRANCH   5   6
ATOM      6  C   UNL     1       2.493 -22.110   9.427  1.00  0.00     0.042 C 
ATOM      7  O   UNL     1       2.573 -22.284  10.671  1.00  0.00    -0.550 OA
ATOM      8  O   UNL     1       1.739 -22.986   8.657  1.00  0.00    -0.550 OA
ENDBRANCH   5   6
ENDBRANCH   1   5
TORSDOF 3
ENDMDL
MODEL 2
REMARK VINA RESULT:    -3.993      0.146      3.859
REMARK INTER + INTRA:          -4.793
REMARK INTER:                  -4.691
REMARK INTRA:                  -0.102
REMARK UNBOUND:                -0.100
REMARK SMILES O=C([O-])CCC(=O)[O-]
REMARK SMILES IDX 4 1 2 2 1 3 3 4 5 5 6 6 7 7 8 8
REMARK H PARENT
REMARK Flexibility Score: inf
ROOT
ATOM      1  C   UNL     1       3.046 -20.980   8.741  1.00  0.00     0.059 C 
ENDROOT
BRANCH   1   2
ATOM      2  C   UNL     1       2.339 -22.137   9.380  1.00  0.00     0.042 C 
ATOM      3  O   UNL     1       2.336 -22.265  10.633  1.00  0.00    -0.550 OA
ATOM      4  O   UNL     1       1.719 -23.095   8.588  1.00  0.00    -0.550 OA
ENDBRANCH   1   2
BRANCH   1   5
ATOM      5  C   UNL     1       3.845 -21.419   7.509  1.00  0.00     0.059 C 
BRANCH   5   6
ATOM      6  C   UNL     1       3.179 -20.990   6.237  1.00  0.00     0.042 C 
ATOM      7  O   UNL     1       3.812 -21.022   5.150  1.00  0.00    -0.550 OA
ATOM      8  O   UNL     1       1.848 -20.595   6.247  1.00  0.00    -0.550 OA
ENDBRANCH   5   6
ENDBRANCH   1   5
TORSDOF 3
ENDMDL
MODEL 3
REMARK VINA RESULT:    -3.992      0.194      1.161
REMARK INTER + INTRA:          -4.792
REMARK INTER:                  -4.698
REMARK INTRA:                  -0.094
REMARK UNBOUND:                -0.100
REMARK SMILES O=C([O-])CCC(=O)[O-]
REMARK SMILES IDX 4 1 2 2 1 3 3 4 5 5 6 6 7 7 8 8
REMARK H PARENT
REMARK Flexibility Score: inf
ROOT
ATOM      1  C   UNL     1       3.842 -21.538   7.518  1.00  0.00     0.059 C 
ENDROOT
BRANCH   1   2
ATOM      2  C   UNL     1       3.184 -20.965   6.300  1.00  0.00     0.042 C 
ATOM      3  O   UNL     1       2.027 -20.475   6.374  1.00  0.00    -0.550 OA
ATOM      4  O   UNL     1       3.835 -21.009   5.073  1.00  0.00    -0.550 OA
ENDBRANCH   1   2
BRANCH   1   5
ATOM      5  C   UNL     1       3.136 -21.090   8.802  1.00  0.00     0.059 C 
BRANCH   5   6
ATOM      6  C   UNL     1       2.318 -22.194   9.398  1.00  0.00     0.042 C 
ATOM      7  O   UNL     1       2.197 -22.289  10.648  1.00  0.00    -0.550 OA
ATOM      8  O   UNL     1       1.656 -23.094   8.573  1.00  0.00    -0.550 OA
ENDBRANCH   5   6
ENDBRANCH   1   5
TORSDOF 3
ENDMDL
MODEL 4
REMARK VINA RESULT:    -3.887     18.074     18.745
REMARK INTER + INTRA:          -4.668
REMARK INTER:                  -4.633
REMARK INTRA:                  -0.035
REMARK UNBOUND:                -0.100
REMARK SMILES O=C([O-])CCC(=O)[O-]
REMARK SMILES IDX 4 1 2 2 1 3 3 4 5 5 6 6 7 7 8 8
REMARK H PARENT
REMARK Flexibility Score: inf
ROOT
ATOM      1  C   UNL     1      -4.813  -9.070  19.162  1.00  0.00     0.059 C 
ENDROOT
BRANCH   1   2
ATOM      2  C   UNL     1      -3.725  -8.273  18.509  1.00  0.00     0.042 C 
ATOM      3  O   UNL     1      -3.750  -8.065  17.267  1.00  0.00    -0.550 OA
ATOM      4  O   UNL     1      -2.662  -7.796  19.266  1.00  0.00    -0.550 OA
ENDBRANCH   1   2
BRANCH   1   5
ATOM      5  C   UNL     1      -6.165  -8.845  18.477  1.00  0.00     0.059 C 
BRANCH   5   6
ATOM      6  C   UNL     1      -7.230  -9.725  19.056  1.00  0.00     0.042 C 
ATOM      7  O   UNL     1      -8.350  -9.820  18.488  1.00  0.00    -0.550 OA
ATOM      8  O   UNL     1      -6.973 -10.470  20.199  1.00  0.00    -0.550 OA
ENDBRANCH   5   6
ENDBRANCH   1   5
TORSDOF 3
ENDMDL
MODEL 5
REMARK VINA RESULT:    -3.251      1.425      4.070
REMARK INTER + INTRA:          -3.921
REMARK INTER:                  -3.851
REMARK INTRA:                  -0.069
REMARK UNBOUND:                -0.100
REMARK SMILES O=C([O-])CCC(=O)[O-]
REMARK SMILES IDX 4 1 2 2 1 3 3 4 5 5 6 6 7 7 8 8
REMARK H PARENT
REMARK Flexibility Score: inf
ROOT
ATOM      1  C   UNL     1       2.947 -22.934   8.744  1.00  0.00     0.059 C 
ENDROOT
BRANCH   1   2
ATOM      2  C   UNL     1       2.943 -22.682  10.221  1.00  0.00     0.042 C 
ATOM      3  O   UNL     1       1.878 -22.344  10.804  1.00  0.00    -0.550 OA
ATOM      4  O   UNL     1       4.123 -22.782  10.947  1.00  0.00    -0.550 OA
ENDBRANCH   1   2
BRANCH   1   5
ATOM      5  C   UNL     1       1.933 -22.044   8.018  1.00  0.00     0.059 C 
BRANCH   5   6
ATOM      6  C   UNL     1       2.603 -21.121   7.046  1.00  0.00     0.042 C 
ATOM      7  O   UNL     1       3.853 -21.154   6.900  1.00  0.00    -0.550 OA
ATOM      8  O   UNL     1       1.843 -20.253   6.272  1.00  0.00    -0.550 OA
ENDBRANCH   5   6
ENDBRANCH   1   5
TORSDOF 3
ENDMDL
MODEL 6
REMARK VINA RESULT:    -2.560     16.452     17.105
REMARK INTER + INTRA:          -3.108
REMARK INTER:                  -2.982
REMARK INTRA:                  -0.126
REMARK UNBOUND:                -0.100
REMARK SMILES O=C([O-])CCC(=O)[O-]
REMARK SMILES IDX 4 1 2 2 1 3 3 4 5 5 6 6 7 7 8 8
REMARK H PARENT
REMARK Flexibility Score: inf
ROOT
ATOM      1  C   UNL     1     -13.167 -19.323   5.767  1.00  0.00     0.059 C 
ENDROOT
BRANCH   1   2
ATOM      2  C   UNL     1     -12.206 -18.587   4.884  1.00  0.00     0.042 C 
ATOM      3  O   UNL     1     -12.590 -18.122   3.779  1.00  0.00    -0.550 OA
ATOM      4  O   UNL     1     -10.877 -18.451   5.266  1.00  0.00    -0.550 OA
ENDBRANCH   1   2
BRANCH   1   5
ATOM      5  C   UNL     1     -14.615 -18.897   5.503  1.00  0.00     0.059 C 
BRANCH   5   6
ATOM      6  C   UNL     1     -15.005 -17.717   6.340  1.00  0.00     0.042 C 
ATOM      7  O   UNL     1     -15.232 -17.860   7.570  1.00  0.00    -0.550 OA
ATOM      8  O   UNL     1     -15.079 -16.452   5.770  1.00  0.00    -0.550 OA
ENDBRANCH   5   6
ENDBRANCH   1   5
TORSDOF 3
ENDMDL
MODEL 7
REMARK VINA RESULT:    -2.558     16.460     17.299
REMARK INTER + INTRA:          -3.107
REMARK INTER:                  -2.990
REMARK INTRA:                  -0.117
REMARK UNBOUND:                -0.100
REMARK SMILES O=C([O-])CCC(=O)[O-]
REMARK SMILES IDX 4 1 2 2 1 3 3 4 5 5 6 6 7 7 8 8
REMARK H PARENT
REMARK Flexibility Score: inf
ROOT
ATOM      1  C   UNL     1     -14.572 -18.783   5.434  1.00  0.00     0.059 C 
ENDROOT
BRANCH   1   2
ATOM      2  C   UNL     1     -15.033 -17.639   6.284  1.00  0.00     0.042 C 
ATOM      3  O   UNL     1     -15.159 -16.489   5.787  1.00  0.00    -0.550 OA
ATOM      4  O   UNL     1     -15.285 -17.836   7.636  1.00  0.00    -0.550 OA
ENDBRANCH   1   2
BRANCH   1   5
ATOM      5  C   UNL     1     -13.132 -19.187   5.766  1.00  0.00     0.059 C 
BRANCH   5   6
ATOM      6  C   UNL     1     -12.147 -18.532   4.846  1.00  0.00     0.042 C 
ATOM      7  O   UNL     1     -12.535 -18.024   3.761  1.00  0.00    -0.550 OA
ATOM      8  O   UNL     1     -10.808 -18.446   5.206  1.00  0.00    -0.550 OA
ENDBRANCH   5   6
ENDBRANCH   1   5
TORSDOF 3
ENDMDL
MODEL 8
REMARK VINA RESULT:    -2.422     15.601     16.387
REMARK INTER + INTRA:          -2.947
REMARK INTER:                  -2.816
REMARK INTRA:                  -0.131
REMARK UNBOUND:                -0.100
REMARK SMILES O=C([O-])CCC(=O)[O-]
REMARK SMILES IDX 4 1 2 2 1 3 3 4 5 5 6 6 7 7 8 8
REMARK H PARENT
REMARK Flexibility Score: inf
ROOT
ATOM      1  C   UNL     1     -14.078 -20.036   4.932  1.00  0.00     0.059 C 
ENDROOT
BRANCH   1   2
ATOM      2  C   UNL     1     -13.537 -21.402   4.638  1.00  0.00     0.042 C 
ATOM      3  O   UNL     1     -13.644 -22.323   5.490  1.00  0.00    -0.550 OA
ATOM      4  O   UNL     1     -12.879 -21.645   3.439  1.00  0.00    -0.550 OA
ENDBRANCH   1   2
BRANCH   1   5
ATOM      5  C   UNL     1     -13.073 -19.190   5.721  1.00  0.00     0.059 C 
BRANCH   5   6
ATOM      6  C   UNL     1     -12.046 -18.572   4.822  1.00  0.00     0.042 C 
ATOM      7  O   UNL     1     -10.853 -18.460   5.208  1.00  0.00    -0.550 OA
ATOM      8  O   UNL     1     -12.398 -18.157   3.544  1.00  0.00    -0.550 OA
ENDBRANCH   5   6
ENDBRANCH   1   5
TORSDOF 3
ENDMDL
MODEL 9
REMARK VINA RESULT:    -2.395     15.588     16.248
REMARK INTER + INTRA:          -2.914
REMARK INTER:                  -2.797
REMARK INTRA:                  -0.117
REMARK UNBOUND:                -0.100
REMARK SMILES O=C([O-])CCC(=O)[O-]
REMARK SMILES IDX 4 1 2 2 1 3 3 4 5 5 6 6 7 7 8 8
REMARK H PARENT
REMARK Flexibility Score: inf
ROOT
ATOM      1  C   UNL     1     -13.104 -19.167   5.751  1.00  0.00     0.059 C 
ENDROOT
BRANCH   1   2
ATOM      2  C   UNL     1     -12.070 -18.473   4.917  1.00  0.00     0.042 C 
ATOM      3  O   UNL     1     -12.375 -18.008   3.787  1.00  0.00    -0.550 OA
ATOM      4  O   UNL     1     -10.761 -18.375   5.372  1.00  0.00    -0.550 OA
ENDBRANCH   1   2
BRANCH   1   5
ATOM      5  C   UNL     1     -14.073 -19.980   4.886  1.00  0.00     0.059 C 
BRANCH   5   6
ATOM      6  C   UNL     1     -13.487 -21.302   4.493  1.00  0.00     0.042 C 
ATOM      7  O   UNL     1     -12.928 -21.439   3.373  1.00  0.00    -0.550 OA
ATOM      8  O   UNL     1     -13.524 -22.371   5.379  1.00  0.00    -0.550 OA
ENDBRANCH   5   6
ENDBRANCH   1   5
TORSDOF 3
ENDMDL
