MODEL 1
REMARK VINA RESULT:    -5.207      0.000      0.000
REMARK INTER + INTRA:          -6.034
REMARK INTER:                  -5.816
REMARK INTRA:                  -0.218
REMARK UNBOUND:                -0.218
REMARK SMILES CC(C)c1ccc(C(=O)[O-])cc1
REMARK SMILES IDX 7 1 6 2 11 3 5 4 12 5 4 6 8 7 9 8 10 9 2 10 1 11 3 12
REMARK H PARENT
REMARK Flexibility Score: inf
ROOT
ATOM      1  C   UNL     1      36.937  19.172   8.013  1.00  0.00    -0.003 A 
ATOM      2  C   UNL     1      36.037  18.685   8.976  1.00  0.00     0.010 A 
ATOM      3  C   UNL     1      38.303  19.248   8.334  1.00  0.00     0.010 A 
ATOM      4  C   UNL     1      36.494  18.284  10.235  1.00  0.00     0.004 A 
ATOM      5  C   UNL     1      38.758  18.848   9.593  1.00  0.00     0.004 A 
ATOM      6  C   UNL     1      37.858  18.360  10.558  1.00  0.00    -0.045 A 
ENDROOT
BRANCH   1   7
ATOM      7  C   UNL     1      36.449  19.596   6.682  1.00  0.00     0.071 C 
ATOM      8  O   UNL     1      37.260  19.823   5.744  1.00  0.00    -0.545 OA
ATOM      9  O   UNL     1      35.087  19.749   6.445  1.00  0.00    -0.545 OA
ENDBRANCH   1   7
BRANCH   6  10
ATOM     10  C   UNL     1      38.340  17.922  11.928  1.00  0.00     0.013 C 
ATOM     11  C   UNL     1      37.559  18.630  13.041  1.00  0.00     0.012 C 
ATOM     12  C   UNL     1      39.849  18.148  12.082  1.00  0.00     0.012 C 
ENDBRANCH   6  10
TORSDOF 2
ENDMDL
MODEL 2
REMARK VINA RESULT:    -5.067      9.807     11.264
REMARK INTER + INTRA:          -5.877
REMARK INTER:                  -5.669
REMARK INTRA:                  -0.208
REMARK UNBOUND:                -0.218
REMARK SMILES CC(C)c1ccc(C(=O)[O-])cc1
REMARK SMILES IDX 7 1 6 2 11 3 5 4 12 5 4 6 8 7 9 8 10 9 2 10 1 11 3 12
REMARK H PARENT
REMARK Flexibility Score: inf
ROOT
ATOM      1  C   UNL     1      32.460  13.557  15.488  1.00  0.00    -0.003 A 
ATOM      2  C   UNL     1      31.251  14.230  15.732  1.00  0.00     0.010 A 
ATOM      3  C   UNL     1      32.418  12.244  14.988  1.00  0.00     0.010 A 
ATOM      4  C   UNL     1      30.027  13.604  15.484  1.00  0.00     0.004 A 
ATOM      5  C   UNL     1      31.194  11.618  14.740  1.00  0.00     0.004 A 
ATOM      6  C   UNL     1      29.983  12.292  14.985  1.00  0.00    -0.045 A 
ENDROOT
BRANCH   1   7
ATOM      7  C   UNL     1      33.754  14.224  15.753  1.00  0.00     0.071 C 
ATOM      8  O   UNL     1      34.768  13.956  15.056  1.00  0.00    -0.545 OA
ATOM      9  O   UNL     1      33.869  15.158  16.776  1.00  0.00    -0.545 OA
ENDBRANCH   1   7
BRANCH   6  10
ATOM     10  C   UNL     1      28.647  11.624  14.719  1.00  0.00     0.013 C 
ATOM     11  C   UNL     1      27.944  12.254  13.512  1.00  0.00     0.012 C 
ATOM     12  C   UNL     1      27.751  11.667  15.964  1.00  0.00     0.012 C 
ENDBRANCH   6  10
TORSDOF 2
ENDMDL
MODEL 3
REMARK VINA RESULT:    -5.021      2.806      4.100
REMARK INTER + INTRA:          -5.827
REMARK INTER:                  -5.622
REMARK INTRA:                  -0.205
REMARK UNBOUND:                -0.218
REMARK SMILES CC(C)c1ccc(C(=O)[O-])cc1
REMARK SMILES IDX 7 1 6 2 11 3 5 4 12 5 4 6 8 7 9 8 10 9 2 10 1 11 3 12
REMARK H PARENT
REMARK Flexibility Score: inf
ROOT
ATOM      1  C   UNL     1      39.165  18.220  10.390  1.00  0.00    -0.003 A 
ATOM      2  C   UNL     1      39.147  18.133  11.792  1.00  0.00     0.010 A 
ATOM      3  C   UNL     1      37.950  18.368   9.701  1.00  0.00     0.010 A 
ATOM      4  C   UNL     1      37.937  18.192  12.490  1.00  0.00     0.004 A 
ATOM      5  C   UNL     1      36.741  18.427  10.399  1.00  0.00     0.004 A 
ATOM      6  C   UNL     1      36.721  18.341  11.804  1.00  0.00    -0.045 A 
ENDROOT
BRANCH   1   7
ATOM      7  C   UNL     1      40.447  18.155   9.654  1.00  0.00     0.071 C 
ATOM      8  O   UNL     1      41.417  18.888   9.989  1.00  0.00    -0.545 OA
ATOM      9  O   UNL     1      40.603  17.283   8.582  1.00  0.00    -0.545 OA
ENDBRANCH   1   7
BRANCH   6  10
ATOM     10  C   UNL     1      35.417  18.404  12.575  1.00  0.00     0.013 C 
ATOM     11  C   UNL     1      34.760  17.022  12.666  1.00  0.00     0.012 C 
ATOM     12  C   UNL     1      34.458  19.430  11.956  1.00  0.00     0.012 C 
ENDBRANCH   6  10
TORSDOF 2
ENDMDL
MODEL 4
REMARK VINA RESULT:    -5.015      2.814      4.077
REMARK INTER + INTRA:          -5.819
REMARK INTER:                  -5.612
REMARK INTRA:                  -0.207
REMARK UNBOUND:                -0.218
REMARK SMILES CC(C)c1ccc(C(=O)[O-])cc1
REMARK SMILES IDX 7 1 6 2 11 3 5 4 12 5 4 6 8 7 9 8 10 9 2 10 1 11 3 12
REMARK H PARENT
REMARK Flexibility Score: inf
ROOT
ATOM      1  C   UNL     1      39.156  18.221  10.372  1.00  0.00    -0.003 A 
ATOM      2  C   UNL     1      37.946  18.401   9.682  1.00  0.00     0.010 A 
ATOM      3  C   UNL     1      39.133  18.130  11.775  1.00  0.00     0.010 A 
ATOM      4  C   UNL     1      36.738  18.490  10.379  1.00  0.00     0.004 A 
ATOM      5  C   UNL     1      37.925  18.218  12.471  1.00  0.00     0.004 A 
ATOM      6  C   UNL     1      36.712  18.399  11.780  1.00  0.00    -0.045 A 
ENDROOT
BRANCH   1   7
ATOM      7  C   UNL     1      40.433  18.129   9.631  1.00  0.00     0.071 C 
ATOM      8  O   UNL     1      40.540  17.372   8.629  1.00  0.00    -0.545 OA
ATOM      9  O   UNL     1      41.535  18.878  10.028  1.00  0.00    -0.545 OA
ENDBRANCH   1   7
BRANCH   6  10
ATOM     10  C   UNL     1      35.394  18.497  12.524  1.00  0.00     0.013 C 
ATOM     11  C   UNL     1      34.711  17.128  12.622  1.00  0.00     0.012 C 
ATOM     12  C   UNL     1      34.467  19.531  11.871  1.00  0.00     0.012 C 
ENDBRANCH   6  10
TORSDOF 2
ENDMDL
MODEL 5
REMARK VINA RESULT:    -4.999      3.357      4.713
REMARK INTER + INTRA:          -5.802
REMARK INTER:                  -5.598
REMARK INTRA:                  -0.203
REMARK UNBOUND:                -0.218
REMARK SMILES CC(C)c1ccc(C(=O)[O-])cc1
REMARK SMILES IDX 7 1 6 2 11 3 5 4 12 5 4 6 8 7 9 8 10 9 2 10 1 11 3 12
REMARK H PARENT
REMARK Flexibility Score: inf
ROOT
ATOM      1  C   UNL     1      38.367  17.884  11.466  1.00  0.00    -0.003 A 
ATOM      2  C   UNL     1      37.559  16.994  10.739  1.00  0.00     0.010 A 
ATOM      3  C   UNL     1      37.836  18.507  12.609  1.00  0.00     0.010 A 
ATOM      4  C   UNL     1      36.247  16.733  11.145  1.00  0.00     0.004 A 
ATOM      5  C   UNL     1      36.525  18.246  13.014  1.00  0.00     0.004 A 
ATOM      6  C   UNL     1      35.715  17.355  12.286  1.00  0.00    -0.045 A 
ENDROOT
BRANCH   1   7
ATOM      7  C   UNL     1      39.755  18.158  11.033  1.00  0.00     0.071 C 
ATOM      8  O   UNL     1      40.696  18.180  11.870  1.00  0.00    -0.545 OA
ATOM      9  O   UNL     1      40.041  18.394   9.693  1.00  0.00    -0.545 OA
ENDBRANCH   1   7
BRANCH   6  10
ATOM     10  C   UNL     1      34.290  17.062  12.715  1.00  0.00     0.013 C 
ATOM     11  C   UNL     1      33.401  18.302  12.567  1.00  0.00     0.012 C 
ATOM     12  C   UNL     1      34.244  16.520  14.149  1.00  0.00     0.012 C 
ENDBRANCH   6  10
TORSDOF 2
ENDMDL
MODEL 6
REMARK VINA RESULT:    -4.930      2.969      4.310
REMARK INTER + INTRA:          -5.725
REMARK INTER:                  -5.517
REMARK INTRA:                  -0.208
REMARK UNBOUND:                -0.218
REMARK SMILES CC(C)c1ccc(C(=O)[O-])cc1
REMARK SMILES IDX 7 1 6 2 11 3 5 4 12 5 4 6 8 7 9 8 10 9 2 10 1 11 3 12
REMARK H PARENT
REMARK Flexibility Score: inf
ROOT
ATOM      1  C   UNL     1      38.339  18.173  10.833  1.00  0.00    -0.003 A 
ATOM      2  C   UNL     1      39.115  18.171  12.004  1.00  0.00     0.010 A 
ATOM      3  C   UNL     1      38.989  18.177   9.587  1.00  0.00     0.010 A 
ATOM      4  C   UNL     1      40.511  18.175  11.932  1.00  0.00     0.004 A 
ATOM      5  C   UNL     1      40.384  18.181   9.514  1.00  0.00     0.004 A 
ATOM      6  C   UNL     1      41.162  18.178  10.687  1.00  0.00    -0.045 A 
ENDROOT
BRANCH   1   7
ATOM      7  C   UNL     1      36.862  18.171  10.915  1.00  0.00     0.071 C 
ATOM      8  O   UNL     1      36.164  17.920   9.896  1.00  0.00    -0.545 OA
ATOM      9  O   UNL     1      36.222  18.445  12.118  1.00  0.00    -0.545 OA
ENDBRANCH   1   7
BRANCH   6  10
ATOM     10  C   UNL     1      42.677  18.182  10.623  1.00  0.00     0.013 C 
ATOM     11  C   UNL     1      43.211  19.561  10.220  1.00  0.00     0.012 C 
ATOM     12  C   UNL     1      43.192  17.092   9.675  1.00  0.00     0.012 C 
ENDBRANCH   6  10
TORSDOF 2
ENDMDL
MODEL 7
REMARK VINA RESULT:    -4.923      3.772      4.786
REMARK INTER + INTRA:          -5.717
REMARK INTER:                  -5.515
REMARK INTRA:                  -0.202
REMARK UNBOUND:                -0.218
REMARK SMILES CC(C)c1ccc(C(=O)[O-])cc1
REMARK SMILES IDX 7 1 6 2 11 3 5 4 12 5 4 6 8 7 9 8 10 9 2 10 1 11 3 12
REMARK H PARENT
REMARK Flexibility Score: inf
ROOT
ATOM      1  C   UNL     1      40.904  18.286  10.568  1.00  0.00    -0.003 A 
ATOM      2  C   UNL     1      39.957  18.229   9.532  1.00  0.00     0.010 A 
ATOM      3  C   UNL     1      40.460  18.211  11.900  1.00  0.00     0.010 A 
ATOM      4  C   UNL     1      38.596  18.101   9.820  1.00  0.00     0.004 A 
ATOM      5  C   UNL     1      39.100  18.083  12.188  1.00  0.00     0.004 A 
ATOM      6  C   UNL     1      38.150  18.025  11.151  1.00  0.00    -0.045 A 
ENDROOT
BRANCH   1   7
ATOM      7  C   UNL     1      42.344  18.423  10.259  1.00  0.00     0.071 C 
ATOM      8  O   UNL     1      42.923  19.535  10.379  1.00  0.00    -0.545 OA
ATOM      9  O   UNL     1      43.081  17.324   9.832  1.00  0.00    -0.545 OA
ENDBRANCH   1   7
BRANCH   6  10
ATOM     10  C   UNL     1      36.670  17.886  11.449  1.00  0.00     0.013 C 
ATOM     11  C   UNL     1      36.305  18.569  12.772  1.00  0.00     0.012 C 
ATOM     12  C   UNL     1      36.243  16.413  11.453  1.00  0.00     0.012 C 
ENDBRANCH   6  10
TORSDOF 2
ENDMDL
MODEL 8
REMARK VINA RESULT:    -4.921      3.017      4.297
REMARK INTER + INTRA:          -5.715
REMARK INTER:                  -5.507
REMARK INTRA:                  -0.208
REMARK UNBOUND:                -0.218
REMARK SMILES CC(C)c1ccc(C(=O)[O-])cc1
REMARK SMILES IDX 7 1 6 2 11 3 5 4 12 5 4 6 8 7 9 8 10 9 2 10 1 11 3 12
REMARK H PARENT
REMARK Flexibility Score: inf
ROOT
ATOM      1  C   UNL     1      36.718  18.168  11.582  1.00  0.00    -0.003 A 
ATOM      2  C   UNL     1      36.843  18.439  10.210  1.00  0.00     0.010 A 
ATOM      3  C   UNL     1      37.881  17.999  12.352  1.00  0.00     0.010 A 
ATOM      4  C   UNL     1      38.106  18.537   9.618  1.00  0.00     0.004 A 
ATOM      5  C   UNL     1      39.143  18.097  11.761  1.00  0.00     0.004 A 
ATOM      6  C   UNL     1      39.270  18.368  10.386  1.00  0.00    -0.045 A 
ENDROOT
BRANCH   1   7
ATOM      7  C   UNL     1      35.379  18.064  12.204  1.00  0.00     0.071 C 
ATOM      8  O   UNL     1      34.990  16.978  12.711  1.00  0.00    -0.545 OA
ATOM      9  O   UNL     1      34.531  19.165  12.241  1.00  0.00    -0.545 OA
ENDBRANCH   1   7
BRANCH   6  10
ATOM     10  C   UNL     1      40.633  18.478   9.731  1.00  0.00     0.013 C 
ATOM     11  C   UNL     1      40.824  17.393   8.664  1.00  0.00     0.012 C 
ATOM     12  C   UNL     1      41.755  18.426  10.776  1.00  0.00     0.012 C 
ENDBRANCH   6  10
TORSDOF 2
ENDMDL
MODEL 9
REMARK VINA RESULT:    -4.757      2.535      3.795
REMARK INTER + INTRA:          -5.531
REMARK INTER:                  -5.315
REMARK INTRA:                  -0.216
REMARK UNBOUND:                -0.218
REMARK SMILES CC(C)c1ccc(C(=O)[O-])cc1
REMARK SMILES IDX 7 1 6 2 11 3 5 4 12 5 4 6 8 7 9 8 10 9 2 10 1 11 3 12
REMARK H PARENT
REMARK Flexibility Score: inf
ROOT
ATOM      1  C   UNL     1      38.550  17.925   8.503  1.00  0.00    -0.003 A 
ATOM      2  C   UNL     1      37.919  19.065   7.979  1.00  0.00     0.010 A 
ATOM      3  C   UNL     1      37.980  17.281   9.614  1.00  0.00     0.010 A 
ATOM      4  C   UNL     1      36.743  19.553   8.554  1.00  0.00     0.004 A 
ATOM      5  C   UNL     1      36.804  17.769  10.190  1.00  0.00     0.004 A 
ATOM      6  C   UNL     1      36.171  18.911   9.665  1.00  0.00    -0.045 A 
ENDROOT
BRANCH   1   7
ATOM      7  C   UNL     1      39.796  17.413   7.891  1.00  0.00     0.071 C 
ATOM      8  O   UNL     1      39.880  17.252   6.644  1.00  0.00    -0.545 OA
ATOM      9  O   UNL     1      40.896  17.102   8.684  1.00  0.00    -0.545 OA
ENDBRANCH   1   7
BRANCH   6  10
ATOM     10  C   UNL     1      34.893  19.451  10.280  1.00  0.00     0.013 C 
ATOM     11  C   UNL     1      34.603  20.874   9.790  1.00  0.00     0.012 C 
ATOM     12  C   UNL     1      34.950  19.395  11.811  1.00  0.00     0.012 C 
ENDBRANCH   6  10
TORSDOF 2
ENDMDL
