MODEL 1
REMARK VINA RESULT:    -4.124      0.000      0.000
REMARK INTER + INTRA:          -5.645
REMARK INTER:                  -5.570
REMARK INTRA:                  -0.074
REMARK UNBOUND:                -0.074
REMARK SMILES CCCCCCCC=O
REMARK SMILES IDX 5 1 4 2 3 3 2 4 1 5 6 6 7 7 8 8 9 9
REMARK H PARENT
REMARK Flexibility Score: inf
ROOT
ATOM      1  C   UNL     1      25.700  56.611  -9.204  1.00  0.00     0.000 C 
ENDROOT
BRANCH   1   2
ATOM      2  C   UNL     1      25.647  58.090  -9.619  1.00  0.00     0.000 C 
BRANCH   2   3
ATOM      3  C   UNL     1      26.864  58.511 -10.462  1.00  0.00    -0.000 C 
BRANCH   3   4
ATOM      4  C   UNL     1      27.168  60.012 -10.347  1.00  0.00    -0.003 C 
ATOM      5  C   UNL     1      28.575  60.368 -10.830  1.00  0.00     0.004 C 
ENDBRANCH   3   4
ENDBRANCH   2   3
ENDBRANCH   1   2
BRANCH   1   6
ATOM      6  C   UNL     1      24.305  55.978  -9.096  1.00  0.00     0.008 C 
BRANCH   6   7
ATOM      7  C   UNL     1      23.972  55.630  -7.641  1.00  0.00     0.072 C 
BRANCH   7   8
ATOM      8  C   UNL     1      22.749  54.767  -7.561  1.00  0.00     0.224 C 
ATOM      9  O   UNL     1      22.355  54.350  -6.484  1.00  0.00    -0.303 OA
ENDBRANCH   7   8
ENDBRANCH   6   7
ENDBRANCH   1   6
TORSDOF 6
ENDMDL
MODEL 2
REMARK VINA RESULT:    -4.074      3.309      6.030
REMARK INTER + INTRA:          -5.577
REMARK INTER:                  -5.372
REMARK INTRA:                  -0.205
REMARK UNBOUND:                -0.074
REMARK SMILES CCCCCCCC=O
REMARK SMILES IDX 5 1 4 2 3 3 2 4 1 5 6 6 7 7 8 8 9 9
REMARK H PARENT
REMARK Flexibility Score: inf
ROOT
ATOM      1  C   UNL     1      24.987  57.949  -9.122  1.00  0.00     0.000 C 
ENDROOT
BRANCH   1   2
ATOM      2  C   UNL     1      25.574  56.540  -9.302  1.00  0.00     0.000 C 
BRANCH   2   3
ATOM      3  C   UNL     1      25.079  55.552  -8.231  1.00  0.00    -0.000 C 
BRANCH   3   4
ATOM      4  C   UNL     1      23.612  55.145  -8.438  1.00  0.00    -0.003 C 
ATOM      5  C   UNL     1      22.912  54.774  -7.130  1.00  0.00     0.004 C 
ENDBRANCH   3   4
ENDBRANCH   2   3
ENDBRANCH   1   2
BRANCH   1   6
ATOM      6  C   UNL     1      25.877  59.042  -9.731  1.00  0.00     0.008 C 
BRANCH   6   7
ATOM      7  C   UNL     1      26.995  58.428 -10.581  1.00  0.00     0.072 C 
BRANCH   7   8
ATOM      8  C   UNL     1      28.249  59.243 -10.488  1.00  0.00     0.224 C 
ATOM      9  O   UNL     1      29.152  59.084 -11.294  1.00  0.00    -0.303 OA
ENDBRANCH   7   8
ENDBRANCH   6   7
ENDBRANCH   1   6
TORSDOF 6
ENDMDL
MODEL 3
REMARK VINA RESULT:    -3.717     17.492     18.824
REMARK INTER + INTRA:          -5.096
REMARK INTER:                  -4.672
REMARK INTRA:                  -0.423
REMARK UNBOUND:                -0.074
REMARK SMILES CCCCCCCC=O
REMARK SMILES IDX 5 1 4 2 3 3 2 4 1 5 6 6 7 7 8 8 9 9
REMARK H PARENT
REMARK Flexibility Score: inf
ROOT
ATOM      1  C   UNL     1      17.853  42.398   1.261  1.00  0.00     0.000 C 
ENDROOT
BRANCH   1   2
ATOM      2  C   UNL     1      16.363  42.758   1.149  1.00  0.00     0.000 C 
BRANCH   2   3
ATOM      3  C   UNL     1      16.066  44.196   1.609  1.00  0.00    -0.000 C 
BRANCH   3   4
ATOM      4  C   UNL     1      15.364  45.027   0.524  1.00  0.00    -0.003 C 
ATOM      5  C   UNL     1      16.249  45.272  -0.698  1.00  0.00     0.004 C 
ENDBRANCH   3   4
ENDBRANCH   2   3
ENDBRANCH   1   2
BRANCH   1   6
ATOM      6  C   UNL     1      18.688  43.526   1.885  1.00  0.00     0.008 C 
BRANCH   6   7
ATOM      7  C   UNL     1      19.873  43.891   0.985  1.00  0.00     0.072 C 
BRANCH   7   8
ATOM      8  C   UNL     1      20.902  42.801   0.983  1.00  0.00     0.224 C 
ATOM      9  O   UNL     1      21.141  42.177  -0.038  1.00  0.00    -0.303 OA
ENDBRANCH   7   8
ENDBRANCH   6   7
ENDBRANCH   1   6
TORSDOF 6
ENDMDL
MODEL 4
REMARK VINA RESULT:    -3.614     16.635     18.405
REMARK INTER + INTRA:          -4.956
REMARK INTER:                  -4.474
REMARK INTRA:                  -0.482
REMARK UNBOUND:                -0.074
REMARK SMILES CCCCCCCC=O
REMARK SMILES IDX 5 1 4 2 3 3 2 4 1 5 6 6 7 7 8 8 9 9
REMARK H PARENT
REMARK Flexibility Score: inf
ROOT
ATOM      1  C   UNL     1      16.141  42.976   1.084  1.00  0.00     0.000 C 
ENDROOT
BRANCH   1   2
ATOM      2  C   UNL     1      17.618  42.557   1.149  1.00  0.00     0.000 C 
BRANCH   2   3
ATOM      3  C   UNL     1      18.489  43.574   1.908  1.00  0.00    -0.000 C 
BRANCH   3   4
ATOM      4  C   UNL     1      19.765  43.947   1.138  1.00  0.00    -0.003 C 
ATOM      5  C   UNL     1      19.472  44.705  -0.158  1.00  0.00     0.004 C 
ENDBRANCH   3   4
ENDBRANCH   2   3
ENDBRANCH   1   2
BRANCH   1   6
ATOM      6  C   UNL     1      15.895  44.366   1.690  1.00  0.00     0.008 C 
BRANCH   6   7
ATOM      7  C   UNL     1      15.082  45.245   0.733  1.00  0.00     0.072 C 
BRANCH   7   8
ATOM      8  C   UNL     1      15.513  45.033  -0.687  1.00  0.00     0.224 C 
ATOM      9  O   UNL     1      16.313  45.791  -1.211  1.00  0.00    -0.303 OA
ENDBRANCH   7   8
ENDBRANCH   6   7
ENDBRANCH   1   6
TORSDOF 6
ENDMDL
MODEL 5
REMARK VINA RESULT:    -3.535      5.851      7.762
REMARK INTER + INTRA:          -4.850
REMARK INTER:                  -4.424
REMARK INTRA:                  -0.426
REMARK UNBOUND:                -0.074
REMARK SMILES CCCCCCCC=O
REMARK SMILES IDX 5 1 4 2 3 3 2 4 1 5 6 6 7 7 8 8 9 9
REMARK H PARENT
REMARK Flexibility Score: inf
ROOT
ATOM      1  C   UNL     1      30.295  57.319 -13.406  1.00  0.00     0.000 C 
ENDROOT
BRANCH   1   2
ATOM      2  C   UNL     1      31.492  56.749 -14.183  1.00  0.00     0.000 C 
BRANCH   2   3
ATOM      3  C   UNL     1      32.580  57.805 -14.450  1.00  0.00    -0.000 C 
BRANCH   3   4
ATOM      4  C   UNL     1      33.962  57.367 -13.943  1.00  0.00    -0.003 C 
ATOM      5  C   UNL     1      33.895  56.645 -12.596  1.00  0.00     0.004 C 
ENDBRANCH   3   4
ENDBRANCH   2   3
ENDBRANCH   1   2
BRANCH   1   6
ATOM      6  C   UNL     1      30.473  58.803 -13.052  1.00  0.00     0.008 C 
BRANCH   6   7
ATOM      7  C   UNL     1      30.576  58.996 -11.536  1.00  0.00     0.072 C 
BRANCH   7   8
ATOM      8  C   UNL     1      29.321  59.602 -10.984  1.00  0.00     0.224 C 
ATOM      9  O   UNL     1      28.305  58.932 -10.877  1.00  0.00    -0.303 OA
ENDBRANCH   7   8
ENDBRANCH   6   7
ENDBRANCH   1   6
TORSDOF 6
ENDMDL
MODEL 6
REMARK VINA RESULT:    -3.515      4.741      6.841
REMARK INTER + INTRA:          -4.822
REMARK INTER:                  -4.527
REMARK INTRA:                  -0.295
REMARK UNBOUND:                -0.074
REMARK SMILES CCCCCCCC=O
REMARK SMILES IDX 5 1 4 2 3 3 2 4 1 5 6 6 7 7 8 8 9 9
REMARK H PARENT
REMARK Flexibility Score: inf
ROOT
ATOM      1  C   UNL     1      30.652  58.943 -12.548  1.00  0.00     0.000 C 
ENDROOT
BRANCH   1   2
ATOM      2  C   UNL     1      30.030  57.677 -13.159  1.00  0.00     0.000 C 
BRANCH   2   3
ATOM      3  C   UNL     1      31.082  56.747 -13.790  1.00  0.00    -0.000 C 
BRANCH   3   4
ATOM      4  C   UNL     1      32.299  57.515 -14.326  1.00  0.00    -0.003 C 
ATOM      5  C   UNL     1      33.623  56.980 -13.777  1.00  0.00     0.004 C 
ENDBRANCH   3   4
ENDBRANCH   2   3
ENDBRANCH   1   2
BRANCH   1   6
ATOM      6  C   UNL     1      30.150  59.219 -11.123  1.00  0.00     0.008 C 
BRANCH   6   7
ATOM      7  C   UNL     1      28.905  60.113 -11.145  1.00  0.00     0.072 C 
BRANCH   7   8
ATOM      8  C   UNL     1      27.738  59.424 -10.503  1.00  0.00     0.224 C 
ATOM      9  O   UNL     1      27.200  58.476 -11.052  1.00  0.00    -0.303 OA
ENDBRANCH   7   8
ENDBRANCH   6   7
ENDBRANCH   1   6
TORSDOF 6
ENDMDL
MODEL 7
REMARK VINA RESULT:    -3.409     15.103     16.957
REMARK INTER + INTRA:          -4.678
REMARK INTER:                  -4.487
REMARK INTRA:                  -0.191
REMARK UNBOUND:                -0.074
REMARK SMILES CCCCCCCC=O
REMARK SMILES IDX 5 1 4 2 3 3 2 4 1 5 6 6 7 7 8 8 9 9
REMARK H PARENT
REMARK Flexibility Score: inf
ROOT
ATOM      1  C   UNL     1      32.519  45.704   0.761  1.00  0.00     0.000 C 
ENDROOT
BRANCH   1   2
ATOM      2  C   UNL     1      31.363  44.708   0.581  1.00  0.00     0.000 C 
BRANCH   2   3
ATOM      3  C   UNL     1      29.982  45.368   0.747  1.00  0.00    -0.000 C 
BRANCH   3   4
ATOM      4  C   UNL     1      28.986  44.929  -0.337  1.00  0.00    -0.003 C 
ATOM      5  C   UNL     1      28.037  46.052  -0.756  1.00  0.00     0.004 C 
ENDBRANCH   3   4
ENDBRANCH   2   3
ENDBRANCH   1   2
BRANCH   1   6
ATOM      6  C   UNL     1      32.948  45.853   2.228  1.00  0.00     0.008 C 
BRANCH   6   7
ATOM      7  C   UNL     1      33.415  47.283   2.520  1.00  0.00     0.072 C 
BRANCH   7   8
ATOM      8  C   UNL     1      32.582  47.911   3.596  1.00  0.00     0.224 C 
ATOM      9  O   UNL     1      31.367  47.788   3.591  1.00  0.00    -0.303 OA
ENDBRANCH   7   8
ENDBRANCH   6   7
ENDBRANCH   1   6
TORSDOF 6
ENDMDL
MODEL 8
REMARK VINA RESULT:    -3.398     15.536     16.842
REMARK INTER + INTRA:          -4.664
REMARK INTER:                  -4.321
REMARK INTRA:                  -0.343
REMARK UNBOUND:                -0.074
REMARK SMILES CCCCCCCC=O
REMARK SMILES IDX 5 1 4 2 3 3 2 4 1 5 6 6 7 7 8 8 9 9
REMARK H PARENT
REMARK Flexibility Score: inf
ROOT
ATOM      1  C   UNL     1      32.199  44.420   1.351  1.00  0.00     0.000 C 
ENDROOT
BRANCH   1   2
ATOM      2  C   UNL     1      33.513  45.215   1.399  1.00  0.00     0.000 C 
BRANCH   2   3
ATOM      3  C   UNL     1      33.309  46.666   1.873  1.00  0.00    -0.000 C 
BRANCH   3   4
ATOM      4  C   UNL     1      32.957  46.753   3.365  1.00  0.00    -0.003 C 
ATOM      5  C   UNL     1      31.929  47.845   3.666  1.00  0.00     0.004 C 
ENDBRANCH   3   4
ENDBRANCH   2   3
ENDBRANCH   1   2
BRANCH   1   6
ATOM      6  C   UNL     1      31.304  44.829   0.173  1.00  0.00     0.008 C 
BRANCH   6   7
ATOM      7  C   UNL     1      29.940  45.324   0.667  1.00  0.00     0.072 C 
BRANCH   7   8
ATOM      8  C   UNL     1      28.872  45.063  -0.352  1.00  0.00     0.224 C 
ATOM      9  O   UNL     1      28.022  45.906  -0.588  1.00  0.00    -0.303 OA
ENDBRANCH   7   8
ENDBRANCH   6   7
ENDBRANCH   1   6
TORSDOF 6
ENDMDL
