MODEL 1
REMARK VINA RESULT:    -3.954      0.000      0.000
REMARK INTER + INTRA:          -6.293
REMARK INTER:                  -5.803
REMARK INTRA:                  -0.491
REMARK UNBOUND:                -0.491
REMARK SMILES O=C([O-])CCCCCCCC(=O)[O-]
REMARK SMILES IDX 7 1 6 2 5 3 4 4 2 5 1 6 3 7 8 8 9 9 10 10 11 11 12 12 13 13
REMARK H PARENT
REMARK Flexibility Score: inf
ROOT
ATOM      1  C   UNL     1      28.622  34.212   3.986  1.00  0.00     0.000 C 
ENDROOT
BRANCH   1   2
ATOM      2  C   UNL     1      27.187  33.774   3.670  1.00  0.00     0.000 C 
BRANCH   2   3
ATOM      3  C   UNL     1      27.139  32.934   2.385  1.00  0.00     0.006 C 
BRANCH   3   4
ATOM      4  C   UNL     1      26.603  33.733   1.189  1.00  0.00     0.053 C 
BRANCH   4   5
ATOM      5  C   UNL     1      25.111  33.641   1.086  1.00  0.00     0.041 C 
ATOM      6  O   UNL     1      24.558  32.535   0.848  1.00  0.00    -0.550 OA
ATOM      7  O   UNL     1      24.330  34.773   1.285  1.00  0.00    -0.550 OA
ENDBRANCH   4   5
ENDBRANCH   3   4
ENDBRANCH   2   3
ENDBRANCH   1   2
BRANCH   1   8
ATOM      8  C   UNL     1      29.573  33.010   4.004  1.00  0.00     0.000 C 
BRANCH   8   9
ATOM      9  C   UNL     1      30.892  33.340   3.288  1.00  0.00     0.006 C 
BRANCH   9  10
ATOM     10  C   UNL     1      30.857  32.959   1.802  1.00  0.00     0.053 C 
BRANCH  10  11
ATOM     11  C   UNL     1      32.235  32.845   1.225  1.00  0.00     0.041 C 
ATOM     12  O   UNL     1      32.443  33.135   0.018  1.00  0.00    -0.550 OA
ATOM     13  O   UNL     1      33.283  32.385   2.012  1.00  0.00    -0.550 OA
ENDBRANCH  10  11
ENDBRANCH   9  10
ENDBRANCH   8   9
ENDBRANCH   1   8
TORSDOF 8
ENDMDL
MODEL 2
REMARK VINA RESULT:    -3.891      0.167      6.061
REMARK INTER + INTRA:          -6.202
REMARK INTER:                  -5.717
REMARK INTRA:                  -0.484
REMARK UNBOUND:                -0.491
REMARK SMILES O=C([O-])CCCCCCCC(=O)[O-]
REMARK SMILES IDX 7 1 6 2 5 3 4 4 2 5 1 6 3 7 8 8 9 9 10 10 11 11 12 12 13 13
REMARK H PARENT
REMARK Flexibility Score: inf
ROOT
ATOM      1  C   UNL     1      28.555  34.240   3.908  1.00  0.00     0.000 C 
ENDROOT
BRANCH   1   2
ATOM      2  C   UNL     1      29.635  33.156   4.006  1.00  0.00     0.000 C 
BRANCH   2   3
ATOM      3  C   UNL     1      30.859  33.522   3.153  1.00  0.00     0.006 C 
BRANCH   3   4
ATOM      4  C   UNL     1      30.827  32.851   1.773  1.00  0.00     0.053 C 
BRANCH   4   5
ATOM      5  C   UNL     1      32.184  32.823   1.140  1.00  0.00     0.041 C 
ATOM      6  O   UNL     1      33.169  32.354   1.771  1.00  0.00    -0.550 OA
ATOM      7  O   UNL     1      32.356  33.285  -0.159  1.00  0.00    -0.550 OA
ENDBRANCH   4   5
ENDBRANCH   3   4
ENDBRANCH   2   3
ENDBRANCH   1   2
BRANCH   1   8
ATOM      8  C   UNL     1      27.166  33.618   3.715  1.00  0.00     0.000 C 
BRANCH   8   9
ATOM      9  C   UNL     1      27.061  32.917   2.353  1.00  0.00     0.006 C 
BRANCH   9  10
ATOM     10  C   UNL     1      26.563  33.862   1.250  1.00  0.00     0.053 C 
BRANCH  10  11
ATOM     11  C   UNL     1      25.075  33.799   1.095  1.00  0.00     0.041 C 
ATOM     12  O   UNL     1      24.370  34.816   1.326  1.00  0.00    -0.550 OA
ATOM     13  O   UNL     1      24.462  32.607   0.728  1.00  0.00    -0.550 OA
ENDBRANCH  10  11
ENDBRANCH   9  10
ENDBRANCH   8   9
ENDBRANCH   1   8
TORSDOF 8
ENDMDL
MODEL 3
REMARK VINA RESULT:    -3.891      1.038      6.489
REMARK INTER + INTRA:          -6.201
REMARK INTER:                  -5.859
REMARK INTRA:                  -0.342
REMARK UNBOUND:                -0.491
REMARK SMILES O=C([O-])CCCCCCCC(=O)[O-]
REMARK SMILES IDX 7 1 6 2 5 3 4 4 2 5 1 6 3 7 8 8 9 9 10 10 11 11 12 12 13 13
REMARK H PARENT
REMARK Flexibility Score: inf
ROOT
ATOM      1  C   UNL     1      28.480  34.210   4.000  1.00  0.00     0.000 C 
ENDROOT
BRANCH   1   2
ATOM      2  C   UNL     1      29.690  33.270   3.939  1.00  0.00     0.000 C 
BRANCH   2   3
ATOM      3  C   UNL     1      30.272  33.214   2.519  1.00  0.00     0.006 C 
BRANCH   3   4
ATOM      4  C   UNL     1      31.551  34.051   2.382  1.00  0.00     0.053 C 
BRANCH   4   5
ATOM      5  C   UNL     1      32.773  33.253   2.720  1.00  0.00     0.041 C 
ATOM      6  O   UNL     1      33.024  32.184   2.103  1.00  0.00    -0.550 OA
ATOM      7  O   UNL     1      33.652  33.707   3.696  1.00  0.00    -0.550 OA
ENDBRANCH   4   5
ENDBRANCH   3   4
ENDBRANCH   2   3
ENDBRANCH   1   2
BRANCH   1   8
ATOM      8  C   UNL     1      27.195  33.482   3.585  1.00  0.00     0.000 C 
BRANCH   8   9
ATOM      9  C   UNL     1      26.492  34.218   2.435  1.00  0.00     0.006 C 
BRANCH   9  10
ATOM     10  C   UNL     1      26.003  33.256   1.343  1.00  0.00     0.053 C 
BRANCH  10  11
ATOM     11  C   UNL     1      24.568  33.499   0.990  1.00  0.00     0.041 C 
ATOM     12  O   UNL     1      24.079  34.655   1.084  1.00  0.00    -0.550 OA
ATOM     13  O   UNL     1      23.761  32.441   0.590  1.00  0.00    -0.550 OA
ENDBRANCH  10  11
ENDBRANCH   9  10
ENDBRANCH   8   9
ENDBRANCH   1   8
TORSDOF 8
ENDMDL
MODEL 4
REMARK VINA RESULT:    -3.885      0.892      1.624
REMARK INTER + INTRA:          -6.193
REMARK INTER:                  -5.695
REMARK INTRA:                  -0.498
REMARK UNBOUND:                -0.491
REMARK SMILES O=C([O-])CCCCCCCC(=O)[O-]
REMARK SMILES IDX 7 1 6 2 5 3 4 4 2 5 1 6 3 7 8 8 9 9 10 10 11 11 12 12 13 13
REMARK H PARENT
REMARK Flexibility Score: inf
ROOT
ATOM      1  C   UNL     1      27.252  33.709   3.666  1.00  0.00     0.000 C 
ENDROOT
BRANCH   1   2
ATOM      2  C   UNL     1      27.287  32.848   2.398  1.00  0.00     0.000 C 
BRANCH   2   3
ATOM      3  C   UNL     1      26.682  33.603   1.205  1.00  0.00     0.006 C 
BRANCH   3   4
ATOM      4  C   UNL     1      25.349  34.276   1.559  1.00  0.00     0.053 C 
BRANCH   4   5
ATOM      5  C   UNL     1      24.217  33.724   0.747  1.00  0.00     0.041 C 
ATOM      6  O   UNL     1      24.033  32.480   0.677  1.00  0.00    -0.550 OA
ATOM      7  O   UNL     1      23.346  34.587   0.092  1.00  0.00    -0.550 OA
ENDBRANCH   4   5
ENDBRANCH   3   4
ENDBRANCH   2   3
ENDBRANCH   1   2
BRANCH   1   8
ATOM      8  C   UNL     1      28.670  34.000   4.173  1.00  0.00     0.000 C 
BRANCH   8   9
ATOM      9  C   UNL     1      29.613  32.824   3.879  1.00  0.00     0.006 C 
BRANCH   9  10
ATOM     10  C   UNL     1      31.040  33.290   3.557  1.00  0.00     0.053 C 
BRANCH  10  11
ATOM     11  C   UNL     1      31.430  32.951   2.151  1.00  0.00     0.041 C 
ATOM     12  O   UNL     1      32.548  32.423   1.913  1.00  0.00    -0.550 OA
ATOM     13  O   UNL     1      30.573  33.251   1.098  1.00  0.00    -0.550 OA
ENDBRANCH  10  11
ENDBRANCH   9  10
ENDBRANCH   8   9
ENDBRANCH   1   8
TORSDOF 8
ENDMDL
MODEL 5
REMARK VINA RESULT:    -3.858      1.612      2.826
REMARK INTER + INTRA:          -6.153
REMARK INTER:                  -5.707
REMARK INTRA:                  -0.446
REMARK UNBOUND:                -0.491
REMARK SMILES O=C([O-])CCCCCCCC(=O)[O-]
REMARK SMILES IDX 7 1 6 2 5 3 4 4 2 5 1 6 3 7 8 8 9 9 10 10 11 11 12 12 13 13
REMARK H PARENT
REMARK Flexibility Score: inf
ROOT
ATOM      1  C   UNL     1      26.895  32.975   2.174  1.00  0.00     0.000 C 
ENDROOT
BRANCH   1   2
ATOM      2  C   UNL     1      26.855  34.062   1.093  1.00  0.00     0.000 C 
BRANCH   2   3
ATOM      3  C   UNL     1      25.567  33.962   0.261  1.00  0.00     0.006 C 
BRANCH   3   4
ATOM      4  C   UNL     1      24.593  32.916   0.822  1.00  0.00     0.053 C 
BRANCH   4   5
ATOM      5  C   UNL     1      23.353  32.812  -0.012  1.00  0.00     0.041 C 
ATOM      6  O   UNL     1      22.897  33.827  -0.602  1.00  0.00    -0.550 OA
ATOM      7  O   UNL     1      22.719  31.584  -0.163  1.00  0.00    -0.550 OA
ENDBRANCH   4   5
ENDBRANCH   3   4
ENDBRANCH   2   3
ENDBRANCH   1   2
BRANCH   1   8
ATOM      8  C   UNL     1      26.997  33.594   3.573  1.00  0.00     0.000 C 
BRANCH   8   9
ATOM      9  C   UNL     1      28.380  34.223   3.799  1.00  0.00     0.006 C 
BRANCH   9  10
ATOM     10  C   UNL     1      29.475  33.164   3.990  1.00  0.00     0.053 C 
BRANCH  10  11
ATOM     11  C   UNL     1      30.615  33.366   3.039  1.00  0.00     0.041 C 
ATOM     12  O   UNL     1      31.802  33.228   3.435  1.00  0.00    -0.550 OA
ATOM     13  O   UNL     1      30.368  33.740   1.724  1.00  0.00    -0.550 OA
ENDBRANCH  10  11
ENDBRANCH   9  10
ENDBRANCH   8   9
ENDBRANCH   1   8
TORSDOF 8
ENDMDL
MODEL 6
REMARK VINA RESULT:    -3.846      1.125      1.797
REMARK INTER + INTRA:          -6.135
REMARK INTER:                  -5.426
REMARK INTRA:                  -0.709
REMARK UNBOUND:                -0.491
REMARK SMILES O=C([O-])CCCCCCCC(=O)[O-]
REMARK SMILES IDX 7 1 6 2 5 3 4 4 2 5 1 6 3 7 8 8 9 9 10 10 11 11 12 12 13 13
REMARK H PARENT
REMARK Flexibility Score: inf
ROOT
ATOM      1  C   UNL     1      28.575  34.132   4.051  1.00  0.00     0.000 C 
ENDROOT
BRANCH   1   2
ATOM      2  C   UNL     1      27.149  33.665   3.740  1.00  0.00     0.000 C 
BRANCH   2   3
ATOM      3  C   UNL     1      27.094  32.924   2.396  1.00  0.00     0.006 C 
BRANCH   3   4
ATOM      4  C   UNL     1      26.582  33.821   1.260  1.00  0.00     0.053 C 
BRANCH   4   5
ATOM      5  C   UNL     1      25.090  33.767   1.141  1.00  0.00     0.041 C 
ATOM      6  O   UNL     1      24.403  34.814   1.279  1.00  0.00    -0.550 OA
ATOM      7  O   UNL     1      24.458  32.564   0.849  1.00  0.00    -0.550 OA
ENDBRANCH   4   5
ENDBRANCH   3   4
ENDBRANCH   2   3
ENDBRANCH   1   2
BRANCH   1   8
ATOM      8  C   UNL     1      29.574  32.976   3.919  1.00  0.00     0.000 C 
BRANCH   8   9
ATOM      9  C   UNL     1      30.872  33.444   3.245  1.00  0.00     0.006 C 
BRANCH   9  10
ATOM     10  C   UNL     1      30.616  34.498   2.159  1.00  0.00     0.053 C 
BRANCH  10  11
ATOM     11  C   UNL     1      30.462  33.876   0.805  1.00  0.00     0.041 C 
ATOM     12  O   UNL     1      31.004  32.768   0.552  1.00  0.00    -0.550 OA
ATOM     13  O   UNL     1      29.749  34.536  -0.188  1.00  0.00    -0.550 OA
ENDBRANCH  10  11
ENDBRANCH   9  10
ENDBRANCH   8   9
ENDBRANCH   1   8
TORSDOF 8
ENDMDL
MODEL 7
REMARK VINA RESULT:    -3.711      2.020      2.557
REMARK INTER + INTRA:          -5.937
REMARK INTER:                  -5.131
REMARK INTRA:                  -0.806
REMARK UNBOUND:                -0.491
REMARK SMILES O=C([O-])CCCCCCCC(=O)[O-]
REMARK SMILES IDX 7 1 6 2 5 3 4 4 2 5 1 6 3 7 8 8 9 9 10 10 11 11 12 12 13 13
REMARK H PARENT
REMARK Flexibility Score: inf
ROOT
ATOM      1  C   UNL     1      27.206  33.650   3.746  1.00  0.00     0.000 C 
ENDROOT
BRANCH   1   2
ATOM      2  C   UNL     1      27.263  32.894   2.413  1.00  0.00     0.000 C 
BRANCH   2   3
ATOM      3  C   UNL     1      26.458  33.629   1.330  1.00  0.00     0.006 C 
BRANCH   3   4
ATOM      4  C   UNL     1      26.796  35.125   1.271  1.00  0.00     0.053 C 
BRANCH   4   5
ATOM      5  C   UNL     1      28.141  35.365   0.657  1.00  0.00     0.041 C 
ATOM      6  O   UNL     1      29.010  36.037   1.274  1.00  0.00    -0.550 OA
ATOM      7  O   UNL     1      28.446  34.819  -0.584  1.00  0.00    -0.550 OA
ENDBRANCH   4   5
ENDBRANCH   3   4
ENDBRANCH   2   3
ENDBRANCH   1   2
BRANCH   1   8
ATOM      8  C   UNL     1      28.615  33.999   4.241  1.00  0.00     0.000 C 
BRANCH   8   9
ATOM      9  C   UNL     1      29.650  32.993   3.715  1.00  0.00     0.006 C 
BRANCH   9  10
ATOM     10  C   UNL     1      30.874  33.686   3.102  1.00  0.00     0.053 C 
BRANCH  10  11
ATOM     11  C   UNL     1      31.450  32.896   1.967  1.00  0.00     0.041 C 
ATOM     12  O   UNL     1      30.797  32.751   0.900  1.00  0.00    -0.550 OA
ATOM     13  O   UNL     1      32.694  32.291   2.101  1.00  0.00    -0.550 OA
ENDBRANCH  10  11
ENDBRANCH   9  10
ENDBRANCH   8   9
ENDBRANCH   1   8
TORSDOF 8
ENDMDL
MODEL 8
REMARK VINA RESULT:    -3.585      1.611      5.983
REMARK INTER + INTRA:          -5.753
REMARK INTER:                  -5.343
REMARK INTRA:                  -0.410
REMARK UNBOUND:                -0.491
REMARK SMILES O=C([O-])CCCCCCCC(=O)[O-]
REMARK SMILES IDX 7 1 6 2 5 3 4 4 2 5 1 6 3 7 8 8 9 9 10 10 11 11 12 12 13 13
REMARK H PARENT
REMARK Flexibility Score: inf
ROOT
ATOM      1  C   UNL     1      29.582  33.260   4.050  1.00  0.00     0.000 C 
ENDROOT
BRANCH   1   2
ATOM      2  C   UNL     1      30.434  33.308   2.777  1.00  0.00     0.000 C 
BRANCH   2   3
ATOM      3  C   UNL     1      31.932  33.325   3.119  1.00  0.00     0.006 C 
BRANCH   3   4
ATOM      4  C   UNL     1      32.762  32.492   2.133  1.00  0.00     0.053 C 
BRANCH   4   5
ATOM      5  C   UNL     1      33.062  33.256   0.880  1.00  0.00     0.041 C 
ATOM      6  O   UNL     1      33.691  34.346   0.936  1.00  0.00    -0.550 OA
ATOM      7  O   UNL     1      32.674  32.747  -0.354  1.00  0.00    -0.550 OA
ENDBRANCH   4   5
ENDBRANCH   3   4
ENDBRANCH   2   3
ENDBRANCH   1   2
BRANCH   1   8
ATOM      8  C   UNL     1      28.166  33.785   3.785  1.00  0.00     0.000 C 
BRANCH   8   9
ATOM      9  C   UNL     1      27.433  32.903   2.763  1.00  0.00     0.006 C 
BRANCH   9  10
ATOM     10  C   UNL     1      26.274  33.644   2.082  1.00  0.00     0.053 C 
BRANCH  10  11
ATOM     11  C   UNL     1      26.731  34.910   1.427  1.00  0.00     0.041 C 
ATOM     12  O   UNL     1      27.530  34.869   0.455  1.00  0.00    -0.550 OA
ATOM     13  O   UNL     1      26.302  36.140   1.912  1.00  0.00    -0.550 OA
ENDBRANCH  10  11
ENDBRANCH   9  10
ENDBRANCH   8   9
ENDBRANCH   1   8
TORSDOF 8
ENDMDL
MODEL 9
REMARK VINA RESULT:    -3.584     17.632     19.506
REMARK INTER + INTRA:          -5.750
REMARK INTER:                  -5.378
REMARK INTRA:                  -0.373
REMARK UNBOUND:                -0.491
REMARK SMILES O=C([O-])CCCCCCCC(=O)[O-]
REMARK SMILES IDX 7 1 6 2 5 3 4 4 2 5 1 6 3 7 8 8 9 9 10 10 11 11 12 12 13 13
REMARK H PARENT
REMARK Flexibility Score: inf
ROOT
ATOM      1  C   UNL     1      35.536  22.360  14.169  1.00  0.00     0.000 C 
ENDROOT
BRANCH   1   2
ATOM      2  C   UNL     1      35.829  22.645  15.647  1.00  0.00     0.000 C 
BRANCH   2   3
ATOM      3  C   UNL     1      35.481  24.097  16.006  1.00  0.00     0.006 C 
BRANCH   3   4
ATOM      4  C   UNL     1      34.313  24.186  16.997  1.00  0.00     0.053 C 
BRANCH   4   5
ATOM      5  C   UNL     1      33.629  25.517  16.928  1.00  0.00     0.041 C 
ATOM      6  O   UNL     1      33.755  26.346  17.868  1.00  0.00    -0.550 OA
ATOM      7  O   UNL     1      32.875  25.854  15.810  1.00  0.00    -0.550 OA
ENDBRANCH   4   5
ENDBRANCH   3   4
ENDBRANCH   2   3
ENDBRANCH   1   2
BRANCH   1   8
ATOM      8  C   UNL     1      35.714  20.871  13.849  1.00  0.00     0.000 C 
BRANCH   8   9
ATOM      9  C   UNL     1      36.125  20.083  15.103  1.00  0.00     0.006 C 
BRANCH   9  10
ATOM     10  C   UNL     1      35.048  19.080  15.538  1.00  0.00     0.053 C 
BRANCH  10  11
ATOM     11  C   UNL     1      34.885  19.050  17.026  1.00  0.00     0.041 C 
ATOM     12  O   UNL     1      33.840  18.574  17.540  1.00  0.00    -0.550 OA
ATOM     13  O   UNL     1      35.875  19.580  17.846  1.00  0.00    -0.550 OA
ENDBRANCH  10  11
ENDBRANCH   9  10
ENDBRANCH   8   9
ENDBRANCH   1   8
TORSDOF 8
ENDMDL
