MODEL 1
REMARK VINA RESULT:    -4.103      0.000      0.000
REMARK INTER + INTRA:          -4.798
REMARK INTER:                  -4.582
REMARK INTRA:                  -0.215
REMARK UNBOUND:                -0.215
REMARK SMILES O=C([O-])c1ccccc1C(=O)[O-]
REMARK SMILES IDX 4 1 9 2 5 3 8 4 6 5 7 6 2 7 1 8 3 9 10 10 11 11 12 12
REMARK H PARENT
REMARK Flexibility Score: inf
ROOT
ATOM      1  C   UNL     1      17.905  43.370   0.154  1.00  0.00     0.006 A 
ATOM      2  C   UNL     1      16.513  43.073   0.143  1.00  0.00     0.006 A 
ATOM      3  C   UNL     1      18.339  44.632  -0.294  1.00  0.00     0.010 A 
ATOM      4  C   UNL     1      15.604  44.071  -0.252  1.00  0.00     0.010 A 
ATOM      5  C   UNL     1      17.419  45.599  -0.702  1.00  0.00     0.001 A 
ATOM      6  C   UNL     1      16.055  45.324  -0.670  1.00  0.00     0.001 A 
ENDROOT
BRANCH   1   7
ATOM      7  C   UNL     1      18.927  42.435   0.680  1.00  0.00     0.072 C 
ATOM      8  O   UNL     1      19.648  41.762  -0.103  1.00  0.00    -0.545 OA
ATOM      9  O   UNL     1      19.055  42.241   2.050  1.00  0.00    -0.545 OA
ENDBRANCH   1   7
BRANCH   2  10
ATOM     10  C   UNL     1      15.972  41.732   0.463  1.00  0.00     0.072 C 
ATOM     11  O   UNL     1      15.774  40.881  -0.444  1.00  0.00    -0.545 OA
ATOM     12  O   UNL     1      15.612  41.420   1.770  1.00  0.00    -0.545 OA
ENDBRANCH   2  10
TORSDOF 2
ENDMDL
MODEL 2
REMARK VINA RESULT:    -4.095      0.065      2.874
REMARK INTER + INTRA:          -4.789
REMARK INTER:                  -4.568
REMARK INTRA:                  -0.221
REMARK UNBOUND:                -0.215
REMARK SMILES O=C([O-])c1ccccc1C(=O)[O-]
REMARK SMILES IDX 4 1 9 2 5 3 8 4 6 5 7 6 2 7 1 8 3 9 10 10 11 11 12 12
REMARK H PARENT
REMARK Flexibility Score: inf
ROOT
ATOM      1  C   UNL     1      16.495  43.111   0.121  1.00  0.00     0.006 A 
ATOM      2  C   UNL     1      17.887  43.409   0.118  1.00  0.00     0.006 A 
ATOM      3  C   UNL     1      15.581  44.108  -0.268  1.00  0.00     0.010 A 
ATOM      4  C   UNL     1      18.316  44.668  -0.338  1.00  0.00     0.010 A 
ATOM      5  C   UNL     1      16.029  45.358  -0.695  1.00  0.00     0.001 A 
ATOM      6  C   UNL     1      17.392  45.634  -0.741  1.00  0.00     0.001 A 
ENDROOT
BRANCH   1   7
ATOM      7  C   UNL     1      15.955  41.771   0.453  1.00  0.00     0.072 C 
ATOM      8  O   UNL     1      15.702  40.936  -0.455  1.00  0.00    -0.545 OA
ATOM      9  O   UNL     1      15.659  41.446   1.771  1.00  0.00    -0.545 OA
ENDBRANCH   1   7
BRANCH   2  10
ATOM     10  C   UNL     1      18.913  42.475   0.638  1.00  0.00     0.072 C 
ATOM     11  O   UNL     1      19.589  41.756  -0.145  1.00  0.00    -0.545 OA
ATOM     12  O   UNL     1      19.094  42.334   2.009  1.00  0.00    -0.545 OA
ENDBRANCH   2  10
TORSDOF 2
ENDMDL
MODEL 3
REMARK VINA RESULT:    -4.027     22.452     23.877
REMARK INTER + INTRA:          -4.713
REMARK INTER:                  -4.603
REMARK INTRA:                  -0.110
REMARK UNBOUND:                -0.215
REMARK SMILES O=C([O-])c1ccccc1C(=O)[O-]
REMARK SMILES IDX 4 1 9 2 5 3 8 4 6 5 7 6 2 7 1 8 3 9 10 10 11 11 12 12
REMARK H PARENT
REMARK Flexibility Score: inf
ROOT
ATOM      1  C   UNL     1      29.632  58.840 -11.726  1.00  0.00     0.006 A 
ATOM      2  C   UNL     1      30.886  59.023 -11.079  1.00  0.00     0.006 A 
ATOM      3  C   UNL     1      29.577  58.082 -12.910  1.00  0.00     0.010 A 
ATOM      4  C   UNL     1      32.026  58.386 -11.603  1.00  0.00     0.010 A 
ATOM      5  C   UNL     1      30.725  57.477 -13.423  1.00  0.00     0.001 A 
ATOM      6  C   UNL     1      31.943  57.618 -12.766  1.00  0.00     0.001 A 
ENDROOT
BRANCH   1   7
ATOM      7  C   UNL     1      28.356  59.356 -11.177  1.00  0.00     0.072 C 
ATOM      8  O   UNL     1      28.116  60.593 -11.158  1.00  0.00    -0.545 OA
ATOM      9  O   UNL     1      27.435  58.482 -10.613  1.00  0.00    -0.545 OA
ENDBRANCH   1   7
BRANCH   2  10
ATOM     10  C   UNL     1      31.069  59.914  -9.909  1.00  0.00     0.072 C 
ATOM     11  O   UNL     1      31.556  61.067 -10.045  1.00  0.00    -0.545 OA
ATOM     12  O   UNL     1      30.764  59.457  -8.632  1.00  0.00    -0.545 OA
ENDBRANCH   2  10
TORSDOF 2
ENDMDL
MODEL 4
REMARK VINA RESULT:    -4.024     22.449     23.716
REMARK INTER + INTRA:          -4.710
REMARK INTER:                  -4.598
REMARK INTRA:                  -0.112
REMARK UNBOUND:                -0.215
REMARK SMILES O=C([O-])c1ccccc1C(=O)[O-]
REMARK SMILES IDX 4 1 9 2 5 3 8 4 6 5 7 6 2 7 1 8 3 9 10 10 11 11 12 12
REMARK H PARENT
REMARK Flexibility Score: inf
ROOT
ATOM      1  C   UNL     1      30.845  59.082 -11.054  1.00  0.00     0.006 A 
ATOM      2  C   UNL     1      29.582  58.911 -11.687  1.00  0.00     0.006 A 
ATOM      3  C   UNL     1      31.976  58.446 -11.599  1.00  0.00     0.010 A 
ATOM      4  C   UNL     1      29.510  58.167 -12.879  1.00  0.00     0.010 A 
ATOM      5  C   UNL     1      31.876  57.695 -12.771  1.00  0.00     0.001 A 
ATOM      6  C   UNL     1      30.649  57.565 -13.415  1.00  0.00     0.001 A 
ENDROOT
BRANCH   1   7
ATOM      7  C   UNL     1      31.047  59.957  -9.875  1.00  0.00     0.072 C 
ATOM      8  O   UNL     1      31.558  61.101 -10.001  1.00  0.00    -0.545 OA
ATOM      9  O   UNL     1      30.733  59.494  -8.602  1.00  0.00    -0.545 OA
ENDBRANCH   1   7
BRANCH   2  10
ATOM     10  C   UNL     1      28.316  59.425 -11.115  1.00  0.00     0.072 C 
ATOM     11  O   UNL     1      28.075  60.661 -11.085  1.00  0.00    -0.545 OA
ATOM     12  O   UNL     1      27.405  58.546 -10.540  1.00  0.00    -0.545 OA
ENDBRANCH   2  10
TORSDOF 2
ENDMDL
MODEL 5
REMARK VINA RESULT:    -4.018     23.366     24.244
REMARK INTER + INTRA:          -4.704
REMARK INTER:                  -4.510
REMARK INTRA:                  -0.193
REMARK UNBOUND:                -0.215
REMARK SMILES O=C([O-])c1ccccc1C(=O)[O-]
REMARK SMILES IDX 4 1 9 2 5 3 8 4 6 5 7 6 2 7 1 8 3 9 10 10 11 11 12 12
REMARK H PARENT
REMARK Flexibility Score: inf
ROOT
ATOM      1  C   UNL     1      31.595  58.561 -11.176  1.00  0.00     0.006 A 
ATOM      2  C   UNL     1      30.918  58.256 -12.391  1.00  0.00     0.006 A 
ATOM      3  C   UNL     1      30.904  59.249 -10.162  1.00  0.00     0.010 A 
ATOM      4  C   UNL     1      29.558  58.592 -12.519  1.00  0.00     0.010 A 
ATOM      5  C   UNL     1      29.561  59.591 -10.320  1.00  0.00     0.001 A 
ATOM      6  C   UNL     1      28.886  59.254 -11.490  1.00  0.00     0.001 A 
ENDROOT
BRANCH   1   7
ATOM      7  C   UNL     1      32.984  58.129 -10.895  1.00  0.00     0.072 C 
ATOM      8  O   UNL     1      33.212  57.096 -10.211  1.00  0.00    -0.545 OA
ATOM      9  O   UNL     1      34.056  58.901 -11.328  1.00  0.00    -0.545 OA
ENDBRANCH   1   7
BRANCH   2  10
ATOM     10  C   UNL     1      31.596  57.659 -13.565  1.00  0.00     0.072 C 
ATOM     11  O   UNL     1      31.406  56.454 -13.877  1.00  0.00    -0.545 OA
ATOM     12  O   UNL     1      32.508  58.410 -14.299  1.00  0.00    -0.545 OA
ENDBRANCH   2  10
TORSDOF 2
ENDMDL
MODEL 6
REMARK VINA RESULT:    -4.001     13.176     14.553
REMARK INTER + INTRA:          -4.684
REMARK INTER:                  -4.476
REMARK INTRA:                  -0.208
REMARK UNBOUND:                -0.215
REMARK SMILES O=C([O-])c1ccccc1C(=O)[O-]
REMARK SMILES IDX 4 1 9 2 5 3 8 4 6 5 7 6 2 7 1 8 3 9 10 10 11 11 12 12
REMARK H PARENT
REMARK Flexibility Score: inf
ROOT
ATOM      1  C   UNL     1      31.278  43.860   0.687  1.00  0.00     0.006 A 
ATOM      2  C   UNL     1      31.136  44.930   1.615  1.00  0.00     0.006 A 
ATOM      3  C   UNL     1      30.202  43.545  -0.164  1.00  0.00     0.010 A 
ATOM      4  C   UNL     1      29.950  45.687   1.609  1.00  0.00     0.010 A 
ATOM      5  C   UNL     1      29.027  44.296  -0.136  1.00  0.00     0.001 A 
ATOM      6  C   UNL     1      28.905  45.371   0.739  1.00  0.00     0.001 A 
ENDROOT
BRANCH   1   7
ATOM      7  C   UNL     1      32.535  43.094   0.524  1.00  0.00     0.072 C 
ATOM      8  O   UNL     1      32.672  41.958   1.052  1.00  0.00    -0.545 OA
ATOM      9  O   UNL     1      33.608  43.653  -0.162  1.00  0.00    -0.545 OA
ENDBRANCH   1   7
BRANCH   2  10
ATOM     10  C   UNL     1      32.155  45.249   2.641  1.00  0.00     0.072 C 
ATOM     11  O   UNL     1      32.005  44.880   3.836  1.00  0.00    -0.545 OA
ATOM     12  O   UNL     1      33.261  46.022   2.308  1.00  0.00    -0.545 OA
ENDBRANCH   2  10
TORSDOF 2
ENDMDL
MODEL 7
REMARK VINA RESULT:    -3.995     23.464     24.418
REMARK INTER + INTRA:          -4.678
REMARK INTER:                  -4.483
REMARK INTRA:                  -0.194
REMARK UNBOUND:                -0.215
REMARK SMILES O=C([O-])c1ccccc1C(=O)[O-]
REMARK SMILES IDX 4 1 9 2 5 3 8 4 6 5 7 6 2 7 1 8 3 9 10 10 11 11 12 12
REMARK H PARENT
REMARK Flexibility Score: inf
ROOT
ATOM      1  C   UNL     1      30.973  58.341 -12.414  1.00  0.00     0.006 A 
ATOM      2  C   UNL     1      31.656  58.619 -11.197  1.00  0.00     0.006 A 
ATOM      3  C   UNL     1      29.621  58.710 -12.539  1.00  0.00     0.010 A 
ATOM      4  C   UNL     1      30.982  59.315 -10.177  1.00  0.00     0.010 A 
ATOM      5  C   UNL     1      28.966  59.381 -11.505  1.00  0.00     0.001 A 
ATOM      6  C   UNL     1      29.647  59.693 -10.333  1.00  0.00     0.001 A 
ENDROOT
BRANCH   1   7
ATOM      7  C   UNL     1      31.635  57.735 -13.593  1.00  0.00     0.072 C 
ATOM      8  O   UNL     1      31.411  56.538 -13.914  1.00  0.00    -0.545 OA
ATOM      9  O   UNL     1      32.567  58.466 -14.320  1.00  0.00    -0.545 OA
ENDBRANCH   1   7
BRANCH   2  10
ATOM     10  C   UNL     1      33.033  58.149 -10.919  1.00  0.00     0.072 C 
ATOM     11  O   UNL     1      33.236  57.102 -10.249  1.00  0.00    -0.545 OA
ATOM     12  O   UNL     1      34.124  58.901 -11.341  1.00  0.00    -0.545 OA
ENDBRANCH   2  10
TORSDOF 2
ENDMDL
MODEL 8
REMARK VINA RESULT:    -3.991     12.387     14.397
REMARK INTER + INTRA:          -4.673
REMARK INTER:                  -4.716
REMARK INTRA:                   0.042
REMARK UNBOUND:                -0.215
REMARK SMILES O=C([O-])c1ccccc1C(=O)[O-]
REMARK SMILES IDX 4 1 9 2 5 3 8 4 6 5 7 6 2 7 1 8 3 9 10 10 11 11 12 12
REMARK H PARENT
REMARK Flexibility Score: inf
ROOT
ATOM      1  C   UNL     1      30.384  45.135   1.473  1.00  0.00     0.006 A 
ATOM      2  C   UNL     1      31.729  44.674   1.530  1.00  0.00     0.006 A 
ATOM      3  C   UNL     1      29.931  46.043   2.447  1.00  0.00     0.010 A 
ATOM      4  C   UNL     1      32.588  45.190   2.517  1.00  0.00     0.010 A 
ATOM      5  C   UNL     1      30.795  46.525   3.431  1.00  0.00     0.001 A 
ATOM      6  C   UNL     1      32.123  46.109   3.459  1.00  0.00     0.001 A 
ENDROOT
BRANCH   1   7
ATOM      7  C   UNL     1      29.444  44.755   0.392  1.00  0.00     0.072 C 
ATOM      8  O   UNL     1      28.761  45.629  -0.205  1.00  0.00    -0.545 OA
ATOM      9  O   UNL     1      29.255  43.415   0.071  1.00  0.00    -0.545 OA
ENDBRANCH   1   7
BRANCH   2  10
ATOM     10  C   UNL     1      32.259  43.618   0.636  1.00  0.00     0.072 C 
ATOM     11  O   UNL     1      32.367  42.428   1.035  1.00  0.00    -0.545 OA
ATOM     12  O   UNL     1      32.707  43.945  -0.639  1.00  0.00    -0.545 OA
ENDBRANCH   2  10
TORSDOF 2
ENDMDL
MODEL 9
REMARK VINA RESULT:    -3.965     12.352     14.140
REMARK INTER + INTRA:          -4.644
REMARK INTER:                  -4.759
REMARK INTRA:                   0.115
REMARK UNBOUND:                -0.215
REMARK SMILES O=C([O-])c1ccccc1C(=O)[O-]
REMARK SMILES IDX 4 1 9 2 5 3 8 4 6 5 7 6 2 7 1 8 3 9 10 10 11 11 12 12
REMARK H PARENT
REMARK Flexibility Score: inf
ROOT
ATOM      1  C   UNL     1      31.708  44.637   1.487  1.00  0.00     0.006 A 
ATOM      2  C   UNL     1      30.379  45.146   1.476  1.00  0.00     0.006 A 
ATOM      3  C   UNL     1      32.613  45.112   2.454  1.00  0.00     0.010 A 
ATOM      4  C   UNL     1      29.987  46.059   2.471  1.00  0.00     0.010 A 
ATOM      5  C   UNL     1      32.208  46.035   3.419  1.00  0.00     0.001 A 
ATOM      6  C   UNL     1      30.896  46.499   3.435  1.00  0.00     0.001 A 
ENDROOT
BRANCH   1   7
ATOM      7  C   UNL     1      32.175  43.573   0.567  1.00  0.00     0.072 C 
ATOM      8  O   UNL     1      32.254  42.377   0.953  1.00  0.00    -0.545 OA
ATOM      9  O   UNL     1      32.596  43.898  -0.717  1.00  0.00    -0.545 OA
ENDBRANCH   1   7
BRANCH   2  10
ATOM     10  C   UNL     1      29.396  44.812   0.418  1.00  0.00     0.072 C 
ATOM     11  O   UNL     1      28.655  45.700  -0.079  1.00  0.00    -0.545 OA
ATOM     12  O   UNL     1      29.235  43.493   0.009  1.00  0.00    -0.545 OA
ENDBRANCH   2  10
TORSDOF 2
ENDMDL
