MODEL 1
REMARK VINA RESULT:    -5.800      0.000      0.000
REMARK INTER + INTRA:          -5.800
REMARK INTER:                  -5.800
REMARK INTRA:                   0.000
REMARK UNBOUND:                 0.000
REMARK SMILES CC(C)=C1CC[C@@H](C)CC1=O
REMARK SMILES IDX 8 1 7 2 6 3 5 4 4 5 2 6 1 7 3 8 10 9 11 10 9 11
REMARK H PARENT
REMARK Flexibility Score: inf
ROOT
ATOM      1  C   UNL     1     -19.629 -37.015  -3.430  1.00  0.00     0.008 C 
ATOM      2  C   UNL     1     -18.540 -37.944  -3.979  1.00  0.00    -0.006 C 
ATOM      3  C   UNL     1     -17.193 -37.208  -4.063  1.00  0.00     0.008 C 
ATOM      4  C   UNL     1     -16.070 -38.151  -4.512  1.00  0.00     0.039 C 
ATOM      5  C   UNL     1     -16.411 -38.896  -5.795  1.00  0.00    -0.006 C 
ATOM      6  C   UNL     1     -15.441 -39.248  -6.691  1.00  0.00    -0.070 C 
ATOM      7  C   UNL     1     -13.987 -38.927  -6.437  1.00  0.00     0.039 C 
ATOM      8  C   UNL     1     -15.774 -39.937  -7.995  1.00  0.00     0.039 C 
ATOM      9  C   UNL     1     -17.836 -39.314  -5.953  1.00  0.00     0.159 C 
ATOM     10  O   UNL     1     -18.145 -40.369  -6.569  1.00  0.00    -0.295 OA
ATOM     11  C   UNL     1     -18.935 -38.478  -5.363  1.00  0.00     0.084 C 
ENDROOT
TORSDOF 0
ENDMDL
MODEL 2
REMARK VINA RESULT:    -5.700      1.634      2.960
REMARK INTER + INTRA:          -5.700
REMARK INTER:                  -5.700
REMARK INTRA:                   0.000
REMARK UNBOUND:                 0.000
REMARK SMILES CC(C)=C1CC[C@@H](C)CC1=O
REMARK SMILES IDX 8 1 7 2 6 3 5 4 4 5 2 6 1 7 3 8 10 9 11 10 9 11
REMARK H PARENT
REMARK Flexibility Score: inf
ROOT
ATOM      1  C   UNL     1     -22.459 -37.541  -6.124  1.00  0.00     0.008 C 
ATOM      2  C   UNL     1     -21.171 -37.865  -5.357  1.00  0.00    -0.006 C 
ATOM      3  C   UNL     1     -20.487 -36.575  -4.879  1.00  0.00     0.008 C 
ATOM      4  C   UNL     1     -19.253 -36.883  -4.021  1.00  0.00     0.039 C 
ATOM      5  C   UNL     1     -18.287 -37.836  -4.711  1.00  0.00    -0.006 C 
ATOM      6  C   UNL     1     -16.939 -37.760  -4.495  1.00  0.00    -0.070 C 
ATOM      7  C   UNL     1     -16.354 -36.737  -3.550  1.00  0.00     0.039 C 
ATOM      8  C   UNL     1     -15.966 -38.663  -5.218  1.00  0.00     0.039 C 
ATOM      9  C   UNL     1     -18.906 -38.918  -5.533  1.00  0.00     0.159 C 
ATOM     10  O   UNL     1     -18.361 -40.048  -5.647  1.00  0.00    -0.295 OA
ATOM     11  C   UNL     1     -20.209 -38.674  -6.239  1.00  0.00     0.084 C 
ENDROOT
TORSDOF 0
ENDMDL
MODEL 3
REMARK VINA RESULT:    -5.609      1.636      4.273
REMARK INTER + INTRA:          -5.609
REMARK INTER:                  -5.609
REMARK INTRA:                   0.000
REMARK UNBOUND:                 0.000
REMARK SMILES CC(C)=C1CC[C@@H](C)CC1=O
REMARK SMILES IDX 8 1 7 2 6 3 5 4 4 5 2 6 1 7 3 8 10 9 11 10 9 11
REMARK H PARENT
REMARK Flexibility Score: inf
ROOT
ATOM      1  C   UNL     1     -17.854 -40.629  -9.483  1.00  0.00     0.008 C 
ATOM      2  C   UNL     1     -17.820 -40.311  -7.983  1.00  0.00    -0.006 C 
ATOM      3  C   UNL     1     -18.955 -39.344  -7.610  1.00  0.00     0.008 C 
ATOM      4  C   UNL     1     -19.001 -39.095  -6.097  1.00  0.00     0.039 C 
ATOM      5  C   UNL     1     -17.654 -38.661  -5.536  1.00  0.00    -0.006 C 
ATOM      6  C   UNL     1     -17.570 -37.813  -4.467  1.00  0.00    -0.070 C 
ATOM      7  C   UNL     1     -18.811 -37.286  -3.786  1.00  0.00     0.039 C 
ATOM      8  C   UNL     1     -16.239 -37.330  -3.938  1.00  0.00     0.039 C 
ATOM      9  C   UNL     1     -16.451 -39.303  -6.145  1.00  0.00     0.159 C 
ATOM     10  O   UNL     1     -15.413 -39.525  -5.467  1.00  0.00    -0.295 OA
ATOM     11  C   UNL     1     -16.465 -39.706  -7.591  1.00  0.00     0.084 C 
ENDROOT
TORSDOF 0
ENDMDL
MODEL 4
REMARK VINA RESULT:    -5.605      1.603      4.389
REMARK INTER + INTRA:          -5.605
REMARK INTER:                  -5.605
REMARK INTRA:                   0.000
REMARK UNBOUND:                 0.000
REMARK SMILES CC(C)=C1CC[C@@H](C)CC1=O
REMARK SMILES IDX 8 1 7 2 6 3 5 4 4 5 2 6 1 7 3 8 10 9 11 10 9 11
REMARK H PARENT
REMARK Flexibility Score: inf
ROOT
ATOM      1  C   UNL     1     -13.098 -39.008  -6.589  1.00  0.00     0.008 C 
ATOM      2  C   UNL     1     -14.550 -39.442  -6.358  1.00  0.00    -0.006 C 
ATOM      3  C   UNL     1     -15.303 -39.544  -7.694  1.00  0.00     0.008 C 
ATOM      4  C   UNL     1     -16.727 -40.077  -7.491  1.00  0.00     0.039 C 
ATOM      5  C   UNL     1     -17.501 -39.290  -6.443  1.00  0.00    -0.006 C 
ATOM      6  C   UNL     1     -18.855 -39.128  -6.533  1.00  0.00    -0.070 C 
ATOM      7  C   UNL     1     -19.643 -39.739  -7.668  1.00  0.00     0.039 C 
ATOM      8  C   UNL     1     -19.625 -38.301  -5.529  1.00  0.00     0.039 C 
ATOM      9  C   UNL     1     -16.714 -38.814  -5.266  1.00  0.00     0.159 C 
ATOM     10  O   UNL     1     -17.239 -38.713  -4.125  1.00  0.00    -0.295 OA
ATOM     11  C   UNL     1     -15.266 -38.453  -5.427  1.00  0.00     0.084 C 
ENDROOT
TORSDOF 0
ENDMDL
MODEL 5
REMARK VINA RESULT:    -5.604      1.731      4.550
REMARK INTER + INTRA:          -5.604
REMARK INTER:                  -5.604
REMARK INTRA:                   0.000
REMARK UNBOUND:                 0.000
REMARK SMILES CC(C)=C1CC[C@@H](C)CC1=O
REMARK SMILES IDX 8 1 7 2 6 3 5 4 4 5 2 6 1 7 3 8 10 9 11 10 9 11
REMARK H PARENT
REMARK Flexibility Score: inf
ROOT
ATOM      1  C   UNL     1     -14.454 -39.135  -5.807  1.00  0.00     0.008 C 
ATOM      2  C   UNL     1     -15.930 -39.147  -5.393  1.00  0.00    -0.006 C 
ATOM      3  C   UNL     1     -16.835 -39.335  -6.621  1.00  0.00     0.008 C 
ATOM      4  C   UNL     1     -18.310 -39.452  -6.214  1.00  0.00     0.039 C 
ATOM      5  C   UNL     1     -18.763 -38.304  -5.324  1.00  0.00    -0.006 C 
ATOM      6  C   UNL     1     -20.048 -37.840  -5.362  1.00  0.00    -0.070 C 
ATOM      7  C   UNL     1     -21.077 -38.460  -6.279  1.00  0.00     0.039 C 
ATOM      8  C   UNL     1     -20.494 -36.663  -4.525  1.00  0.00     0.039 C 
ATOM      9  C   UNL     1     -17.760 -37.803  -4.337  1.00  0.00     0.159 C 
ATOM     10  O   UNL     1     -18.114 -37.346  -3.217  1.00  0.00    -0.295 OA
ATOM     11  C   UNL     1     -16.296 -37.845  -4.665  1.00  0.00     0.084 C 
ENDROOT
TORSDOF 0
ENDMDL
MODEL 6
REMARK VINA RESULT:    -5.569      2.827      4.738
REMARK INTER + INTRA:          -5.569
REMARK INTER:                  -5.569
REMARK INTRA:                   0.000
REMARK UNBOUND:                 0.000
REMARK SMILES CC(C)=C1CC[C@@H](C)CC1=O
REMARK SMILES IDX 8 1 7 2 6 3 5 4 4 5 2 6 1 7 3 8 10 9 11 10 9 11
REMARK H PARENT
REMARK Flexibility Score: inf
ROOT
ATOM      1  C   UNL     1     -16.388 -36.499  -3.743  1.00  0.00     0.008 C 
ATOM      2  C   UNL     1     -17.772 -37.147  -3.870  1.00  0.00    -0.006 C 
ATOM      3  C   UNL     1     -17.760 -38.240  -4.951  1.00  0.00     0.008 C 
ATOM      4  C   UNL     1     -19.108 -38.968  -5.021  1.00  0.00     0.039 C 
ATOM      5  C   UNL     1     -20.282 -38.011  -5.170  1.00  0.00    -0.006 C 
ATOM      6  C   UNL     1     -21.406 -38.368  -5.860  1.00  0.00    -0.070 C 
ATOM      7  C   UNL     1     -21.537 -39.736  -6.489  1.00  0.00     0.039 C 
ATOM      8  C   UNL     1     -22.554 -37.406  -6.063  1.00  0.00     0.039 C 
ATOM      9  C   UNL     1     -20.176 -36.721  -4.426  1.00  0.00     0.159 C 
ATOM     10  O   UNL     1     -21.197 -36.145  -3.965  1.00  0.00    -0.295 OA
ATOM     11  C   UNL     1     -18.832 -36.088  -4.205  1.00  0.00     0.084 C 
ENDROOT
TORSDOF 0
ENDMDL
MODEL 7
REMARK VINA RESULT:    -5.542      2.583      5.304
REMARK INTER + INTRA:          -5.542
REMARK INTER:                  -5.542
REMARK INTRA:                   0.000
REMARK UNBOUND:                 0.000
REMARK SMILES CC(C)=C1CC[C@@H](C)CC1=O
REMARK SMILES IDX 8 1 7 2 6 3 5 4 4 5 2 6 1 7 3 8 10 9 11 10 9 11
REMARK H PARENT
REMARK Flexibility Score: inf
ROOT
ATOM      1  C   UNL     1     -16.757 -39.688  -5.757  1.00  0.00     0.008 C 
ATOM      2  C   UNL     1     -18.180 -39.201  -5.460  1.00  0.00    -0.006 C 
ATOM      3  C   UNL     1     -18.950 -38.949  -6.766  1.00  0.00     0.008 C 
ATOM      4  C   UNL     1     -20.407 -38.561  -6.488  1.00  0.00     0.039 C 
ATOM      5  C   UNL     1     -20.525 -37.402  -5.508  1.00  0.00    -0.006 C 
ATOM      6  C   UNL     1     -21.553 -36.505  -5.589  1.00  0.00    -0.070 C 
ATOM      7  C   UNL     1     -22.625 -36.636  -6.646  1.00  0.00     0.039 C 
ATOM      8  C   UNL     1     -21.649 -35.319  -4.658  1.00  0.00     0.039 C 
ATOM      9  C   UNL     1     -19.528 -37.378  -4.397  1.00  0.00     0.159 C 
ATOM     10  O   UNL     1     -19.822 -36.916  -3.262  1.00  0.00    -0.295 OA
ATOM     11  C   UNL     1     -18.144 -37.918  -4.616  1.00  0.00     0.084 C 
ENDROOT
TORSDOF 0
ENDMDL
MODEL 8
REMARK VINA RESULT:    -5.343      2.273      3.630
REMARK INTER + INTRA:          -5.343
REMARK INTER:                  -5.343
REMARK INTRA:                   0.000
REMARK UNBOUND:                 0.000
REMARK SMILES CC(C)=C1CC[C@@H](C)CC1=O
REMARK SMILES IDX 8 1 7 2 6 3 5 4 4 5 2 6 1 7 3 8 10 9 11 10 9 11
REMARK H PARENT
REMARK Flexibility Score: inf
ROOT
ATOM      1  C   UNL     1     -22.598 -38.300  -5.745  1.00  0.00     0.008 C 
ATOM      2  C   UNL     1     -21.106 -37.951  -5.793  1.00  0.00    -0.006 C 
ATOM      3  C   UNL     1     -20.255 -39.227  -5.898  1.00  0.00     0.008 C 
ATOM      4  C   UNL     1     -18.766 -38.893  -6.051  1.00  0.00     0.039 C 
ATOM      5  C   UNL     1     -18.266 -37.945  -4.970  1.00  0.00    -0.006 C 
ATOM      6  C   UNL     1     -16.981 -38.006  -4.510  1.00  0.00    -0.070 C 
ATOM      7  C   UNL     1     -15.996 -39.007  -5.069  1.00  0.00     0.039 C 
ATOM      8  C   UNL     1     -16.490 -37.108  -3.398  1.00  0.00     0.039 C 
ATOM      9  C   UNL     1     -19.222 -36.883  -4.535  1.00  0.00     0.159 C 
ATOM     10  O   UNL     1     -18.817 -35.750  -4.159  1.00  0.00    -0.295 OA
ATOM     11  C   UNL     1     -20.699 -37.150  -4.547  1.00  0.00     0.084 C 
ENDROOT
TORSDOF 0
ENDMDL
MODEL 9
REMARK VINA RESULT:    -5.295      1.902      2.922
REMARK INTER + INTRA:          -5.295
REMARK INTER:                  -5.295
REMARK INTRA:                   0.000
REMARK UNBOUND:                 0.000
REMARK SMILES CC(C)=C1CC[C@@H](C)CC1=O
REMARK SMILES IDX 8 1 7 2 6 3 5 4 4 5 2 6 1 7 3 8 10 9 11 10 9 11
REMARK H PARENT
REMARK Flexibility Score: inf
ROOT
ATOM      1  C   UNL     1     -22.363 -35.588  -4.346  1.00  0.00     0.008 C 
ATOM      2  C   UNL     1     -21.446 -36.802  -4.530  1.00  0.00    -0.006 C 
ATOM      3  C   UNL     1     -19.997 -36.447  -4.157  1.00  0.00     0.008 C 
ATOM      4  C   UNL     1     -19.084 -37.677  -4.236  1.00  0.00     0.039 C 
ATOM      5  C   UNL     1     -19.184 -38.394  -5.575  1.00  0.00    -0.006 C 
ATOM      6  C   UNL     1     -18.110 -39.045  -6.113  1.00  0.00    -0.070 C 
ATOM      7  C   UNL     1     -16.783 -39.095  -5.393  1.00  0.00     0.039 C 
ATOM      8  C   UNL     1     -18.182 -39.711  -7.468  1.00  0.00     0.039 C 
ATOM      9  C   UNL     1     -20.542 -38.439  -6.195  1.00  0.00     0.159 C 
ATOM     10  O   UNL     1     -20.907 -39.417  -6.901  1.00  0.00    -0.295 OA
ATOM     11  C   UNL     1     -21.506 -37.309  -5.978  1.00  0.00     0.084 C 
ENDROOT
TORSDOF 0
ENDMDL
