MODEL 1
REMARK VINA RESULT:    -4.412      0.000      0.000
REMARK INTER + INTRA:          -4.541
REMARK INTER:                  -4.541
REMARK INTRA:                   0.000
REMARK UNBOUND:                 0.000
REMARK SMILES Nc1ncnc2nc[nH]c12
REMARK SMILES IDX 8 1 7 2 6 3 5 4 4 5 3 6 2 7 10 8 9 9 1 11
REMARK H PARENT 9 10 1 12 1 13
REMARK Flexibility Score: inf
ROOT
ATOM      1  C   UNL     1       4.726 -17.971   7.173  1.00  0.00     0.199 A 
ATOM      2  N   UNL     1       3.602 -18.512   7.717  1.00  0.00    -0.217 NA
ATOM      3  C   UNL     1       3.920 -19.815   7.791  1.00  0.00     0.182 A 
ATOM      4  N   UNL     1       3.137 -20.812   8.269  1.00  0.00    -0.215 NA
ATOM      5  C   UNL     1       3.637 -22.085   8.264  1.00  0.00     0.226 A 
ATOM      6  N   UNL     1       4.899 -22.334   7.788  1.00  0.00    -0.217 NA
ATOM      7  C   UNL     1       5.691 -21.329   7.307  1.00  0.00     0.152 A 
ATOM      8  C   UNL     1       5.166 -20.040   7.318  1.00  0.00     0.127 A 
ATOM      9  N   UNL     1       5.701 -18.879   6.918  1.00  0.00    -0.340 N 
ATOM     10  H   UNL     1       6.643 -18.702   6.505  1.00  0.00     0.168 HD
ENDROOT
BRANCH   7  11
ATOM     11  N   UNL     1       7.002 -21.613   6.817  1.00  0.00    -0.382 N 
ATOM     12  H   UNL     1       7.541 -20.909   6.266  1.00  0.00     0.158 HD
ATOM     13  H   UNL     1       7.441 -22.542   7.006  1.00  0.00     0.158 HD
ENDBRANCH   7  11
TORSDOF 1
ENDMDL
MODEL 2
REMARK VINA RESULT:    -4.383     12.570     14.180
REMARK INTER + INTRA:          -4.511
REMARK INTER:                  -4.511
REMARK INTRA:                   0.000
REMARK UNBOUND:                 0.000
REMARK SMILES Nc1ncnc2nc[nH]c12
REMARK SMILES IDX 8 1 7 2 6 3 5 4 4 5 3 6 2 7 10 8 9 9 1 11
REMARK H PARENT 9 10 1 12 1 13
REMARK Flexibility Score: inf
ROOT
ATOM      1  C   UNL     1       6.342  -8.160   6.954  1.00  0.00     0.199 A 
ATOM      2  N   UNL     1       7.523  -8.153   6.277  1.00  0.00    -0.217 NA
ATOM      3  C   UNL     1       8.319  -7.449   7.099  1.00  0.00     0.182 A 
ATOM      4  N   UNL     1       9.623  -7.145   6.895  1.00  0.00    -0.215 NA
ATOM      5  C   UNL     1      10.272  -6.414   7.852  1.00  0.00     0.226 A 
ATOM      6  N   UNL     1       9.612  -6.006   8.983  1.00  0.00    -0.217 NA
ATOM      7  C   UNL     1       8.296  -6.313   9.191  1.00  0.00     0.152 A 
ATOM      8  C   UNL     1       7.650  -7.056   8.207  1.00  0.00     0.127 A 
ATOM      9  N   UNL     1       6.388  -7.498   8.138  1.00  0.00    -0.340 N 
ATOM     10  H   UNL     1       5.613  -7.369   8.825  1.00  0.00     0.168 HD
ENDROOT
BRANCH   7  11
ATOM     11  N   UNL     1       7.630  -5.878  10.376  1.00  0.00    -0.382 N 
ATOM     12  H   UNL     1       7.354  -6.552  11.123  1.00  0.00     0.158 HD
ATOM     13  H   UNL     1       7.409  -4.865  10.509  1.00  0.00     0.158 HD
ENDBRANCH   7  11
TORSDOF 1
ENDMDL
MODEL 3
REMARK VINA RESULT:    -4.324     13.755     14.601
REMARK INTER + INTRA:          -4.450
REMARK INTER:                  -4.450
REMARK INTRA:                   0.000
REMARK UNBOUND:                 0.000
REMARK SMILES Nc1ncnc2nc[nH]c12
REMARK SMILES IDX 8 1 7 2 6 3 5 4 4 5 3 6 2 7 10 8 9 9 1 11
REMARK H PARENT 9 10 1 12 1 13
REMARK Flexibility Score: inf
ROOT
ATOM      1  C   UNL     1      11.327  -6.853   6.599  1.00  0.00     0.199 A 
ATOM      2  N   UNL     1      10.071  -7.074   6.123  1.00  0.00    -0.217 NA
ATOM      3  C   UNL     1       9.323  -6.981   7.235  1.00  0.00     0.182 A 
ATOM      4  N   UNL     1       7.979  -7.121   7.318  1.00  0.00    -0.215 NA
ATOM      5  C   UNL     1       7.391  -6.992   8.547  1.00  0.00     0.226 A 
ATOM      6  N   UNL     1       8.152  -6.726   9.657  1.00  0.00    -0.217 NA
ATOM      7  C   UNL     1       9.509  -6.583   9.574  1.00  0.00     0.152 A 
ATOM      8  C   UNL     1      10.091  -6.719   8.317  1.00  0.00     0.127 A 
ATOM      9  N   UNL     1      11.372  -6.633   7.937  1.00  0.00    -0.340 N 
ATOM     10  H   UNL     1      12.215  -6.442   8.522  1.00  0.00     0.168 HD
ENDROOT
BRANCH   7  11
ATOM     11  N   UNL     1      10.280  -6.307  10.744  1.00  0.00    -0.382 N 
ATOM     12  H   UNL     1      10.500  -5.328  11.031  1.00  0.00     0.158 HD
ATOM     13  H   UNL     1      10.637  -7.093  11.332  1.00  0.00     0.158 HD
ENDBRANCH   7  11
TORSDOF 1
ENDMDL
MODEL 4
REMARK VINA RESULT:    -4.107      1.992      3.081
REMARK INTER + INTRA:          -4.227
REMARK INTER:                  -4.227
REMARK INTRA:                   0.000
REMARK UNBOUND:                 0.000
REMARK SMILES Nc1ncnc2nc[nH]c12
REMARK SMILES IDX 8 1 7 2 6 3 5 4 4 5 3 6 2 7 10 8 9 9 1 11
REMARK H PARENT 9 10 1 12 1 13
REMARK Flexibility Score: inf
ROOT
ATOM      1  C   UNL     1       3.342 -23.072   4.992  1.00  0.00     0.199 A 
ATOM      2  N   UNL     1       2.444 -22.185   5.504  1.00  0.00    -0.217 NA
ATOM      3  C   UNL     1       3.217 -21.416   6.288  1.00  0.00     0.182 A 
ATOM      4  N   UNL     1       2.812 -20.364   7.039  1.00  0.00    -0.215 NA
ATOM      5  C   UNL     1       3.752 -19.698   7.777  1.00  0.00     0.226 A 
ATOM      6  N   UNL     1       5.066 -20.092   7.750  1.00  0.00    -0.217 NA
ATOM      7  C   UNL     1       5.476 -21.153   6.992  1.00  0.00     0.152 A 
ATOM      8  C   UNL     1       4.507 -21.820   6.248  1.00  0.00     0.127 A 
ATOM      9  N   UNL     1       4.612 -22.874   5.428  1.00  0.00    -0.340 N 
ATOM     10  H   UNL     1       5.463 -23.423   5.176  1.00  0.00     0.168 HD
ENDROOT
BRANCH   7  11
ATOM     11  N   UNL     1       6.849 -21.545   6.979  1.00  0.00    -0.382 N 
ATOM     12  H   UNL     1       7.348 -21.751   6.086  1.00  0.00     0.158 HD
ATOM     13  H   UNL     1       7.376 -21.632   7.877  1.00  0.00     0.158 HD
ENDBRANCH   7  11
TORSDOF 1
ENDMDL
MODEL 5
REMARK VINA RESULT:    -4.086     17.300     18.618
REMARK INTER + INTRA:          -4.206
REMARK INTER:                  -4.206
REMARK INTRA:                   0.000
REMARK UNBOUND:                 0.000
REMARK SMILES Nc1ncnc2nc[nH]c12
REMARK SMILES IDX 8 1 7 2 6 3 5 4 4 5 3 6 2 7 10 8 9 9 1 11
REMARK H PARENT 9 10 1 12 1 13
REMARK Flexibility Score: inf
ROOT
ATOM      1  C   UNL     1      14.403  -9.837  15.401  1.00  0.00     0.199 A 
ATOM      2  N   UNL     1      15.085 -10.380  16.446  1.00  0.00    -0.217 NA
ATOM      3  C   UNL     1      15.070  -9.383  17.346  1.00  0.00     0.182 A 
ATOM      4  N   UNL     1      15.620  -9.403  18.583  1.00  0.00    -0.215 NA
ATOM      5  C   UNL     1      15.502  -8.284  19.361  1.00  0.00     0.226 A 
ATOM      6  N   UNL     1      14.840  -7.177  18.891  1.00  0.00    -0.217 NA
ATOM      7  C   UNL     1      14.284  -7.156  17.643  1.00  0.00     0.152 A 
ATOM      8  C   UNL     1      14.414  -8.302  16.864  1.00  0.00     0.127 A 
ATOM      9  N   UNL     1      13.979  -8.568  15.626  1.00  0.00    -0.340 N 
ATOM     10  H   UNL     1      13.442  -7.952  14.977  1.00  0.00     0.168 HD
ENDROOT
BRANCH   7  11
ATOM     11  N   UNL     1      13.600  -5.993  17.176  1.00  0.00    -0.382 N 
ATOM     12  H   UNL     1      12.995  -6.022  16.326  1.00  0.00     0.158 HD
ATOM     13  H   UNL     1      13.700  -5.087  17.687  1.00  0.00     0.158 HD
ENDBRANCH   7  11
TORSDOF 1
ENDMDL
MODEL 6
REMARK VINA RESULT:    -4.013      1.191      2.612
REMARK INTER + INTRA:          -4.130
REMARK INTER:                  -4.130
REMARK INTRA:                   0.000
REMARK UNBOUND:                 0.000
REMARK SMILES Nc1ncnc2nc[nH]c12
REMARK SMILES IDX 8 1 7 2 6 3 5 4 4 5 3 6 2 7 10 8 9 9 1 11
REMARK H PARENT 9 10 1 12 1 13
REMARK Flexibility Score: inf
ROOT
ATOM      1  C   UNL     1       2.514 -18.895   7.759  1.00  0.00     0.199 A 
ATOM      2  N   UNL     1       3.699 -18.788   7.097  1.00  0.00    -0.217 NA
ATOM      3  C   UNL     1       4.248 -19.997   7.298  1.00  0.00     0.182 A 
ATOM      4  N   UNL     1       5.450 -20.425   6.842  1.00  0.00    -0.215 NA
ATOM      5  C   UNL     1       5.842 -21.698   7.151  1.00  0.00     0.226 A 
ATOM      6  N   UNL     1       5.033 -22.513   7.902  1.00  0.00    -0.217 NA
ATOM      7  C   UNL     1       3.819 -22.083   8.363  1.00  0.00     0.152 A 
ATOM      8  C   UNL     1       3.436 -20.784   8.040  1.00  0.00     0.127 A 
ATOM      9  N   UNL     1       2.324 -20.104   8.346  1.00  0.00    -0.340 N 
ATOM     10  H   UNL     1       1.500 -20.417   8.904  1.00  0.00     0.168 HD
ENDROOT
BRANCH   7  11
ATOM     11  N   UNL     1       2.995 -22.948   9.143  1.00  0.00    -0.382 N 
ATOM     12  H   UNL     1       2.534 -22.616  10.019  1.00  0.00     0.158 HD
ATOM     13  H   UNL     1       2.842 -23.937   8.842  1.00  0.00     0.158 HD
ENDBRANCH   7  11
TORSDOF 1
ENDMDL
MODEL 7
REMARK VINA RESULT:    -3.957      1.122      3.014
REMARK INTER + INTRA:          -4.073
REMARK INTER:                  -4.073
REMARK INTRA:                   0.000
REMARK UNBOUND:                 0.000
REMARK SMILES Nc1ncnc2nc[nH]c12
REMARK SMILES IDX 8 1 7 2 6 3 5 4 4 5 3 6 2 7 10 8 9 9 1 11
REMARK H PARENT 9 10 1 12 1 13
REMARK Flexibility Score: inf
ROOT
ATOM      1  C   UNL     1       3.926 -22.922   8.492  1.00  0.00     0.199 A 
ATOM      2  N   UNL     1       3.576 -21.660   8.863  1.00  0.00    -0.217 NA
ATOM      3  C   UNL     1       4.277 -20.904   8.001  1.00  0.00     0.182 A 
ATOM      4  N   UNL     1       4.288 -19.551   7.938  1.00  0.00    -0.215 NA
ATOM      5  C   UNL     1       5.069 -18.956   6.986  1.00  0.00     0.226 A 
ATOM      6  N   UNL     1       5.816 -19.717   6.123  1.00  0.00    -0.217 NA
ATOM      7  C   UNL     1       5.806 -21.083   6.186  1.00  0.00     0.152 A 
ATOM      8  C   UNL     1       5.006 -21.672   7.161  1.00  0.00     0.127 A 
ATOM      9  N   UNL     1       4.799 -22.963   7.453  1.00  0.00    -0.340 N 
ATOM     10  H   UNL     1       5.207 -23.809   6.998  1.00  0.00     0.168 HD
ENDROOT
BRANCH   7  11
ATOM     11  N   UNL     1       6.592 -21.854   5.278  1.00  0.00    -0.382 N 
ATOM     12  H   UNL     1       7.468 -21.474   4.857  1.00  0.00     0.158 HD
ATOM     13  H   UNL     1       6.294 -22.822   5.020  1.00  0.00     0.158 HD
ENDBRANCH   7  11
TORSDOF 1
ENDMDL
MODEL 8
REMARK VINA RESULT:    -3.859     16.457     17.589
REMARK INTER + INTRA:          -3.972
REMARK INTER:                  -3.972
REMARK INTRA:                   0.000
REMARK UNBOUND:                 0.000
REMARK SMILES Nc1ncnc2nc[nH]c12
REMARK SMILES IDX 8 1 7 2 6 3 5 4 4 5 3 6 2 7 10 8 9 9 1 11
REMARK H PARENT 9 10 1 12 1 13
REMARK Flexibility Score: inf
ROOT
ATOM      1  C   UNL     1      13.897  -6.956  17.049  1.00  0.00     0.199 A 
ATOM      2  N   UNL     1      14.600  -7.565  18.042  1.00  0.00    -0.217 NA
ATOM      3  C   UNL     1      14.901  -8.753  17.493  1.00  0.00     0.182 A 
ATOM      4  N   UNL     1      15.604  -9.756  18.070  1.00  0.00    -0.215 NA
ATOM      5  C   UNL     1      15.810 -10.900  17.348  1.00  0.00     0.226 A 
ATOM      6  N   UNL     1      15.314 -11.017  16.074  1.00  0.00    -0.217 NA
ATOM      7  C   UNL     1      14.605 -10.005  15.489  1.00  0.00     0.152 A 
ATOM      8  C   UNL     1      14.404  -8.849  16.238  1.00  0.00     0.127 A 
ATOM      9  N   UNL     1      13.760  -7.715  15.932  1.00  0.00    -0.340 N 
ATOM     10  H   UNL     1      13.265  -7.464  15.048  1.00  0.00     0.168 HD
ENDROOT
BRANCH   7  11
ATOM     11  N   UNL     1      14.099 -10.150  14.163  1.00  0.00    -0.382 N 
ATOM     12  H   UNL     1      13.950 -11.092  13.737  1.00  0.00     0.158 HD
ATOM     13  H   UNL     1      13.870  -9.304  13.595  1.00  0.00     0.158 HD
ENDBRANCH   7  11
TORSDOF 1
ENDMDL
MODEL 9
REMARK VINA RESULT:    -3.834      3.419      4.989
REMARK INTER + INTRA:          -3.946
REMARK INTER:                  -3.946
REMARK INTRA:                   0.000
REMARK UNBOUND:                 0.000
REMARK SMILES Nc1ncnc2nc[nH]c12
REMARK SMILES IDX 8 1 7 2 6 3 5 4 4 5 3 6 2 7 10 8 9 9 1 11
REMARK H PARENT 9 10 1 12 1 13
REMARK Flexibility Score: inf
ROOT
ATOM      1  C   UNL     1       3.032 -13.657   8.537  1.00  0.00     0.199 A 
ATOM      2  N   UNL     1       2.384 -14.818   8.242  1.00  0.00    -0.217 NA
ATOM      3  C   UNL     1       3.391 -15.706   8.208  1.00  0.00     0.182 A 
ATOM      4  N   UNL     1       3.290 -17.033   7.954  1.00  0.00    -0.215 NA
ATOM      5  C   UNL     1       4.435 -17.781   7.964  1.00  0.00     0.226 A 
ATOM      6  N   UNL     1       5.648 -17.195   8.226  1.00  0.00    -0.217 NA
ATOM      7  C   UNL     1       5.751 -15.856   8.484  1.00  0.00     0.152 A 
ATOM      8  C   UNL     1       4.577 -15.109   8.469  1.00  0.00     0.127 A 
ATOM      9  N   UNL     1       4.374 -13.802   8.682  1.00  0.00    -0.340 N 
ATOM     10  H   UNL     1       5.073 -13.061   8.906  1.00  0.00     0.168 HD
ENDROOT
BRANCH   7  11
ATOM     11  N   UNL     1       7.024 -15.268   8.754  1.00  0.00    -0.382 N 
ATOM     12  H   UNL     1       7.898 -15.838   8.751  1.00  0.00     0.158 HD
ATOM     13  H   UNL     1       7.094 -14.247   8.962  1.00  0.00     0.158 HD
ENDBRANCH   7  11
TORSDOF 1
ENDMDL
