MODEL 1
REMARK VINA RESULT:    -4.479      0.000      0.000
REMARK INTER + INTRA:          -6.631
REMARK INTER:                  -6.050
REMARK INTRA:                  -0.581
REMARK UNBOUND:                -0.581
REMARK SMILES CCCCCCCC(=O)[O-]
REMARK SMILES IDX 5 1 6 2 7 3 8 4 9 5 10 6 4 7 3 8 2 9 1 10
REMARK H PARENT
REMARK Flexibility Score: inf
ROOT
ATOM      1  C   UNL     1     -28.595   0.341  22.348  1.00  0.00     0.000 C 
ENDROOT
BRANCH   1   2
ATOM      2  C   UNL     1     -27.233   0.570  23.030  1.00  0.00     0.006 C 
BRANCH   2   3
ATOM      3  C   UNL     1     -26.614  -0.722  23.578  1.00  0.00     0.053 C 
BRANCH   3   4
ATOM      4  C   UNL     1     -27.531  -1.359  24.573  1.00  0.00     0.041 C 
ATOM      5  O   UNL     1     -27.883  -2.561  24.432  1.00  0.00    -0.550 OA
ATOM      6  O   UNL     1     -27.957  -0.644  25.685  1.00  0.00    -0.550 OA
ENDBRANCH   3   4
ENDBRANCH   2   3
ENDBRANCH   1   2
BRANCH   1   7
ATOM      7  C   UNL     1     -29.752   1.187  22.907  1.00  0.00     0.000 C 
BRANCH   7   8
ATOM      8  C   UNL     1     -31.073   0.407  23.003  1.00  0.00    -0.000 C 
BRANCH   8   9
ATOM      9  C   UNL     1     -30.838  -1.095  22.801  1.00  0.00    -0.003 C 
ATOM     10  C   UNL     1     -31.251  -1.888  24.037  1.00  0.00     0.004 C 
ENDBRANCH   8   9
ENDBRANCH   7   8
ENDBRANCH   1   7
TORSDOF 6
ENDMDL
MODEL 2
REMARK VINA RESULT:    -4.450      1.843      3.961
REMARK INTER + INTRA:          -6.592
REMARK INTER:                  -5.940
REMARK INTRA:                  -0.652
REMARK UNBOUND:                -0.581
REMARK SMILES CCCCCCCC(=O)[O-]
REMARK SMILES IDX 5 1 6 2 7 3 8 4 9 5 10 6 4 7 3 8 2 9 1 10
REMARK H PARENT
REMARK Flexibility Score: inf
ROOT
ATOM      1  C   UNL     1     -30.075  -1.864  22.089  1.00  0.00     0.000 C 
ENDROOT
BRANCH   1   2
ATOM      2  C   UNL     1     -30.922  -1.294  23.243  1.00  0.00     0.006 C 
BRANCH   2   3
ATOM      3  C   UNL     1     -31.176   0.212  23.110  1.00  0.00     0.053 C 
BRANCH   3   4
ATOM      4  C   UNL     1     -29.941   0.982  23.455  1.00  0.00     0.041 C 
ATOM      5  O   UNL     1     -29.349   1.661  22.574  1.00  0.00    -0.550 OA
ATOM      6  O   UNL     1     -29.468   0.991  24.762  1.00  0.00    -0.550 OA
ENDBRANCH   3   4
ENDBRANCH   2   3
ENDBRANCH   1   2
BRANCH   1   7
ATOM      7  C   UNL     1     -28.649  -2.290  22.479  1.00  0.00     0.000 C 
BRANCH   7   8
ATOM      8  C   UNL     1     -28.443  -2.374  24.000  1.00  0.00    -0.000 C 
BRANCH   8   9
ATOM      9  C   UNL     1     -27.116  -1.724  24.410  1.00  0.00    -0.003 C 
ATOM     10  C   UNL     1     -26.648  -0.718  23.362  1.00  0.00     0.004 C 
ENDBRANCH   8   9
ENDBRANCH   7   8
ENDBRANCH   1   7
TORSDOF 6
ENDMDL
MODEL 3
REMARK VINA RESULT:    -4.404      2.041      3.884
REMARK INTER + INTRA:          -6.530
REMARK INTER:                  -5.978
REMARK INTRA:                  -0.552
REMARK UNBOUND:                -0.581
REMARK SMILES CCCCCCCC(=O)[O-]
REMARK SMILES IDX 5 1 6 2 7 3 8 4 9 5 10 6 4 7 3 8 2 9 1 10
REMARK H PARENT
REMARK Flexibility Score: inf
ROOT
ATOM      1  C   UNL     1     -29.811   0.567  23.784  1.00  0.00     0.000 C 
ENDROOT
BRANCH   1   2
ATOM      2  C   UNL     1     -30.935  -0.241  23.110  1.00  0.00     0.006 C 
BRANCH   2   3
ATOM      3  C   UNL     1     -30.552  -1.704  22.858  1.00  0.00     0.053 C 
BRANCH   3   4
ATOM      4  C   UNL     1     -29.928  -1.855  21.507  1.00  0.00     0.041 C 
ATOM      5  O   UNL     1     -30.529  -1.440  20.481  1.00  0.00    -0.550 OA
ATOM      6  O   UNL     1     -28.661  -2.410  21.385  1.00  0.00    -0.550 OA
ENDBRANCH   3   4
ENDBRANCH   2   3
ENDBRANCH   1   2
BRANCH   1   7
ATOM      7  C   UNL     1     -28.821   1.237  22.815  1.00  0.00     0.000 C 
BRANCH   7   8
ATOM      8  C   UNL     1     -27.357   0.876  23.110  1.00  0.00    -0.000 C 
BRANCH   8   9
ATOM      9  C   UNL     1     -27.262  -0.138  24.257  1.00  0.00    -0.003 C 
ATOM     10  C   UNL     1     -26.404  -1.337  23.862  1.00  0.00     0.004 C 
ENDBRANCH   8   9
ENDBRANCH   7   8
ENDBRANCH   1   7
TORSDOF 6
ENDMDL
MODEL 4
REMARK VINA RESULT:    -4.402      2.378      4.365
REMARK INTER + INTRA:          -6.527
REMARK INTER:                  -5.919
REMARK INTRA:                  -0.608
REMARK UNBOUND:                -0.581
REMARK SMILES CCCCCCCC(=O)[O-]
REMARK SMILES IDX 5 1 6 2 7 3 8 4 9 5 10 6 4 7 3 8 2 9 1 10
REMARK H PARENT
REMARK Flexibility Score: inf
ROOT
ATOM      1  C   UNL     1     -29.881  -1.776  24.216  1.00  0.00     0.000 C 
ENDROOT
BRANCH   1   2
ATOM      2  C   UNL     1     -30.461  -1.890  22.794  1.00  0.00     0.006 C 
BRANCH   2   3
ATOM      3  C   UNL     1     -30.013  -0.749  21.873  1.00  0.00     0.053 C 
BRANCH   3   4
ATOM      4  C   UNL     1     -29.124  -1.271  20.789  1.00  0.00     0.041 C 
ATOM      5  O   UNL     1     -28.746  -0.511  19.858  1.00  0.00    -0.550 OA
ATOM      6  O   UNL     1     -28.670  -2.583  20.833  1.00  0.00    -0.550 OA
ENDBRANCH   3   4
ENDBRANCH   2   3
ENDBRANCH   1   2
BRANCH   1   7
ATOM      7  C   UNL     1     -28.415  -2.222  24.359  1.00  0.00     0.000 C 
BRANCH   7   8
ATOM      8  C   UNL     1     -27.479  -1.078  24.776  1.00  0.00    -0.000 C 
BRANCH   8   9
ATOM      9  C   UNL     1     -26.643  -0.592  23.586  1.00  0.00    -0.003 C 
ATOM     10  C   UNL     1     -26.908   0.882  23.292  1.00  0.00     0.004 C 
ENDBRANCH   8   9
ENDBRANCH   7   8
ENDBRANCH   1   7
TORSDOF 6
ENDMDL
MODEL 5
REMARK VINA RESULT:    -4.401      2.015      3.963
REMARK INTER + INTRA:          -6.525
REMARK INTER:                  -5.876
REMARK INTRA:                  -0.649
REMARK UNBOUND:                -0.581
REMARK SMILES CCCCCCCC(=O)[O-]
REMARK SMILES IDX 5 1 6 2 7 3 8 4 9 5 10 6 4 7 3 8 2 9 1 10
REMARK H PARENT
REMARK Flexibility Score: inf
ROOT
ATOM      1  C   UNL     1     -29.488  -1.553  23.812  1.00  0.00     0.000 C 
ENDROOT
BRANCH   1   2
ATOM      2  C   UNL     1     -30.339  -0.914  24.925  1.00  0.00     0.006 C 
BRANCH   2   3
ATOM      3  C   UNL     1     -29.987   0.558  25.176  1.00  0.00     0.053 C 
BRANCH   3   4
ATOM      4  C   UNL     1     -29.394   0.728  26.538  1.00  0.00     0.041 C 
ATOM      5  O   UNL     1     -28.175   0.477  26.735  1.00  0.00    -0.550 OA
ATOM      6  O   UNL     1     -30.174   1.211  27.581  1.00  0.00    -0.550 OA
ENDBRANCH   3   4
ENDBRANCH   2   3
ENDBRANCH   1   2
BRANCH   1   7
ATOM      7  C   UNL     1     -28.236  -2.303  24.302  1.00  0.00     0.000 C 
BRANCH   7   8
ATOM      8  C   UNL     1     -26.939  -1.508  24.085  1.00  0.00    -0.000 C 
BRANCH   8   9
ATOM      9  C   UNL     1     -27.117  -0.461  22.979  1.00  0.00    -0.003 C 
ATOM     10  C   UNL     1     -26.742   0.933  23.476  1.00  0.00     0.004 C 
ENDBRANCH   8   9
ENDBRANCH   7   8
ENDBRANCH   1   7
TORSDOF 6
ENDMDL
MODEL 6
REMARK VINA RESULT:    -4.398      1.872      2.923
REMARK INTER + INTRA:          -6.521
REMARK INTER:                  -5.872
REMARK INTRA:                  -0.649
REMARK UNBOUND:                -0.581
REMARK SMILES CCCCCCCC(=O)[O-]
REMARK SMILES IDX 5 1 6 2 7 3 8 4 9 5 10 6 4 7 3 8 2 9 1 10
REMARK H PARENT
REMARK Flexibility Score: inf
ROOT
ATOM      1  C   UNL     1     -28.612  -2.622  23.987  1.00  0.00     0.000 C 
ENDROOT
BRANCH   1   2
ATOM      2  C   UNL     1     -27.613  -1.563  24.491  1.00  0.00     0.006 C 
BRANCH   2   3
ATOM      3  C   UNL     1     -26.660  -1.071  23.396  1.00  0.00     0.053 C 
BRANCH   3   4
ATOM      4  C   UNL     1     -27.327  -0.033  22.550  1.00  0.00     0.041 C 
ATOM      5  O   UNL     1     -27.359   1.168  22.927  1.00  0.00    -0.550 OA
ATOM      6  O   UNL     1     -27.872  -0.383  21.321  1.00  0.00    -0.550 OA
ENDBRANCH   3   4
ENDBRANCH   2   3
ENDBRANCH   1   2
BRANCH   1   7
ATOM      7  C   UNL     1     -30.080  -2.163  23.947  1.00  0.00     0.000 C 
BRANCH   7   8
ATOM      8  C   UNL     1     -30.332  -0.888  24.766  1.00  0.00    -0.000 C 
BRANCH   8   9
ATOM      9  C   UNL     1     -30.846   0.246  23.870  1.00  0.00    -0.003 C 
ATOM     10  C   UNL     1     -31.324  -0.290  22.523  1.00  0.00     0.004 C 
ENDBRANCH   8   9
ENDBRANCH   7   8
ENDBRANCH   1   7
TORSDOF 6
ENDMDL
MODEL 7
REMARK VINA RESULT:    -4.393      1.739      3.535
REMARK INTER + INTRA:          -6.515
REMARK INTER:                  -5.922
REMARK INTRA:                  -0.594
REMARK UNBOUND:                -0.581
REMARK SMILES CCCCCCCC(=O)[O-]
REMARK SMILES IDX 5 1 6 2 7 3 8 4 9 5 10 6 4 7 3 8 2 9 1 10
REMARK H PARENT
REMARK Flexibility Score: inf
ROOT
ATOM      1  C   UNL     1     -29.101   1.160  22.569  1.00  0.00     0.000 C 
ENDROOT
BRANCH   1   2
ATOM      2  C   UNL     1     -30.362   0.606  23.259  1.00  0.00     0.006 C 
BRANCH   2   3
ATOM      3  C   UNL     1     -31.045  -0.505  22.453  1.00  0.00     0.053 C 
BRANCH   3   4
ATOM      4  C   UNL     1     -30.441  -1.834  22.779  1.00  0.00     0.041 C 
ATOM      5  O   UNL     1     -29.425  -2.240  22.154  1.00  0.00    -0.550 OA
ATOM      6  O   UNL     1     -30.969  -2.605  23.807  1.00  0.00    -0.550 OA
ENDBRANCH   3   4
ENDBRANCH   2   3
ENDBRANCH   1   2
BRANCH   1   7
ATOM      7  C   UNL     1     -27.773   0.801  23.258  1.00  0.00     0.000 C 
BRANCH   7   8
ATOM      8  C   UNL     1     -27.957   0.344  24.713  1.00  0.00    -0.000 C 
BRANCH   8   9
ATOM      9  C   UNL     1     -27.421  -1.080  24.912  1.00  0.00    -0.003 C 
ATOM     10  C   UNL     1     -26.355  -1.417  23.874  1.00  0.00     0.004 C 
ENDBRANCH   8   9
ENDBRANCH   7   8
ENDBRANCH   1   7
TORSDOF 6
ENDMDL
MODEL 8
REMARK VINA RESULT:    -4.358      2.539      4.015
REMARK INTER + INTRA:          -6.467
REMARK INTER:                  -5.801
REMARK INTRA:                  -0.666
REMARK UNBOUND:                -0.581
REMARK SMILES CCCCCCCC(=O)[O-]
REMARK SMILES IDX 5 1 6 2 7 3 8 4 9 5 10 6 4 7 3 8 2 9 1 10
REMARK H PARENT
REMARK Flexibility Score: inf
ROOT
ATOM      1  C   UNL     1     -28.241  -2.220  24.345  1.00  0.00     0.000 C 
ENDROOT
BRANCH   1   2
ATOM      2  C   UNL     1     -29.118  -2.109  23.083  1.00  0.00     0.006 C 
BRANCH   2   3
ATOM      3  C   UNL     1     -30.518  -1.556  23.375  1.00  0.00     0.053 C 
BRANCH   3   4
ATOM      4  C   UNL     1     -30.659  -0.172  22.825  1.00  0.00     0.041 C 
ATOM      5  O   UNL     1     -31.697   0.501  23.059  1.00  0.00    -0.550 OA
ATOM      6  O   UNL     1     -29.622   0.394  22.094  1.00  0.00    -0.550 OA
ENDBRANCH   3   4
ENDBRANCH   2   3
ENDBRANCH   1   2
BRANCH   1   7
ATOM      7  C   UNL     1     -27.063  -1.232  24.408  1.00  0.00     0.000 C 
BRANCH   7   8
ATOM      8  C   UNL     1     -27.465   0.144  24.962  1.00  0.00    -0.000 C 
BRANCH   8   9
ATOM      9  C   UNL     1     -28.268  -0.002  26.261  1.00  0.00    -0.003 C 
ATOM     10  C   UNL     1     -29.550   0.824  26.211  1.00  0.00     0.004 C 
ENDBRANCH   8   9
ENDBRANCH   7   8
ENDBRANCH   1   7
TORSDOF 6
ENDMDL
MODEL 9
REMARK VINA RESULT:    -4.348      1.731      2.413
REMARK INTER + INTRA:          -6.454
REMARK INTER:                  -5.785
REMARK INTRA:                  -0.668
REMARK UNBOUND:                -0.581
REMARK SMILES CCCCCCCC(=O)[O-]
REMARK SMILES IDX 5 1 6 2 7 3 8 4 9 5 10 6 4 7 3 8 2 9 1 10
REMARK H PARENT
REMARK Flexibility Score: inf
ROOT
ATOM      1  C   UNL     1     -29.718   1.035  23.222  1.00  0.00     0.000 C 
ENDROOT
BRANCH   1   2
ATOM      2  C   UNL     1     -28.824   0.275  22.225  1.00  0.00     0.006 C 
BRANCH   2   3
ATOM      3  C   UNL     1     -27.419  -0.002  22.772  1.00  0.00     0.053 C 
BRANCH   3   4
ATOM      4  C   UNL     1     -27.381  -1.327  23.466  1.00  0.00     0.041 C 
ATOM      5  O   UNL     1     -28.226  -2.217  23.181  1.00  0.00    -0.550 OA
ATOM      6  O   UNL     1     -26.383  -1.598  24.394  1.00  0.00    -0.550 OA
ENDBRANCH   3   4
ENDBRANCH   2   3
ENDBRANCH   1   2
BRANCH   1   7
ATOM      7  C   UNL     1     -30.841   0.197  23.858  1.00  0.00     0.000 C 
BRANCH   7   8
ATOM      8  C   UNL     1     -30.543  -0.198  25.313  1.00  0.00    -0.000 C 
BRANCH   8   9
ATOM      9  C   UNL     1     -29.459   0.705  25.915  1.00  0.00    -0.003 C 
ATOM     10  C   UNL     1     -28.588  -0.064  26.904  1.00  0.00     0.004 C 
ENDBRANCH   8   9
ENDBRANCH   7   8
ENDBRANCH   1   7
TORSDOF 6
ENDMDL
