MODEL 1
REMARK VINA RESULT:    -4.796      0.000      0.000
REMARK INTER + INTRA:         -10.060
REMARK INTER:                  -8.722
REMARK INTRA:                  -1.338
REMARK UNBOUND:                -1.338
REMARK SMILES CCCCCC=CCC=CCCCCCCCC(=O)[O-]
REMARK SMILES IDX 11 1 12 2 13 3 14 4 15 5 16 6 17 7 18 8 19 9 20 10 10 11
REMARK SMILES IDX 9 12 8 13 7 14 6 15 5 16 4 17 3 18 2 19 1 20
REMARK H PARENT
REMARK Flexibility Score: inf
ROOT
ATOM      1  C   UNL     1      -4.493  13.026 -16.501  1.00  0.00     0.027 C 
ENDROOT
BRANCH   1   2
ATOM      2  C   UNL     1      -4.809  11.973 -15.431  1.00  0.00     0.004 C 
BRANCH   2   3
ATOM      3  C   UNL     1      -3.784  10.829 -15.425  1.00  0.00     0.000 C 
BRANCH   3   4
ATOM      4  C   UNL     1      -3.177  10.639 -14.027  1.00  0.00     0.000 C 
BRANCH   4   5
ATOM      5  C   UNL     1      -3.711   9.372 -13.327  1.00  0.00     0.000 C 
BRANCH   5   6
ATOM      6  C   UNL     1      -4.998   8.814 -13.956  1.00  0.00     0.006 C 
BRANCH   6   7
ATOM      7  C   UNL     1      -5.276   7.359 -13.562  1.00  0.00     0.053 C 
BRANCH   7   8
ATOM      8  C   UNL     1      -6.648   6.953 -13.995  1.00  0.00     0.041 C 
ATOM      9  O   UNL     1      -7.541   7.823 -14.172  1.00  0.00    -0.550 OA
ATOM     10  O   UNL     1      -6.929   5.616 -14.250  1.00  0.00    -0.550 OA
ENDBRANCH   7   8
ENDBRANCH   6   7
ENDBRANCH   5   6
ENDBRANCH   4   5
ENDBRANCH   3   4
ENDBRANCH   2   3
ENDBRANCH   1   2
BRANCH   1  11
ATOM     11  C   UNL     1      -3.053  13.477 -16.422  1.00  0.00    -0.031 C 
ATOM     12  C   UNL     1      -2.188  13.480 -17.453  1.00  0.00    -0.027 C 
BRANCH  12  13
ATOM     13  C   UNL     1      -2.528  13.078 -18.865  1.00  0.00     0.054 C 
BRANCH  13  14
ATOM     14  C   UNL     1      -2.646  11.581 -19.015  1.00  0.00    -0.027 C 
ATOM     15  C   UNL     1      -3.736  10.937 -19.476  1.00  0.00    -0.031 C 
BRANCH  15  16
ATOM     16  C   UNL     1      -5.033  11.603 -19.858  1.00  0.00     0.027 C 
BRANCH  16  17
ATOM     17  C   UNL     1      -5.860  10.680 -20.764  1.00  0.00     0.004 C 
BRANCH  17  18
ATOM     18  C   UNL     1      -7.370  10.752 -20.473  1.00  0.00     0.000 C 
BRANCH  18  19
ATOM     19  C   UNL     1      -8.211   9.668 -21.168  1.00  0.00    -0.003 C 
ATOM     20  C   UNL     1      -8.636   8.545 -20.223  1.00  0.00     0.004 C 
ENDBRANCH  18  19
ENDBRANCH  17  18
ENDBRANCH  16  17
ENDBRANCH  15  16
ENDBRANCH  13  14
ENDBRANCH  12  13
ENDBRANCH   1  11
TORSDOF 14
ENDMDL
MODEL 2
REMARK VINA RESULT:    -4.491      2.499      6.118
REMARK INTER + INTRA:          -9.505
REMARK INTER:                  -8.079
REMARK INTRA:                  -1.426
REMARK UNBOUND:                -1.338
REMARK SMILES CCCCCC=CCC=CCCCCCCCC(=O)[O-]
REMARK SMILES IDX 11 1 12 2 13 3 14 4 15 5 16 6 17 7 18 8 19 9 20 10 10 11
REMARK SMILES IDX 9 12 8 13 7 14 6 15 5 16 4 17 3 18 2 19 1 20
REMARK H PARENT
REMARK Flexibility Score: inf
ROOT
ATOM      1  C   UNL     1      -3.979  11.909 -17.286  1.00  0.00     0.027 C 
ENDROOT
BRANCH   1   2
ATOM      2  C   UNL     1      -3.239  10.594 -17.569  1.00  0.00     0.004 C 
BRANCH   2   3
ATOM      3  C   UNL     1      -3.091  10.326 -19.074  1.00  0.00     0.000 C 
BRANCH   3   4
ATOM      4  C   UNL     1      -4.000  11.254 -19.893  1.00  0.00     0.000 C 
BRANCH   4   5
ATOM      5  C   UNL     1      -4.903  10.471 -20.869  1.00  0.00     0.000 C 
BRANCH   5   6
ATOM      6  C   UNL     1      -6.313  11.066 -21.017  1.00  0.00     0.006 C 
BRANCH   6   7
ATOM      7  C   UNL     1      -7.317  10.482 -20.017  1.00  0.00     0.053 C 
BRANCH   7   8
ATOM      8  C   UNL     1      -8.299   9.598 -20.716  1.00  0.00     0.041 C 
ATOM      9  O   UNL     1      -8.757   8.577 -20.138  1.00  0.00    -0.550 OA
ATOM     10  O   UNL     1      -8.747   9.928 -21.989  1.00  0.00    -0.550 OA
ENDBRANCH   7   8
ENDBRANCH   6   7
ENDBRANCH   5   6
ENDBRANCH   4   5
ENDBRANCH   3   4
ENDBRANCH   2   3
ENDBRANCH   1   2
BRANCH   1  11
ATOM     11  C   UNL     1      -3.023  12.998 -16.860  1.00  0.00    -0.031 C 
ATOM     12  C   UNL     1      -2.786  13.361 -15.586  1.00  0.00    -0.027 C 
BRANCH  12  13
ATOM     13  C   UNL     1      -3.402  12.708 -14.374  1.00  0.00     0.054 C 
BRANCH  13  14
ATOM     14  C   UNL     1      -2.627  11.490 -13.934  1.00  0.00    -0.027 C 
ATOM     15  C   UNL     1      -3.138  10.249 -13.828  1.00  0.00    -0.031 C 
BRANCH  15  16
ATOM     16  C   UNL     1      -4.581   9.888 -14.071  1.00  0.00     0.027 C 
BRANCH  16  17
ATOM     17  C   UNL     1      -4.812   8.395 -13.796  1.00  0.00     0.004 C 
BRANCH  17  18
ATOM     18  C   UNL     1      -6.284   7.977 -13.961  1.00  0.00     0.000 C 
BRANCH  18  19
ATOM     19  C   UNL     1      -6.611   6.561 -13.453  1.00  0.00    -0.003 C 
ATOM     20  C   UNL     1      -6.941   5.585 -14.581  1.00  0.00     0.004 C 
ENDBRANCH  18  19
ENDBRANCH  17  18
ENDBRANCH  16  17
ENDBRANCH  15  16
ENDBRANCH  13  14
ENDBRANCH  12  13
ENDBRANCH   1  11
TORSDOF 14
ENDMDL
MODEL 3
REMARK VINA RESULT:    -4.463      5.384      8.930
REMARK INTER + INTRA:          -9.454
REMARK INTER:                  -8.589
REMARK INTRA:                  -0.866
REMARK UNBOUND:                -1.338
REMARK SMILES CCCCCC=CCC=CCCCCCCCC(=O)[O-]
REMARK SMILES IDX 11 1 12 2 13 3 14 4 15 5 16 6 17 7 18 8 19 9 20 10 10 11
REMARK SMILES IDX 9 12 8 13 7 14 6 15 5 16 4 17 3 18 2 19 1 20
REMARK H PARENT
REMARK Flexibility Score: inf
ROOT
ATOM      1  C   UNL     1      -2.465  13.538 -18.984  1.00  0.00     0.027 C 
ENDROOT
BRANCH   1   2
ATOM      2  C   UNL     1      -1.516  14.139 -17.939  1.00  0.00     0.004 C 
BRANCH   2   3
ATOM      3  C   UNL     1      -1.018  15.534 -18.344  1.00  0.00     0.000 C 
BRANCH   3   4
ATOM      4  C   UNL     1       0.479  15.508 -18.685  1.00  0.00     0.000 C 
BRANCH   4   5
ATOM      5  C   UNL     1       1.107  16.918 -18.658  1.00  0.00     0.000 C 
BRANCH   5   6
ATOM      6  C   UNL     1       0.784  17.762 -19.901  1.00  0.00     0.006 C 
BRANCH   6   7
ATOM      7  C   UNL     1       0.692  19.262 -19.599  1.00  0.00     0.053 C 
BRANCH   7   8
ATOM      8  C   UNL     1      -0.156  19.501 -18.391  1.00  0.00     0.041 C 
ATOM      9  O   UNL     1       0.331  20.066 -17.376  1.00  0.00    -0.550 OA
ATOM     10  O   UNL     1      -1.498  19.142 -18.402  1.00  0.00    -0.550 OA
ENDBRANCH   7   8
ENDBRANCH   6   7
ENDBRANCH   5   6
ENDBRANCH   4   5
ENDBRANCH   3   4
ENDBRANCH   2   3
ENDBRANCH   1   2
BRANCH   1  11
ATOM     11  C   UNL     1      -2.676  12.060 -18.751  1.00  0.00    -0.031 C 
ATOM     12  C   UNL     1      -3.476  11.535 -17.804  1.00  0.00    -0.027 C 
BRANCH  12  13
ATOM     13  C   UNL     1      -4.328  12.336 -16.853  1.00  0.00     0.054 C 
BRANCH  13  14
ATOM     14  C   UNL     1      -3.650  12.537 -15.520  1.00  0.00    -0.027 C 
ATOM     15  C   UNL     1      -3.608  11.623 -14.532  1.00  0.00    -0.031 C 
BRANCH  15  16
ATOM     16  C   UNL     1      -4.284  10.276 -14.574  1.00  0.00     0.027 C 
BRANCH  16  17
ATOM     17  C   UNL     1      -3.769   9.384 -13.436  1.00  0.00     0.004 C 
BRANCH  17  18
ATOM     18  C   UNL     1      -4.455   8.007 -13.398  1.00  0.00     0.000 C 
BRANCH  18  19
ATOM     19  C   UNL     1      -5.875   7.979 -13.991  1.00  0.00    -0.003 C 
ATOM     20  C   UNL     1      -6.503   6.586 -13.971  1.00  0.00     0.004 C 
ENDBRANCH  18  19
ENDBRANCH  17  18
ENDBRANCH  16  17
ENDBRANCH  15  16
ENDBRANCH  13  14
ENDBRANCH  12  13
ENDBRANCH   1  11
TORSDOF 14
ENDMDL
MODEL 4
REMARK VINA RESULT:    -4.420      5.621      9.110
REMARK INTER + INTRA:          -9.376
REMARK INTER:                  -8.377
REMARK INTRA:                  -0.998
REMARK UNBOUND:                -1.338
REMARK SMILES CCCCCC=CCC=CCCCCCCCC(=O)[O-]
REMARK SMILES IDX 11 1 12 2 13 3 14 4 15 5 16 6 17 7 18 8 19 9 20 10 10 11
REMARK SMILES IDX 9 12 8 13 7 14 6 15 5 16 4 17 3 18 2 19 1 20
REMARK H PARENT
REMARK Flexibility Score: inf
ROOT
ATOM      1  C   UNL     1      -1.567  14.307 -17.914  1.00  0.00     0.027 C 
ENDROOT
BRANCH   1   2
ATOM      2  C   UNL     1      -0.886  15.633 -18.278  1.00  0.00     0.004 C 
BRANCH   2   3
ATOM      3  C   UNL     1       0.580  15.437 -18.690  1.00  0.00     0.000 C 
BRANCH   3   4
ATOM      4  C   UNL     1       1.326  16.779 -18.730  1.00  0.00     0.000 C 
BRANCH   4   5
ATOM      5  C   UNL     1       0.975  17.604 -19.986  1.00  0.00     0.000 C 
BRANCH   5   6
ATOM      6  C   UNL     1       0.900  19.118 -19.730  1.00  0.00     0.006 C 
BRANCH   6   7
ATOM      7  C   UNL     1      -0.520  19.601 -19.413  1.00  0.00     0.053 C 
BRANCH   7   8
ATOM      8  C   UNL     1      -0.676  19.839 -17.945  1.00  0.00     0.041 C 
ATOM      9  O   UNL     1      -1.820  19.819 -17.418  1.00  0.00    -0.550 OA
ATOM     10  O   UNL     1       0.445  20.038 -17.150  1.00  0.00    -0.550 OA
ENDBRANCH   7   8
ENDBRANCH   6   7
ENDBRANCH   5   6
ENDBRANCH   4   5
ENDBRANCH   3   4
ENDBRANCH   2   3
ENDBRANCH   1   2
BRANCH   1  11
ATOM     11  C   UNL     1      -2.137  13.626 -19.136  1.00  0.00    -0.031 C 
ATOM     12  C   UNL     1      -2.779  12.444 -19.132  1.00  0.00    -0.027 C 
BRANCH  12  13
ATOM     13  C   UNL     1      -3.077  11.628 -17.899  1.00  0.00     0.054 C 
BRANCH  13  14
ATOM     14  C   UNL     1      -4.310  12.119 -17.181  1.00  0.00    -0.027 C 
ATOM     15  C   UNL     1      -4.329  12.590 -15.919  1.00  0.00    -0.031 C 
BRANCH  15  16
ATOM     16  C   UNL     1      -3.136  12.644 -15.000  1.00  0.00     0.027 C 
BRANCH  16  17
ATOM     17  C   UNL     1      -3.150  11.449 -14.036  1.00  0.00     0.004 C 
BRANCH  17  18
ATOM     18  C   UNL     1      -3.908  10.234 -14.600  1.00  0.00     0.000 C 
BRANCH  18  19
ATOM     19  C   UNL     1      -4.259   9.156 -13.559  1.00  0.00    -0.003 C 
ATOM     20  C   UNL     1      -5.518   8.368 -13.918  1.00  0.00     0.004 C 
ENDBRANCH  18  19
ENDBRANCH  17  18
ENDBRANCH  16  17
ENDBRANCH  15  16
ENDBRANCH  13  14
ENDBRANCH  12  13
ENDBRANCH   1  11
TORSDOF 14
ENDMDL
MODEL 5
REMARK VINA RESULT:    -4.405      4.366      7.430
REMARK INTER + INTRA:          -9.349
REMARK INTER:                  -7.892
REMARK INTRA:                  -1.457
REMARK UNBOUND:                -1.338
REMARK SMILES CCCCCC=CCC=CCCCCCCCC(=O)[O-]
REMARK SMILES IDX 11 1 12 2 13 3 14 4 15 5 16 6 17 7 18 8 19 9 20 10 10 11
REMARK SMILES IDX 9 12 8 13 7 14 6 15 5 16 4 17 3 18 2 19 1 20
REMARK H PARENT
REMARK Flexibility Score: inf
ROOT
ATOM      1  C   UNL     1      -2.039  13.979 -16.231  1.00  0.00     0.027 C 
ENDROOT
BRANCH   1   2
ATOM      2  C   UNL     1      -3.013  12.951 -15.641  1.00  0.00     0.004 C 
BRANCH   2   3
ATOM      3  C   UNL     1      -3.837  12.245 -16.728  1.00  0.00     0.000 C 
BRANCH   3   4
ATOM      4  C   UNL     1      -3.507  10.747 -16.785  1.00  0.00     0.000 C 
BRANCH   4   5
ATOM      5  C   UNL     1      -2.753  10.365 -18.077  1.00  0.00     0.000 C 
BRANCH   5   6
ATOM      6  C   UNL     1      -3.154  11.209 -19.298  1.00  0.00     0.006 C 
BRANCH   6   7
ATOM      7  C   UNL     1      -4.143  10.489 -20.223  1.00  0.00     0.053 C 
BRANCH   7   8
ATOM      8  C   UNL     1      -5.475  11.169 -20.194  1.00  0.00     0.041 C 
ATOM      9  O   UNL     1      -5.651  12.189 -19.477  1.00  0.00    -0.550 OA
ATOM     10  O   UNL     1      -6.510  10.703 -20.995  1.00  0.00    -0.550 OA
ENDBRANCH   7   8
ENDBRANCH   6   7
ENDBRANCH   5   6
ENDBRANCH   4   5
ENDBRANCH   3   4
ENDBRANCH   2   3
ENDBRANCH   1   2
BRANCH   1  11
ATOM     11  C   UNL     1      -2.185  14.080 -17.731  1.00  0.00    -0.031 C 
ATOM     12  C   UNL     1      -1.398  14.817 -18.535  1.00  0.00    -0.027 C 
BRANCH  12  13
ATOM     13  C   UNL     1      -0.213  15.627 -18.075  1.00  0.00     0.054 C 
BRANCH  13  14
ATOM     14  C   UNL     1       0.990  15.423 -18.964  1.00  0.00    -0.027 C 
ATOM     15  C   UNL     1       1.815  16.404 -19.380  1.00  0.00    -0.031 C 
BRANCH  15  16
ATOM     16  C   UNL     1       1.633  17.869 -19.078  1.00  0.00     0.027 C 
BRANCH  16  17
ATOM     17  C   UNL     1       0.864  18.557 -20.214  1.00  0.00     0.004 C 
BRANCH  17  18
ATOM     18  C   UNL     1      -0.103  19.644 -19.710  1.00  0.00     0.000 C 
BRANCH  18  19
ATOM     19  C   UNL     1      -0.197  19.761 -18.179  1.00  0.00    -0.003 C 
ATOM     20  C   UNL     1      -1.614  19.541 -17.650  1.00  0.00     0.004 C 
ENDBRANCH  18  19
ENDBRANCH  17  18
ENDBRANCH  16  17
ENDBRANCH  15  16
ENDBRANCH  13  14
ENDBRANCH  12  13
ENDBRANCH   1  11
TORSDOF 14
ENDMDL
MODEL 6
REMARK VINA RESULT:    -4.371      5.442      8.353
REMARK INTER + INTRA:          -9.286
REMARK INTER:                  -8.025
REMARK INTRA:                  -1.261
REMARK UNBOUND:                -1.338
REMARK SMILES CCCCCC=CCC=CCCCCCCCC(=O)[O-]
REMARK SMILES IDX 11 1 12 2 13 3 14 4 15 5 16 6 17 7 18 8 19 9 20 10 10 11
REMARK SMILES IDX 9 12 8 13 7 14 6 15 5 16 4 17 3 18 2 19 1 20
REMARK H PARENT
REMARK Flexibility Score: inf
ROOT
ATOM      1  C   UNL     1      -2.627  13.694 -17.263  1.00  0.00     0.027 C 
ENDROOT
BRANCH   1   2
ATOM      2  C   UNL     1      -1.711  14.163 -18.401  1.00  0.00     0.004 C 
BRANCH   2   3
ATOM      3  C   UNL     1      -1.242  15.612 -18.207  1.00  0.00     0.000 C 
BRANCH   3   4
ATOM      4  C   UNL     1       0.214  15.786 -18.662  1.00  0.00     0.000 C 
BRANCH   4   5
ATOM      5  C   UNL     1       0.595  17.272 -18.841  1.00  0.00     0.000 C 
BRANCH   5   6
ATOM      6  C   UNL     1      -0.611  18.192 -19.090  1.00  0.00     0.006 C 
BRANCH   6   7
ATOM      7  C   UNL     1      -0.301  19.669 -18.823  1.00  0.00     0.053 C 
BRANCH   7   8
ATOM      8  C   UNL     1      -0.441  19.979 -17.366  1.00  0.00     0.041 C 
ATOM      9  O   UNL     1      -1.583  20.065 -16.843  1.00  0.00    -0.550 OA
ATOM     10  O   UNL     1       0.692  20.125 -16.575  1.00  0.00    -0.550 OA
ENDBRANCH   7   8
ENDBRANCH   6   7
ENDBRANCH   5   6
ENDBRANCH   4   5
ENDBRANCH   3   4
ENDBRANCH   2   3
ENDBRANCH   1   2
BRANCH   1  11
ATOM     11  C   UNL     1      -1.902  13.691 -15.938  1.00  0.00    -0.031 C 
ATOM     12  C   UNL     1      -2.414  13.238 -14.779  1.00  0.00    -0.027 C 
BRANCH  12  13
ATOM     13  C   UNL     1      -3.778  12.614 -14.625  1.00  0.00     0.054 C 
BRANCH  13  14
ATOM     14  C   UNL     1      -3.715  11.106 -14.633  1.00  0.00    -0.027 C 
ATOM     15  C   UNL     1      -3.831  10.337 -15.732  1.00  0.00    -0.031 C 
BRANCH  15  16
ATOM     16  C   UNL     1      -4.107  10.854 -17.121  1.00  0.00     0.027 C 
BRANCH  16  17
ATOM     17  C   UNL     1      -3.005  10.399 -18.088  1.00  0.00     0.004 C 
BRANCH  17  18
ATOM     18  C   UNL     1      -3.457  10.414 -19.559  1.00  0.00     0.000 C 
BRANCH  18  19
ATOM     19  C   UNL     1      -4.599  11.396 -19.871  1.00  0.00    -0.003 C 
ATOM     20  C   UNL     1      -5.662  10.800 -20.794  1.00  0.00     0.004 C 
ENDBRANCH  18  19
ENDBRANCH  17  18
ENDBRANCH  16  17
ENDBRANCH  15  16
ENDBRANCH  13  14
ENDBRANCH  12  13
ENDBRANCH   1  11
TORSDOF 14
ENDMDL
MODEL 7
REMARK VINA RESULT:    -4.344      4.083      6.952
REMARK INTER + INTRA:          -9.237
REMARK INTER:                  -7.976
REMARK INTRA:                  -1.260
REMARK UNBOUND:                -1.338
REMARK SMILES CCCCCC=CCC=CCCCCCCCC(=O)[O-]
REMARK SMILES IDX 11 1 12 2 13 3 14 4 15 5 16 6 17 7 18 8 19 9 20 10 10 11
REMARK SMILES IDX 9 12 8 13 7 14 6 15 5 16 4 17 3 18 2 19 1 20
REMARK H PARENT
REMARK Flexibility Score: inf
ROOT
ATOM      1  C   UNL     1      -1.892  13.373 -19.244  1.00  0.00     0.027 C 
ENDROOT
BRANCH   1   2
ATOM      2  C   UNL     1      -3.128  12.510 -18.958  1.00  0.00     0.004 C 
BRANCH   2   3
ATOM      3  C   UNL     1      -2.784  11.016 -18.874  1.00  0.00     0.000 C 
BRANCH   3   4
ATOM      4  C   UNL     1      -3.179  10.435 -17.509  1.00  0.00     0.000 C 
BRANCH   4   5
ATOM      5  C   UNL     1      -3.603  11.531 -16.509  1.00  0.00     0.000 C 
BRANCH   5   6
ATOM      6  C   UNL     1      -3.347  11.160 -15.039  1.00  0.00     0.006 C 
BRANCH   6   7
ATOM      7  C   UNL     1      -4.615  10.707 -14.307  1.00  0.00     0.053 C 
BRANCH   7   8
ATOM      8  C   UNL     1      -4.479   9.289 -13.853  1.00  0.00     0.041 C 
ATOM      9  O   UNL     1      -3.489   8.938 -13.157  1.00  0.00    -0.550 OA
ATOM     10  O   UNL     1      -5.468   8.363 -14.160  1.00  0.00    -0.550 OA
ENDBRANCH   7   8
ENDBRANCH   6   7
ENDBRANCH   5   6
ENDBRANCH   4   5
ENDBRANCH   3   4
ENDBRANCH   2   3
ENDBRANCH   1   2
BRANCH   1  11
ATOM     11  C   UNL     1      -1.748  14.482 -18.229  1.00  0.00    -0.031 C 
ATOM     12  C   UNL     1      -0.681  15.295 -18.121  1.00  0.00    -0.027 C 
BRANCH  12  13
ATOM     13  C   UNL     1       0.523  15.262 -19.027  1.00  0.00     0.054 C 
BRANCH  13  14
ATOM     14  C   UNL     1       1.632  16.155 -18.525  1.00  0.00    -0.027 C 
ATOM     15  C   UNL     1       1.879  17.402 -18.972  1.00  0.00    -0.031 C 
BRANCH  15  16
ATOM     16  C   UNL     1       1.128  18.081 -20.089  1.00  0.00     0.027 C 
BRANCH  16  17
ATOM     17  C   UNL     1       0.982  19.581 -19.798  1.00  0.00     0.004 C 
BRANCH  17  18
ATOM     18  C   UNL     1      -0.480  20.009 -19.578  1.00  0.00     0.000 C 
BRANCH  18  19
ATOM     19  C   UNL     1      -1.148  19.397 -18.334  1.00  0.00    -0.003 C 
ATOM     20  C   UNL     1      -0.474  19.817 -17.028  1.00  0.00     0.004 C 
ENDBRANCH  18  19
ENDBRANCH  17  18
ENDBRANCH  16  17
ENDBRANCH  15  16
ENDBRANCH  13  14
ENDBRANCH  12  13
ENDBRANCH   1  11
TORSDOF 14
ENDMDL
MODEL 8
REMARK VINA RESULT:    -4.196      3.067      6.111
REMARK INTER + INTRA:          -8.968
REMARK INTER:                  -7.892
REMARK INTRA:                  -1.075
REMARK UNBOUND:                -1.338
REMARK SMILES CCCCCC=CCC=CCCCCCCCC(=O)[O-]
REMARK SMILES IDX 11 1 12 2 13 3 14 4 15 5 16 6 17 7 18 8 19 9 20 10 10 11
REMARK SMILES IDX 9 12 8 13 7 14 6 15 5 16 4 17 3 18 2 19 1 20
REMARK H PARENT
REMARK Flexibility Score: inf
ROOT
ATOM      1  C   UNL     1      -2.811  10.558 -18.773  1.00  0.00     0.027 C 
ENDROOT
BRANCH   1   2
ATOM      2  C   UNL     1      -3.078  10.401 -17.270  1.00  0.00     0.004 C 
BRANCH   2   3
ATOM      3  C   UNL     1      -4.094  11.429 -16.752  1.00  0.00     0.000 C 
BRANCH   3   4
ATOM      4  C   UNL     1      -3.431  12.424 -15.789  1.00  0.00     0.000 C 
BRANCH   4   5
ATOM      5  C   UNL     1      -3.401  11.899 -14.338  1.00  0.00     0.000 C 
BRANCH   5   6
ATOM      6  C   UNL     1      -4.248  10.635 -14.121  1.00  0.00     0.006 C 
BRANCH   6   7
ATOM      7  C   UNL     1      -3.496   9.533 -13.366  1.00  0.00     0.053 C 
BRANCH   7   8
ATOM      8  C   UNL     1      -4.208   8.225 -13.504  1.00  0.00     0.041 C 
ATOM      9  O   UNL     1      -3.645   7.156 -13.146  1.00  0.00    -0.550 OA
ATOM     10  O   UNL     1      -5.511   8.190 -13.983  1.00  0.00    -0.550 OA
ENDBRANCH   7   8
ENDBRANCH   6   7
ENDBRANCH   5   6
ENDBRANCH   4   5
ENDBRANCH   3   4
ENDBRANCH   2   3
ENDBRANCH   1   2
BRANCH   1  11
ATOM     11  C   UNL     1      -3.583  11.721 -19.351  1.00  0.00    -0.031 C 
ATOM     12  C   UNL     1      -3.118  12.979 -19.458  1.00  0.00    -0.027 C 
BRANCH  12  13
ATOM     13  C   UNL     1      -1.733  13.423 -19.061  1.00  0.00     0.054 C 
BRANCH  13  14
ATOM     14  C   UNL     1      -1.758  14.699 -18.255  1.00  0.00    -0.027 C 
ATOM     15  C   UNL     1      -0.732  15.566 -18.154  1.00  0.00    -0.031 C 
BRANCH  15  16
ATOM     16  C   UNL     1       0.626  15.370 -18.777  1.00  0.00     0.027 C 
BRANCH  16  17
ATOM     17  C   UNL     1       1.289  16.727 -19.052  1.00  0.00     0.004 C 
BRANCH  17  18
ATOM     18  C   UNL     1       0.283  17.805 -19.495  1.00  0.00     0.000 C 
BRANCH  18  19
ATOM     19  C   UNL     1       0.390  19.136 -18.730  1.00  0.00    -0.003 C 
ATOM     20  C   UNL     1      -0.814  19.403 -17.827  1.00  0.00     0.004 C 
ENDBRANCH  18  19
ENDBRANCH  17  18
ENDBRANCH  16  17
ENDBRANCH  15  16
ENDBRANCH  13  14
ENDBRANCH  12  13
ENDBRANCH   1  11
TORSDOF 14
ENDMDL
MODEL 9
REMARK VINA RESULT:    -3.999      5.818      9.197
REMARK INTER + INTRA:          -8.610
REMARK INTER:                  -7.026
REMARK INTRA:                  -1.585
REMARK UNBOUND:                -1.338
REMARK SMILES CCCCCC=CCC=CCCCCCCCC(=O)[O-]
REMARK SMILES IDX 11 1 12 2 13 3 14 4 15 5 16 6 17 7 18 8 19 9 20 10 10 11
REMARK SMILES IDX 9 12 8 13 7 14 6 15 5 16 4 17 3 18 2 19 1 20
REMARK H PARENT
REMARK Flexibility Score: inf
ROOT
ATOM      1  C   UNL     1      -0.325  15.800 -18.813  1.00  0.00     0.027 C 
ENDROOT
BRANCH   1   2
ATOM      2  C   UNL     1       1.153  15.589 -18.458  1.00  0.00     0.004 C 
BRANCH   2   3
ATOM      3  C   UNL     1       2.093  16.202 -19.506  1.00  0.00     0.000 C 
BRANCH   3   4
ATOM      4  C   UNL     1       1.345  17.196 -20.406  1.00  0.00     0.000 C 
BRANCH   4   5
ATOM      5  C   UNL     1       1.765  18.656 -20.137  1.00  0.00     0.000 C 
BRANCH   5   6
ATOM      6  C   UNL     1       0.587  19.587 -19.805  1.00  0.00     0.006 C 
BRANCH   6   7
ATOM      7  C   UNL     1       0.593  20.061 -18.347  1.00  0.00     0.053 C 
BRANCH   7   8
ATOM      8  C   UNL     1      -0.691  19.695 -17.673  1.00  0.00     0.041 C 
ATOM      9  O   UNL     1      -1.584  19.072 -18.306  1.00  0.00    -0.550 OA
ATOM     10  O   UNL     1      -0.883  20.000 -16.331  1.00  0.00    -0.550 OA
ENDBRANCH   7   8
ENDBRANCH   6   7
ENDBRANCH   5   6
ENDBRANCH   4   5
ENDBRANCH   3   4
ENDBRANCH   2   3
ENDBRANCH   1   2
BRANCH   1  11
ATOM     11  C   UNL     1      -1.234  15.202 -17.766  1.00  0.00    -0.031 C 
ATOM     12  C   UNL     1      -1.988  14.100 -17.936  1.00  0.00    -0.027 C 
BRANCH  12  13
ATOM     13  C   UNL     1      -2.012  13.256 -19.185  1.00  0.00     0.054 C 
BRANCH  13  14
ATOM     14  C   UNL     1      -3.376  12.664 -19.441  1.00  0.00    -0.027 C 
ATOM     15  C   UNL     1      -3.820  11.500 -18.928  1.00  0.00    -0.031 C 
BRANCH  15  16
ATOM     16  C   UNL     1      -3.002  10.571 -18.067  1.00  0.00     0.027 C 
BRANCH  16  17
ATOM     17  C   UNL     1      -3.519  10.590 -16.622  1.00  0.00     0.004 C 
BRANCH  17  18
ATOM     18  C   UNL     1      -4.364  11.836 -16.304  1.00  0.00     0.000 C 
BRANCH  18  19
ATOM     19  C   UNL     1      -4.154  12.413 -14.893  1.00  0.00    -0.003 C 
ATOM     20  C   UNL     1      -2.704  12.815 -14.624  1.00  0.00     0.004 C 
ENDBRANCH  18  19
ENDBRANCH  17  18
ENDBRANCH  16  17
ENDBRANCH  15  16
ENDBRANCH  13  14
ENDBRANCH  12  13
ENDBRANCH   1  11
TORSDOF 14
ENDMDL
