MODEL 1
REMARK VINA RESULT:    -3.437      0.000      0.000
REMARK INTER + INTRA:          -4.413
REMARK INTER:                  -4.241
REMARK INTRA:                  -0.172
REMARK UNBOUND:                -0.172
REMARK SMILES CCCCCC(=O)[O-]
REMARK SMILES IDX 4 1 5 2 6 3 7 4 8 5 3 6 2 7 1 8
REMARK H PARENT
REMARK Flexibility Score: inf
ROOT
ATOM      1  C   UNL     1     -15.181  10.280  30.590  1.00  0.00     0.006 C 
ENDROOT
BRANCH   1   2
ATOM      2  C   UNL     1     -14.742  11.515  29.797  1.00  0.00     0.053 C 
BRANCH   2   3
ATOM      3  C   UNL     1     -13.828  11.122  28.679  1.00  0.00     0.041 C 
ATOM      4  O   UNL     1     -13.509   9.916  28.517  1.00  0.00    -0.550 OA
ATOM      5  O   UNL     1     -13.368  12.083  27.788  1.00  0.00    -0.550 OA
ENDBRANCH   2   3
ENDBRANCH   1   2
BRANCH   1   6
ATOM      6  C   UNL     1     -14.955  10.481  32.092  1.00  0.00     0.000 C 
BRANCH   6   7
ATOM      7  C   UNL     1     -14.282   9.253  32.716  1.00  0.00    -0.003 C 
ATOM      8  C   UNL     1     -14.077   8.151  31.682  1.00  0.00     0.004 C 
ENDBRANCH   6   7
ENDBRANCH   1   6
TORSDOF 4
ENDMDL
MODEL 2
REMARK VINA RESULT:    -3.353      2.483      4.203
REMARK INTER + INTRA:          -4.310
REMARK INTER:                  -4.191
REMARK INTRA:                  -0.119
REMARK UNBOUND:                -0.172
REMARK SMILES CCCCCC(=O)[O-]
REMARK SMILES IDX 4 1 5 2 6 3 7 4 8 5 3 6 2 7 1 8
REMARK H PARENT
REMARK Flexibility Score: inf
ROOT
ATOM      1  C   UNL     1     -15.252  10.360  30.321  1.00  0.00     0.006 C 
ENDROOT
BRANCH   1   2
ATOM      2  C   UNL     1     -15.042  10.459  31.836  1.00  0.00     0.053 C 
BRANCH   2   3
ATOM      3  C   UNL     1     -14.341   9.240  32.348  1.00  0.00     0.041 C 
ATOM      4  O   UNL     1     -14.080   8.286  31.570  1.00  0.00    -0.550 OA
ATOM      5  O   UNL     1     -13.934   9.178  33.674  1.00  0.00    -0.550 OA
ENDBRANCH   2   3
ENDBRANCH   1   2
BRANCH   1   6
ATOM      6  C   UNL     1     -14.703  11.601  29.608  1.00  0.00     0.000 C 
BRANCH   6   7
ATOM      7  C   UNL     1     -15.737  12.176  28.632  1.00  0.00    -0.003 C 
ATOM      8  C   UNL     1     -16.998  11.319  28.596  1.00  0.00     0.004 C 
ENDBRANCH   6   7
ENDBRANCH   1   6
TORSDOF 4
ENDMDL
MODEL 3
REMARK VINA RESULT:    -3.349      2.390      3.947
REMARK INTER + INTRA:          -4.305
REMARK INTER:                  -4.127
REMARK INTRA:                  -0.178
REMARK UNBOUND:                -0.172
REMARK SMILES CCCCCC(=O)[O-]
REMARK SMILES IDX 4 1 5 2 6 3 7 4 8 5 3 6 2 7 1 8
REMARK H PARENT
REMARK Flexibility Score: inf
ROOT
ATOM      1  C   UNL     1     -15.253  10.361  30.505  1.00  0.00     0.006 C 
ENDROOT
BRANCH   1   2
ATOM      2  C   UNL     1     -15.011  10.456  32.014  1.00  0.00     0.053 C 
BRANCH   2   3
ATOM      3  C   UNL     1     -14.334   9.218  32.515  1.00  0.00     0.041 C 
ATOM      4  O   UNL     1     -14.063   8.280  31.721  1.00  0.00    -0.550 OA
ATOM      5  O   UNL     1     -13.959   9.122  33.849  1.00  0.00    -0.550 OA
ENDBRANCH   2   3
ENDBRANCH   1   2
BRANCH   1   6
ATOM      6  C   UNL     1     -14.710  11.599  29.782  1.00  0.00     0.000 C 
BRANCH   6   7
ATOM      7  C   UNL     1     -13.930  11.203  28.522  1.00  0.00    -0.003 C 
ATOM      8  C   UNL     1     -13.617   9.710  28.514  1.00  0.00     0.004 C 
ENDBRANCH   6   7
ENDBRANCH   1   6
TORSDOF 4
ENDMDL
MODEL 4
REMARK VINA RESULT:    -3.334      1.253      1.390
REMARK INTER + INTRA:          -4.285
REMARK INTER:                  -4.179
REMARK INTRA:                  -0.106
REMARK UNBOUND:                -0.172
REMARK SMILES CCCCCC(=O)[O-]
REMARK SMILES IDX 4 1 5 2 6 3 7 4 8 5 3 6 2 7 1 8
REMARK H PARENT
REMARK Flexibility Score: inf
ROOT
ATOM      1  C   UNL     1     -15.006   9.968  30.790  1.00  0.00     0.006 C 
ENDROOT
BRANCH   1   2
ATOM      2  C   UNL     1     -14.843  11.325  30.097  1.00  0.00     0.053 C 
BRANCH   2   3
ATOM      3  C   UNL     1     -14.014  11.184  28.859  1.00  0.00     0.041 C 
ATOM      4  O   UNL     1     -13.570  10.057  28.520  1.00  0.00    -0.550 OA
ATOM      5  O   UNL     1     -13.773  12.290  28.055  1.00  0.00    -0.550 OA
ENDBRANCH   2   3
ENDBRANCH   1   2
BRANCH   1   6
ATOM      6  C   UNL     1     -15.269  10.145  32.290  1.00  0.00     0.000 C 
BRANCH   6   7
ATOM      7  C   UNL     1     -16.538   9.399  32.718  1.00  0.00    -0.003 C 
ATOM      8  C   UNL     1     -17.113   8.581  31.565  1.00  0.00     0.004 C 
ENDBRANCH   6   7
ENDBRANCH   1   6
TORSDOF 4
ENDMDL
MODEL 5
REMARK VINA RESULT:    -3.324     17.418     18.727
REMARK INTER + INTRA:          -4.274
REMARK INTER:                  -4.176
REMARK INTRA:                  -0.098
REMARK UNBOUND:                -0.172
REMARK SMILES CCCCCC(=O)[O-]
REMARK SMILES IDX 4 1 5 2 6 3 7 4 8 5 3 6 2 7 1 8
REMARK H PARENT
REMARK Flexibility Score: inf
ROOT
ATOM      1  C   UNL     1     -21.978  -5.491  24.503  1.00  0.00     0.006 C 
ENDROOT
BRANCH   1   2
ATOM      2  C   UNL     1     -22.266  -6.615  25.503  1.00  0.00     0.053 C 
BRANCH   2   3
ATOM      3  C   UNL     1     -23.001  -6.083  26.693  1.00  0.00     0.041 C 
ATOM      4  O   UNL     1     -24.098  -5.483  26.542  1.00  0.00    -0.550 OA
ATOM      5  O   UNL     1     -22.499  -6.290  27.971  1.00  0.00    -0.550 OA
ENDBRANCH   2   3
ENDBRANCH   1   2
BRANCH   1   6
ATOM      6  C   UNL     1     -20.778  -5.839  23.615  1.00  0.00     0.000 C 
BRANCH   6   7
ATOM      7  C   UNL     1     -19.906  -4.604  23.361  1.00  0.00    -0.003 C 
ATOM      8  C   UNL     1     -20.306  -3.449  24.273  1.00  0.00     0.004 C 
ENDBRANCH   6   7
ENDBRANCH   1   6
TORSDOF 4
ENDMDL
MODEL 6
REMARK VINA RESULT:    -3.319      2.181      3.014
REMARK INTER + INTRA:          -4.267
REMARK INTER:                  -4.021
REMARK INTRA:                  -0.246
REMARK UNBOUND:                -0.172
REMARK SMILES CCCCCC(=O)[O-]
REMARK SMILES IDX 4 1 5 2 6 3 7 4 8 5 3 6 2 7 1 8
REMARK H PARENT
REMARK Flexibility Score: inf
ROOT
ATOM      1  C   UNL     1     -15.382   9.179  32.509  1.00  0.00     0.006 C 
ENDROOT
BRANCH   1   2
ATOM      2  C   UNL     1     -14.932  10.572  32.059  1.00  0.00     0.053 C 
BRANCH   2   3
ATOM      3  C   UNL     1     -14.727  10.604  30.577  1.00  0.00     0.041 C 
ATOM      4  O   UNL     1     -14.818  11.690  29.949  1.00  0.00    -0.550 OA
ATOM      5  O   UNL     1     -14.387   9.441  29.898  1.00  0.00    -0.550 OA
ENDBRANCH   2   3
ENDBRANCH   1   2
BRANCH   1   6
ATOM      6  C   UNL     1     -16.910   9.060  32.485  1.00  0.00     0.000 C 
BRANCH   6   7
ATOM      7  C   UNL     1     -17.372   8.137  31.351  1.00  0.00    -0.003 C 
ATOM      8  C   UNL     1     -18.135   8.914  30.283  1.00  0.00     0.004 C 
ENDBRANCH   6   7
ENDBRANCH   1   6
TORSDOF 4
ENDMDL
MODEL 7
REMARK VINA RESULT:    -3.282     17.978     19.111
REMARK INTER + INTRA:          -4.222
REMARK INTER:                  -4.010
REMARK INTRA:                  -0.212
REMARK UNBOUND:                -0.172
REMARK SMILES CCCCCC(=O)[O-]
REMARK SMILES IDX 4 1 5 2 6 3 7 4 8 5 3 6 2 7 1 8
REMARK H PARENT
REMARK Flexibility Score: inf
ROOT
ATOM      1  C   UNL     1     -14.825  -6.419  21.403  1.00  0.00     0.006 C 
ENDROOT
BRANCH   1   2
ATOM      2  C   UNL     1     -15.402  -7.083  20.149  1.00  0.00     0.053 C 
BRANCH   2   3
ATOM      3  C   UNL     1     -15.190  -6.212  18.950  1.00  0.00     0.041 C 
ATOM      4  O   UNL     1     -15.375  -4.970  19.031  1.00  0.00    -0.550 OA
ATOM      5  O   UNL     1     -14.743  -6.766  17.758  1.00  0.00    -0.550 OA
ENDBRANCH   2   3
ENDBRANCH   1   2
BRANCH   1   6
ATOM      6  C   UNL     1     -15.860  -6.384  22.533  1.00  0.00     0.000 C 
BRANCH   6   7
ATOM      7  C   UNL     1     -17.020  -5.443  22.187  1.00  0.00    -0.003 C 
ATOM      8  C   UNL     1     -16.667  -3.993  22.506  1.00  0.00     0.004 C 
ENDBRANCH   6   7
ENDBRANCH   1   6
TORSDOF 4
ENDMDL
MODEL 8
REMARK VINA RESULT:    -3.273     17.446     18.523
REMARK INTER + INTRA:          -4.210
REMARK INTER:                  -3.951
REMARK INTRA:                  -0.259
REMARK UNBOUND:                -0.172
REMARK SMILES CCCCCC(=O)[O-]
REMARK SMILES IDX 4 1 5 2 6 3 7 4 8 5 3 6 2 7 1 8
REMARK H PARENT
REMARK Flexibility Score: inf
ROOT
ATOM      1  C   UNL     1     -16.207  -6.091  22.400  1.00  0.00     0.006 C 
ENDROOT
BRANCH   1   2
ATOM      2  C   UNL     1     -15.146  -6.204  21.301  1.00  0.00     0.053 C 
BRANCH   2   3
ATOM      3  C   UNL     1     -15.703  -5.754  19.987  1.00  0.00     0.041 C 
ATOM      4  O   UNL     1     -16.630  -6.403  19.436  1.00  0.00    -0.550 OA
ATOM      5  O   UNL     1     -15.232  -4.589  19.395  1.00  0.00    -0.550 OA
ENDBRANCH   2   3
ENDBRANCH   1   2
BRANCH   1   6
ATOM      6  C   UNL     1     -16.726  -4.654  22.519  1.00  0.00     0.000 C 
BRANCH   6   7
ATOM      7  C   UNL     1     -18.259  -4.623  22.548  1.00  0.00    -0.003 C 
ATOM      8  C   UNL     1     -18.845  -5.989  22.203  1.00  0.00     0.004 C 
ENDBRANCH   6   7
ENDBRANCH   1   6
TORSDOF 4
ENDMDL
MODEL 9
REMARK VINA RESULT:    -3.192      1.747      2.576
REMARK INTER + INTRA:          -4.110
REMARK INTER:                  -3.874
REMARK INTRA:                  -0.236
REMARK UNBOUND:                -0.172
REMARK SMILES CCCCCC(=O)[O-]
REMARK SMILES IDX 4 1 5 2 6 3 7 4 8 5 3 6 2 7 1 8
REMARK H PARENT
REMARK Flexibility Score: inf
ROOT
ATOM      1  C   UNL     1     -14.649   7.728  31.452  1.00  0.00     0.006 C 
ENDROOT
BRANCH   1   2
ATOM      2  C   UNL     1     -13.956   7.781  30.087  1.00  0.00     0.053 C 
BRANCH   2   3
ATOM      3  C   UNL     1     -14.490   8.916  29.271  1.00  0.00     0.041 C 
ATOM      4  O   UNL     1     -15.730   9.038  29.093  1.00  0.00    -0.550 OA
ATOM      5  O   UNL     1     -13.622   9.865  28.747  1.00  0.00    -0.550 OA
ENDBRANCH   2   3
ENDBRANCH   1   2
BRANCH   1   6
ATOM      6  C   UNL     1     -14.135   8.840  32.373  1.00  0.00     0.000 C 
BRANCH   6   7
ATOM      7  C   UNL     1     -15.228   9.881  32.642  1.00  0.00    -0.003 C 
ATOM      8  C   UNL     1     -16.610   9.237  32.664  1.00  0.00     0.004 C 
ENDBRANCH   6   7
ENDBRANCH   1   6
TORSDOF 4
ENDMDL
