MODEL 1
REMARK VINA RESULT:    -7.336      0.000      0.000
REMARK INTER + INTRA:          -9.421
REMARK INTER:                  -9.052
REMARK INTRA:                  -0.369
REMARK UNBOUND:                -0.369
REMARK SMILES O=c1c(O)c(-c2cc(O)c(O)c(O)c2)oc2cc(O)cc(O)c12
REMARK SMILES IDX 5 1 3 2 2 3 1 4 23 5 21 6 20 7 18 8 17 9 16 10 15 11 6 12
REMARK SMILES IDX 7 13 8 14 14 15 10 16 12 17 9 18 11 20 13 22 4 24 22 26
REMARK SMILES IDX 19 28
REMARK H PARENT 9 19 11 21 13 23 4 25 22 27 19 29
REMARK Flexibility Score: inf
ROOT
ATOM      1  C   UNL     1      -0.764  -1.289  -3.750  1.00  0.00     0.180 A 
ATOM      2  C   UNL     1      -1.473  -0.266  -3.099  1.00  0.00     0.208 A 
ATOM      3  C   UNL     1      -2.552  -0.607  -2.268  1.00  0.00     0.238 A 
ATOM      4  O   UNL     1      -3.150   0.309  -1.645  1.00  0.00    -0.285 OA
ATOM      5  C   UNL     1      -2.918  -1.966  -2.111  1.00  0.00     0.111 A 
ATOM      6  C   UNL     1      -4.018  -2.424  -1.326  1.00  0.00     0.134 A 
ATOM      7  C   UNL     1      -4.208  -3.799  -1.138  1.00  0.00     0.093 A 
ATOM      8  C   UNL     1      -3.375  -4.732  -1.759  1.00  0.00     0.123 A 
ATOM      9  C   UNL     1      -2.335  -4.295  -2.576  1.00  0.00     0.094 A 
ATOM     10  C   UNL     1      -2.098  -2.930  -2.754  1.00  0.00     0.146 A 
ATOM     11  O   UNL     1      -1.089  -2.557  -3.531  1.00  0.00    -0.452 OA
ENDROOT
BRANCH   1  12
ATOM     12  C   UNL     1       0.370  -1.005  -4.661  1.00  0.00     0.029 A 
ATOM     13  C   UNL     1       1.678  -1.021  -4.160  1.00  0.00     0.062 A 
ATOM     14  C   UNL     1       2.775  -0.778  -4.996  1.00  0.00     0.162 A 
ATOM     15  C   UNL     1       0.167  -0.780  -6.031  1.00  0.00     0.062 A 
ATOM     16  C   UNL     1       2.561  -0.527  -6.373  1.00  0.00     0.200 A 
ATOM     17  C   UNL     1       1.249  -0.537  -6.880  1.00  0.00     0.162 A 
BRANCH  14  18
ATOM     18  O   UNL     1       4.047  -0.797  -4.420  1.00  0.00    -0.504 OA
ATOM     19  H   UNL     1       4.704  -1.556  -4.523  1.00  0.00     0.293 HD
ENDBRANCH  14  18
BRANCH  16  20
ATOM     20  O   UNL     1       3.614  -0.272  -7.256  1.00  0.00    -0.502 OA
ATOM     21  H   UNL     1       4.529  -0.692  -7.184  1.00  0.00     0.293 HD
ENDBRANCH  16  20
BRANCH  17  22
ATOM     22  O   UNL     1       0.999  -0.311  -8.235  1.00  0.00    -0.504 OA
ATOM     23  H   UNL     1       0.365   0.412  -8.555  1.00  0.00     0.293 HD
ENDBRANCH  17  22
ENDBRANCH   1  12
BRANCH   2  24
ATOM     24  O   UNL     1      -1.082   1.068  -3.251  1.00  0.00    -0.502 OA
ATOM     25  H   UNL     1      -1.432   1.655  -3.997  1.00  0.00     0.293 HD
ENDBRANCH   2  24
BRANCH   6  26
ATOM     26  O   UNL     1      -4.963  -1.577  -0.738  1.00  0.00    -0.507 OA
ATOM     27  H   UNL     1      -4.741  -0.756  -0.196  1.00  0.00     0.293 HD
ENDBRANCH   6  26
BRANCH   8  28
ATOM     28  O   UNL     1      -3.581  -6.098  -1.580  1.00  0.00    -0.508 OA
ATOM     29  H   UNL     1      -4.385  -6.451  -1.074  1.00  0.00     0.293 HD
ENDBRANCH   8  28
TORSDOF 7
ENDMDL
MODEL 2
REMARK VINA RESULT:    -7.271      3.713      4.699
REMARK INTER + INTRA:          -9.341
REMARK INTER:                  -9.002
REMARK INTRA:                  -0.338
REMARK UNBOUND:                -0.369
REMARK SMILES O=c1c(O)c(-c2cc(O)c(O)c(O)c2)oc2cc(O)cc(O)c12
REMARK SMILES IDX 5 1 3 2 2 3 1 4 23 5 21 6 20 7 18 8 17 9 16 10 15 11 6 12
REMARK SMILES IDX 7 13 8 14 14 15 10 16 12 17 9 18 11 20 13 22 4 24 22 26
REMARK SMILES IDX 19 28
REMARK H PARENT 9 19 11 21 13 23 4 25 22 27 19 29
REMARK Flexibility Score: inf
ROOT
ATOM      1  C   UNL     1      -3.658  -0.311  -3.595  1.00  0.00     0.180 A 
ATOM      2  C   UNL     1      -4.313  -0.439  -2.359  1.00  0.00     0.208 A 
ATOM      3  C   UNL     1      -4.213  -1.651  -1.658  1.00  0.00     0.238 A 
ATOM      4  O   UNL     1      -4.757  -1.743  -0.526  1.00  0.00    -0.285 OA
ATOM      5  C   UNL     1      -3.472  -2.725  -2.208  1.00  0.00     0.111 A 
ATOM      6  C   UNL     1      -3.337  -4.011  -1.605  1.00  0.00     0.134 A 
ATOM      7  C   UNL     1      -2.473  -4.955  -2.175  1.00  0.00     0.093 A 
ATOM      8  C   UNL     1      -1.790  -4.681  -3.363  1.00  0.00     0.123 A 
ATOM      9  C   UNL     1      -1.963  -3.450  -3.992  1.00  0.00     0.094 A 
ATOM     10  C   UNL     1      -2.789  -2.475  -3.428  1.00  0.00     0.146 A 
ATOM     11  O   UNL     1      -2.917  -1.312  -4.054  1.00  0.00    -0.452 OA
ENDROOT
BRANCH   1  12
ATOM     12  C   UNL     1      -3.738   0.928  -4.404  1.00  0.00     0.029 A 
ATOM     13  C   UNL     1      -2.869   1.991  -4.125  1.00  0.00     0.062 A 
ATOM     14  C   UNL     1      -2.902   3.168  -4.882  1.00  0.00     0.162 A 
ATOM     15  C   UNL     1      -4.626   1.039  -5.484  1.00  0.00     0.062 A 
ATOM     16  C   UNL     1      -3.818   3.283  -5.957  1.00  0.00     0.200 A 
ATOM     17  C   UNL     1      -4.673   2.205  -6.251  1.00  0.00     0.162 A 
BRANCH  14  18
ATOM     18  O   UNL     1      -2.013   4.188  -4.536  1.00  0.00    -0.504 OA
ATOM     19  H   UNL     1      -1.010   4.080  -4.507  1.00  0.00     0.293 HD
ENDBRANCH  14  18
BRANCH  16  20
ATOM     20  O   UNL     1      -3.902   4.434  -6.744  1.00  0.00    -0.502 OA
ATOM     21  H   UNL     1      -3.184   5.142  -6.794  1.00  0.00     0.293 HD
ENDBRANCH  16  20
BRANCH  17  22
ATOM     22  O   UNL     1      -5.577   2.273  -7.312  1.00  0.00    -0.504 OA
ATOM     23  H   UNL     1      -5.513   2.981  -8.034  1.00  0.00     0.293 HD
ENDBRANCH  17  22
ENDBRANCH   1  12
BRANCH   2  24
ATOM     24  O   UNL     1      -5.022   0.640  -1.823  1.00  0.00    -0.502 OA
ATOM     25  H   UNL     1      -5.959   0.878  -2.123  1.00  0.00     0.293 HD
ENDBRANCH   2  24
BRANCH   6  26
ATOM     26  O   UNL     1      -4.044  -4.418  -0.470  1.00  0.00    -0.507 OA
ATOM     27  H   UNL     1      -4.218  -3.839   0.338  1.00  0.00     0.293 HD
ENDBRANCH   6  26
BRANCH   8  28
ATOM     28  O   UNL     1      -0.946  -5.631  -3.932  1.00  0.00    -0.508 OA
ATOM     29  H   UNL     1       0.039  -5.444  -4.080  1.00  0.00     0.293 HD
ENDBRANCH   8  28
TORSDOF 7
ENDMDL
MODEL 3
REMARK VINA RESULT:    -7.269      3.166      5.037
REMARK INTER + INTRA:          -9.338
REMARK INTER:                  -8.973
REMARK INTRA:                  -0.365
REMARK UNBOUND:                -0.369
REMARK SMILES O=c1c(O)c(-c2cc(O)c(O)c(O)c2)oc2cc(O)cc(O)c12
REMARK SMILES IDX 5 1 3 2 2 3 1 4 23 5 21 6 20 7 18 8 17 9 16 10 15 11 6 12
REMARK SMILES IDX 7 13 8 14 14 15 10 16 12 17 9 18 11 20 13 22 4 24 22 26
REMARK SMILES IDX 19 28
REMARK H PARENT 9 19 11 21 13 23 4 25 22 27 19 29
REMARK Flexibility Score: inf
ROOT
ATOM      1  C   UNL     1      -1.443   0.821  -3.625  1.00  0.00     0.180 A 
ATOM      2  C   UNL     1      -2.319   0.130  -2.771  1.00  0.00     0.208 A 
ATOM      3  C   UNL     1      -2.294  -1.274  -2.762  1.00  0.00     0.238 A 
ATOM      4  O   UNL     1      -3.043  -1.887  -1.957  1.00  0.00    -0.285 OA
ATOM      5  C   UNL     1      -1.405  -1.969  -3.617  1.00  0.00     0.111 A 
ATOM      6  C   UNL     1      -1.323  -3.390  -3.720  1.00  0.00     0.134 A 
ATOM      7  C   UNL     1      -0.316  -3.970  -4.502  1.00  0.00     0.093 A 
ATOM      8  C   UNL     1       0.570  -3.178  -5.237  1.00  0.00     0.123 A 
ATOM      9  C   UNL     1       0.459  -1.790  -5.190  1.00  0.00     0.094 A 
ATOM     10  C   UNL     1      -0.511  -1.182  -4.390  1.00  0.00     0.146 A 
ATOM     11  O   UNL     1      -0.575   0.143  -4.366  1.00  0.00    -0.452 OA
ENDROOT
BRANCH   1  12
ATOM     12  C   UNL     1      -1.428   2.300  -3.708  1.00  0.00     0.029 A 
ATOM     13  C   UNL     1      -0.549   3.028  -2.895  1.00  0.00     0.062 A 
ATOM     14  C   UNL     1      -0.493   4.425  -2.962  1.00  0.00     0.162 A 
ATOM     15  C   UNL     1      -2.234   2.988  -4.627  1.00  0.00     0.062 A 
ATOM     16  C   UNL     1      -1.327   5.115  -3.876  1.00  0.00     0.200 A 
ATOM     17  C   UNL     1      -2.191   4.382  -4.709  1.00  0.00     0.162 A 
BRANCH  14  18
ATOM     18  O   UNL     1       0.400   5.081  -2.111  1.00  0.00    -0.504 OA
ATOM     19  H   UNL     1       1.180   5.636  -2.428  1.00  0.00     0.293 HD
ENDBRANCH  14  18
BRANCH  16  20
ATOM     20  O   UNL     1      -1.320   6.508  -3.985  1.00  0.00    -0.502 OA
ATOM     21  H   UNL     1      -1.807   7.129  -3.355  1.00  0.00     0.293 HD
ENDBRANCH  16  20
BRANCH  17  22
ATOM     22  O   UNL     1      -3.016   5.024  -5.634  1.00  0.00    -0.504 OA
ATOM     23  H   UNL     1      -2.785   5.927  -6.030  1.00  0.00     0.293 HD
ENDBRANCH  17  22
ENDBRANCH   1  12
BRANCH   2  24
ATOM     24  O   UNL     1      -3.174   0.835  -1.920  1.00  0.00    -0.502 OA
ATOM     25  H   UNL     1      -4.169   0.649  -1.872  1.00  0.00     0.293 HD
ENDBRANCH   2  24
BRANCH   6  26
ATOM     26  O   UNL     1      -2.216  -4.270  -3.100  1.00  0.00    -0.507 OA
ATOM     27  H   UNL     1      -2.083  -4.674  -2.186  1.00  0.00     0.293 HD
ENDBRANCH   6  26
BRANCH   8  28
ATOM     28  O   UNL     1       1.558  -3.762  -6.026  1.00  0.00    -0.508 OA
ATOM     29  H   UNL     1       1.346  -4.158  -6.934  1.00  0.00     0.293 HD
ENDBRANCH   8  28
TORSDOF 7
ENDMDL
MODEL 4
REMARK VINA RESULT:    -7.249      4.848      7.624
REMARK INTER + INTRA:          -9.313
REMARK INTER:                  -8.954
REMARK INTRA:                  -0.359
REMARK UNBOUND:                -0.369
REMARK SMILES O=c1c(O)c(-c2cc(O)c(O)c(O)c2)oc2cc(O)cc(O)c12
REMARK SMILES IDX 5 1 3 2 2 3 1 4 23 5 21 6 20 7 18 8 17 9 16 10 15 11 6 12
REMARK SMILES IDX 7 13 8 14 14 15 10 16 12 17 9 18 11 20 13 22 4 24 22 26
REMARK SMILES IDX 19 28
REMARK H PARENT 9 19 11 21 13 23 4 25 22 27 19 29
REMARK Flexibility Score: inf
ROOT
ATOM      1  C   UNL     1       2.794   2.153  -3.155  1.00  0.00     0.180 A 
ATOM      2  C   UNL     1       1.901   3.231  -3.280  1.00  0.00     0.208 A 
ATOM      3  C   UNL     1       2.087   4.367  -2.477  1.00  0.00     0.238 A 
ATOM      4  O   UNL     1       1.317   5.350  -2.631  1.00  0.00    -0.285 OA
ATOM      5  C   UNL     1       3.155   4.406  -1.548  1.00  0.00     0.111 A 
ATOM      6  C   UNL     1       3.415   5.488  -0.655  1.00  0.00     0.134 A 
ATOM      7  C   UNL     1       4.576   5.475   0.129  1.00  0.00     0.093 A 
ATOM      8  C   UNL     1       5.451   4.386   0.100  1.00  0.00     0.123 A 
ATOM      9  C   UNL     1       5.175   3.298  -0.724  1.00  0.00     0.094 A 
ATOM     10  C   UNL     1       4.044   3.299  -1.545  1.00  0.00     0.146 A 
ATOM     11  O   UNL     1       3.824   2.246  -2.322  1.00  0.00    -0.452 OA
ENDROOT
BRANCH   1  12
ATOM     12  C   UNL     1       2.647   0.912  -3.950  1.00  0.00     0.029 A 
ATOM     13  C   UNL     1       3.427   0.733  -5.100  1.00  0.00     0.062 A 
ATOM     14  C   UNL     1       3.330  -0.437  -5.864  1.00  0.00     0.162 A 
ATOM     15  C   UNL     1       1.785  -0.118  -3.544  1.00  0.00     0.062 A 
ATOM     16  C   UNL     1       2.440  -1.462  -5.461  1.00  0.00     0.200 A 
ATOM     17  C   UNL     1       1.675  -1.292  -4.292  1.00  0.00     0.162 A 
BRANCH  14  18
ATOM     18  O   UNL     1       4.131  -0.536  -7.003  1.00  0.00    -0.504 OA
ATOM     19  H   UNL     1       3.934  -1.145  -7.783  1.00  0.00     0.293 HD
ENDBRANCH  14  18
BRANCH  16  20
ATOM     20  O   UNL     1       2.295  -2.648  -6.185  1.00  0.00    -0.502 OA
ATOM     21  H   UNL     1       3.064  -3.234  -6.476  1.00  0.00     0.293 HD
ENDBRANCH  16  20
BRANCH  17  22
ATOM     22  O   UNL     1       0.800  -2.286  -3.853  1.00  0.00    -0.504 OA
ATOM     23  H   UNL     1       0.412  -2.291  -2.918  1.00  0.00     0.293 HD
ENDBRANCH  17  22
ENDBRANCH   1  12
BRANCH   2  24
ATOM     24  O   UNL     1       0.866   3.181  -4.219  1.00  0.00    -0.502 OA
ATOM     25  H   UNL     1       0.100   2.523  -4.148  1.00  0.00     0.293 HD
ENDBRANCH   2  24
BRANCH   6  26
ATOM     26  O   UNL     1       2.558   6.579  -0.482  1.00  0.00    -0.507 OA
ATOM     27  H   UNL     1       2.842   7.546  -0.521  1.00  0.00     0.293 HD
ENDBRANCH   6  26
BRANCH   8  28
ATOM     28  O   UNL     1       6.594   4.374   0.895  1.00  0.00    -0.508 OA
ATOM     29  H   UNL     1       6.936   5.214   1.346  1.00  0.00     0.293 HD
ENDBRANCH   8  28
TORSDOF 7
ENDMDL
MODEL 5
REMARK VINA RESULT:    -7.235      2.922      7.508
REMARK INTER + INTRA:          -9.297
REMARK INTER:                  -8.953
REMARK INTRA:                  -0.344
REMARK UNBOUND:                -0.369
REMARK SMILES O=c1c(O)c(-c2cc(O)c(O)c(O)c2)oc2cc(O)cc(O)c12
REMARK SMILES IDX 5 1 3 2 2 3 1 4 23 5 21 6 20 7 18 8 17 9 16 10 15 11 6 12
REMARK SMILES IDX 7 13 8 14 14 15 10 16 12 17 9 18 11 20 13 22 4 24 22 26
REMARK SMILES IDX 19 28
REMARK H PARENT 9 19 11 21 13 23 4 25 22 27 19 29
REMARK Flexibility Score: inf
ROOT
ATOM      1  C   UNL     1      -4.165  -2.301  -1.640  1.00  0.00     0.180 A 
ATOM      2  C   UNL     1      -3.182  -1.314  -1.827  1.00  0.00     0.208 A 
ATOM      3  C   UNL     1      -2.035  -1.627  -2.573  1.00  0.00     0.238 A 
ATOM      4  O   UNL     1      -1.184  -0.724  -2.783  1.00  0.00    -0.285 OA
ATOM      5  C   UNL     1      -1.877  -2.928  -3.111  1.00  0.00     0.111 A 
ATOM      6  C   UNL     1      -0.738  -3.368  -3.848  1.00  0.00     0.134 A 
ATOM      7  C   UNL     1      -0.748  -4.636  -4.444  1.00  0.00     0.093 A 
ATOM      8  C   UNL     1      -1.829  -5.504  -4.272  1.00  0.00     0.123 A 
ATOM      9  C   UNL     1      -2.920  -5.106  -3.504  1.00  0.00     0.094 A 
ATOM     10  C   UNL     1      -2.956  -3.833  -2.927  1.00  0.00     0.146 A 
ATOM     11  O   UNL     1      -4.019  -3.491  -2.211  1.00  0.00    -0.452 OA
ENDROOT
BRANCH   1  12
ATOM     12  C   UNL     1      -5.389  -2.053  -0.845  1.00  0.00     0.029 A 
ATOM     13  C   UNL     1      -5.409  -2.390   0.515  1.00  0.00     0.062 A 
ATOM     14  C   UNL     1      -6.541  -2.149   1.303  1.00  0.00     0.162 A 
ATOM     15  C   UNL     1      -6.513  -1.430  -1.409  1.00  0.00     0.062 A 
ATOM     16  C   UNL     1      -7.681  -1.542   0.721  1.00  0.00     0.200 A 
ATOM     17  C   UNL     1      -7.651  -1.181  -0.639  1.00  0.00     0.162 A 
BRANCH  14  18
ATOM     18  O   UNL     1      -6.489  -2.525   2.646  1.00  0.00    -0.504 OA
ATOM     19  H   UNL     1      -6.690  -1.905   3.417  1.00  0.00     0.293 HD
ENDBRANCH  14  18
BRANCH  16  20
ATOM     20  O   UNL     1      -8.842  -1.283   1.453  1.00  0.00    -0.502 OA
ATOM     21  H   UNL     1      -9.272  -1.940   2.088  1.00  0.00     0.293 HD
ENDBRANCH  16  20
BRANCH  17  22
ATOM     22  O   UNL     1      -8.748  -0.566  -1.244  1.00  0.00    -0.504 OA
ATOM     23  H   UNL     1      -9.006   0.394  -1.049  1.00  0.00     0.293 HD
ENDBRANCH  17  22
ENDBRANCH   1  12
BRANCH   2  24
ATOM     24  O   UNL     1      -3.367  -0.030  -1.307  1.00  0.00    -0.502 OA
ATOM     25  H   UNL     1      -2.681   0.706  -1.419  1.00  0.00     0.293 HD
ENDBRANCH   2  24
BRANCH   6  26
ATOM     26  O   UNL     1       0.430  -2.615  -4.002  1.00  0.00    -0.507 OA
ATOM     27  H   UNL     1       1.233  -2.904  -4.539  1.00  0.00     0.293 HD
ENDBRANCH   6  26
BRANCH   8  28
ATOM     28  O   UNL     1      -1.823  -6.769  -4.854  1.00  0.00    -0.508 OA
ATOM     29  H   UNL     1      -1.097  -7.445  -4.647  1.00  0.00     0.293 HD
ENDBRANCH   8  28
TORSDOF 7
ENDMDL
MODEL 6
REMARK VINA RESULT:    -7.203      1.261      2.816
REMARK INTER + INTRA:          -9.257
REMARK INTER:                  -8.947
REMARK INTRA:                  -0.310
REMARK UNBOUND:                -0.369
REMARK SMILES O=c1c(O)c(-c2cc(O)c(O)c(O)c2)oc2cc(O)cc(O)c12
REMARK SMILES IDX 5 1 3 2 2 3 1 4 23 5 21 6 20 7 18 8 17 9 16 10 15 11 6 12
REMARK SMILES IDX 7 13 8 14 14 15 10 16 12 17 9 18 11 20 13 22 4 24 22 26
REMARK SMILES IDX 19 28
REMARK H PARENT 9 19 11 21 13 23 4 25 22 27 19 29
REMARK Flexibility Score: inf
ROOT
ATOM      1  C   UNL     1      -0.575  -1.836  -4.242  1.00  0.00     0.180 A 
ATOM      2  C   UNL     1      -0.747  -3.212  -4.017  1.00  0.00     0.208 A 
ATOM      3  C   UNL     1      -1.854  -3.647  -3.271  1.00  0.00     0.238 A 
ATOM      4  O   UNL     1      -2.033  -4.884  -3.118  1.00  0.00    -0.285 OA
ATOM      5  C   UNL     1      -2.767  -2.700  -2.747  1.00  0.00     0.111 A 
ATOM      6  C   UNL     1      -3.901  -3.025  -1.944  1.00  0.00     0.134 A 
ATOM      7  C   UNL     1      -4.808  -2.018  -1.590  1.00  0.00     0.093 A 
ATOM      8  C   UNL     1      -4.586  -0.688  -1.955  1.00  0.00     0.123 A 
ATOM      9  C   UNL     1      -3.451  -0.352  -2.688  1.00  0.00     0.094 A 
ATOM     10  C   UNL     1      -2.546  -1.339  -3.087  1.00  0.00     0.146 A 
ATOM     11  O   UNL     1      -1.483  -0.978  -3.794  1.00  0.00    -0.452 OA
ENDROOT
BRANCH   1  12
ATOM     12  C   UNL     1       0.581  -1.301  -4.998  1.00  0.00     0.029 A 
ATOM     13  C   UNL     1       1.841  -1.248  -4.386  1.00  0.00     0.062 A 
ATOM     14  C   UNL     1       2.959  -0.768  -5.077  1.00  0.00     0.162 A 
ATOM     15  C   UNL     1       0.456  -0.900  -6.337  1.00  0.00     0.062 A 
ATOM     16  C   UNL     1       2.821  -0.342  -6.421  1.00  0.00     0.200 A 
ATOM     17  C   UNL     1       1.561  -0.419  -7.043  1.00  0.00     0.162 A 
BRANCH  14  18
ATOM     18  O   UNL     1       4.178  -0.733  -4.396  1.00  0.00    -0.504 OA
ATOM     19  H   UNL     1       4.783  -1.532  -4.277  1.00  0.00     0.293 HD
ENDBRANCH  14  18
BRANCH  16  20
ATOM     20  O   UNL     1       3.899   0.152  -7.160  1.00  0.00    -0.502 OA
ATOM     21  H   UNL     1       3.810   0.632  -8.044  1.00  0.00     0.293 HD
ENDBRANCH  16  20
BRANCH  17  22
ATOM     22  O   UNL     1       1.388  -0.025  -8.370  1.00  0.00    -0.504 OA
ATOM     23  H   UNL     1       0.473   0.150  -8.768  1.00  0.00     0.293 HD
ENDBRANCH  17  22
ENDBRANCH   1  12
BRANCH   2  24
ATOM     24  O   UNL     1       0.154  -4.132  -4.561  1.00  0.00    -0.502 OA
ATOM     25  H   UNL     1      -0.100  -5.094  -4.751  1.00  0.00     0.293 HD
ENDBRANCH   2  24
BRANCH   6  26
ATOM     26  O   UNL     1      -4.165  -4.305  -1.448  1.00  0.00    -0.507 OA
ATOM     27  H   UNL     1      -3.645  -4.755  -0.711  1.00  0.00     0.293 HD
ENDBRANCH   6  26
BRANCH   8  28
ATOM     28  O   UNL     1      -5.485   0.309  -1.585  1.00  0.00    -0.508 OA
ATOM     29  H   UNL     1      -5.168   1.209  -1.244  1.00  0.00     0.293 HD
ENDBRANCH   8  28
TORSDOF 7
ENDMDL
MODEL 7
REMARK VINA RESULT:    -7.159      3.044      7.511
REMARK INTER + INTRA:          -9.202
REMARK INTER:                  -8.862
REMARK INTRA:                  -0.341
REMARK UNBOUND:                -0.369
REMARK SMILES O=c1c(O)c(-c2cc(O)c(O)c(O)c2)oc2cc(O)cc(O)c12
REMARK SMILES IDX 5 1 3 2 2 3 1 4 23 5 21 6 20 7 18 8 17 9 16 10 15 11 6 12
REMARK SMILES IDX 7 13 8 14 14 15 10 16 12 17 9 18 11 20 13 22 4 24 22 26
REMARK SMILES IDX 19 28
REMARK H PARENT 9 19 11 21 13 23 4 25 22 27 19 29
REMARK Flexibility Score: inf
ROOT
ATOM      1  C   UNL     1       1.047   1.488  -3.142  1.00  0.00     0.180 A 
ATOM      2  C   UNL     1       1.676   2.304  -2.187  1.00  0.00     0.208 A 
ATOM      3  C   UNL     1       3.074   2.429  -2.214  1.00  0.00     0.238 A 
ATOM      4  O   UNL     1       3.629   3.204  -1.391  1.00  0.00    -0.285 OA
ATOM      5  C   UNL     1       3.826   1.725  -3.185  1.00  0.00     0.111 A 
ATOM      6  C   UNL     1       5.250   1.746  -3.281  1.00  0.00     0.134 A 
ATOM      7  C   UNL     1       5.880   1.115  -4.362  1.00  0.00     0.093 A 
ATOM      8  C   UNL     1       5.140   0.410  -5.314  1.00  0.00     0.123 A 
ATOM      9  C   UNL     1       3.754   0.333  -5.196  1.00  0.00     0.094 A 
ATOM     10  C   UNL     1       3.095   0.982  -4.149  1.00  0.00     0.146 A 
ATOM     11  O   UNL     1       1.773   0.893  -4.080  1.00  0.00    -0.452 OA
ENDROOT
BRANCH   1  12
ATOM     12  C   UNL     1      -0.421   1.288  -3.161  1.00  0.00     0.029 A 
ATOM     13  C   UNL     1      -0.975   0.181  -2.504  1.00  0.00     0.062 A 
ATOM     14  C   UNL     1      -2.359  -0.028  -2.483  1.00  0.00     0.162 A 
ATOM     15  C   UNL     1      -1.277   2.216  -3.773  1.00  0.00     0.062 A 
ATOM     16  C   UNL     1      -3.217   0.900  -3.124  1.00  0.00     0.200 A 
ATOM     17  C   UNL     1      -2.661   2.025  -3.762  1.00  0.00     0.162 A 
BRANCH  14  18
ATOM     18  O   UNL     1      -2.835  -1.161  -1.819  1.00  0.00    -0.504 OA
ATOM     19  H   UNL     1      -2.951  -2.065  -2.252  1.00  0.00     0.293 HD
ENDBRANCH  14  18
BRANCH  16  20
ATOM     20  O   UNL     1      -4.604   0.742  -3.142  1.00  0.00    -0.502 OA
ATOM     21  H   UNL     1      -5.136   0.300  -2.407  1.00  0.00     0.293 HD
ENDBRANCH  16  20
BRANCH  17  22
ATOM     22  O   UNL     1      -3.473   2.971  -4.389  1.00  0.00    -0.504 OA
ATOM     23  H   UNL     1      -3.440   3.955  -4.151  1.00  0.00     0.293 HD
ENDBRANCH  17  22
ENDBRANCH   1  12
BRANCH   2  24
ATOM     24  O   UNL     1       0.914   3.008  -1.251  1.00  0.00    -0.502 OA
ATOM     25  H   UNL     1       0.215   2.559  -0.671  1.00  0.00     0.293 HD
ENDBRANCH   2  24
BRANCH   6  26
ATOM     26  O   UNL     1       6.086   2.343  -2.333  1.00  0.00    -0.507 OA
ATOM     27  H   UNL     1       5.941   3.257  -1.933  1.00  0.00     0.293 HD
ENDBRANCH   6  26
BRANCH   8  28
ATOM     28  O   UNL     1       5.776  -0.228  -6.376  1.00  0.00    -0.508 OA
ATOM     29  H   UNL     1       6.514  -0.905  -6.223  1.00  0.00     0.293 HD
ENDBRANCH   8  28
TORSDOF 7
ENDMDL
MODEL 8
REMARK VINA RESULT:    -7.082      3.165      5.004
REMARK INTER + INTRA:          -9.107
REMARK INTER:                  -8.817
REMARK INTRA:                  -0.290
REMARK UNBOUND:                -0.369
REMARK SMILES O=c1c(O)c(-c2cc(O)c(O)c(O)c2)oc2cc(O)cc(O)c12
REMARK SMILES IDX 5 1 3 2 2 3 1 4 23 5 21 6 20 7 18 8 17 9 16 10 15 11 6 12
REMARK SMILES IDX 7 13 8 14 14 15 10 16 12 17 9 18 11 20 13 22 4 24 22 26
REMARK SMILES IDX 19 28
REMARK H PARENT 9 19 11 21 13 23 4 25 22 27 19 29
REMARK Flexibility Score: inf
ROOT
ATOM      1  C   UNL     1       0.659   0.838  -4.691  1.00  0.00     0.180 A 
ATOM      2  C   UNL     1      -0.171  -0.084  -4.032  1.00  0.00     0.208 A 
ATOM      3  C   UNL     1      -1.533   0.218  -3.872  1.00  0.00     0.238 A 
ATOM      4  O   UNL     1      -2.283  -0.635  -3.330  1.00  0.00    -0.285 OA
ATOM      5  C   UNL     1      -2.044   1.446  -4.359  1.00  0.00     0.111 A 
ATOM      6  C   UNL     1      -3.397   1.874  -4.217  1.00  0.00     0.134 A 
ATOM      7  C   UNL     1      -3.821   3.049  -4.851  1.00  0.00     0.093 A 
ATOM      8  C   UNL     1      -2.923   3.844  -5.568  1.00  0.00     0.123 A 
ATOM      9  C   UNL     1      -1.586   3.465  -5.662  1.00  0.00     0.094 A 
ATOM     10  C   UNL     1      -1.142   2.280  -5.071  1.00  0.00     0.146 A 
ATOM     11  O   UNL     1       0.138   1.951  -5.193  1.00  0.00    -0.452 OA
ENDROOT
BRANCH   1  12
ATOM     12  C   UNL     1       2.110   0.600  -4.875  1.00  0.00     0.029 A 
ATOM     13  C   UNL     1       2.973   0.715  -3.777  1.00  0.00     0.062 A 
ATOM     14  C   UNL     1       4.346   0.476  -3.910  1.00  0.00     0.162 A 
ATOM     15  C   UNL     1       2.632   0.200  -6.115  1.00  0.00     0.062 A 
ATOM     16  C   UNL     1       4.871   0.097  -5.170  1.00  0.00     0.200 A 
ATOM     17  C   UNL     1       3.999  -0.043  -6.266  1.00  0.00     0.162 A 
BRANCH  14  18
ATOM     18  O   UNL     1       5.143   0.624  -2.774  1.00  0.00    -0.504 OA
ATOM     19  H   UNL     1       6.138   0.454  -2.753  1.00  0.00     0.293 HD
ENDBRANCH  14  18
BRANCH  16  20
ATOM     20  O   UNL     1       6.232  -0.149  -5.366  1.00  0.00    -0.502 OA
ATOM     21  H   UNL     1       6.933  -0.074  -4.644  1.00  0.00     0.293 HD
ENDBRANCH  16  20
BRANCH  17  22
ATOM     22  O   UNL     1       4.476  -0.431  -7.519  1.00  0.00    -0.504 OA
ATOM     23  H   UNL     1       4.657   0.236  -8.260  1.00  0.00     0.293 HD
ENDBRANCH  17  22
ENDBRANCH   1  12
BRANCH   2  24
ATOM     24  O   UNL     1       0.348  -1.300  -3.579  1.00  0.00    -0.502 OA
ATOM     25  H   UNL     1       1.307  -1.399  -3.268  1.00  0.00     0.293 HD
ENDBRANCH   2  24
BRANCH   6  26
ATOM     26  O   UNL     1      -4.351   1.203  -3.446  1.00  0.00    -0.507 OA
ATOM     27  H   UNL     1      -4.139   0.585  -2.679  1.00  0.00     0.293 HD
ENDBRANCH   6  26
BRANCH   8  28
ATOM     28  O   UNL     1      -3.349   5.019  -6.182  1.00  0.00    -0.508 OA
ATOM     29  H   UNL     1      -2.741   5.547  -6.797  1.00  0.00     0.293 HD
ENDBRANCH   8  28
TORSDOF 7
ENDMDL
MODEL 9
REMARK VINA RESULT:    -7.071      3.424      5.157
REMARK INTER + INTRA:          -9.094
REMARK INTER:                  -8.738
REMARK INTRA:                  -0.356
REMARK UNBOUND:                -0.369
REMARK SMILES O=c1c(O)c(-c2cc(O)c(O)c(O)c2)oc2cc(O)cc(O)c12
REMARK SMILES IDX 5 1 3 2 2 3 1 4 23 5 21 6 20 7 18 8 17 9 16 10 15 11 6 12
REMARK SMILES IDX 7 13 8 14 14 15 10 16 12 17 9 18 11 20 13 22 4 24 22 26
REMARK SMILES IDX 19 28
REMARK H PARENT 9 19 11 21 13 23 4 25 22 27 19 29
REMARK Flexibility Score: inf
ROOT
ATOM      1  C   UNL     1      -0.753   1.193  -3.589  1.00  0.00     0.180 A 
ATOM      2  C   UNL     1      -1.590   0.378  -2.808  1.00  0.00     0.208 A 
ATOM      3  C   UNL     1      -2.900   0.129  -3.248  1.00  0.00     0.238 A 
ATOM      4  O   UNL     1      -3.628  -0.644  -2.572  1.00  0.00    -0.285 OA
ATOM      5  C   UNL     1      -3.361   0.710  -4.454  1.00  0.00     0.111 A 
ATOM      6  C   UNL     1      -4.681   0.559  -4.974  1.00  0.00     0.134 A 
ATOM      7  C   UNL     1      -4.987   1.071  -6.242  1.00  0.00     0.093 A 
ATOM      8  C   UNL     1      -4.039   1.785  -6.978  1.00  0.00     0.123 A 
ATOM      9  C   UNL     1      -2.765   1.989  -6.452  1.00  0.00     0.094 A 
ATOM     10  C   UNL     1      -2.419   1.460  -5.206  1.00  0.00     0.146 A 
ATOM     11  O   UNL     1      -1.192   1.669  -4.747  1.00  0.00    -0.452 OA
ENDROOT
BRANCH   1  12
ATOM     12  C   UNL     1       0.633   1.520  -3.178  1.00  0.00     0.029 A 
ATOM     13  C   UNL     1       0.869   2.655  -2.391  1.00  0.00     0.062 A 
ATOM     14  C   UNL     1       2.162   2.983  -1.966  1.00  0.00     0.162 A 
ATOM     15  C   UNL     1       1.710   0.684  -3.509  1.00  0.00     0.062 A 
ATOM     16  C   UNL     1       3.249   2.148  -2.325  1.00  0.00     0.200 A 
ATOM     17  C   UNL     1       3.007   0.994  -3.093  1.00  0.00     0.162 A 
BRANCH  14  18
ATOM     18  O   UNL     1       2.319   4.137  -1.196  1.00  0.00    -0.504 OA
ATOM     19  H   UNL     1       3.123   4.327  -0.617  1.00  0.00     0.293 HD
ENDBRANCH  14  18
BRANCH  16  20
ATOM     20  O   UNL     1       4.561   2.426  -1.936  1.00  0.00    -0.502 OA
ATOM     21  H   UNL     1       5.329   1.776  -2.022  1.00  0.00     0.293 HD
ENDBRANCH  16  20
BRANCH  17  22
ATOM     22  O   UNL     1       4.048   0.137  -3.452  1.00  0.00    -0.504 OA
ATOM     23  H   UNL     1       4.082  -0.325  -4.353  1.00  0.00     0.293 HD
ENDBRANCH  17  22
ENDBRANCH   1  12
BRANCH   2  24
ATOM     24  O   UNL     1      -1.109  -0.203  -1.631  1.00  0.00    -0.502 OA
ATOM     25  H   UNL     1      -1.253   0.215  -0.720  1.00  0.00     0.293 HD
ENDBRANCH   2  24
BRANCH   6  26
ATOM     26  O   UNL     1      -5.727  -0.056  -4.281  1.00  0.00    -0.507 OA
ATOM     27  H   UNL     1      -5.805  -1.049  -4.119  1.00  0.00     0.293 HD
ENDBRANCH   6  26
BRANCH   8  28
ATOM     28  O   UNL     1      -4.356   2.305  -8.230  1.00  0.00    -0.508 OA
ATOM     29  H   UNL     1      -5.156   2.912  -8.365  1.00  0.00     0.293 HD
ENDBRANCH   8  28
TORSDOF 7
ENDMDL
