MODEL 1
REMARK VINA RESULT:    -4.505      0.000      0.000
REMARK INTER + INTRA:          -5.414
REMARK INTER:                  -5.296
REMARK INTRA:                  -0.118
REMARK UNBOUND:                -0.118
REMARK SMILES O=C([O-])CCC(=O)[O-]
REMARK SMILES IDX 4 1 2 2 1 3 3 4 5 5 6 6 7 7 8 8
REMARK H PARENT
REMARK Flexibility Score: inf
ROOT
ATOM      1  C   UNL     1     -16.824  33.086  -0.666  1.00  0.00     0.059 C 
ENDROOT
BRANCH   1   2
ATOM      2  C   UNL     1     -16.479  33.054   0.791  1.00  0.00     0.042 C 
ATOM      3  O   UNL     1     -16.614  31.990   1.452  1.00  0.00    -0.550 OA
ATOM      4  O   UNL     1     -15.970  34.189   1.411  1.00  0.00    -0.550 OA
ENDBRANCH   1   2
BRANCH   1   5
ATOM      5  C   UNL     1     -18.222  32.516  -0.927  1.00  0.00     0.059 C 
BRANCH   5   6
ATOM      6  C   UNL     1     -18.156  31.213  -1.663  1.00  0.00     0.042 C 
ATOM      7  O   UNL     1     -18.062  30.130  -1.027  1.00  0.00    -0.550 OA
ATOM      8  O   UNL     1     -18.236  31.192  -3.050  1.00  0.00    -0.550 OA
ENDBRANCH   5   6
ENDBRANCH   1   5
TORSDOF 3
ENDMDL
MODEL 2
REMARK VINA RESULT:    -4.467      0.205      3.934
REMARK INTER + INTRA:          -5.369
REMARK INTER:                  -5.256
REMARK INTRA:                  -0.113
REMARK UNBOUND:                -0.118
REMARK SMILES O=C([O-])CCC(=O)[O-]
REMARK SMILES IDX 4 1 2 2 1 3 3 4 5 5 6 6 7 7 8 8
REMARK H PARENT
REMARK Flexibility Score: inf
ROOT
ATOM      1  C   UNL     1     -18.180  32.506  -0.752  1.00  0.00     0.059 C 
ENDROOT
BRANCH   1   2
ATOM      2  C   UNL     1     -18.065  31.201  -1.477  1.00  0.00     0.042 C 
ATOM      3  O   UNL     1     -17.831  30.139  -0.841  1.00  0.00    -0.550 OA
ATOM      4  O   UNL     1     -18.255  31.150  -2.853  1.00  0.00    -0.550 OA
ENDBRANCH   1   2
BRANCH   1   5
ATOM      5  C   UNL     1     -16.817  33.191  -0.604  1.00  0.00     0.059 C 
BRANCH   5   6
ATOM      6  C   UNL     1     -16.334  33.154   0.813  1.00  0.00     0.042 C 
ATOM      7  O   UNL     1     -15.956  34.212   1.381  1.00  0.00    -0.550 OA
ATOM      8  O   UNL     1     -16.336  31.957   1.518  1.00  0.00    -0.550 OA
ENDBRANCH   5   6
ENDBRANCH   1   5
TORSDOF 3
ENDMDL
MODEL 3
REMARK VINA RESULT:    -3.979      3.080      3.492
REMARK INTER + INTRA:          -4.795
REMARK INTER:                  -4.753
REMARK INTRA:                  -0.041
REMARK UNBOUND:                -0.118
REMARK SMILES O=C([O-])CCC(=O)[O-]
REMARK SMILES IDX 4 1 2 2 1 3 3 4 5 5 6 6 7 7 8 8
REMARK H PARENT
REMARK Flexibility Score: inf
ROOT
ATOM      1  C   UNL     1     -16.218  29.036   1.622  1.00  0.00     0.059 C 
ENDROOT
BRANCH   1   2
ATOM      2  C   UNL     1     -15.501  30.293   2.009  1.00  0.00     0.042 C 
ATOM      3  O   UNL     1     -14.790  30.324   3.047  1.00  0.00    -0.550 OA
ATOM      4  O   UNL     1     -15.587  31.420   1.200  1.00  0.00    -0.550 OA
ENDBRANCH   1   2
BRANCH   1   5
ATOM      5  C   UNL     1     -16.215  28.831   0.103  1.00  0.00     0.059 C 
BRANCH   5   6
ATOM      6  C   UNL     1     -17.500  28.226  -0.373  1.00  0.00     0.042 C 
ATOM      7  O   UNL     1     -17.772  27.026  -0.107  1.00  0.00    -0.550 OA
ATOM      8  O   UNL     1     -18.414  29.000  -1.078  1.00  0.00    -0.550 OA
ENDBRANCH   5   6
ENDBRANCH   1   5
TORSDOF 3
ENDMDL
MODEL 4
REMARK VINA RESULT:    -3.975      4.874      6.691
REMARK INTER + INTRA:          -4.790
REMARK INTER:                  -4.760
REMARK INTRA:                  -0.030
REMARK UNBOUND:                -0.118
REMARK SMILES O=C([O-])CCC(=O)[O-]
REMARK SMILES IDX 4 1 2 2 1 3 3 4 5 5 6 6 7 7 8 8
REMARK H PARENT
REMARK Flexibility Score: inf
ROOT
ATOM      1  C   UNL     1     -17.771  26.079   0.729  1.00  0.00     0.059 C 
ENDROOT
BRANCH   1   2
ATOM      2  C   UNL     1     -18.653  24.903   0.444  1.00  0.00     0.042 C 
ATOM      3  O   UNL     1     -19.878  24.943   0.736  1.00  0.00    -0.550 OA
ATOM      4  O   UNL     1     -18.131  23.777  -0.182  1.00  0.00    -0.550 OA
ENDBRANCH   1   2
BRANCH   1   5
ATOM      5  C   UNL     1     -17.364  26.804  -0.558  1.00  0.00     0.059 C 
BRANCH   5   6
ATOM      6  C   UNL     1     -17.412  28.292  -0.391  1.00  0.00     0.042 C 
ATOM      7  O   UNL     1     -16.548  28.878   0.314  1.00  0.00    -0.550 OA
ATOM      8  O   UNL     1     -18.387  29.035  -1.044  1.00  0.00    -0.550 OA
ENDBRANCH   5   6
ENDBRANCH   1   5
TORSDOF 3
ENDMDL
MODEL 5
REMARK VINA RESULT:    -3.962      5.110      6.892
REMARK INTER + INTRA:          -4.775
REMARK INTER:                  -4.742
REMARK INTRA:                  -0.032
REMARK UNBOUND:                -0.118
REMARK SMILES O=C([O-])CCC(=O)[O-]
REMARK SMILES IDX 4 1 2 2 1 3 3 4 5 5 6 6 7 7 8 8
REMARK H PARENT
REMARK Flexibility Score: inf
ROOT
ATOM      1  C   UNL     1     -17.960  25.787   0.838  1.00  0.00     0.059 C 
ENDROOT
BRANCH   1   2
ATOM      2  C   UNL     1     -18.987  24.743   0.522  1.00  0.00     0.042 C 
ATOM      3  O   UNL     1     -18.630  23.577   0.205  1.00  0.00    -0.550 OA
ATOM      4  O   UNL     1     -20.340  25.047   0.616  1.00  0.00    -0.550 OA
ENDBRANCH   1   2
BRANCH   1   5
ATOM      5  C   UNL     1     -17.416  26.446  -0.434  1.00  0.00     0.059 C 
BRANCH   5   6
ATOM      6  C   UNL     1     -17.365  27.937  -0.303  1.00  0.00     0.042 C 
ATOM      7  O   UNL     1     -16.568  28.474   0.510  1.00  0.00    -0.550 OA
ATOM      8  O   UNL     1     -18.171  28.734  -1.106  1.00  0.00    -0.550 OA
ENDBRANCH   5   6
ENDBRANCH   1   5
TORSDOF 3
ENDMDL
MODEL 6
REMARK VINA RESULT:    -3.958      5.054      6.313
REMARK INTER + INTRA:          -4.770
REMARK INTER:                  -4.733
REMARK INTRA:                  -0.037
REMARK UNBOUND:                -0.118
REMARK SMILES O=C([O-])CCC(=O)[O-]
REMARK SMILES IDX 4 1 2 2 1 3 3 4 5 5 6 6 7 7 8 8
REMARK H PARENT
REMARK Flexibility Score: inf
ROOT
ATOM      1  C   UNL     1     -17.378  26.516  -0.435  1.00  0.00     0.059 C 
ENDROOT
BRANCH   1   2
ATOM      2  C   UNL     1     -17.366  28.008  -0.302  1.00  0.00     0.042 C 
ATOM      3  O   UNL     1     -16.591  28.566   0.518  1.00  0.00    -0.550 OA
ATOM      4  O   UNL     1     -18.185  28.785  -1.113  1.00  0.00    -0.550 OA
ENDBRANCH   1   2
BRANCH   1   5
ATOM      5  C   UNL     1     -17.901  25.841   0.837  1.00  0.00     0.059 C 
BRANCH   5   6
ATOM      6  C   UNL     1     -18.950  24.819   0.527  1.00  0.00     0.042 C 
ATOM      7  O   UNL     1     -20.171  25.116   0.617  1.00  0.00    -0.550 OA
ATOM      8  O   UNL     1     -18.580  23.550   0.100  1.00  0.00    -0.550 OA
ENDBRANCH   5   6
ENDBRANCH   1   5
TORSDOF 3
ENDMDL
MODEL 7
REMARK VINA RESULT:    -3.924      3.129      5.260
REMARK INTER + INTRA:          -4.731
REMARK INTER:                  -4.688
REMARK INTRA:                  -0.043
REMARK UNBOUND:                -0.118
REMARK SMILES O=C([O-])CCC(=O)[O-]
REMARK SMILES IDX 4 1 2 2 1 3 3 4 5 5 6 6 7 7 8 8
REMARK H PARENT
REMARK Flexibility Score: inf
ROOT
ATOM      1  C   UNL     1     -16.162  28.767   0.125  1.00  0.00     0.059 C 
ENDROOT
BRANCH   1   2
ATOM      2  C   UNL     1     -17.435  28.150  -0.365  1.00  0.00     0.042 C 
ATOM      3  O   UNL     1     -18.211  28.803  -1.111  1.00  0.00    -0.550 OA
ATOM      4  O   UNL     1     -17.747  26.838  -0.029  1.00  0.00    -0.550 OA
ENDBRANCH   1   2
BRANCH   1   5
ATOM      5  C   UNL     1     -16.190  28.989   1.641  1.00  0.00     0.059 C 
BRANCH   5   6
ATOM      6  C   UNL     1     -15.522  30.274   2.022  1.00  0.00     0.042 C 
ATOM      7  O   UNL     1     -14.781  30.327   3.039  1.00  0.00    -0.550 OA
ATOM      8  O   UNL     1     -15.688  31.405   1.232  1.00  0.00    -0.550 OA
ENDBRANCH   5   6
ENDBRANCH   1   5
TORSDOF 3
ENDMDL
MODEL 8
REMARK VINA RESULT:    -3.878      2.539      3.357
REMARK INTER + INTRA:          -4.676
REMARK INTER:                  -4.560
REMARK INTRA:                  -0.117
REMARK UNBOUND:                -0.118
REMARK SMILES O=C([O-])CCC(=O)[O-]
REMARK SMILES IDX 4 1 2 2 1 3 3 4 5 5 6 6 7 7 8 8
REMARK H PARENT
REMARK Flexibility Score: inf
ROOT
ATOM      1  C   UNL     1     -16.320  31.444   1.956  1.00  0.00     0.059 C 
ENDROOT
BRANCH   1   2
ATOM      2  C   UNL     1     -16.665  32.485   0.936  1.00  0.00     0.042 C 
ATOM      3  O   UNL     1     -17.589  32.279   0.106  1.00  0.00    -0.550 OA
ATOM      4  O   UNL     1     -15.991  33.700   0.928  1.00  0.00    -0.550 OA
ENDBRANCH   1   2
BRANCH   1   5
ATOM      5  C   UNL     1     -15.449  30.334   1.356  1.00  0.00     0.059 C 
BRANCH   5   6
ATOM      6  C   UNL     1     -16.244  29.093   1.090  1.00  0.00     0.042 C 
ATOM      7  O   UNL     1     -16.652  28.839  -0.074  1.00  0.00    -0.550 OA
ATOM      8  O   UNL     1     -16.503  28.199   2.121  1.00  0.00    -0.550 OA
ENDBRANCH   5   6
ENDBRANCH   1   5
TORSDOF 3
ENDMDL
MODEL 9
REMARK VINA RESULT:    -3.861      2.569      4.110
REMARK INTER + INTRA:          -4.656
REMARK INTER:                  -4.539
REMARK INTRA:                  -0.116
REMARK UNBOUND:                -0.118
REMARK SMILES O=C([O-])CCC(=O)[O-]
REMARK SMILES IDX 4 1 2 2 1 3 3 4 5 5 6 6 7 7 8 8
REMARK H PARENT
REMARK Flexibility Score: inf
ROOT
ATOM      1  C   UNL     1     -15.463  30.246   1.297  1.00  0.00     0.059 C 
ENDROOT
BRANCH   1   2
ATOM      2  C   UNL     1     -16.278  29.030   0.981  1.00  0.00     0.042 C 
ATOM      3  O   UNL     1     -16.670  28.817  -0.197  1.00  0.00    -0.550 OA
ATOM      4  O   UNL     1     -16.571  28.110   1.980  1.00  0.00    -0.550 OA
ENDBRANCH   1   2
BRANCH   1   5
ATOM      5  C   UNL     1     -16.312  31.337   1.959  1.00  0.00     0.059 C 
BRANCH   5   6
ATOM      6  C   UNL     1     -16.676  32.417   0.987  1.00  0.00     0.042 C 
ATOM      7  O   UNL     1     -16.009  33.485   0.948  1.00  0.00    -0.550 OA
ATOM      8  O   UNL     1     -17.727  32.229   0.099  1.00  0.00    -0.550 OA
ENDBRANCH   5   6
ENDBRANCH   1   5
TORSDOF 3
ENDMDL
