MODEL 1
REMARK VINA RESULT:     2.240      0.000      0.000
REMARK INTER + INTRA:           3.585
REMARK INTER:                   4.466
REMARK INTRA:                  -0.882
REMARK UNBOUND:                -0.882
REMARK SMILES CCCCCCCCCCCCCCCCCC(=O)OC
REMARK SMILES IDX 10 1 9 2 8 3 7 4 6 5 5 6 4 7 3 8 2 9 1 10 11 11 12 12 13 13
REMARK SMILES IDX 14 14 15 15 16 16 17 17 18 18 19 19 20 20 21 21
REMARK H PARENT
REMARK Flexibility Score: inf
ROOT
ATOM      1  C   UNL     1     178.334 178.197 172.381  1.00  0.00     0.000 C 
ENDROOT
BRANCH   1   2
ATOM      2  C   UNL     1     177.586 178.380 171.052  1.00  0.00     0.000 C 
BRANCH   2   3
ATOM      3  C   UNL     1     176.530 179.491 171.168  1.00  0.00    -0.000 C 
BRANCH   3   4
ATOM      4  C   UNL     1     176.048 179.705 172.612  1.00  0.00    -0.000 C 
BRANCH   4   5
ATOM      5  C   UNL     1     176.305 181.138 173.113  1.00  0.00    -0.000 C 
BRANCH   5   6
ATOM      6  C   UNL     1     177.405 181.855 172.314  1.00  0.00    -0.000 C 
BRANCH   6   7
ATOM      7  C   UNL     1     178.691 182.060 173.134  1.00  0.00    -0.000 C 
BRANCH   7   8
ATOM      8  C   UNL     1     178.690 183.386 173.910  1.00  0.00    -0.000 C 
BRANCH   8   9
ATOM      9  C   UNL     1     179.886 183.517 174.865  1.00  0.00    -0.003 C 
ATOM     10  C   UNL     1     179.504 184.298 176.119  1.00  0.00     0.004 C 
ENDBRANCH   8   9
ENDBRANCH   7   8
ENDBRANCH   6   7
ENDBRANCH   5   6
ENDBRANCH   4   5
ENDBRANCH   3   4
ENDBRANCH   2   3
ENDBRANCH   1   2
BRANCH   1  11
ATOM     11  C   UNL     1     179.566 179.106 172.503  1.00  0.00     0.000 C 
BRANCH  11  12
ATOM     12  C   UNL     1     180.523 178.975 171.306  1.00  0.00     0.000 C 
BRANCH  12  13
ATOM     13  C   UNL     1     181.310 177.653 171.326  1.00  0.00     0.000 C 
BRANCH  13  14
ATOM     14  C   UNL     1     181.329 177.008 172.724  1.00  0.00     0.000 C 
BRANCH  14  15
ATOM     15  C   UNL     1     182.436 177.578 173.624  1.00  0.00     0.001 C 
BRANCH  15  16
ATOM     16  C   UNL     1     181.885 178.274 174.878  1.00  0.00     0.012 C 
BRANCH  16  17
ATOM     17  C   UNL     1     182.966 178.405 175.953  1.00  0.00     0.123 C 
BRANCH  17  18
ATOM     18  C   UNL     1     182.539 179.377 177.008  1.00  0.00     0.305 C 
ATOM     19  O   UNL     1     181.690 179.028 177.874  1.00  0.00    -0.252 OA
BRANCH  18  20
ATOM     20  O   UNL     1     183.126 180.645 177.053  1.00  0.00    -0.469 OA
ATOM     21  C   UNL     1     182.763 181.623 178.019  1.00  0.00     0.282 C 
ENDBRANCH  18  20
ENDBRANCH  17  18
ENDBRANCH  16  17
ENDBRANCH  15  16
ENDBRANCH  14  15
ENDBRANCH  13  14
ENDBRANCH  12  13
ENDBRANCH  11  12
ENDBRANCH   1  11
TORSDOF 17
ENDMDL
MODEL 2
REMARK VINA RESULT:     2.710      2.911      6.437
REMARK INTER + INTRA:           4.522
REMARK INTER:                   5.767
REMARK INTRA:                  -1.245
REMARK UNBOUND:                -0.882
REMARK SMILES CCCCCCCCCCCCCCCCCC(=O)OC
REMARK SMILES IDX 10 1 9 2 8 3 7 4 6 5 5 6 4 7 3 8 2 9 1 10 11 11 12 12 13 13
REMARK SMILES IDX 14 14 15 15 16 16 17 17 18 18 19 19 20 20 21 21
REMARK H PARENT
REMARK Flexibility Score: inf
ROOT
ATOM      1  C   UNL     1     180.503 179.336 171.199  1.00  0.00     0.000 C 
ENDROOT
BRANCH   1   2
ATOM      2  C   UNL     1     180.349 179.060 172.702  1.00  0.00     0.000 C 
BRANCH   2   3
ATOM      3  C   UNL     1     181.328 177.968 173.160  1.00  0.00    -0.000 C 
BRANCH   3   4
ATOM      4  C   UNL     1     181.889 177.143 171.990  1.00  0.00    -0.000 C 
BRANCH   4   5
ATOM      5  C   UNL     1     181.089 175.853 171.739  1.00  0.00    -0.000 C 
BRANCH   5   6
ATOM      6  C   UNL     1     179.772 175.812 172.533  1.00  0.00    -0.000 C 
BRANCH   6   7
ATOM      7  C   UNL     1     179.552 174.462 173.239  1.00  0.00    -0.000 C 
BRANCH   7   8
ATOM      8  C   UNL     1     178.382 174.502 174.233  1.00  0.00    -0.000 C 
BRANCH   8   9
ATOM      9  C   UNL     1     178.628 173.635 175.477  1.00  0.00    -0.003 C 
ATOM     10  C   UNL     1     177.416 173.647 176.404  1.00  0.00     0.004 C 
ENDBRANCH   8   9
ENDBRANCH   7   8
ENDBRANCH   6   7
ENDBRANCH   5   6
ENDBRANCH   4   5
ENDBRANCH   3   4
ENDBRANCH   2   3
ENDBRANCH   1   2
BRANCH   1  11
ATOM     11  C   UNL     1     179.225 179.034 170.401  1.00  0.00     0.000 C 
BRANCH  11  12
ATOM     12  C   UNL     1     178.166 178.291 171.235  1.00  0.00     0.000 C 
BRANCH  12  13
ATOM     13  C   UNL     1     176.814 179.024 171.254  1.00  0.00     0.000 C 
BRANCH  13  14
ATOM     14  C   UNL     1     176.373 179.396 172.680  1.00  0.00     0.000 C 
BRANCH  14  15
ATOM     15  C   UNL     1     176.288 180.916 172.897  1.00  0.00     0.001 C 
BRANCH  15  16
ATOM     16  C   UNL     1     177.458 181.675 172.254  1.00  0.00     0.012 C 
BRANCH  16  17
ATOM     17  C   UNL     1     178.671 181.705 173.187  1.00  0.00     0.123 C 
BRANCH  17  18
ATOM     18  C   UNL     1     178.961 183.107 173.622  1.00  0.00     0.305 C 
ATOM     19  O   UNL     1     178.410 184.074 173.026  1.00  0.00    -0.252 OA
BRANCH  18  20
ATOM     20  O   UNL     1     179.799 183.328 174.719  1.00  0.00    -0.469 OA
ATOM     21  C   UNL     1     179.427 184.158 175.812  1.00  0.00     0.282 C 
ENDBRANCH  18  20
ENDBRANCH  17  18
ENDBRANCH  16  17
ENDBRANCH  15  16
ENDBRANCH  14  15
ENDBRANCH  13  14
ENDBRANCH  12  13
ENDBRANCH  11  12
ENDBRANCH   1  11
TORSDOF 17
ENDMDL
MODEL 3
REMARK VINA RESULT:     2.802      2.915      3.970
REMARK INTER + INTRA:           4.704
REMARK INTER:                   6.503
REMARK INTRA:                  -1.799
REMARK UNBOUND:                -0.882
REMARK SMILES CCCCCCCCCCCCCCCCCC(=O)OC
REMARK SMILES IDX 10 1 9 2 8 3 7 4 6 5 5 6 4 7 3 8 2 9 1 10 11 11 12 12 13 13
REMARK SMILES IDX 14 14 15 15 16 16 17 17 18 18 19 19 20 20 21 21
REMARK H PARENT
REMARK Flexibility Score: inf
ROOT
ATOM      1  C   UNL     1     178.238 178.147 171.283  1.00  0.00     0.000 C 
ENDROOT
BRANCH   1   2
ATOM      2  C   UNL     1     176.814 178.667 171.528  1.00  0.00     0.000 C 
BRANCH   2   3
ATOM      3  C   UNL     1     176.632 179.093 172.993  1.00  0.00    -0.000 C 
BRANCH   3   4
ATOM      4  C   UNL     1     176.203 180.563 173.136  1.00  0.00    -0.000 C 
BRANCH   4   5
ATOM      5  C   UNL     1     176.401 181.365 171.838  1.00  0.00    -0.000 C 
BRANCH   5   6
ATOM      6  C   UNL     1     177.705 182.180 171.840  1.00  0.00    -0.000 C 
BRANCH   6   7
ATOM      7  C   UNL     1     178.492 182.028 173.154  1.00  0.00    -0.000 C 
BRANCH   7   8
ATOM      8  C   UNL     1     178.610 183.351 173.925  1.00  0.00    -0.000 C 
BRANCH   8   9
ATOM      9  C   UNL     1     179.882 183.428 174.783  1.00  0.00    -0.003 C 
ATOM     10  C   UNL     1     179.639 184.233 176.056  1.00  0.00     0.004 C 
ENDBRANCH   8   9
ENDBRANCH   7   8
ENDBRANCH   6   7
ENDBRANCH   5   6
ENDBRANCH   4   5
ENDBRANCH   3   4
ENDBRANCH   2   3
ENDBRANCH   1   2
BRANCH   1  11
ATOM     11  C   UNL     1     179.122 179.154 170.531  1.00  0.00     0.000 C 
BRANCH  11  12
ATOM     12  C   UNL     1     180.497 179.349 171.194  1.00  0.00     0.000 C 
BRANCH  12  13
ATOM     13  C   UNL     1     180.439 179.183 172.723  1.00  0.00     0.000 C 
BRANCH  13  14
ATOM     14  C   UNL     1     181.311 178.014 173.215  1.00  0.00     0.000 C 
BRANCH  14  15
ATOM     15  C   UNL     1     181.701 177.049 172.085  1.00  0.00     0.001 C 
BRANCH  15  16
ATOM     16  C   UNL     1     180.812 175.797 172.038  1.00  0.00     0.012 C 
BRANCH  16  17
ATOM     17  C   UNL     1     179.700 175.874 173.086  1.00  0.00     0.123 C 
BRANCH  17  18
ATOM     18  C   UNL     1     179.170 174.507 173.387  1.00  0.00     0.305 C 
ATOM     19  O   UNL     1     179.666 173.502 172.808  1.00  0.00    -0.252 OA
BRANCH  18  20
ATOM     20  O   UNL     1     178.166 174.355 174.348  1.00  0.00    -0.469 OA
ATOM     21  C   UNL     1     178.389 173.702 175.591  1.00  0.00     0.282 C 
ENDBRANCH  18  20
ENDBRANCH  17  18
ENDBRANCH  16  17
ENDBRANCH  15  16
ENDBRANCH  14  15
ENDBRANCH  13  14
ENDBRANCH  12  13
ENDBRANCH  11  12
ENDBRANCH   1  11
TORSDOF 17
ENDMDL
MODEL 4
REMARK VINA RESULT:     2.863      2.109      5.496
REMARK INTER + INTRA:           4.826
REMARK INTER:                   5.948
REMARK INTRA:                  -1.123
REMARK UNBOUND:                -0.882
REMARK SMILES CCCCCCCCCCCCCCCCCC(=O)OC
REMARK SMILES IDX 10 1 9 2 8 3 7 4 6 5 5 6 4 7 3 8 2 9 1 10 11 11 12 12 13 13
REMARK SMILES IDX 14 14 15 15 16 16 17 17 18 18 19 19 20 20 21 21
REMARK H PARENT
REMARK Flexibility Score: inf
ROOT
ATOM      1  C   UNL     1     179.896 179.485 171.265  1.00  0.00     0.000 C 
ENDROOT
BRANCH   1   2
ATOM      2  C   UNL     1     181.299 178.868 171.176  1.00  0.00     0.000 C 
BRANCH   2   3
ATOM      3  C   UNL     1     181.234 177.339 171.313  1.00  0.00    -0.000 C 
BRANCH   3   4
ATOM      4  C   UNL     1     180.902 176.884 172.744  1.00  0.00    -0.000 C 
BRANCH   4   5
ATOM      5  C   UNL     1     182.065 177.118 173.723  1.00  0.00    -0.000 C 
BRANCH   5   6
ATOM      6  C   UNL     1     181.833 178.333 174.637  1.00  0.00    -0.000 C 
BRANCH   6   7
ATOM      7  C   UNL     1     182.712 178.297 175.900  1.00  0.00    -0.000 C 
BRANCH   7   8
ATOM      8  C   UNL     1     183.063 179.702 176.413  1.00  0.00    -0.000 C 
BRANCH   8   9
ATOM      9  C   UNL     1     182.329 180.059 177.715  1.00  0.00    -0.003 C 
ATOM     10  C   UNL     1     182.643 181.488 178.148  1.00  0.00     0.004 C 
ENDBRANCH   8   9
ENDBRANCH   7   8
ENDBRANCH   6   7
ENDBRANCH   5   6
ENDBRANCH   4   5
ENDBRANCH   3   4
ENDBRANCH   2   3
ENDBRANCH   1   2
BRANCH   1  11
ATOM     11  C   UNL     1     178.929 178.928 170.209  1.00  0.00     0.000 C 
BRANCH  11  12
ATOM     12  C   UNL     1     177.569 178.522 170.803  1.00  0.00     0.000 C 
BRANCH  12  13
ATOM     13  C   UNL     1     177.663 178.178 172.299  1.00  0.00     0.000 C 
BRANCH  13  14
ATOM     14  C   UNL     1     176.764 179.081 173.162  1.00  0.00     0.000 C 
BRANCH  14  15
ATOM     15  C   UNL     1     176.041 180.159 172.339  1.00  0.00     0.001 C 
BRANCH  15  16
ATOM     16  C   UNL     1     176.895 181.417 172.124  1.00  0.00     0.012 C 
BRANCH  16  17
ATOM     17  C   UNL     1     178.080 181.448 173.092  1.00  0.00     0.123 C 
BRANCH  17  18
ATOM     18  C   UNL     1     178.636 182.834 173.194  1.00  0.00     0.305 C 
ATOM     19  O   UNL     1     178.202 183.740 172.430  1.00  0.00    -0.252 OA
BRANCH  18  20
ATOM     20  O   UNL     1     179.592 183.122 174.172  1.00  0.00    -0.469 OA
ATOM     21  C   UNL     1     179.298 183.898 175.326  1.00  0.00     0.282 C 
ENDBRANCH  18  20
ENDBRANCH  17  18
ENDBRANCH  16  17
ENDBRANCH  15  16
ENDBRANCH  14  15
ENDBRANCH  13  14
ENDBRANCH  12  13
ENDBRANCH  11  12
ENDBRANCH   1  11
TORSDOF 17
ENDMDL
MODEL 5
REMARK VINA RESULT:     3.219      2.616      4.075
REMARK INTER + INTRA:           5.536
REMARK INTER:                   5.663
REMARK INTRA:                  -0.127
REMARK UNBOUND:                -0.882
REMARK SMILES CCCCCCCCCCCCCCCCCC(=O)OC
REMARK SMILES IDX 10 1 9 2 8 3 7 4 6 5 5 6 4 7 3 8 2 9 1 10 11 11 12 12 13 13
REMARK SMILES IDX 14 14 15 15 16 16 17 17 18 18 19 19 20 20 21 21
REMARK H PARENT
REMARK Flexibility Score: inf
ROOT
ATOM      1  C   UNL     1     177.196 178.552 170.985  1.00  0.00     0.000 C 
ENDROOT
BRANCH   1   2
ATOM      2  C   UNL     1     177.285 178.604 172.517  1.00  0.00     0.000 C 
BRANCH   2   3
ATOM      3  C   UNL     1     176.482 179.791 173.071  1.00  0.00    -0.000 C 
BRANCH   3   4
ATOM      4  C   UNL     1     176.037 180.773 171.974  1.00  0.00    -0.000 C 
BRANCH   4   5
ATOM      5  C   UNL     1     177.096 181.850 171.681  1.00  0.00    -0.000 C 
BRANCH   5   6
ATOM      6  C   UNL     1     178.259 181.824 172.686  1.00  0.00    -0.000 C 
BRANCH   6   7
ATOM      7  C   UNL     1     178.267 183.054 173.611  1.00  0.00    -0.000 C 
BRANCH   7   8
ATOM      8  C   UNL     1     179.536 183.134 174.474  1.00  0.00    -0.000 C 
BRANCH   8   9
ATOM      9  C   UNL     1     179.411 184.148 175.621  1.00  0.00    -0.003 C 
ATOM     10  C   UNL     1     180.680 184.177 176.468  1.00  0.00     0.004 C 
ENDBRANCH   8   9
ENDBRANCH   7   8
ENDBRANCH   6   7
ENDBRANCH   5   6
ENDBRANCH   4   5
ENDBRANCH   3   4
ENDBRANCH   2   3
ENDBRANCH   1   2
BRANCH   1  11
ATOM     11  C   UNL     1     178.558 178.311 170.315  1.00  0.00     0.000 C 
BRANCH  11  12
ATOM     12  C   UNL     1     179.527 179.492 170.500  1.00  0.00     0.000 C 
BRANCH  12  13
ATOM     13  C   UNL     1     180.750 179.117 171.354  1.00  0.00     0.000 C 
BRANCH  13  14
ATOM     14  C   UNL     1     180.396 178.962 172.843  1.00  0.00     0.000 C 
BRANCH  14  15
ATOM     15  C   UNL     1     181.491 178.238 173.641  1.00  0.00     0.001 C 
BRANCH  15  16
ATOM     16  C   UNL     1     181.974 176.950 172.957  1.00  0.00     0.012 C 
BRANCH  16  17
ATOM     17  C   UNL     1     181.040 176.554 171.811  1.00  0.00     0.123 C 
BRANCH  17  18
ATOM     18  C   UNL     1     180.163 175.413 172.223  1.00  0.00     0.305 C 
ATOM     19  O   UNL     1     179.261 175.598 173.086  1.00  0.00    -0.252 OA
BRANCH  18  20
ATOM     20  O   UNL     1     180.318 174.168 171.607  1.00  0.00    -0.469 OA
ATOM     21  C   UNL     1     181.196 173.962 170.508  1.00  0.00     0.282 C 
ENDBRANCH  18  20
ENDBRANCH  17  18
ENDBRANCH  16  17
ENDBRANCH  15  16
ENDBRANCH  14  15
ENDBRANCH  13  14
ENDBRANCH  12  13
ENDBRANCH  11  12
ENDBRANCH   1  11
TORSDOF 17
ENDMDL
MODEL 6
REMARK VINA RESULT:     3.243      1.210      2.218
REMARK INTER + INTRA:           5.585
REMARK INTER:                   7.004
REMARK INTRA:                  -1.419
REMARK UNBOUND:                -0.882
REMARK SMILES CCCCCCCCCCCCCCCCCC(=O)OC
REMARK SMILES IDX 10 1 9 2 8 3 7 4 6 5 5 6 4 7 3 8 2 9 1 10 11 11 12 12 13 13
REMARK SMILES IDX 14 14 15 15 16 16 17 17 18 18 19 19 20 20 21 21
REMARK H PARENT
REMARK Flexibility Score: inf
ROOT
ATOM      1  C   UNL     1     177.993 178.126 172.339  1.00  0.00     0.000 C 
ENDROOT
BRANCH   1   2
ATOM      2  C   UNL     1     177.058 179.002 173.186  1.00  0.00     0.000 C 
BRANCH   2   3
ATOM      3  C   UNL     1     176.047 179.740 172.296  1.00  0.00    -0.000 C 
BRANCH   3   4
ATOM      4  C   UNL     1     176.150 181.270 172.419  1.00  0.00    -0.000 C 
BRANCH   4   5
ATOM      5  C   UNL     1     177.510 181.810 171.945  1.00  0.00    -0.000 C 
BRANCH   5   6
ATOM      6  C   UNL     1     178.546 181.878 173.080  1.00  0.00    -0.000 C 
BRANCH   6   7
ATOM      7  C   UNL     1     178.584 183.258 173.760  1.00  0.00    -0.000 C 
BRANCH   7   8
ATOM      8  C   UNL     1     179.815 183.436 174.662  1.00  0.00    -0.000 C 
BRANCH   8   9
ATOM      9  C   UNL     1     179.609 184.504 175.746  1.00  0.00    -0.003 C 
ATOM     10  C   UNL     1     180.154 184.034 177.092  1.00  0.00     0.004 C 
ENDBRANCH   8   9
ENDBRANCH   7   8
ENDBRANCH   6   7
ENDBRANCH   5   6
ENDBRANCH   4   5
ENDBRANCH   3   4
ENDBRANCH   2   3
ENDBRANCH   1   2
BRANCH   1  11
ATOM     11  C   UNL     1     177.802 178.333 170.829  1.00  0.00     0.000 C 
BRANCH  11  12
ATOM     12  C   UNL     1     179.036 178.957 170.154  1.00  0.00     0.000 C 
BRANCH  12  13
ATOM     13  C   UNL     1     180.136 179.321 171.166  1.00  0.00     0.000 C 
BRANCH  13  14
ATOM     14  C   UNL     1     181.409 178.479 170.971  1.00  0.00     0.000 C 
BRANCH  14  15
ATOM     15  C   UNL     1     181.171 176.980 171.209  1.00  0.00     0.001 C 
BRANCH  15  16
ATOM     16  C   UNL     1     181.067 176.623 172.700  1.00  0.00     0.012 C 
BRANCH  16  17
ATOM     17  C   UNL     1     182.319 177.071 173.459  1.00  0.00     0.123 C 
BRANCH  17  18
ATOM     18  C   UNL     1     181.973 178.127 174.461  1.00  0.00     0.305 C 
ATOM     19  O   UNL     1     181.035 178.936 174.219  1.00  0.00    -0.252 OA
BRANCH  18  20
ATOM     20  O   UNL     1     182.658 178.171 175.679  1.00  0.00    -0.469 OA
ATOM     21  C   UNL     1     182.648 179.316 176.522  1.00  0.00     0.282 C 
ENDBRANCH  18  20
ENDBRANCH  17  18
ENDBRANCH  16  17
ENDBRANCH  15  16
ENDBRANCH  14  15
ENDBRANCH  13  14
ENDBRANCH  12  13
ENDBRANCH  11  12
ENDBRANCH   1  11
TORSDOF 17
ENDMDL
MODEL 7
REMARK VINA RESULT:     3.378      1.848      5.464
REMARK INTER + INTRA:           5.853
REMARK INTER:                   7.544
REMARK INTRA:                  -1.691
REMARK UNBOUND:                -0.882
REMARK SMILES CCCCCCCCCCCCCCCCCC(=O)OC
REMARK SMILES IDX 10 1 9 2 8 3 7 4 6 5 5 6 4 7 3 8 2 9 1 10 11 11 12 12 13 13
REMARK SMILES IDX 14 14 15 15 16 16 17 17 18 18 19 19 20 20 21 21
REMARK H PARENT
REMARK Flexibility Score: inf
ROOT
ATOM      1  C   UNL     1     179.178 178.715 172.014  1.00  0.00     0.000 C 
ENDROOT
BRANCH   1   2
ATOM      2  C   UNL     1     180.473 179.101 171.285  1.00  0.00     0.000 C 
BRANCH   2   3
ATOM      3  C   UNL     1     181.609 178.127 171.633  1.00  0.00    -0.000 C 
BRANCH   3   4
ATOM      4  C   UNL     1     181.151 176.985 172.556  1.00  0.00    -0.000 C 
BRANCH   4   5
ATOM      5  C   UNL     1     181.942 176.940 173.876  1.00  0.00    -0.000 C 
BRANCH   5   6
ATOM      6  C   UNL     1     181.996 178.306 174.579  1.00  0.00    -0.000 C 
BRANCH   6   7
ATOM      7  C   UNL     1     182.869 178.282 175.846  1.00  0.00    -0.000 C 
BRANCH   7   8
ATOM      8  C   UNL     1     182.379 179.269 176.917  1.00  0.00    -0.000 C 
BRANCH   8   9
ATOM      9  C   UNL     1     183.125 180.611 176.875  1.00  0.00    -0.003 C 
ATOM     10  C   UNL     1     182.710 181.507 178.038  1.00  0.00     0.004 C 
ENDBRANCH   8   9
ENDBRANCH   7   8
ENDBRANCH   6   7
ENDBRANCH   5   6
ENDBRANCH   4   5
ENDBRANCH   3   4
ENDBRANCH   2   3
ENDBRANCH   1   2
BRANCH   1  11
ATOM     11  C   UNL     1     178.083 178.210 171.062  1.00  0.00     0.000 C 
BRANCH  11  12
ATOM     12  C   UNL     1     176.743 178.941 171.256  1.00  0.00     0.000 C 
BRANCH  12  13
ATOM     13  C   UNL     1     176.502 179.342 172.722  1.00  0.00     0.000 C 
BRANCH  13  14
ATOM     14  C   UNL     1     176.219 180.847 172.875  1.00  0.00     0.000 C 
BRANCH  14  15
ATOM     15  C   UNL     1     176.718 181.669 171.676  1.00  0.00     0.001 C 
BRANCH  15  16
ATOM     16  C   UNL     1     177.814 182.675 172.060  1.00  0.00     0.012 C 
BRANCH  16  17
ATOM     17  C   UNL     1     178.717 182.110 173.159  1.00  0.00     0.123 C 
BRANCH  17  18
ATOM     18  C   UNL     1     178.826 183.079 174.295  1.00  0.00     0.305 C 
ATOM     19  O   UNL     1     177.781 183.477 174.880  1.00  0.00    -0.252 OA
BRANCH  18  20
ATOM     20  O   UNL     1     180.089 183.491 174.730  1.00  0.00    -0.469 OA
ATOM     21  C   UNL     1     180.290 184.172 175.961  1.00  0.00     0.282 C 
ENDBRANCH  18  20
ENDBRANCH  17  18
ENDBRANCH  16  17
ENDBRANCH  15  16
ENDBRANCH  14  15
ENDBRANCH  13  14
ENDBRANCH  12  13
ENDBRANCH  11  12
ENDBRANCH   1  11
TORSDOF 17
ENDMDL
MODEL 8
REMARK VINA RESULT:     3.613      3.421      6.654
REMARK INTER + INTRA:           6.321
REMARK INTER:                   7.251
REMARK INTRA:                  -0.930
REMARK UNBOUND:                -0.882
REMARK SMILES CCCCCCCCCCCCCCCCCC(=O)OC
REMARK SMILES IDX 10 1 9 2 8 3 7 4 6 5 5 6 4 7 3 8 2 9 1 10 11 11 12 12 13 13
REMARK SMILES IDX 14 14 15 15 16 16 17 17 18 18 19 19 20 20 21 21
REMARK H PARENT
REMARK Flexibility Score: inf
ROOT
ATOM      1  C   UNL     1     180.231 179.382 172.188  1.00  0.00     0.000 C 
ENDROOT
BRANCH   1   2
ATOM      2  C   UNL     1     180.992 178.423 173.115  1.00  0.00     0.000 C 
BRANCH   2   3
ATOM      3  C   UNL     1     181.868 177.457 172.302  1.00  0.00    -0.000 C 
BRANCH   3   4
ATOM      4  C   UNL     1     181.108 176.198 171.854  1.00  0.00    -0.000 C 
BRANCH   4   5
ATOM      5  C   UNL     1     179.791 175.997 172.625  1.00  0.00    -0.000 C 
BRANCH   5   6
ATOM      6  C   UNL     1     179.610 174.552 173.118  1.00  0.00    -0.000 C 
BRANCH   6   7
ATOM      7  C   UNL     1     178.576 174.442 174.252  1.00  0.00    -0.000 C 
BRANCH   7   8
ATOM      8  C   UNL     1     179.004 173.453 175.346  1.00  0.00    -0.000 C 
BRANCH   8   9
ATOM      9  C   UNL     1     178.056 173.455 176.555  1.00  0.00    -0.003 C 
ATOM     10  C   UNL     1     176.918 174.452 176.357  1.00  0.00     0.004 C 
ENDBRANCH   8   9
ENDBRANCH   7   8
ENDBRANCH   6   7
ENDBRANCH   5   6
ENDBRANCH   4   5
ENDBRANCH   3   4
ENDBRANCH   2   3
ENDBRANCH   1   2
BRANCH   1  11
ATOM     11  C   UNL     1     180.729 179.331 170.736  1.00  0.00     0.000 C 
BRANCH  11  12
ATOM     12  C   UNL     1     179.633 178.900 169.746  1.00  0.00     0.000 C 
BRANCH  12  13
ATOM     13  C   UNL     1     178.224 179.287 170.226  1.00  0.00     0.000 C 
BRANCH  13  14
ATOM     14  C   UNL     1     177.581 178.189 171.091  1.00  0.00     0.000 C 
BRANCH  14  15
ATOM     15  C   UNL     1     177.124 178.706 172.464  1.00  0.00     0.001 C 
BRANCH  15  16
ATOM     16  C   UNL     1     176.084 179.832 172.360  1.00  0.00     0.012 C 
BRANCH  16  17
ATOM     17  C   UNL     1     176.497 181.040 173.205  1.00  0.00     0.123 C 
BRANCH  17  18
ATOM     18  C   UNL     1     177.476 181.890 172.458  1.00  0.00     0.305 C 
ATOM     19  O   UNL     1     177.146 182.398 171.351  1.00  0.00    -0.252 OA
BRANCH  18  20
ATOM     20  O   UNL     1     178.727 182.157 173.022  1.00  0.00    -0.469 OA
ATOM     21  C   UNL     1     178.935 183.198 173.967  1.00  0.00     0.282 C 
ENDBRANCH  18  20
ENDBRANCH  17  18
ENDBRANCH  16  17
ENDBRANCH  15  16
ENDBRANCH  14  15
ENDBRANCH  13  14
ENDBRANCH  12  13
ENDBRANCH  11  12
ENDBRANCH   1  11
TORSDOF 17
ENDMDL
MODEL 9
REMARK VINA RESULT:     3.695      2.811      3.977
REMARK INTER + INTRA:           6.485
REMARK INTER:                   7.328
REMARK INTRA:                  -0.843
REMARK UNBOUND:                -0.882
REMARK SMILES CCCCCCCCCCCCCCCCCC(=O)OC
REMARK SMILES IDX 10 1 9 2 8 3 7 4 6 5 5 6 4 7 3 8 2 9 1 10 11 11 12 12 13 13
REMARK SMILES IDX 14 14 15 15 16 16 17 17 18 18 19 19 20 20 21 21
REMARK H PARENT
REMARK Flexibility Score: inf
ROOT
ATOM      1  C   UNL     1     179.173 178.944 170.541  1.00  0.00     0.000 C 
ENDROOT
BRANCH   1   2
ATOM      2  C   UNL     1     178.144 178.399 171.542  1.00  0.00     0.000 C 
BRANCH   2   3
ATOM      3  C   UNL     1     176.758 179.012 171.290  1.00  0.00    -0.000 C 
BRANCH   3   4
ATOM      4  C   UNL     1     176.231 179.809 172.495  1.00  0.00    -0.000 C 
BRANCH   4   5
ATOM      5  C   UNL     1     176.707 181.272 172.489  1.00  0.00    -0.000 C 
BRANCH   5   6
ATOM      6  C   UNL     1     178.192 181.412 172.863  1.00  0.00    -0.000 C 
BRANCH   6   7
ATOM      7  C   UNL     1     178.610 182.877 173.077  1.00  0.00    -0.000 C 
BRANCH   7   8
ATOM      8  C   UNL     1     178.577 183.289 174.557  1.00  0.00    -0.000 C 
BRANCH   8   9
ATOM      9  C   UNL     1     179.909 183.885 175.038  1.00  0.00    -0.003 C 
ATOM     10  C   UNL     1     179.836 184.273 176.512  1.00  0.00     0.004 C 
ENDBRANCH   8   9
ENDBRANCH   7   8
ENDBRANCH   6   7
ENDBRANCH   5   6
ENDBRANCH   4   5
ENDBRANCH   3   4
ENDBRANCH   2   3
ENDBRANCH   1   2
BRANCH   1  11
ATOM     11  C   UNL     1     180.563 179.148 171.163  1.00  0.00     0.000 C 
BRANCH  11  12
ATOM     12  C   UNL     1     180.531 179.149 172.701  1.00  0.00     0.000 C 
BRANCH  12  13
ATOM     13  C   UNL     1     181.421 178.051 173.307  1.00  0.00     0.000 C 
BRANCH  13  14
ATOM     14  C   UNL     1     181.919 177.054 172.246  1.00  0.00     0.000 C 
BRANCH  14  15
ATOM     15  C   UNL     1     180.877 175.975 171.910  1.00  0.00     0.001 C 
BRANCH  15  16
ATOM     16  C   UNL     1     179.806 175.822 173.000  1.00  0.00     0.012 C 
BRANCH  16  17
ATOM     17  C   UNL     1     179.296 174.381 173.070  1.00  0.00     0.123 C 
BRANCH  17  18
ATOM     18  C   UNL     1     178.986 174.004 174.485  1.00  0.00     0.305 C 
ATOM     19  O   UNL     1     179.911 173.596 175.240  1.00  0.00    -0.252 OA
BRANCH  18  20
ATOM     20  O   UNL     1     177.684 174.161 174.969  1.00  0.00    -0.469 OA
ATOM     21  C   UNL     1     177.349 173.970 176.338  1.00  0.00     0.282 C 
ENDBRANCH  18  20
ENDBRANCH  17  18
ENDBRANCH  16  17
ENDBRANCH  15  16
ENDBRANCH  14  15
ENDBRANCH  13  14
ENDBRANCH  12  13
ENDBRANCH  11  12
ENDBRANCH   1  11
TORSDOF 17
ENDMDL
