MODEL 1
REMARK VINA RESULT:    -3.173      0.000      0.000
REMARK INTER + INTRA:          -3.646
REMARK INTER:                  -3.544
REMARK INTRA:                  -0.103
REMARK UNBOUND:                -0.103
REMARK SMILES O=C([O-])c1ccccc1C(=O)[O-]
REMARK SMILES IDX 4 1 9 2 5 3 8 4 6 5 7 6 2 7 1 8 3 9 10 10 11 11 12 12
REMARK H PARENT
REMARK Flexibility Score: inf
ROOT
ATOM      1  C   UNL     1       3.417 -36.649  18.217  1.00  0.00     0.006 A 
ATOM      2  C   UNL     1       2.112 -37.158  17.967  1.00  0.00     0.006 A 
ATOM      3  C   UNL     1       4.084 -35.946  17.197  1.00  0.00     0.010 A 
ATOM      4  C   UNL     1       1.550 -37.001  16.686  1.00  0.00     0.010 A 
ATOM      5  C   UNL     1       3.498 -35.783  15.941  1.00  0.00     0.001 A 
ATOM      6  C   UNL     1       2.239 -36.320  15.682  1.00  0.00     0.001 A 
ENDROOT
BRANCH   1   7
ATOM      7  C   UNL     1       4.144 -36.884  19.486  1.00  0.00     0.072 C 
ATOM      8  O   UNL     1       4.917 -37.869  19.612  1.00  0.00    -0.545 OA
ATOM      9  O   UNL     1       4.031 -35.976  20.532  1.00  0.00    -0.545 OA
ENDBRANCH   1   7
BRANCH   2  10
ATOM     10  C   UNL     1       1.282 -37.787  19.020  1.00  0.00     0.072 C 
ATOM     11  O   UNL     1       0.822 -38.948  18.856  1.00  0.00    -0.545 OA
ATOM     12  O   UNL     1       0.947 -37.085  20.172  1.00  0.00    -0.545 OA
ENDBRANCH   2  10
TORSDOF 2
ENDMDL
MODEL 2
REMARK VINA RESULT:    -3.144      2.064      3.330
REMARK INTER + INTRA:          -3.614
REMARK INTER:                  -3.478
REMARK INTRA:                  -0.136
REMARK UNBOUND:                -0.103
REMARK SMILES O=C([O-])c1ccccc1C(=O)[O-]
REMARK SMILES IDX 4 1 9 2 5 3 8 4 6 5 7 6 2 7 1 8 3 9 10 10 11 11 12 12
REMARK H PARENT
REMARK Flexibility Score: inf
ROOT
ATOM      1  C   UNL     1       3.081 -37.094  18.889  1.00  0.00     0.006 A 
ATOM      2  C   UNL     1       2.493 -37.078  17.593  1.00  0.00     0.006 A 
ATOM      3  C   UNL     1       2.269 -37.365  20.005  1.00  0.00     0.010 A 
ATOM      4  C   UNL     1       1.104 -37.269  17.470  1.00  0.00     0.010 A 
ATOM      5  C   UNL     1       0.897 -37.573  19.857  1.00  0.00     0.001 A 
ATOM      6  C   UNL     1       0.313 -37.513  18.594  1.00  0.00     0.001 A 
ENDROOT
BRANCH   1   7
ATOM      7  C   UNL     1       4.505 -36.769  19.131  1.00  0.00     0.072 C 
ATOM      8  O   UNL     1       4.926 -35.588  19.010  1.00  0.00    -0.545 OA
ATOM      9  O   UNL     1       5.382 -37.757  19.563  1.00  0.00    -0.545 OA
ENDBRANCH   1   7
BRANCH   2  10
ATOM     10  C   UNL     1       3.291 -36.940  16.353  1.00  0.00     0.072 C 
ATOM     11  O   UNL     1       3.631 -35.799  15.942  1.00  0.00    -0.545 OA
ATOM     12  O   UNL     1       3.619 -38.057  15.594  1.00  0.00    -0.545 OA
ENDBRANCH   2  10
TORSDOF 2
ENDMDL
MODEL 3
REMARK VINA RESULT:    -3.143      2.096      3.817
REMARK INTER + INTRA:          -3.613
REMARK INTER:                  -3.444
REMARK INTRA:                  -0.169
REMARK UNBOUND:                -0.103
REMARK SMILES O=C([O-])c1ccccc1C(=O)[O-]
REMARK SMILES IDX 4 1 9 2 5 3 8 4 6 5 7 6 2 7 1 8 3 9 10 10 11 11 12 12
REMARK H PARENT
REMARK Flexibility Score: inf
ROOT
ATOM      1  C   UNL     1       2.512 -37.068  17.636  1.00  0.00     0.006 A 
ATOM      2  C   UNL     1       3.139 -37.008  18.912  1.00  0.00     0.006 A 
ATOM      3  C   UNL     1       1.133 -37.334  17.564  1.00  0.00     0.010 A 
ATOM      4  C   UNL     1       2.375 -37.278  20.063  1.00  0.00     0.010 A 
ATOM      5  C   UNL     1       0.390 -37.577  18.720  1.00  0.00     0.001 A 
ATOM      6  C   UNL     1       1.012 -37.562  19.966  1.00  0.00     0.001 A 
ENDROOT
BRANCH   1   7
ATOM      7  C   UNL     1       3.259 -36.934  16.364  1.00  0.00     0.072 C 
ATOM      8  O   UNL     1       3.593 -37.952  15.702  1.00  0.00    -0.545 OA
ATOM      9  O   UNL     1       3.542 -35.673  15.852  1.00  0.00    -0.545 OA
ENDBRANCH   1   7
BRANCH   2  10
ATOM     10  C   UNL     1       4.551 -36.599  19.092  1.00  0.00     0.072 C 
ATOM     11  O   UNL     1       5.399 -37.423  19.527  1.00  0.00    -0.545 OA
ATOM     12  O   UNL     1       4.947 -35.290  18.846  1.00  0.00    -0.545 OA
ENDBRANCH   2  10
TORSDOF 2
ENDMDL
MODEL 4
REMARK VINA RESULT:    -3.086      0.175      2.878
REMARK INTER + INTRA:          -3.550
REMARK INTER:                  -3.516
REMARK INTRA:                  -0.034
REMARK UNBOUND:                -0.103
REMARK SMILES O=C([O-])c1ccccc1C(=O)[O-]
REMARK SMILES IDX 4 1 9 2 5 3 8 4 6 5 7 6 2 7 1 8 3 9 10 10 11 11 12 12
REMARK H PARENT
REMARK Flexibility Score: inf
ROOT
ATOM      1  C   UNL     1       2.071 -37.160  17.883  1.00  0.00     0.006 A 
ATOM      2  C   UNL     1       3.377 -36.622  18.060  1.00  0.00     0.006 A 
ATOM      3  C   UNL     1       1.456 -37.060  16.622  1.00  0.00     0.010 A 
ATOM      4  C   UNL     1       3.991 -35.949  16.987  1.00  0.00     0.010 A 
ATOM      5  C   UNL     1       2.093 -36.407  15.566  1.00  0.00     0.001 A 
ATOM      6  C   UNL     1       3.352 -35.842  15.751  1.00  0.00     0.001 A 
ENDROOT
BRANCH   1   7
ATOM      7  C   UNL     1       1.292 -37.763  18.989  1.00  0.00     0.072 C 
ATOM      8  O   UNL     1       0.844 -38.935  18.896  1.00  0.00    -0.545 OA
ATOM      9  O   UNL     1       1.104 -37.059  20.173  1.00  0.00    -0.545 OA
ENDBRANCH   1   7
BRANCH   2  10
ATOM     10  C   UNL     1       4.155 -36.802  19.307  1.00  0.00     0.072 C 
ATOM     11  O   UNL     1       4.823 -37.854  19.492  1.00  0.00    -0.545 OA
ATOM     12  O   UNL     1       4.109 -35.847  20.315  1.00  0.00    -0.545 OA
ENDBRANCH   2  10
TORSDOF 2
ENDMDL
MODEL 5
REMARK VINA RESULT:    -3.021      3.907      5.991
REMARK INTER + INTRA:          -3.477
REMARK INTER:                  -4.006
REMARK INTRA:                   0.529
REMARK UNBOUND:                -0.103
REMARK SMILES O=C([O-])c1ccccc1C(=O)[O-]
REMARK SMILES IDX 4 1 9 2 5 3 8 4 6 5 7 6 2 7 1 8 3 9 10 10 11 11 12 12
REMARK H PARENT
REMARK Flexibility Score: inf
ROOT
ATOM      1  C   UNL     1       5.741 -37.078  22.369  1.00  0.00     0.006 A 
ATOM      2  C   UNL     1       5.631 -35.780  21.796  1.00  0.00     0.006 A 
ATOM      3  C   UNL     1       5.967 -37.197  23.752  1.00  0.00     0.010 A 
ATOM      4  C   UNL     1       5.815 -34.652  22.617  1.00  0.00     0.010 A 
ATOM      5  C   UNL     1       6.125 -36.064  24.551  1.00  0.00     0.001 A 
ATOM      6  C   UNL     1       6.062 -34.794  23.983  1.00  0.00     0.001 A 
ENDROOT
BRANCH   1   7
ATOM      7  C   UNL     1       5.698 -38.320  21.564  1.00  0.00     0.072 C 
ATOM      8  O   UNL     1       5.729 -38.274  20.306  1.00  0.00    -0.545 OA
ATOM      9  O   UNL     1       5.692 -39.559  22.194  1.00  0.00    -0.545 OA
ENDBRANCH   1   7
BRANCH   2  10
ATOM     10  C   UNL     1       5.257 -35.559  20.380  1.00  0.00     0.072 C 
ATOM     11  O   UNL     1       6.104 -35.107  19.564  1.00  0.00    -0.545 OA
ATOM     12  O   UNL     1       3.956 -35.784  19.947  1.00  0.00    -0.545 OA
ENDBRANCH   2  10
TORSDOF 2
ENDMDL
MODEL 6
REMARK VINA RESULT:    -2.951      1.948      3.593
REMARK INTER + INTRA:          -3.398
REMARK INTER:                  -3.426
REMARK INTRA:                   0.027
REMARK UNBOUND:                -0.103
REMARK SMILES O=C([O-])c1ccccc1C(=O)[O-]
REMARK SMILES IDX 4 1 9 2 5 3 8 4 6 5 7 6 2 7 1 8 3 9 10 10 11 11 12 12
REMARK H PARENT
REMARK Flexibility Score: inf
ROOT
ATOM      1  C   UNL     1       2.779 -36.845  19.325  1.00  0.00     0.006 A 
ATOM      2  C   UNL     1       3.485 -36.536  18.130  1.00  0.00     0.006 A 
ATOM      3  C   UNL     1       3.325 -36.457  20.562  1.00  0.00     0.010 A 
ATOM      4  C   UNL     1       4.742 -35.908  18.220  1.00  0.00     0.010 A 
ATOM      5  C   UNL     1       4.563 -35.815  20.627  1.00  0.00     0.001 A 
ATOM      6  C   UNL     1       5.276 -35.552  19.459  1.00  0.00     0.001 A 
ENDROOT
BRANCH   1   7
ATOM      7  C   UNL     1       1.519 -37.623  19.338  1.00  0.00     0.072 C 
ATOM      8  O   UNL     1       1.416 -38.693  18.683  1.00  0.00    -0.545 OA
ATOM      9  O   UNL     1       0.454 -37.213  20.132  1.00  0.00    -0.545 OA
ENDBRANCH   1   7
BRANCH   2  10
ATOM     10  C   UNL     1       2.923 -36.781  16.781  1.00  0.00     0.072 C 
ATOM     11  O   UNL     1       3.384 -37.706  16.061  1.00  0.00    -0.545 OA
ATOM     12  O   UNL     1       1.930 -35.956  16.267  1.00  0.00    -0.545 OA
ENDBRANCH   2  10
TORSDOF 2
ENDMDL
MODEL 7
REMARK VINA RESULT:    -2.896      1.959      3.240
REMARK INTER + INTRA:          -3.337
REMARK INTER:                  -3.414
REMARK INTRA:                   0.077
REMARK UNBOUND:                -0.103
REMARK SMILES O=C([O-])c1ccccc1C(=O)[O-]
REMARK SMILES IDX 4 1 9 2 5 3 8 4 6 5 7 6 2 7 1 8 3 9 10 10 11 11 12 12
REMARK H PARENT
REMARK Flexibility Score: inf
ROOT
ATOM      1  C   UNL     1       3.498 -36.480  18.164  1.00  0.00     0.006 A 
ATOM      2  C   UNL     1       2.831 -36.822  19.374  1.00  0.00     0.006 A 
ATOM      3  C   UNL     1       4.751 -35.844  18.230  1.00  0.00     0.010 A 
ATOM      4  C   UNL     1       3.413 -36.458  20.602  1.00  0.00     0.010 A 
ATOM      5  C   UNL     1       5.320 -35.513  19.460  1.00  0.00     0.001 A 
ATOM      6  C   UNL     1       4.648 -35.807  20.643  1.00  0.00     0.001 A 
ENDROOT
BRANCH   1   7
ATOM      7  C   UNL     1       2.901 -36.698  16.826  1.00  0.00     0.072 C 
ATOM      8  O   UNL     1       1.996 -35.938  16.393  1.00  0.00    -0.545 OA
ATOM      9  O   UNL     1       3.384 -37.709  16.004  1.00  0.00    -0.545 OA
ENDBRANCH   1   7
BRANCH   2  10
ATOM     10  C   UNL     1       1.579 -37.613  19.402  1.00  0.00     0.072 C 
ATOM     11  O   UNL     1       1.459 -38.637  18.680  1.00  0.00    -0.545 OA
ATOM     12  O   UNL     1       0.499 -37.201  20.174  1.00  0.00    -0.545 OA
ENDBRANCH   2  10
TORSDOF 2
ENDMDL
MODEL 8
REMARK VINA RESULT:    -2.853      2.663      5.033
REMARK INTER + INTRA:          -3.289
REMARK INTER:                  -3.245
REMARK INTRA:                  -0.043
REMARK UNBOUND:                -0.103
REMARK SMILES O=C([O-])c1ccccc1C(=O)[O-]
REMARK SMILES IDX 4 1 9 2 5 3 8 4 6 5 7 6 2 7 1 8 3 9 10 10 11 11 12 12
REMARK H PARENT
REMARK Flexibility Score: inf
ROOT
ATOM      1  C   UNL     1       4.392 -36.631  20.722  1.00  0.00     0.006 A 
ATOM      2  C   UNL     1       5.327 -37.400  21.468  1.00  0.00     0.006 A 
ATOM      3  C   UNL     1       4.225 -35.269  21.031  1.00  0.00     0.010 A 
ATOM      4  C   UNL     1       6.013 -36.795  22.538  1.00  0.00     0.010 A 
ATOM      5  C   UNL     1       4.933 -34.683  22.082  1.00  0.00     0.001 A 
ATOM      6  C   UNL     1       5.815 -35.447  22.842  1.00  0.00     0.001 A 
ENDROOT
BRANCH   1   7
ATOM      7  C   UNL     1       3.525 -37.213  19.671  1.00  0.00     0.072 C 
ATOM      8  O   UNL     1       2.356 -37.594  19.939  1.00  0.00    -0.545 OA
ATOM      9  O   UNL     1       3.975 -37.284  18.358  1.00  0.00    -0.545 OA
ENDBRANCH   1   7
BRANCH   2  10
ATOM     10  C   UNL     1       5.668 -38.800  21.124  1.00  0.00     0.072 C 
ATOM     11  O   UNL     1       6.125 -39.080  19.985  1.00  0.00    -0.545 OA
ATOM     12  O   UNL     1       5.429 -39.830  22.027  1.00  0.00    -0.545 OA
ENDBRANCH   2  10
TORSDOF 2
ENDMDL
MODEL 9
REMARK VINA RESULT:    -1.929      3.839      5.888
REMARK INTER + INTRA:          -2.257
REMARK INTER:                  -2.750
REMARK INTRA:                   0.493
REMARK UNBOUND:                -0.103
REMARK SMILES O=C([O-])c1ccccc1C(=O)[O-]
REMARK SMILES IDX 4 1 9 2 5 3 8 4 6 5 7 6 2 7 1 8 3 9 10 10 11 11 12 12
REMARK H PARENT
REMARK Flexibility Score: inf
ROOT
ATOM      1  C   UNL     1       5.530 -35.846  21.809  1.00  0.00     0.006 A 
ATOM      2  C   UNL     1       5.681 -37.143  22.376  1.00  0.00     0.006 A 
ATOM      3  C   UNL     1       5.726 -34.717  22.624  1.00  0.00     0.010 A 
ATOM      4  C   UNL     1       5.957 -37.260  23.751  1.00  0.00     0.010 A 
ATOM      5  C   UNL     1       6.022 -34.857  23.980  1.00  0.00     0.001 A 
ATOM      6  C   UNL     1       6.125 -36.125  24.546  1.00  0.00     0.001 A 
ENDROOT
BRANCH   1   7
ATOM      7  C   UNL     1       5.106 -35.625  20.407  1.00  0.00     0.072 C 
ATOM      8  O   UNL     1       3.911 -35.813  20.059  1.00  0.00    -0.545 OA
ATOM      9  O   UNL     1       6.013 -35.138  19.473  1.00  0.00    -0.545 OA
ENDBRANCH   1   7
BRANCH   2  10
ATOM     10  C   UNL     1       5.630 -38.382  21.566  1.00  0.00     0.072 C 
ATOM     11  O   UNL     1       5.739 -38.325  20.313  1.00  0.00    -0.545 OA
ATOM     12  O   UNL     1       5.398 -39.613  22.168  1.00  0.00    -0.545 OA
ENDBRANCH   2  10
TORSDOF 2
ENDMDL
