MODEL 1
REMARK VINA RESULT:    -4.295      0.000      0.000
REMARK INTER + INTRA:          -7.008
REMARK INTER:                  -6.555
REMARK INTRA:                  -0.454
REMARK UNBOUND:                -0.454
REMARK SMILES CC1=CCC[C@H](C)C(=O)C[C@H](C(C)C)C(=O)C1
REMARK SMILES IDX 8 1 9 2 6 3 7 4 5 5 4 6 3 7 2 8 1 9 10 11 11 12 15 13 16 14
REMARK SMILES IDX 17 15 12 17 13 18 14 19
REMARK H PARENT
REMARK Flexibility Score: 70.00
ROOT
ATOM      1  C   UNL     1     -12.794  13.298 -27.961  1.00  0.00     0.136 C 
ATOM      2  O   UNL     1     -12.502  14.004 -27.007  1.00  0.00    -0.299 OA
ENDROOT
BRANCH   1   3
ATOM      3  C   UNL     1     -13.034  11.814 -27.700  1.00  0.00     0.053 C 
ATOM      4  C   UNL     1     -12.239  11.205 -26.537  1.00  0.00     0.016 C 
BRANCH   3   5
ATOM      5  C   UNL     1     -14.541  11.473 -27.603  1.00  0.00     0.015 C 
BRANCH   5   6
ATOM      6  C   UNL     1     -15.118  10.639 -28.762  1.00  0.00     0.028 C 
BRANCH   6   7
ATOM      7  C   UNL     1     -16.423  11.175 -29.302  1.00  0.00    -0.028 C 
ATOM      8  C   UNL     1     -16.654  12.273 -30.072  1.00  0.00    -0.070 CG0
ATOM      9  C   UNL     1     -18.091  12.501 -30.485  1.00  0.00     0.039 C 
ATOM     10  G   UNL     1     -15.675  13.393 -30.426  1.00  0.00     0.000 G0
ENDBRANCH   6   7
ENDBRANCH   5   6
ENDBRANCH   3   5
ENDBRANCH   1   3
BRANCH   1  11
ATOM     11  C   UNL     1     -12.953  13.967 -29.310  1.00  0.00     0.087 C 
BRANCH  11  12
ATOM     12  C   UNL     1     -13.054  12.953 -30.484  1.00  0.00     0.066 C 
BRANCH  12  13
ATOM     13  C   UNL     1     -14.410  13.020 -31.178  1.00  0.00     0.140 C 
ATOM     14  O   UNL     1     -14.457  12.939 -32.397  1.00  0.00    -0.299 OA
BRANCH  13  15
ATOM     15  C   UNL     1     -15.659  13.396 -30.425  1.00  0.00     0.106 CG0
ATOM     16  G   UNL     1     -16.656  12.288 -30.087  1.00  0.00     0.000 G0
ENDBRANCH  13  15
ENDBRANCH  12  13
BRANCH  12  17
ATOM     17  C   UNL     1     -11.905  13.144 -31.528  1.00  0.00    -0.006 C 
ATOM     18  C   UNL     1     -11.411  14.601 -31.596  1.00  0.00     0.008 C 
ATOM     19  C   UNL     1     -10.704  12.229 -31.219  1.00  0.00     0.008 C 
ENDBRANCH  12  17
ENDBRANCH  11  12
ENDBRANCH   1  11
TORSDOF 1
ENDMDL
MODEL 2
REMARK VINA RESULT:    -4.295      2.040      3.804
REMARK INTER + INTRA:          -7.008
REMARK INTER:                  -6.389
REMARK INTRA:                  -0.619
REMARK UNBOUND:                -0.454
REMARK SMILES CC1=CCC[C@H](C)C(=O)C[C@H](C(C)C)C(=O)C1
REMARK SMILES IDX 8 1 9 2 6 3 7 4 5 5 4 6 3 7 2 8 1 9 10 11 11 12 15 13 16 14
REMARK SMILES IDX 17 15 12 17 13 18 14 19
REMARK H PARENT
REMARK Flexibility Score: 70.00
ROOT
ATOM      1  C   UNL     1     -14.815  13.884 -31.902  1.00  0.00     0.136 C 
ATOM      2  O   UNL     1     -15.811  13.865 -32.610  1.00  0.00    -0.299 OA
ENDROOT
BRANCH   1   3
ATOM      3  C   UNL     1     -14.931  14.541 -30.529  1.00  0.00     0.053 C 
ATOM      4  C   UNL     1     -14.754  16.066 -30.503  1.00  0.00     0.016 C 
BRANCH   3   5
ATOM      5  C   UNL     1     -16.210  14.101 -29.776  1.00  0.00     0.015 C 
BRANCH   5   6
ATOM      6  C   UNL     1     -16.223  12.648 -29.266  1.00  0.00     0.028 C 
BRANCH   6   7
ATOM      7  C   UNL     1     -15.068  12.317 -28.351  1.00  0.00    -0.028 C 
ATOM      8  C   UNL     1     -13.865  11.753 -28.646  1.00  0.00    -0.070 CG0
ATOM      9  C   UNL     1     -12.903  11.603 -27.489  1.00  0.00     0.039 C 
ATOM     10  G   UNL     1     -13.434  11.099 -29.959  1.00  0.00     0.000 G0
ENDBRANCH   6   7
ENDBRANCH   5   6
ENDBRANCH   3   5
ENDBRANCH   1   3
BRANCH   1  11
ATOM     11  C   UNL     1     -13.567  13.202 -32.422  1.00  0.00     0.087 C 
BRANCH  11  12
ATOM     12  C   UNL     1     -12.438  13.106 -31.357  1.00  0.00     0.066 C 
BRANCH  12  13
ATOM     13  C   UNL     1     -12.321  11.700 -30.778  1.00  0.00     0.140 C 
ATOM     14  O   UNL     1     -11.381  10.995 -31.119  1.00  0.00    -0.299 OA
BRANCH  13  15
ATOM     15  C   UNL     1     -13.436  11.087 -29.974  1.00  0.00     0.106 CG0
ATOM     16  G   UNL     1     -13.838  11.768 -28.667  1.00  0.00     0.000 G0
ENDBRANCH  13  15
ENDBRANCH  12  13
BRANCH  12  17
ATOM     17  C   UNL     1     -11.056  13.573 -31.922  1.00  0.00    -0.006 C 
ATOM     18  C   UNL     1     -11.044  13.642 -33.460  1.00  0.00     0.008 C 
ATOM     19  C   UNL     1     -10.654  14.951 -31.362  1.00  0.00     0.008 C 
ENDBRANCH  12  17
ENDBRANCH  11  12
ENDBRANCH   1  11
TORSDOF 1
ENDMDL
MODEL 3
REMARK VINA RESULT:    -4.231      2.151      3.743
REMARK INTER + INTRA:          -6.910
REMARK INTER:                  -6.333
REMARK INTRA:                  -0.577
REMARK UNBOUND:                -0.454
REMARK SMILES CC1=CCC[C@H](C)C(=O)C[C@H](C(C)C)C(=O)C1
REMARK SMILES IDX 8 1 9 2 6 3 7 4 5 5 4 6 3 7 2 8 1 9 10 11 11 12 15 13 16 14
REMARK SMILES IDX 17 15 12 17 13 18 14 19
REMARK H PARENT
REMARK Flexibility Score: 70.00
ROOT
ATOM      1  C   UNL     1     -16.165  13.464 -30.101  1.00  0.00     0.136 C 
ATOM      2  O   UNL     1     -15.886  14.645 -29.954  1.00  0.00    -0.299 OA
ENDROOT
BRANCH   1   3
ATOM      3  C   UNL     1     -17.479  12.964 -29.507  1.00  0.00     0.053 C 
ATOM      4  C   UNL     1     -18.251  11.947 -30.359  1.00  0.00     0.016 C 
BRANCH   3   5
ATOM      5  C   UNL     1     -17.313  12.478 -28.046  1.00  0.00     0.015 C 
BRANCH   5   6
ATOM      6  C   UNL     1     -17.084  10.966 -27.863  1.00  0.00     0.028 C 
BRANCH   6   7
ATOM      7  C   UNL     1     -15.754  10.627 -27.232  1.00  0.00    -0.028 C 
ATOM      8  C   UNL     1     -14.550  10.396 -27.824  1.00  0.00    -0.070 CG0
ATOM      9  C   UNL     1     -13.394  10.129 -26.888  1.00  0.00     0.039 C 
ATOM     10  G   UNL     1     -14.259  10.204 -29.313  1.00  0.00     0.000 G0
ENDBRANCH   6   7
ENDBRANCH   5   6
ENDBRANCH   3   5
ENDBRANCH   1   3
BRANCH   1  11
ATOM     11  C   UNL     1     -15.214  12.611 -30.914  1.00  0.00     0.087 C 
BRANCH  11  12
ATOM     12  C   UNL     1     -13.771  12.589 -30.334  1.00  0.00     0.066 C 
BRANCH  12  13
ATOM     13  C   UNL     1     -13.317  11.174 -29.993  1.00  0.00     0.140 C 
ATOM     14  O   UNL     1     -12.249  10.772 -30.431  1.00  0.00    -0.299 OA
BRANCH  13  15
ATOM     15  C   UNL     1     -14.241  10.196 -29.317  1.00  0.00     0.106 CG0
ATOM     16  G   UNL     1     -14.554  10.408 -27.836  1.00  0.00     0.000 G0
ENDBRANCH  13  15
ENDBRANCH  12  13
BRANCH  12  17
ATOM     17  C   UNL     1     -12.740  13.268 -31.297  1.00  0.00    -0.006 C 
ATOM     18  C   UNL     1     -13.421  13.961 -32.491  1.00  0.00     0.008 C 
ATOM     19  C   UNL     1     -11.872  14.301 -30.554  1.00  0.00     0.008 C 
ENDBRANCH  12  17
ENDBRANCH  11  12
ENDBRANCH   1  11
TORSDOF 1
ENDMDL
MODEL 4
REMARK VINA RESULT:    -4.179      1.606      3.768
REMARK INTER + INTRA:          -6.832
REMARK INTER:                  -6.368
REMARK INTRA:                  -0.464
REMARK UNBOUND:                -0.454
REMARK SMILES CC1=CCC[C@H](C)C(=O)C[C@H](C(C)C)C(=O)C1
REMARK SMILES IDX 8 1 9 2 6 3 7 4 5 5 4 6 3 7 2 8 1 9 10 11 11 12 15 13 16 14
REMARK SMILES IDX 17 15 12 17 13 18 14 19
REMARK H PARENT
REMARK Flexibility Score: 70.00
ROOT
ATOM      1  C   UNL     1     -12.803  13.975 -28.856  1.00  0.00     0.136 C 
ATOM      2  O   UNL     1     -12.490  14.573 -27.837  1.00  0.00    -0.299 OA
ENDROOT
BRANCH   1   3
ATOM      3  C   UNL     1     -12.901  14.777 -30.151  1.00  0.00     0.053 C 
ATOM      4  C   UNL     1     -11.949  14.346 -31.275  1.00  0.00     0.016 C 
BRANCH   3   5
ATOM      5  C   UNL     1     -14.360  14.902 -30.653  1.00  0.00     0.015 C 
BRANCH   5   6
ATOM      6  C   UNL     1     -14.938  13.659 -31.356  1.00  0.00     0.028 C 
BRANCH   6   7
ATOM      7  C   UNL     1     -16.273  13.219 -30.805  1.00  0.00    -0.028 C 
ATOM      8  C   UNL     1     -16.551  12.285 -29.854  1.00  0.00    -0.070 CG0
ATOM      9  C   UNL     1     -18.010  12.120 -29.495  1.00  0.00     0.039 C 
ATOM     10  G   UNL     1     -15.594  11.267 -29.232  1.00  0.00     0.000 G0
ENDBRANCH   6   7
ENDBRANCH   5   6
ENDBRANCH   3   5
ENDBRANCH   1   3
BRANCH   1  11
ATOM     11  C   UNL     1     -13.007  12.477 -28.760  1.00  0.00     0.087 C 
BRANCH  11  12
ATOM     12  C   UNL     1     -13.773  12.050 -27.476  1.00  0.00     0.066 C 
BRANCH  12  13
ATOM     13  C   UNL     1     -15.145  11.468 -27.800  1.00  0.00     0.140 C 
ATOM     14  O   UNL     1     -15.824  11.007 -26.893  1.00  0.00    -0.299 OA
BRANCH  13  15
ATOM     15  C   UNL     1     -15.590  11.254 -29.222  1.00  0.00     0.106 CG0
ATOM     16  G   UNL     1     -16.532  12.285 -29.844  1.00  0.00     0.000 G0
ENDBRANCH  13  15
ENDBRANCH  12  13
BRANCH  12  17
ATOM     17  C   UNL     1     -12.951  11.039 -26.609  1.00  0.00    -0.006 C 
ATOM     18  C   UNL     1     -12.283   9.944 -27.461  1.00  0.00     0.008 C 
ATOM     19  C   UNL     1     -11.865  11.757 -25.785  1.00  0.00     0.008 C 
ENDBRANCH  12  17
ENDBRANCH  11  12
ENDBRANCH   1  11
TORSDOF 1
ENDMDL
MODEL 5
REMARK VINA RESULT:    -4.097      1.838      2.158
REMARK INTER + INTRA:          -6.706
REMARK INTER:                  -6.271
REMARK INTRA:                  -0.434
REMARK UNBOUND:                -0.454
REMARK SMILES CC1=CCC[C@H](C)C(=O)C[C@H](C(C)C)C(=O)C1
REMARK SMILES IDX 8 1 9 2 6 3 7 4 5 5 4 6 3 7 2 8 1 9 10 11 11 12 15 13 16 14
REMARK SMILES IDX 17 15 12 17 13 18 14 19
REMARK H PARENT
REMARK Flexibility Score: 70.00
ROOT
ATOM      1  C   UNL     1     -13.841  11.502 -29.261  1.00  0.00     0.136 C 
ATOM      2  O   UNL     1     -13.883  10.654 -30.140  1.00  0.00    -0.299 OA
ENDROOT
BRANCH   1   3
ATOM      3  C   UNL     1     -13.629  11.029 -27.826  1.00  0.00     0.053 C 
ATOM      4  C   UNL     1     -12.896  12.013 -26.902  1.00  0.00     0.016 C 
BRANCH   3   5
ATOM      5  C   UNL     1     -14.936  10.506 -27.182  1.00  0.00     0.015 C 
BRANCH   5   6
ATOM      6  C   UNL     1     -16.021  11.565 -26.910  1.00  0.00     0.028 C 
BRANCH   6   7
ATOM      7  C   UNL     1     -17.221  11.448 -27.819  1.00  0.00    -0.028 C 
ATOM      8  C   UNL     1     -17.514  12.134 -28.959  1.00  0.00    -0.070 CG0
ATOM      9  C   UNL     1     -18.789  11.732 -29.664  1.00  0.00     0.039 C 
ATOM     10  G   UNL     1     -16.806  13.368 -29.516  1.00  0.00     0.000 G0
ENDBRANCH   6   7
ENDBRANCH   5   6
ENDBRANCH   3   5
ENDBRANCH   1   3
BRANCH   1  11
ATOM     11  C   UNL     1     -13.944  12.954 -29.678  1.00  0.00     0.087 C 
BRANCH  11  12
ATOM     12  C   UNL     1     -14.663  13.145 -31.043  1.00  0.00     0.066 C 
BRANCH  12  13
ATOM     13  C   UNL     1     -16.171  13.297 -30.874  1.00  0.00     0.140 C 
ATOM     14  O   UNL     1     -16.858  13.531 -31.858  1.00  0.00    -0.299 OA
BRANCH  13  15
ATOM     15  C   UNL     1     -16.803  13.381 -29.510  1.00  0.00     0.106 CG0
ATOM     16  G   UNL     1     -17.512  12.139 -28.969  1.00  0.00     0.000 G0
ENDBRANCH  13  15
ENDBRANCH  12  13
BRANCH  12  17
ATOM     17  C   UNL     1     -14.087  14.358 -31.848  1.00  0.00    -0.006 C 
ATOM     18  C   UNL     1     -14.045  15.650 -31.011  1.00  0.00     0.008 C 
ATOM     19  C   UNL     1     -12.669  14.062 -32.374  1.00  0.00     0.008 C 
ENDBRANCH  12  17
ENDBRANCH  11  12
ENDBRANCH   1  11
TORSDOF 1
ENDMDL
MODEL 6
REMARK VINA RESULT:    -4.018     10.660     13.069
REMARK INTER + INTRA:          -6.586
REMARK INTER:                  -6.382
REMARK INTRA:                  -0.204
REMARK UNBOUND:                -0.454
REMARK SMILES CC1=CCC[C@H](C)C(=O)C[C@H](C(C)C)C(=O)C1
REMARK SMILES IDX 8 1 9 2 6 3 7 4 5 5 4 6 3 7 2 8 1 9 10 11 11 12 15 13 16 14
REMARK SMILES IDX 17 15 12 17 13 18 14 19
REMARK H PARENT
REMARK Flexibility Score: 70.00
ROOT
ATOM      1  C   UNL     1     -26.055  11.758 -28.656  1.00  0.00     0.136 C 
ATOM      2  O   UNL     1     -24.924  11.329 -28.483  1.00  0.00    -0.299 OA
ENDROOT
BRANCH   1   3
ATOM      3  C   UNL     1     -27.223  10.895 -28.185  1.00  0.00     0.053 C 
ATOM      4  C   UNL     1     -26.906   9.907 -27.053  1.00  0.00     0.016 C 
BRANCH   3   5
ATOM      5  C   UNL     1     -28.484  11.738 -27.872  1.00  0.00     0.015 C 
BRANCH   5   6
ATOM      6  C   UNL     1     -29.713  11.461 -28.757  1.00  0.00     0.028 C 
BRANCH   6   7
ATOM      7  C   UNL     1     -29.375  10.805 -30.074  1.00  0.00    -0.028 C 
ATOM      8  C   UNL     1     -28.659  11.292 -31.125  1.00  0.00    -0.070 CG0
ATOM      9  C   UNL     1     -28.462  10.345 -32.287  1.00  0.00     0.039 C 
ATOM     10  G   UNL     1     -28.181  12.727 -31.348  1.00  0.00     0.000 G0
ENDBRANCH   6   7
ENDBRANCH   5   6
ENDBRANCH   3   5
ENDBRANCH   1   3
BRANCH   1  11
ATOM     11  C   UNL     1     -26.200  13.135 -29.268  1.00  0.00     0.087 C 
BRANCH  11  12
ATOM     12  C   UNL     1     -25.649  13.217 -30.720  1.00  0.00     0.066 C 
BRANCH  12  13
ATOM     13  C   UNL     1     -26.732  12.936 -31.756  1.00  0.00     0.140 C 
ATOM     14  O   UNL     1     -26.461  13.051 -32.943  1.00  0.00    -0.299 OA
BRANCH  13  15
ATOM     15  C   UNL     1     -28.169  12.735 -31.354  1.00  0.00     0.106 CG0
ATOM     16  G   UNL     1     -28.654  11.305 -31.114  1.00  0.00     0.000 G0
ENDBRANCH  13  15
ENDBRANCH  12  13
BRANCH  12  17
ATOM     17  C   UNL     1     -24.966  14.594 -31.013  1.00  0.00    -0.006 C 
ATOM     18  C   UNL     1     -25.753  15.777 -30.420  1.00  0.00     0.008 C 
ATOM     19  C   UNL     1     -23.525  14.636 -30.470  1.00  0.00     0.008 C 
ENDBRANCH  12  17
ENDBRANCH  11  12
ENDBRANCH   1  11
TORSDOF 1
ENDMDL
MODEL 7
REMARK VINA RESULT:    -3.999      1.877      4.845
REMARK INTER + INTRA:          -6.556
REMARK INTER:                  -6.411
REMARK INTRA:                  -0.145
REMARK UNBOUND:                -0.454
REMARK SMILES CC1=CCC[C@H](C)C(=O)C[C@H](C(C)C)C(=O)C1
REMARK SMILES IDX 8 1 9 2 6 3 7 4 5 5 4 6 3 7 2 8 1 9 10 11 11 12 15 13 16 14
REMARK SMILES IDX 17 15 12 17 13 18 14 19
REMARK H PARENT
REMARK Flexibility Score: 70.00
ROOT
ATOM      1  C   UNL     1     -16.405  13.282 -29.365  1.00  0.00     0.136 C 
ATOM      2  O   UNL     1     -16.385  14.491 -29.187  1.00  0.00    -0.299 OA
ENDROOT
BRANCH   1   3
ATOM      3  C   UNL     1     -16.902  12.769 -30.714  1.00  0.00     0.053 C 
ATOM      4  C   UNL     1     -18.421  12.590 -30.840  1.00  0.00     0.016 C 
BRANCH   3   5
ATOM      5  C   UNL     1     -16.321  13.580 -31.898  1.00  0.00     0.015 C 
BRANCH   5   6
ATOM      6  C   UNL     1     -14.979  13.078 -32.462  1.00  0.00     0.028 C 
BRANCH   6   7
ATOM      7  C   UNL     1     -13.799  13.933 -32.066  1.00  0.00    -0.028 C 
ATOM      8  C   UNL     1     -12.780  13.657 -31.205  1.00  0.00    -0.070 CG0
ATOM      9  C   UNL     1     -11.720  14.726 -31.070  1.00  0.00     0.039 C 
ATOM     10  G   UNL     1     -12.667  12.482 -30.234  1.00  0.00     0.000 G0
ENDBRANCH   6   7
ENDBRANCH   5   6
ENDBRANCH   3   5
ENDBRANCH   1   3
BRANCH   1  11
ATOM     11  C   UNL     1     -15.878  12.399 -28.254  1.00  0.00     0.087 C 
BRANCH  11  12
ATOM     12  C   UNL     1     -14.607  11.601 -28.662  1.00  0.00     0.066 C 
BRANCH  12  13
ATOM     13  C   UNL     1     -13.421  12.521 -28.931  1.00  0.00     0.140 C 
ATOM     14  O   UNL     1     -13.193  13.437 -28.154  1.00  0.00    -0.299 OA
BRANCH  13  15
ATOM     15  C   UNL     1     -12.661  12.461 -30.229  1.00  0.00     0.106 CG0
ATOM     16  G   UNL     1     -12.782  13.647 -31.187  1.00  0.00     0.000 G0
ENDBRANCH  13  15
ENDBRANCH  12  13
BRANCH  12  17
ATOM     17  C   UNL     1     -14.222  10.522 -27.596  1.00  0.00    -0.006 C 
ATOM     18  C   UNL     1     -12.798  10.724 -27.046  1.00  0.00     0.008 C 
ATOM     19  C   UNL     1     -15.212  10.517 -26.416  1.00  0.00     0.008 C 
ENDBRANCH  12  17
ENDBRANCH  11  12
ENDBRANCH   1  11
TORSDOF 1
ENDMDL
MODEL 8
REMARK VINA RESULT:    -3.993      1.678      2.340
REMARK INTER + INTRA:          -6.548
REMARK INTER:                  -6.213
REMARK INTRA:                  -0.334
REMARK UNBOUND:                -0.454
REMARK SMILES CC1=CCC[C@H](C)C(=O)C[C@H](C(C)C)C(=O)C1
REMARK SMILES IDX 8 1 9 2 6 3 7 4 5 5 4 6 3 7 2 8 1 9 10 11 11 12 15 13 16 14
REMARK SMILES IDX 17 15 12 17 13 18 14 19
REMARK H PARENT
REMARK Flexibility Score: 70.00
ROOT
ATOM      1  C   UNL     1     -11.892  11.056 -29.913  1.00  0.00     0.136 C 
ATOM      2  O   UNL     1     -11.339  10.198 -30.586  1.00  0.00    -0.299 OA
ENDROOT
BRANCH   1   3
ATOM      3  C   UNL     1     -12.944  10.600 -28.905  1.00  0.00     0.053 C 
ATOM      4  C   UNL     1     -12.892  11.287 -27.533  1.00  0.00     0.016 C 
BRANCH   3   5
ATOM      5  C   UNL     1     -14.373  10.620 -29.500  1.00  0.00     0.015 C 
BRANCH   5   6
ATOM      6  C   UNL     1     -15.262  11.804 -29.076  1.00  0.00     0.028 C 
BRANCH   6   7
ATOM      7  C   UNL     1     -15.972  12.471 -30.230  1.00  0.00    -0.028 C 
ATOM      8  C   UNL     1     -15.670  13.631 -30.876  1.00  0.00    -0.070 CG0
ATOM      9  C   UNL     1     -16.569  13.994 -32.036  1.00  0.00     0.039 C 
ATOM     10  G   UNL     1     -14.648  14.692 -30.469  1.00  0.00     0.000 G0
ENDBRANCH   6   7
ENDBRANCH   5   6
ENDBRANCH   3   5
ENDBRANCH   1   3
BRANCH   1  11
ATOM     11  C   UNL     1     -11.444  12.491 -30.094  1.00  0.00     0.087 C 
BRANCH  11  12
ATOM     12  C   UNL     1     -12.430  13.332 -30.951  1.00  0.00     0.066 C 
BRANCH  12  13
ATOM     13  C   UNL     1     -13.251  14.291 -30.096  1.00  0.00     0.140 C 
ATOM     14  O   UNL     1     -12.847  14.586 -28.980  1.00  0.00    -0.299 OA
BRANCH  13  15
ATOM     15  C   UNL     1     -14.640  14.710 -30.500  1.00  0.00     0.106 CG0
ATOM     16  G   UNL     1     -15.642  13.616 -30.867  1.00  0.00     0.000 G0
ENDBRANCH  13  15
ENDBRANCH  12  13
BRANCH  12  17
ATOM     17  C   UNL     1     -11.697  14.119 -32.089  1.00  0.00    -0.006 C 
ATOM     18  C   UNL     1     -10.653  15.108 -31.540  1.00  0.00     0.008 C 
ATOM     19  C   UNL     1     -11.001  13.162 -33.077  1.00  0.00     0.008 C 
ENDBRANCH  12  17
ENDBRANCH  11  12
ENDBRANCH   1  11
TORSDOF 1
ENDMDL
MODEL 9
REMARK VINA RESULT:    -3.944      1.785      5.093
REMARK INTER + INTRA:          -6.473
REMARK INTER:                  -6.209
REMARK INTRA:                  -0.263
REMARK UNBOUND:                -0.454
REMARK SMILES CC1=CCC[C@H](C)C(=O)C[C@H](C(C)C)C(=O)C1
REMARK SMILES IDX 8 1 9 2 6 3 7 4 5 5 4 6 3 7 2 8 1 9 10 11 11 12 15 13 16 14
REMARK SMILES IDX 17 15 12 17 13 18 14 19
REMARK H PARENT
REMARK Flexibility Score: 70.00
ROOT
ATOM      1  C   UNL     1     -15.045  13.456 -31.975  1.00  0.00     0.136 C 
ATOM      2  O   UNL     1     -15.024  12.861 -33.043  1.00  0.00    -0.299 OA
ENDROOT
BRANCH   1   3
ATOM      3  C   UNL     1     -13.879  14.389 -31.658  1.00  0.00     0.053 C 
ATOM      4  C   UNL     1     -14.139  15.431 -30.562  1.00  0.00     0.016 C 
BRANCH   3   5
ATOM      5  C   UNL     1     -12.561  13.615 -31.410  1.00  0.00     0.015 C 
BRANCH   5   6
ATOM      6  C   UNL     1     -12.663  12.398 -30.472  1.00  0.00     0.028 C 
BRANCH   6   7
ATOM      7  C   UNL     1     -12.478  12.741 -29.013  1.00  0.00    -0.028 C 
ATOM      8  C   UNL     1     -13.251  12.410 -27.942  1.00  0.00    -0.070 CG0
ATOM      9  C   UNL     1     -12.749  12.879 -26.595  1.00  0.00     0.039 C 
ATOM     10  G   UNL     1     -14.641  11.775 -27.950  1.00  0.00     0.000 G0
ENDBRANCH   6   7
ENDBRANCH   5   6
ENDBRANCH   3   5
ENDBRANCH   1   3
BRANCH   1  11
ATOM     11  C   UNL     1     -16.254  13.264 -31.085  1.00  0.00     0.087 C 
BRANCH  11  12
ATOM     12  C   UNL     1     -16.122  12.041 -30.135  1.00  0.00     0.066 C 
BRANCH  12  13
ATOM     13  C   UNL     1     -15.760  12.461 -28.714  1.00  0.00     0.140 C 
ATOM     14  O   UNL     1     -16.253  13.481 -28.254  1.00  0.00    -0.299 OA
BRANCH  13  15
ATOM     15  C   UNL     1     -14.657  11.777 -27.951  1.00  0.00     0.106 CG0
ATOM     16  G   UNL     1     -13.271  12.422 -27.958  1.00  0.00     0.000 G0
ENDBRANCH  13  15
ENDBRANCH  12  13
BRANCH  12  17
ATOM     17  C   UNL     1     -17.417  11.162 -30.123  1.00  0.00    -0.006 C 
ATOM     18  C   UNL     1     -17.511  10.272 -28.870  1.00  0.00     0.008 C 
ATOM     19  C   UNL     1     -18.687  12.029 -30.210  1.00  0.00     0.008 C 
ENDBRANCH  12  17
ENDBRANCH  11  12
ENDBRANCH   1  11
TORSDOF 1
ENDMDL
