MODEL 1
REMARK VINA RESULT:    -3.791      0.000      0.000
REMARK INTER + INTRA:          -3.791
REMARK INTER:                  -3.791
REMARK INTRA:                   0.000
REMARK UNBOUND:                 0.000
REMARK SMILES CC1(C)O[C@]2(C)CC[C@H]1CC2
REMARK SMILES IDX 1 1 2 2 9 3 10 4 11 5 5 6 4 7 7 8 8 9 6 10 3 11
REMARK H PARENT
REMARK Flexibility Score: inf
ROOT
ATOM      1  C   UNL     1     165.476 168.151 167.876  1.00  0.00     0.042 C 
ATOM      2  C   UNL     1     166.552 167.999 168.973  1.00  0.00     0.066 C 
ATOM      3  C   UNL     1     166.714 169.342 169.785  1.00  0.00     0.021 C 
ATOM      4  C   UNL     1     167.838 169.148 170.832  1.00  0.00     0.009 C 
ATOM      5  C   UNL     1     169.103 168.601 170.125  1.00  0.00     0.035 C 
ATOM      6  C   UNL     1     168.853 168.517 168.592  1.00  0.00     0.066 C 
ATOM      7  O   UNL     1     167.780 167.607 168.340  1.00  0.00    -0.369 OA
ATOM      8  C   UNL     1     168.463 169.927 168.064  1.00  0.00     0.035 C 
ATOM      9  C   UNL     1     167.214 170.442 168.818  1.00  0.00     0.009 C 
ATOM     10  C   UNL     1     170.109 168.008 167.875  1.00  0.00     0.042 C 
ATOM     11  C   UNL     1     166.104 166.850 169.901  1.00  0.00     0.042 C 
ENDROOT
TORSDOF 0
ENDMDL
MODEL 2
REMARK VINA RESULT:    -3.768      1.380      2.520
REMARK INTER + INTRA:          -3.768
REMARK INTER:                  -3.768
REMARK INTRA:                   0.000
REMARK UNBOUND:                 0.000
REMARK SMILES CC1(C)O[C@]2(C)CC[C@H]1CC2
REMARK SMILES IDX 1 1 2 2 9 3 10 4 11 5 5 6 4 7 7 8 8 9 6 10 3 11
REMARK H PARENT
REMARK Flexibility Score: inf
ROOT
ATOM      1  C   UNL     1     167.044 165.406 167.875  1.00  0.00     0.042 C 
ATOM      2  C   UNL     1     167.261 166.415 169.024  1.00  0.00     0.066 C 
ATOM      3  C   UNL     1     165.891 166.769 169.721  1.00  0.00     0.021 C 
ATOM      4  C   UNL     1     166.161 167.818 170.827  1.00  0.00     0.009 C 
ATOM      5  C   UNL     1     166.965 168.997 170.224  1.00  0.00     0.035 C 
ATOM      6  C   UNL     1     167.153 168.778 168.695  1.00  0.00     0.066 C 
ATOM      7  O   UNL     1     167.900 167.580 168.480  1.00  0.00    -0.369 OA
ATOM      8  C   UNL     1     165.754 168.635 168.029  1.00  0.00     0.035 C 
ATOM      9  C   UNL     1     164.979 167.465 168.683  1.00  0.00     0.009 C 
ATOM     10  C   UNL     1     167.919 169.955 168.079  1.00  0.00     0.042 C 
ATOM     11  C   UNL     1     168.233 165.762 170.031  1.00  0.00     0.042 C 
ENDROOT
TORSDOF 0
ENDMDL
MODEL 3
REMARK VINA RESULT:    -3.750      1.804      3.869
REMARK INTER + INTRA:          -3.750
REMARK INTER:                  -3.750
REMARK INTRA:                   0.000
REMARK UNBOUND:                 0.000
REMARK SMILES CC1(C)O[C@]2(C)CC[C@H]1CC2
REMARK SMILES IDX 1 1 2 2 9 3 10 4 11 5 5 6 4 7 7 8 8 9 6 10 3 11
REMARK H PARENT
REMARK Flexibility Score: inf
ROOT
ATOM      1  C   UNL     1     170.067 166.854 167.934  1.00  0.00     0.042 C 
ATOM      2  C   UNL     1     169.000 167.140 169.013  1.00  0.00     0.066 C 
ATOM      3  C   UNL     1     168.704 165.844 169.862  1.00  0.00     0.021 C 
ATOM      4  C   UNL     1     167.595 166.174 170.890  1.00  0.00     0.009 C 
ATOM      5  C   UNL     1     166.394 166.816 170.152  1.00  0.00     0.035 C 
ATOM      6  C   UNL     1     166.664 166.831 168.620  1.00  0.00     0.066 C 
ATOM      7  O   UNL     1     167.820 167.627 168.355  1.00  0.00    -0.369 OA
ATOM      8  C   UNL     1     166.923 165.375 168.138  1.00  0.00     0.035 C 
ATOM      9  C   UNL     1     168.112 164.767 168.922  1.00  0.00     0.009 C 
ATOM     10  C   UNL     1     165.468 167.435 167.875  1.00  0.00     0.042 C 
ATOM     11  C   UNL     1     169.547 168.269 169.913  1.00  0.00     0.042 C 
ENDROOT
TORSDOF 0
ENDMDL
MODEL 4
REMARK VINA RESULT:    -3.742      1.521      2.817
REMARK INTER + INTRA:          -3.742
REMARK INTER:                  -3.742
REMARK INTRA:                   0.000
REMARK UNBOUND:                 0.000
REMARK SMILES CC1(C)O[C@]2(C)CC[C@H]1CC2
REMARK SMILES IDX 1 1 2 2 9 3 10 4 11 5 5 6 4 7 7 8 8 9 6 10 3 11
REMARK H PARENT
REMARK Flexibility Score: inf
ROOT
ATOM      1  C   UNL     1     168.294 169.915 167.877  1.00  0.00     0.042 C 
ATOM      2  C   UNL     1     168.191 168.845 168.985  1.00  0.00     0.066 C 
ATOM      3  C   UNL     1     169.600 168.591 169.648  1.00  0.00     0.021 C 
ATOM      4  C   UNL     1     169.447 167.477 170.712  1.00  0.00     0.009 C 
ATOM      5  C   UNL     1     168.745 166.255 170.071  1.00  0.00     0.035 C 
ATOM      6  C   UNL     1     168.511 166.517 168.556  1.00  0.00     0.066 C 
ATOM      7  O   UNL     1     167.652 167.649 168.402  1.00  0.00    -0.369 OA
ATOM      8  C   UNL     1     169.878 166.816 167.877  1.00  0.00     0.035 C 
ATOM      9  C   UNL     1     170.554 168.025 168.568  1.00  0.00     0.009 C 
ATOM     10  C   UNL     1     167.845 165.301 167.901  1.00  0.00     0.042 C 
ATOM     11  C   UNL     1     167.181 169.364 170.033  1.00  0.00     0.042 C 
ENDROOT
TORSDOF 0
ENDMDL
MODEL 5
REMARK VINA RESULT:    -3.713      1.022      3.100
REMARK INTER + INTRA:          -3.713
REMARK INTER:                  -3.713
REMARK INTRA:                   0.000
REMARK UNBOUND:                 0.000
REMARK SMILES CC1(C)O[C@]2(C)CC[C@H]1CC2
REMARK SMILES IDX 1 1 2 2 9 3 10 4 11 5 5 6 4 7 7 8 8 9 6 10 3 11
REMARK H PARENT
REMARK Flexibility Score: inf
ROOT
ATOM      1  C   UNL     1     168.799 166.186 170.023  1.00  0.00     0.042 C 
ATOM      2  C   UNL     1     168.745 167.325 168.982  1.00  0.00     0.066 C 
ATOM      3  C   UNL     1     169.083 168.712 169.654  1.00  0.00     0.021 C 
ATOM      4  C   UNL     1     168.964 169.819 168.579  1.00  0.00     0.009 C 
ATOM      5  C   UNL     1     167.589 169.699 167.875  1.00  0.00     0.035 C 
ATOM      6  C   UNL     1     166.754 168.569 168.542  1.00  0.00     0.066 C 
ATOM      7  O   UNL     1     167.438 167.325 168.387  1.00  0.00    -0.369 OA
ATOM      8  C   UNL     1     166.598 168.883 170.058  1.00  0.00     0.035 C 
ATOM      9  C   UNL     1     167.995 169.022 170.711  1.00  0.00     0.009 C 
ATOM     10  C   UNL     1     165.377 168.461 167.876  1.00  0.00     0.042 C 
ATOM     11  C   UNL     1     169.773 166.989 167.879  1.00  0.00     0.042 C 
ENDROOT
TORSDOF 0
ENDMDL
MODEL 6
REMARK VINA RESULT:    -3.701      0.998      2.187
REMARK INTER + INTRA:          -3.701
REMARK INTER:                  -3.701
REMARK INTRA:                   0.000
REMARK UNBOUND:                 0.000
REMARK SMILES CC1(C)O[C@]2(C)CC[C@H]1CC2
REMARK SMILES IDX 1 1 2 2 9 3 10 4 11 5 5 6 4 7 7 8 8 9 6 10 3 11
REMARK H PARENT
REMARK Flexibility Score: inf
ROOT
ATOM      1  C   UNL     1     167.248 170.447 168.404  1.00  0.00     0.042 C 
ATOM      2  C   UNL     1     166.916 168.949 168.578  1.00  0.00     0.066 C 
ATOM      3  C   UNL     1     166.852 168.566 170.107  1.00  0.00     0.021 C 
ATOM      4  C   UNL     1     166.568 167.049 170.220  1.00  0.00     0.009 C 
ATOM      5  C   UNL     1     167.587 166.275 169.348  1.00  0.00     0.035 C 
ATOM      6  C   UNL     1     168.608 167.269 168.724  1.00  0.00     0.066 C 
ATOM      7  O   UNL     1     167.913 168.187 167.879  1.00  0.00    -0.369 OA
ATOM      8  C   UNL     1     169.311 168.056 169.867  1.00  0.00     0.035 C 
ATOM      9  C   UNL     1     168.252 168.789 170.727  1.00  0.00     0.009 C 
ATOM     10  C   UNL     1     169.643 166.512 167.884  1.00  0.00     0.042 C 
ATOM     11  C   UNL     1     165.555 168.697 167.894  1.00  0.00     0.042 C 
ENDROOT
TORSDOF 0
ENDMDL
MODEL 7
REMARK VINA RESULT:    -3.685      1.407      3.225
REMARK INTER + INTRA:          -3.685
REMARK INTER:                  -3.685
REMARK INTRA:                   0.000
REMARK UNBOUND:                 0.000
REMARK SMILES CC1(C)O[C@]2(C)CC[C@H]1CC2
REMARK SMILES IDX 1 1 2 2 9 3 10 4 11 5 5 6 4 7 7 8 8 9 6 10 3 11
REMARK H PARENT
REMARK Flexibility Score: inf
ROOT
ATOM      1  C   UNL     1     170.517 167.832 167.893  1.00  0.00     0.042 C 
ATOM      2  C   UNL     1     169.738 168.455 169.071  1.00  0.00     0.066 C 
ATOM      3  C   UNL     1     168.616 167.470 169.581  1.00  0.00     0.021 C 
ATOM      4  C   UNL     1     167.837 168.164 170.723  1.00  0.00     0.009 C 
ATOM      5  C   UNL     1     167.375 169.563 170.246  1.00  0.00     0.035 C 
ATOM      6  C   UNL     1     167.767 169.767 168.755  1.00  0.00     0.066 C 
ATOM      7  O   UNL     1     169.189 169.707 168.631  1.00  0.00    -0.369 OA
ATOM      8  C   UNL     1     167.130 168.631 167.905  1.00  0.00     0.035 C 
ATOM      9  C   UNL     1     167.597 167.254 168.436  1.00  0.00     0.009 C 
ATOM     10  C   UNL     1     167.286 171.136 168.260  1.00  0.00     0.042 C 
ATOM     11  C   UNL     1     170.758 168.748 170.193  1.00  0.00     0.042 C 
ENDROOT
TORSDOF 0
ENDMDL
MODEL 8
REMARK VINA RESULT:    -3.671      1.408      2.692
REMARK INTER + INTRA:          -3.671
REMARK INTER:                  -3.671
REMARK INTRA:                   0.000
REMARK UNBOUND:                 0.000
REMARK SMILES CC1(C)O[C@]2(C)CC[C@H]1CC2
REMARK SMILES IDX 1 1 2 2 9 3 10 4 11 5 5 6 4 7 7 8 8 9 6 10 3 11
REMARK H PARENT
REMARK Flexibility Score: inf
ROOT
ATOM      1  C   UNL     1     165.886 166.893 170.015  1.00  0.00     0.042 C 
ATOM      2  C   UNL     1     167.028 166.709 168.992  1.00  0.00     0.066 C 
ATOM      3  C   UNL     1     168.306 166.097 169.686  1.00  0.00     0.021 C 
ATOM      4  C   UNL     1     169.430 165.984 168.629  1.00  0.00     0.009 C 
ATOM      5  C   UNL     1     169.604 167.352 167.923  1.00  0.00     0.035 C 
ATOM      6  C   UNL     1     168.659 168.403 168.572  1.00  0.00     0.066 C 
ATOM      7  O   UNL     1     167.304 167.987 168.398  1.00  0.00    -0.369 OA
ATOM      8  C   UNL     1     168.974 168.496 170.093  1.00  0.00     0.035 C 
ATOM      9  C   UNL     1     168.814 167.102 170.748  1.00  0.00     0.009 C 
ATOM     10  C   UNL     1     168.846 169.770 167.905  1.00  0.00     0.042 C 
ATOM     11  C   UNL     1     166.505 165.769 167.884  1.00  0.00     0.042 C 
ENDROOT
TORSDOF 0
ENDMDL
