MODEL 1
REMARK VINA RESULT:    -4.687      0.000      0.000
REMARK INTER + INTRA:          -5.041
REMARK INTER:                  -4.961
REMARK INTRA:                  -0.080
REMARK UNBOUND:                -0.080
REMARK SMILES CC(C)[C@@H]1CC[C@@H](C)CC1=O
REMARK SMILES IDX 8 1 7 2 6 3 5 4 4 5 10 6 11 7 9 8 2 9 1 10 3 11
REMARK H PARENT
REMARK Flexibility Score: inf
ROOT
ATOM      1  C   UNL     1      71.577  50.836  24.343  1.00  0.00     0.008 C 
ATOM      2  C   UNL     1      70.503  51.073  23.277  1.00  0.00    -0.007 C 
ATOM      3  C   UNL     1      70.043  49.736  22.665  1.00  0.00     0.004 C 
ATOM      4  C   UNL     1      68.934  49.963  21.629  1.00  0.00     0.012 C 
ATOM      5  C   UNL     1      69.409  50.888  20.483  1.00  0.00     0.058 C 
ATOM      6  C   UNL     1      70.029  52.147  21.065  1.00  0.00     0.136 C 
ATOM      7  O   UNL     1      69.818  53.245  20.569  1.00  0.00    -0.299 OA
ATOM      8  C   UNL     1      71.026  52.021  22.183  1.00  0.00     0.079 C 
ENDROOT
BRANCH   5   9
ATOM      9  C   UNL     1      68.301  51.180  19.422  1.00  0.00    -0.007 C 
ATOM     10  C   UNL     1      68.887  51.331  18.011  1.00  0.00     0.008 C 
ATOM     11  C   UNL     1      67.166  50.140  19.414  1.00  0.00     0.008 C 
ENDBRANCH   5   9
TORSDOF 1
ENDMDL
MODEL 2
REMARK VINA RESULT:    -4.673      2.539      4.489
REMARK INTER + INTRA:          -5.027
REMARK INTER:                  -4.872
REMARK INTRA:                  -0.155
REMARK UNBOUND:                -0.080
REMARK SMILES CC(C)[C@@H]1CC[C@@H](C)CC1=O
REMARK SMILES IDX 8 1 7 2 6 3 5 4 4 5 10 6 11 7 9 8 2 9 1 10 3 11
REMARK H PARENT
REMARK Flexibility Score: inf
ROOT
ATOM      1  C   UNL     1      66.889  49.814  19.375  1.00  0.00     0.008 C 
ATOM      2  C   UNL     1      67.790  51.040  19.197  1.00  0.00    -0.007 C 
ATOM      3  C   UNL     1      67.858  51.450  17.712  1.00  0.00     0.004 C 
ATOM      4  C   UNL     1      68.722  52.706  17.533  1.00  0.00     0.012 C 
ATOM      5  C   UNL     1      70.165  52.478  18.044  1.00  0.00     0.058 C 
ATOM      6  C   UNL     1      70.126  51.907  19.452  1.00  0.00     0.136 C 
ATOM      7  O   UNL     1      70.909  52.285  20.312  1.00  0.00    -0.299 OA
ATOM      8  C   UNL     1      69.199  50.760  19.749  1.00  0.00     0.079 C 
ENDROOT
BRANCH   5   9
ATOM      9  C   UNL     1      71.074  53.742  17.918  1.00  0.00    -0.007 C 
ATOM     10  C   UNL     1      71.676  53.875  16.511  1.00  0.00     0.008 C 
ATOM     11  C   UNL     1      70.367  55.051  18.315  1.00  0.00     0.008 C 
ENDBRANCH   5   9
TORSDOF 1
ENDMDL
MODEL 3
REMARK VINA RESULT:    -4.656      1.261      4.612
REMARK INTER + INTRA:          -5.009
REMARK INTER:                  -4.862
REMARK INTRA:                  -0.147
REMARK UNBOUND:                -0.080
REMARK SMILES CC(C)[C@@H]1CC[C@@H](C)CC1=O
REMARK SMILES IDX 8 1 7 2 6 3 5 4 4 5 10 6 11 7 9 8 2 9 1 10 3 11
REMARK H PARENT
REMARK Flexibility Score: inf
ROOT
ATOM      1  C   UNL     1      68.597  51.101  19.701  1.00  0.00     0.008 C 
ATOM      2  C   UNL     1      69.688  50.839  20.744  1.00  0.00    -0.007 C 
ATOM      3  C   UNL     1      69.106  50.095  21.961  1.00  0.00     0.004 C 
ATOM      4  C   UNL     1      70.204  49.788  22.989  1.00  0.00     0.012 C 
ATOM      5  C   UNL     1      70.889  51.083  23.489  1.00  0.00     0.058 C 
ATOM      6  C   UNL     1      71.322  51.925  22.301  1.00  0.00     0.136 C 
ATOM      7  O   UNL     1      72.399  52.504  22.292  1.00  0.00    -0.299 OA
ATOM      8  C   UNL     1      70.349  52.160  21.178  1.00  0.00     0.079 C 
ENDROOT
BRANCH   5   9
ATOM      9  C   UNL     1      72.042  50.820  24.509  1.00  0.00    -0.007 C 
ATOM     10  C   UNL     1      71.992  51.799  25.692  1.00  0.00     0.008 C 
ATOM     11  C   UNL     1      72.087  49.371  25.026  1.00  0.00     0.008 C 
ENDBRANCH   5   9
TORSDOF 1
ENDMDL
MODEL 4
REMARK VINA RESULT:    -4.290      2.530      4.565
REMARK INTER + INTRA:          -4.621
REMARK INTER:                  -4.464
REMARK INTRA:                  -0.157
REMARK UNBOUND:                -0.080
REMARK SMILES CC(C)[C@@H]1CC[C@@H](C)CC1=O
REMARK SMILES IDX 8 1 7 2 6 3 5 4 4 5 10 6 11 7 9 8 2 9 1 10 3 11
REMARK H PARENT
REMARK Flexibility Score: inf
ROOT
ATOM      1  C   UNL     1      70.927  55.827  17.142  1.00  0.00     0.008 C 
ATOM      2  C   UNL     1      70.522  54.607  17.974  1.00  0.00    -0.007 C 
ATOM      3  C   UNL     1      70.157  53.423  17.056  1.00  0.00     0.004 C 
ATOM      4  C   UNL     1      69.795  52.183  17.884  1.00  0.00     0.012 C 
ATOM      5  C   UNL     1      68.599  52.459  18.826  1.00  0.00     0.058 C 
ATOM      6  C   UNL     1      68.857  53.726  19.624  1.00  0.00     0.136 C 
ATOM      7  O   UNL     1      68.568  53.798  20.810  1.00  0.00    -0.299 OA
ATOM      8  C   UNL     1      69.349  54.953  18.908  1.00  0.00     0.079 C 
ENDROOT
BRANCH   5   9
ATOM      9  C   UNL     1      68.217  51.236  19.719  1.00  0.00    -0.007 C 
ATOM     10  C   UNL     1      67.294  50.255  18.980  1.00  0.00     0.008 C 
ATOM     11  C   UNL     1      69.435  50.485  20.288  1.00  0.00     0.008 C 
ENDBRANCH   5   9
TORSDOF 1
ENDMDL
MODEL 5
REMARK VINA RESULT:    -4.271      3.437      4.714
REMARK INTER + INTRA:          -4.601
REMARK INTER:                  -4.429
REMARK INTRA:                  -0.171
REMARK UNBOUND:                -0.080
REMARK SMILES CC(C)[C@@H]1CC[C@@H](C)CC1=O
REMARK SMILES IDX 8 1 7 2 6 3 5 4 4 5 10 6 11 7 9 8 2 9 1 10 3 11
REMARK H PARENT
REMARK Flexibility Score: inf
ROOT
ATOM      1  C   UNL     1      66.862  50.102  19.255  1.00  0.00     0.008 C 
ATOM      2  C   UNL     1      67.621  51.310  18.699  1.00  0.00    -0.007 C 
ATOM      3  C   UNL     1      69.100  50.953  18.454  1.00  0.00     0.004 C 
ATOM      4  C   UNL     1      69.857  52.146  17.853  1.00  0.00     0.012 C 
ATOM      5  C   UNL     1      69.799  53.381  18.784  1.00  0.00     0.058 C 
ATOM      6  C   UNL     1      68.359  53.654  19.184  1.00  0.00     0.136 C 
ATOM      7  O   UNL     1      67.922  54.794  19.238  1.00  0.00    -0.299 OA
ATOM      8  C   UNL     1      67.503  52.511  19.655  1.00  0.00     0.079 C 
ENDROOT
BRANCH   5   9
ATOM      9  C   UNL     1      70.523  54.634  18.197  1.00  0.00    -0.007 C 
ATOM     10  C   UNL     1      71.704  55.075  19.075  1.00  0.00     0.008 C 
ATOM     11  C   UNL     1      70.988  54.451  16.741  1.00  0.00     0.008 C 
ENDBRANCH   5   9
TORSDOF 1
ENDMDL
MODEL 6
REMARK VINA RESULT:    -4.265      2.174      3.059
REMARK INTER + INTRA:          -4.594
REMARK INTER:                  -4.538
REMARK INTRA:                  -0.056
REMARK UNBOUND:                -0.080
REMARK SMILES CC(C)[C@@H]1CC[C@@H](C)CC1=O
REMARK SMILES IDX 8 1 7 2 6 3 5 4 4 5 10 6 11 7 9 8 2 9 1 10 3 11
REMARK H PARENT
REMARK Flexibility Score: inf
ROOT
ATOM      1  C   UNL     1      72.497  53.611  20.515  1.00  0.00     0.008 C 
ATOM      2  C   UNL     1      71.081  53.243  20.063  1.00  0.00    -0.007 C 
ATOM      3  C   UNL     1      70.490  52.148  20.972  1.00  0.00     0.004 C 
ATOM      4  C   UNL     1      69.053  51.808  20.553  1.00  0.00     0.012 C 
ATOM      5  C   UNL     1      68.992  51.313  19.088  1.00  0.00     0.058 C 
ATOM      6  C   UNL     1      69.722  52.293  18.185  1.00  0.00     0.136 C 
ATOM      7  O   UNL     1      69.276  52.598  17.088  1.00  0.00    -0.299 OA
ATOM      8  C   UNL     1      71.083  52.787  18.593  1.00  0.00     0.079 C 
ENDROOT
BRANCH   5   9
ATOM      9  C   UNL     1      67.543  50.991  18.602  1.00  0.00    -0.007 C 
ATOM     10  C   UNL     1      66.990  49.718  19.260  1.00  0.00     0.008 C 
ATOM     11  C   UNL     1      66.556  52.156  18.795  1.00  0.00     0.008 C 
ENDBRANCH   5   9
TORSDOF 1
ENDMDL
MODEL 7
REMARK VINA RESULT:    -4.146      2.437      4.608
REMARK INTER + INTRA:          -4.469
REMARK INTER:                  -4.348
REMARK INTRA:                  -0.120
REMARK UNBOUND:                -0.080
REMARK SMILES CC(C)[C@@H]1CC[C@@H](C)CC1=O
REMARK SMILES IDX 8 1 7 2 6 3 5 4 4 5 10 6 11 7 9 8 2 9 1 10 3 11
REMARK H PARENT
REMARK Flexibility Score: inf
ROOT
ATOM      1  C   UNL     1      67.107  50.099  19.033  1.00  0.00     0.008 C 
ATOM      2  C   UNL     1      68.427  50.871  18.937  1.00  0.00    -0.007 C 
ATOM      3  C   UNL     1      68.843  51.405  20.322  1.00  0.00     0.004 C 
ATOM      4  C   UNL     1      70.188  52.140  20.240  1.00  0.00     0.012 C 
ATOM      5  C   UNL     1      70.124  53.332  19.255  1.00  0.00     0.058 C 
ATOM      6  C   UNL     1      69.550  52.869  17.927  1.00  0.00     0.136 C 
ATOM      7  O   UNL     1      70.012  53.261  16.865  1.00  0.00    -0.299 OA
ATOM      8  C   UNL     1      68.306  52.023  17.923  1.00  0.00     0.079 C 
ENDROOT
BRANCH   5   9
ATOM      9  C   UNL     1      71.482  54.089  19.109  1.00  0.00    -0.007 C 
ATOM     10  C   UNL     1      71.280  55.608  18.994  1.00  0.00     0.008 C 
ATOM     11  C   UNL     1      72.487  53.775  20.231  1.00  0.00     0.008 C 
ENDBRANCH   5   9
TORSDOF 1
ENDMDL
MODEL 8
REMARK VINA RESULT:    -4.126      2.234      3.416
REMARK INTER + INTRA:          -4.447
REMARK INTER:                  -4.276
REMARK INTRA:                  -0.171
REMARK UNBOUND:                -0.080
REMARK SMILES CC(C)[C@@H]1CC[C@@H](C)CC1=O
REMARK SMILES IDX 8 1 7 2 6 3 5 4 4 5 10 6 11 7 9 8 2 9 1 10 3 11
REMARK H PARENT
REMARK Flexibility Score: inf
ROOT
ATOM      1  C   UNL     1      69.283  49.740  22.430  1.00  0.00     0.008 C 
ATOM      2  C   UNL     1      69.757  50.503  21.189  1.00  0.00    -0.007 C 
ATOM      3  C   UNL     1      70.359  51.865  21.588  1.00  0.00     0.004 C 
ATOM      4  C   UNL     1      70.878  52.615  20.353  1.00  0.00     0.012 C 
ATOM      5  C   UNL     1      69.748  52.861  19.324  1.00  0.00     0.058 C 
ATOM      6  C   UNL     1      69.021  51.558  19.040  1.00  0.00     0.136 C 
ATOM      7  O   UNL     1      68.675  51.259  17.906  1.00  0.00    -0.299 OA
ATOM      8  C   UNL     1      68.598  50.691  20.194  1.00  0.00     0.079 C 
ENDROOT
BRANCH   5   9
ATOM      9  C   UNL     1      70.237  53.588  18.031  1.00  0.00    -0.007 C 
ATOM     10  C   UNL     1      70.191  55.116  18.183  1.00  0.00     0.008 C 
ATOM     11  C   UNL     1      71.636  53.146  17.567  1.00  0.00     0.008 C 
ENDBRANCH   5   9
TORSDOF 1
ENDMDL
MODEL 9
REMARK VINA RESULT:    -4.105      1.611      2.492
REMARK INTER + INTRA:          -4.426
REMARK INTER:                  -4.265
REMARK INTRA:                  -0.161
REMARK UNBOUND:                -0.080
REMARK SMILES CC(C)[C@@H]1CC[C@@H](C)CC1=O
REMARK SMILES IDX 8 1 7 2 6 3 5 4 4 5 10 6 11 7 9 8 2 9 1 10 3 11
REMARK H PARENT
REMARK Flexibility Score: inf
ROOT
ATOM      1  C   UNL     1      71.591  53.108  24.285  1.00  0.00     0.008 C 
ATOM      2  C   UNL     1      71.230  52.388  22.982  1.00  0.00    -0.007 C 
ATOM      3  C   UNL     1      70.561  53.362  21.993  1.00  0.00     0.004 C 
ATOM      4  C   UNL     1      70.239  52.658  20.667  1.00  0.00     0.012 C 
ATOM      5  C   UNL     1      69.293  51.452  20.882  1.00  0.00     0.058 C 
ATOM      6  C   UNL     1      69.842  50.559  21.981  1.00  0.00     0.136 C 
ATOM      7  O   UNL     1      69.806  49.340  21.885  1.00  0.00    -0.299 OA
ATOM      8  C   UNL     1      70.312  51.185  23.265  1.00  0.00     0.079 C 
ENDROOT
BRANCH   5   9
ATOM      9  C   UNL     1      68.966  50.678  19.565  1.00  0.00    -0.007 C 
ATOM     10  C   UNL     1      67.461  50.409  19.419  1.00  0.00     0.008 C 
ATOM     11  C   UNL     1      69.504  51.366  18.297  1.00  0.00     0.008 C 
ENDBRANCH   5   9
TORSDOF 1
ENDMDL
