MODEL 1
REMARK VINA RESULT:    -0.822      0.000      0.000
REMARK INTER + INTRA:          -2.643
REMARK INTER:                  -1.254
REMARK INTRA:                  -1.389
REMARK UNBOUND:                -1.389
REMARK SMILES CCCCCCCCCCC(=O)[O-]
REMARK SMILES IDX 7 1 8 2 9 3 10 4 11 5 12 6 13 7 6 8 5 9 4 10 3 11 2 12 1 13
REMARK H PARENT
REMARK Flexibility Score: inf
ROOT
ATOM      1  C   UNL     1      38.195   5.575  42.125  1.00  0.00     0.000 C 
ENDROOT
BRANCH   1   2
ATOM      2  C   UNL     1      39.043   4.466  41.482  1.00  0.00     0.000 C 
BRANCH   2   3
ATOM      3  C   UNL     1      39.311   4.713  39.989  1.00  0.00     0.006 C 
BRANCH   3   4
ATOM      4  C   UNL     1      39.255   3.402  39.199  1.00  0.00     0.053 C 
BRANCH   4   5
ATOM      5  C   UNL     1      38.302   3.521  38.052  1.00  0.00     0.041 C 
ATOM      6  O   UNL     1      37.438   4.437  38.038  1.00  0.00    -0.550 OA
ATOM      7  O   UNL     1      38.401   2.651  36.974  1.00  0.00    -0.550 OA
ENDBRANCH   4   5
ENDBRANCH   3   4
ENDBRANCH   2   3
ENDBRANCH   1   2
BRANCH   1   8
ATOM      8  C   UNL     1      36.826   5.742  41.443  1.00  0.00     0.000 C 
BRANCH   8   9
ATOM      9  C   UNL     1      35.815   4.668  41.883  1.00  0.00    -0.000 C 
BRANCH   9  10
ATOM     10  C   UNL     1      35.309   3.819  40.704  1.00  0.00    -0.000 C 
BRANCH  10  11
ATOM     11  C   UNL     1      35.777   2.354  40.778  1.00  0.00    -0.000 C 
BRANCH  11  12
ATOM     12  C   UNL     1      36.393   1.935  42.125  1.00  0.00    -0.003 C 
ATOM     13  C   UNL     1      37.691   1.143  41.969  1.00  0.00     0.004 C 
ENDBRANCH  11  12
ENDBRANCH  10  11
ENDBRANCH   9  10
ENDBRANCH   8   9
ENDBRANCH   1   8
TORSDOF 9
ENDMDL
MODEL 2
REMARK VINA RESULT:    -0.810      2.343      3.976
REMARK INTER + INTRA:          -2.626
REMARK INTER:                  -1.185
REMARK INTRA:                  -1.441
REMARK UNBOUND:                -1.389
REMARK SMILES CCCCCCCCCCC(=O)[O-]
REMARK SMILES IDX 7 1 8 2 9 3 10 4 11 5 12 6 13 7 6 8 5 9 4 10 3 11 2 12 1 13
REMARK H PARENT
REMARK Flexibility Score: inf
ROOT
ATOM      1  C   UNL     1      38.543   4.252  38.409  1.00  0.00     0.000 C 
ENDROOT
BRANCH   1   2
ATOM      2  C   UNL     1      37.060   3.847  38.399  1.00  0.00     0.000 C 
BRANCH   2   3
ATOM      3  C   UNL     1      36.813   2.479  39.051  1.00  0.00     0.006 C 
BRANCH   3   4
ATOM      4  C   UNL     1      38.059   1.999  39.804  1.00  0.00     0.053 C 
BRANCH   4   5
ATOM      5  C   UNL     1      37.678   1.405  41.123  1.00  0.00     0.041 C 
ATOM      6  O   UNL     1      36.502   0.999  41.320  1.00  0.00    -0.550 OA
ATOM      7  O   UNL     1      38.634   1.254  42.119  1.00  0.00    -0.550 OA
ENDBRANCH   4   5
ENDBRANCH   3   4
ENDBRANCH   2   3
ENDBRANCH   1   2
BRANCH   1   8
ATOM      8  C   UNL     1      38.738   5.776  38.493  1.00  0.00     0.000 C 
BRANCH   8   9
ATOM      9  C   UNL     1      39.033   6.253  39.926  1.00  0.00    -0.000 C 
BRANCH   9  10
ATOM     10  C   UNL     1      39.568   5.125  40.824  1.00  0.00    -0.000 C 
BRANCH  10  11
ATOM     11  C   UNL     1      38.701   4.896  42.076  1.00  0.00    -0.000 C 
BRANCH  11  12
ATOM     12  C   UNL     1      37.320   5.574  42.044  1.00  0.00    -0.003 C 
ATOM     13  C   UNL     1      36.163   4.577  42.101  1.00  0.00     0.004 C 
ENDBRANCH  11  12
ENDBRANCH  10  11
ENDBRANCH   9  10
ENDBRANCH   8   9
ENDBRANCH   1   8
TORSDOF 9
ENDMDL
MODEL 3
REMARK VINA RESULT:    -0.776      2.276      3.910
REMARK INTER + INTRA:          -2.574
REMARK INTER:                  -1.183
REMARK INTRA:                  -1.391
REMARK UNBOUND:                -1.389
REMARK SMILES CCCCCCCCCCC(=O)[O-]
REMARK SMILES IDX 7 1 8 2 9 3 10 4 11 5 12 6 13 7 6 8 5 9 4 10 3 11 2 12 1 13
REMARK H PARENT
REMARK Flexibility Score: inf
ROOT
ATOM      1  C   UNL     1      35.893   3.246  41.644  1.00  0.00     0.000 C 
ENDROOT
BRANCH   1   2
ATOM      2  C   UNL     1      36.100   4.691  42.124  1.00  0.00     0.000 C 
BRANCH   2   3
ATOM      3  C   UNL     1      36.147   5.701  40.968  1.00  0.00     0.006 C 
BRANCH   3   4
ATOM      4  C   UNL     1      36.089   4.985  39.614  1.00  0.00     0.053 C 
BRANCH   4   5
ATOM      5  C   UNL     1      37.348   5.222  38.841  1.00  0.00     0.041 C 
ATOM      6  O   UNL     1      37.370   6.069  37.909  1.00  0.00    -0.550 OA
ATOM      7  O   UNL     1      38.512   4.545  39.183  1.00  0.00    -0.550 OA
ENDBRANCH   4   5
ENDBRANCH   3   4
ENDBRANCH   2   3
ENDBRANCH   1   2
BRANCH   1   8
ATOM      8  C   UNL     1      34.559   2.649  42.125  1.00  0.00     0.000 C 
BRANCH   8   9
ATOM      9  C   UNL     1      33.587   2.373  40.965  1.00  0.00    -0.000 C 
BRANCH   9  10
ATOM     10  C   UNL     1      32.750   3.608  40.591  1.00  0.00    -0.000 C 
BRANCH  10  11
ATOM     11  C   UNL     1      32.356   4.457  41.814  1.00  0.00    -0.000 C 
BRANCH  11  12
ATOM     12  C   UNL     1      32.475   5.978  41.614  1.00  0.00    -0.003 C 
ATOM     13  C   UNL     1      32.621   6.379  40.147  1.00  0.00     0.004 C 
ENDBRANCH  11  12
ENDBRANCH  10  11
ENDBRANCH   9  10
ENDBRANCH   8   9
ENDBRANCH   1   8
TORSDOF 9
ENDMDL
MODEL 4
REMARK VINA RESULT:    -0.743      2.100      3.411
REMARK INTER + INTRA:          -2.522
REMARK INTER:                  -1.465
REMARK INTRA:                  -1.057
REMARK UNBOUND:                -1.389
REMARK SMILES CCCCCCCCCCC(=O)[O-]
REMARK SMILES IDX 7 1 8 2 9 3 10 4 11 5 12 6 13 7 6 8 5 9 4 10 3 11 2 12 1 13
REMARK H PARENT
REMARK Flexibility Score: inf
ROOT
ATOM      1  C   UNL     1      37.349   2.176  40.812  1.00  0.00     0.000 C 
ENDROOT
BRANCH   1   2
ATOM      2  C   UNL     1      37.764   2.887  42.109  1.00  0.00     0.000 C 
BRANCH   2   3
ATOM      3  C   UNL     1      38.264   4.319  41.868  1.00  0.00     0.006 C 
BRANCH   3   4
ATOM      4  C   UNL     1      39.254   4.363  40.699  1.00  0.00     0.053 C 
BRANCH   4   5
ATOM      5  C   UNL     1      39.138   5.660  39.962  1.00  0.00     0.041 C 
ATOM      6  O   UNL     1      40.154   6.178  39.427  1.00  0.00    -0.550 OA
ATOM      7  O   UNL     1      37.899   6.272  39.822  1.00  0.00    -0.550 OA
ENDBRANCH   4   5
ENDBRANCH   3   4
ENDBRANCH   2   3
ENDBRANCH   1   2
BRANCH   1   8
ATOM      8  C   UNL     1      36.376   1.010  41.063  1.00  0.00     0.000 C 
BRANCH   8   9
ATOM      9  C   UNL     1      35.315   1.347  42.125  1.00  0.00    -0.000 C 
BRANCH   9  10
ATOM     10  C   UNL     1      33.895   1.416  41.538  1.00  0.00    -0.000 C 
BRANCH  10  11
ATOM     11  C   UNL     1      33.392   2.860  41.357  1.00  0.00    -0.000 C 
BRANCH  11  12
ATOM     12  C   UNL     1      34.218   3.933  42.090  1.00  0.00    -0.003 C 
ATOM     13  C   UNL     1      34.739   5.026  41.158  1.00  0.00     0.004 C 
ENDBRANCH  11  12
ENDBRANCH  10  11
ENDBRANCH   9  10
ENDBRANCH   8   9
ENDBRANCH   1   8
TORSDOF 9
ENDMDL
MODEL 5
REMARK VINA RESULT:    -0.739      2.104      3.584
REMARK INTER + INTRA:          -2.516
REMARK INTER:                  -1.177
REMARK INTRA:                  -1.340
REMARK UNBOUND:                -1.389
REMARK SMILES CCCCCCCCCCC(=O)[O-]
REMARK SMILES IDX 7 1 8 2 9 3 10 4 11 5 12 6 13 7 6 8 5 9 4 10 3 11 2 12 1 13
REMARK H PARENT
REMARK Flexibility Score: inf
ROOT
ATOM      1  C   UNL     1      38.883   5.249  40.132  1.00  0.00     0.000 C 
ENDROOT
BRANCH   1   2
ATOM      2  C   UNL     1      39.261   4.231  41.220  1.00  0.00     0.000 C 
BRANCH   2   3
ATOM      3  C   UNL     1      38.059   3.799  42.073  1.00  0.00     0.006 C 
BRANCH   3   4
ATOM      4  C   UNL     1      37.824   2.289  41.962  1.00  0.00     0.053 C 
BRANCH   4   5
ATOM      5  C   UNL     1      36.663   2.004  41.062  1.00  0.00     0.041 C 
ATOM      6  O   UNL     1      35.489   2.251  41.443  1.00  0.00    -0.550 OA
ATOM      7  O   UNL     1      36.882   1.512  39.781  1.00  0.00    -0.550 OA
ENDBRANCH   4   5
ENDBRANCH   3   4
ENDBRANCH   2   3
ENDBRANCH   1   2
BRANCH   1   8
ATOM      8  C   UNL     1      38.397   4.577  38.837  1.00  0.00     0.000 C 
BRANCH   8   9
ATOM      9  C   UNL     1      37.169   5.280  38.233  1.00  0.00    -0.000 C 
BRANCH   9  10
ATOM     10  C   UNL     1      35.852   4.832  38.890  1.00  0.00    -0.000 C 
BRANCH  10  11
ATOM     11  C   UNL     1      35.133   5.975  39.630  1.00  0.00    -0.000 C 
BRANCH  11  12
ATOM     12  C   UNL     1      35.079   5.825  41.161  1.00  0.00    -0.003 C 
ATOM     13  C   UNL     1      35.957   6.839  41.892  1.00  0.00     0.004 C 
ENDBRANCH  11  12
ENDBRANCH  10  11
ENDBRANCH   9  10
ENDBRANCH   8   9
ENDBRANCH   1   8
TORSDOF 9
ENDMDL
MODEL 6
REMARK VINA RESULT:    -0.702      2.471      4.797
REMARK INTER + INTRA:          -2.460
REMARK INTER:                  -1.189
REMARK INTRA:                  -1.271
REMARK UNBOUND:                -1.389
REMARK SMILES CCCCCCCCCCC(=O)[O-]
REMARK SMILES IDX 7 1 8 2 9 3 10 4 11 5 12 6 13 7 6 8 5 9 4 10 3 11 2 12 1 13
REMARK H PARENT
REMARK Flexibility Score: inf
ROOT
ATOM      1  C   UNL     1      38.056   2.523  40.257  1.00  0.00     0.000 C 
ENDROOT
BRANCH   1   2
ATOM      2  C   UNL     1      37.955   2.766  41.772  1.00  0.00     0.000 C 
BRANCH   2   3
ATOM      3  C   UNL     1      37.718   4.243  42.122  1.00  0.00     0.006 C 
BRANCH   3   4
ATOM      4  C   UNL     1      37.614   5.096  40.853  1.00  0.00     0.053 C 
BRANCH   4   5
ATOM      5  C   UNL     1      36.353   5.901  40.865  1.00  0.00     0.041 C 
ATOM      6  O   UNL     1      35.514   5.753  41.793  1.00  0.00    -0.550 OA
ATOM      7  O   UNL     1      36.126   6.851  39.878  1.00  0.00    -0.550 OA
ENDBRANCH   4   5
ENDBRANCH   3   4
ENDBRANCH   2   3
ENDBRANCH   1   2
BRANCH   1   8
ATOM      8  C   UNL     1      39.366   1.823  39.857  1.00  0.00     0.000 C 
BRANCH   8   9
ATOM      9  C   UNL     1      40.359   1.720  41.027  1.00  0.00    -0.000 C 
BRANCH   9  10
ATOM     10  C   UNL     1      41.585   2.630  40.840  1.00  0.00    -0.000 C 
BRANCH  10  11
ATOM     11  C   UNL     1      41.433   3.604  39.657  1.00  0.00    -0.000 C 
BRANCH  11  12
ATOM     12  C   UNL     1      41.316   5.088  40.048  1.00  0.00    -0.003 C 
ATOM     13  C   UNL     1      41.224   5.303  41.558  1.00  0.00     0.004 C 
ENDBRANCH  11  12
ENDBRANCH  10  11
ENDBRANCH   9  10
ENDBRANCH   8   9
ENDBRANCH   1   8
TORSDOF 9
ENDMDL
MODEL 7
REMARK VINA RESULT:    -0.698      2.330      3.844
REMARK INTER + INTRA:          -2.455
REMARK INTER:                  -1.102
REMARK INTRA:                  -1.353
REMARK UNBOUND:                -1.389
REMARK SMILES CCCCCCCCCCC(=O)[O-]
REMARK SMILES IDX 7 1 8 2 9 3 10 4 11 5 12 6 13 7 6 8 5 9 4 10 3 11 2 12 1 13
REMARK H PARENT
REMARK Flexibility Score: inf
ROOT
ATOM      1  C   UNL     1      37.287   2.158  38.686  1.00  0.00     0.000 C 
ENDROOT
BRANCH   1   2
ATOM      2  C   UNL     1      37.613   3.594  38.247  1.00  0.00     0.000 C 
BRANCH   2   3
ATOM      3  C   UNL     1      38.224   4.437  39.377  1.00  0.00     0.006 C 
BRANCH   3   4
ATOM      4  C   UNL     1      37.759   5.894  39.286  1.00  0.00     0.053 C 
BRANCH   4   5
ATOM      5  C   UNL     1      38.012   6.607  40.577  1.00  0.00     0.041 C 
ATOM      6  O   UNL     1      39.089   6.421  41.203  1.00  0.00    -0.550 OA
ATOM      7  O   UNL     1      37.080   7.514  41.063  1.00  0.00    -0.550 OA
ENDBRANCH   4   5
ENDBRANCH   3   4
ENDBRANCH   2   3
ENDBRANCH   1   2
BRANCH   1   8
ATOM      8  C   UNL     1      37.656   1.891  40.156  1.00  0.00     0.000 C 
BRANCH   8   9
ATOM      9  C   UNL     1      36.613   1.019  40.875  1.00  0.00    -0.000 C 
BRANCH   9  10
ATOM     10  C   UNL     1      35.641   1.849  41.731  1.00  0.00    -0.000 C 
BRANCH  10  11
ATOM     11  C   UNL     1      36.214   3.223  42.125  1.00  0.00    -0.000 C 
BRANCH  11  12
ATOM     12  C   UNL     1      35.266   4.413  41.890  1.00  0.00    -0.003 C 
ATOM     13  C   UNL     1      34.600   4.385  40.515  1.00  0.00     0.004 C 
ENDBRANCH  11  12
ENDBRANCH  10  11
ENDBRANCH   9  10
ENDBRANCH   8   9
ENDBRANCH   1   8
TORSDOF 9
ENDMDL
MODEL 8
REMARK VINA RESULT:    -0.681      2.183      3.872
REMARK INTER + INTRA:          -2.429
REMARK INTER:                  -1.220
REMARK INTRA:                  -1.208
REMARK UNBOUND:                -1.389
REMARK SMILES CCCCCCCCCCC(=O)[O-]
REMARK SMILES IDX 7 1 8 2 9 3 10 4 11 5 12 6 13 7 6 8 5 9 4 10 3 11 2 12 1 13
REMARK H PARENT
REMARK Flexibility Score: inf
ROOT
ATOM      1  C   UNL     1      35.022   4.606  41.654  1.00  0.00     0.000 C 
ENDROOT
BRANCH   1   2
ATOM      2  C   UNL     1      36.406   4.047  42.022  1.00  0.00     0.000 C 
BRANCH   2   3
ATOM      3  C   UNL     1      36.420   2.515  42.125  1.00  0.00     0.006 C 
BRANCH   3   4
ATOM      4  C   UNL     1      36.682   1.877  40.756  1.00  0.00     0.053 C 
BRANCH   4   5
ATOM      5  C   UNL     1      38.103   1.421  40.654  1.00  0.00     0.041 C 
ATOM      6  O   UNL     1      38.654   1.308  39.527  1.00  0.00    -0.550 OA
ATOM      7  O   UNL     1      38.837   1.169  41.807  1.00  0.00    -0.550 OA
ENDBRANCH   4   5
ENDBRANCH   3   4
ENDBRANCH   2   3
ENDBRANCH   1   2
BRANCH   1   8
ATOM      8  C   UNL     1      35.094   5.701  40.576  1.00  0.00     0.000 C 
BRANCH   8   9
ATOM      9  C   UNL     1      35.298   5.125  39.164  1.00  0.00    -0.000 C 
BRANCH   9  10
ATOM     10  C   UNL     1      36.582   5.645  38.496  1.00  0.00    -0.000 C 
BRANCH  10  11
ATOM     11  C   UNL     1      37.804   4.748  38.768  1.00  0.00    -0.000 C 
BRANCH  11  12
ATOM     12  C   UNL     1      38.943   5.423  39.553  1.00  0.00    -0.003 C 
ATOM     13  C   UNL     1      38.553   6.789  40.116  1.00  0.00     0.004 C 
ENDBRANCH  11  12
ENDBRANCH  10  11
ENDBRANCH   9  10
ENDBRANCH   8   9
ENDBRANCH   1   8
TORSDOF 9
ENDMDL
MODEL 9
REMARK VINA RESULT:    -0.673      2.557      4.389
REMARK INTER + INTRA:          -2.416
REMARK INTER:                  -1.109
REMARK INTRA:                  -1.308
REMARK UNBOUND:                -1.389
REMARK SMILES CCCCCCCCCCC(=O)[O-]
REMARK SMILES IDX 7 1 8 2 9 3 10 4 11 5 12 6 13 7 6 8 5 9 4 10 3 11 2 12 1 13
REMARK H PARENT
REMARK Flexibility Score: inf
ROOT
ATOM      1  C   UNL     1      39.728   3.186  40.148  1.00  0.00     0.000 C 
ENDROOT
BRANCH   1   2
ATOM      2  C   UNL     1      38.778   4.192  40.818  1.00  0.00     0.000 C 
BRANCH   2   3
ATOM      3  C   UNL     1      38.133   3.639  42.098  1.00  0.00     0.006 C 
BRANCH   3   4
ATOM      4  C   UNL     1      36.760   3.028  41.798  1.00  0.00     0.053 C 
BRANCH   4   5
ATOM      5  C   UNL     1      36.781   1.550  42.033  1.00  0.00     0.041 C 
ATOM      6  O   UNL     1      35.703   0.906  42.121  1.00  0.00    -0.550 OA
ATOM      7  O   UNL     1      37.993   0.875  42.104  1.00  0.00    -0.550 OA
ENDBRANCH   4   5
ENDBRANCH   3   4
ENDBRANCH   2   3
ENDBRANCH   1   2
BRANCH   1   8
ATOM      8  C   UNL     1      39.379   2.936  38.671  1.00  0.00     0.000 C 
BRANCH   8   9
ATOM      9  C   UNL     1      38.095   2.106  38.502  1.00  0.00    -0.000 C 
BRANCH   9  10
ATOM     10  C   UNL     1      37.038   2.824  37.645  1.00  0.00    -0.000 C 
BRANCH  10  11
ATOM     11  C   UNL     1      37.430   4.272  37.300  1.00  0.00    -0.000 C 
BRANCH  11  12
ATOM     12  C   UNL     1      36.598   5.356  38.008  1.00  0.00    -0.003 C 
ATOM     13  C   UNL     1      35.448   4.783  38.835  1.00  0.00     0.004 C 
ENDBRANCH  11  12
ENDBRANCH  10  11
ENDBRANCH   9  10
ENDBRANCH   8   9
ENDBRANCH   1   8
TORSDOF 9
ENDMDL
