MODEL 1
REMARK VINA RESULT:    -6.061      0.000      0.000
REMARK INTER + INTRA:         -15.990
REMARK INTER:                 -13.857
REMARK INTRA:                  -2.133
REMARK UNBOUND:                -2.133
REMARK SMILES CCCCCCCCCCCCCCCCCCCCCCCC(=O)[O-]
REMARK SMILES IDX 13 1 14 2 15 3 16 4 17 5 18 6 19 7 20 8 21 9 22 10 23 11
REMARK SMILES IDX 24 12 25 13 26 14 12 15 11 16 10 17 9 18 8 19 7 20 6 21 5 22
REMARK SMILES IDX 4 23 3 24 2 25 1 26
REMARK H PARENT
REMARK Flexibility Score: inf
ROOT
ATOM      1  C   UNL     1      14.214  22.222  14.717  1.00  0.00     0.000 C 
ENDROOT
BRANCH   1   2
ATOM      2  C   UNL     1      14.554  21.515  16.043  1.00  0.00     0.000 C 
BRANCH   2   3
ATOM      3  C   UNL     1      14.934  22.455  17.203  1.00  0.00     0.000 C 
BRANCH   3   4
ATOM      4  C   UNL     1      14.072  22.258  18.469  1.00  0.00     0.000 C 
BRANCH   4   5
ATOM      5  C   UNL     1      14.278  20.878  19.115  1.00  0.00     0.000 C 
BRANCH   5   6
ATOM      6  C   UNL     1      15.659  20.750  19.794  1.00  0.00     0.000 C 
BRANCH   6   7
ATOM      7  C   UNL     1      16.516  19.602  19.236  1.00  0.00     0.000 C 
BRANCH   7   8
ATOM      8  C   UNL     1      15.719  18.646  18.333  1.00  0.00     0.000 C 
BRANCH   8   9
ATOM      9  C   UNL     1      16.320  18.511  16.925  1.00  0.00     0.000 C 
BRANCH   9  10
ATOM     10  C   UNL     1      17.736  19.097  16.820  1.00  0.00     0.006 C 
BRANCH  10  11
ATOM     11  C   UNL     1      17.884  19.955  15.559  1.00  0.00     0.053 C 
BRANCH  11  12
ATOM     12  C   UNL     1      18.710  19.245  14.532  1.00  0.00     0.041 C 
ATOM     13  O   UNL     1      18.718  19.645  13.337  1.00  0.00    -0.550 OA
ATOM     14  O   UNL     1      19.471  18.140  14.893  1.00  0.00    -0.550 OA
ENDBRANCH  11  12
ENDBRANCH  10  11
ENDBRANCH   9  10
ENDBRANCH   8   9
ENDBRANCH   7   8
ENDBRANCH   6   7
ENDBRANCH   5   6
ENDBRANCH   4   5
ENDBRANCH   3   4
ENDBRANCH   2   3
ENDBRANCH   1   2
BRANCH   1  15
ATOM     15  C   UNL     1      15.375  22.302  13.709  1.00  0.00     0.000 C 
BRANCH  15  16
ATOM     16  C   UNL     1      15.426  21.094  12.761  1.00  0.00     0.000 C 
BRANCH  16  17
ATOM     17  C   UNL     1      15.926  21.509  11.369  1.00  0.00     0.000 C 
BRANCH  17  18
ATOM     18  C   UNL     1      16.652  20.369  10.627  1.00  0.00    -0.000 C 
BRANCH  18  19
ATOM     19  C   UNL     1      18.018  20.749  10.025  1.00  0.00    -0.000 C 
BRANCH  19  20
ATOM     20  C   UNL     1      18.194  20.249   8.581  1.00  0.00    -0.000 C 
BRANCH  20  21
ATOM     21  C   UNL     1      18.887  21.281   7.676  1.00  0.00    -0.000 C 
BRANCH  21  22
ATOM     22  C   UNL     1      19.616  20.637   6.486  1.00  0.00    -0.000 C 
BRANCH  22  23
ATOM     23  C   UNL     1      20.450  19.411   6.895  1.00  0.00    -0.000 C 
BRANCH  23  24
ATOM     24  C   UNL     1      21.788  19.289   6.135  1.00  0.00    -0.000 C 
BRANCH  24  25
ATOM     25  C   UNL     1      22.345  17.858   6.165  1.00  0.00    -0.003 C 
ATOM     26  C   UNL     1      23.558  17.719   5.248  1.00  0.00     0.004 C 
ENDBRANCH  24  25
ENDBRANCH  23  24
ENDBRANCH  22  23
ENDBRANCH  21  22
ENDBRANCH  20  21
ENDBRANCH  19  20
ENDBRANCH  18  19
ENDBRANCH  17  18
ENDBRANCH  16  17
ENDBRANCH  15  16
ENDBRANCH   1  15
TORSDOF 22
ENDMDL
MODEL 2
REMARK VINA RESULT:    -5.992      3.748      8.047
REMARK INTER + INTRA:         -15.832
REMARK INTER:                 -12.997
REMARK INTRA:                  -2.836
REMARK UNBOUND:                -2.133
REMARK SMILES CCCCCCCCCCCCCCCCCCCCCCCC(=O)[O-]
REMARK SMILES IDX 13 1 14 2 15 3 16 4 17 5 18 6 19 7 20 8 21 9 22 10 23 11
REMARK SMILES IDX 24 12 25 13 26 14 12 15 11 16 10 17 9 18 8 19 7 20 6 21 5 22
REMARK SMILES IDX 4 23 3 24 2 25 1 26
REMARK H PARENT
REMARK Flexibility Score: inf
ROOT
ATOM      1  C   UNL     1      18.407  19.345  13.130  1.00  0.00     0.000 C 
ENDROOT
BRANCH   1   2
ATOM      2  C   UNL     1      17.577  19.164  14.416  1.00  0.00     0.000 C 
BRANCH   2   3
ATOM      3  C   UNL     1      18.088  19.955  15.636  1.00  0.00     0.000 C 
BRANCH   3   4
ATOM      4  C   UNL     1      19.021  19.140  16.557  1.00  0.00     0.000 C 
BRANCH   4   5
ATOM      5  C   UNL     1      18.972  17.632  16.262  1.00  0.00     0.000 C 
BRANCH   5   6
ATOM      6  C   UNL     1      20.340  17.081  15.804  1.00  0.00     0.000 C 
BRANCH   6   7
ATOM      7  C   UNL     1      21.523  17.996  16.160  1.00  0.00     0.000 C 
BRANCH   7   8
ATOM      8  C   UNL     1      22.853  17.234  16.276  1.00  0.00     0.000 C 
BRANCH   8   9
ATOM      9  C   UNL     1      24.065  18.165  16.445  1.00  0.00     0.000 C 
BRANCH   9  10
ATOM     10  C   UNL     1      23.739  19.633  16.132  1.00  0.00     0.006 C 
BRANCH  10  11
ATOM     11  C   UNL     1      24.771  20.572  16.764  1.00  0.00     0.053 C 
BRANCH  11  12
ATOM     12  C   UNL     1      24.259  21.979  16.791  1.00  0.00     0.041 C 
ATOM     13  O   UNL     1      23.143  22.260  16.276  1.00  0.00    -0.550 OA
ATOM     14  O   UNL     1      25.015  22.983  17.384  1.00  0.00    -0.550 OA
ENDBRANCH  11  12
ENDBRANCH  10  11
ENDBRANCH   9  10
ENDBRANCH   8   9
ENDBRANCH   7   8
ENDBRANCH   6   7
ENDBRANCH   5   6
ENDBRANCH   4   5
ENDBRANCH   3   4
ENDBRANCH   2   3
ENDBRANCH   1   2
BRANCH   1  15
ATOM     15  C   UNL     1      17.579  19.567  11.850  1.00  0.00     0.000 C 
BRANCH  15  16
ATOM     16  C   UNL     1      17.507  21.045  11.435  1.00  0.00     0.000 C 
BRANCH  16  17
ATOM     17  C   UNL     1      16.056  21.548  11.442  1.00  0.00     0.000 C 
BRANCH  17  18
ATOM     18  C   UNL     1      15.616  22.092  12.816  1.00  0.00    -0.000 C 
BRANCH  18  19
ATOM     19  C   UNL     1      14.620  21.199  13.581  1.00  0.00    -0.000 C 
BRANCH  19  20
ATOM     20  C   UNL     1      14.176  21.812  14.920  1.00  0.00    -0.000 C 
BRANCH  20  21
ATOM     21  C   UNL     1      15.361  22.290  15.775  1.00  0.00    -0.000 C 
BRANCH  21  22
ATOM     22  C   UNL     1      14.921  22.914  17.109  1.00  0.00    -0.000 C 
BRANCH  22  23
ATOM     23  C   UNL     1      14.576  21.858  18.173  1.00  0.00    -0.000 C 
BRANCH  23  24
ATOM     24  C   UNL     1      15.581  20.688  18.234  1.00  0.00    -0.000 C 
BRANCH  24  25
ATOM     25  C   UNL     1      14.930  19.343  17.879  1.00  0.00    -0.003 C 
ATOM     26  C   UNL     1      15.849  18.176  18.229  1.00  0.00     0.004 C 
ENDBRANCH  24  25
ENDBRANCH  23  24
ENDBRANCH  22  23
ENDBRANCH  21  22
ENDBRANCH  20  21
ENDBRANCH  19  20
ENDBRANCH  18  19
ENDBRANCH  17  18
ENDBRANCH  16  17
ENDBRANCH  15  16
ENDBRANCH   1  15
TORSDOF 22
ENDMDL
MODEL 3
REMARK VINA RESULT:    -5.992      2.829      9.054
REMARK INTER + INTRA:         -15.831
REMARK INTER:                 -13.513
REMARK INTRA:                  -2.318
REMARK UNBOUND:                -2.133
REMARK SMILES CCCCCCCCCCCCCCCCCCCCCCCC(=O)[O-]
REMARK SMILES IDX 13 1 14 2 15 3 16 4 17 5 18 6 19 7 20 8 21 9 22 10 23 11
REMARK SMILES IDX 24 12 25 13 26 14 12 15 11 16 10 17 9 18 8 19 7 20 6 21 5 22
REMARK SMILES IDX 4 23 3 24 2 25 1 26
REMARK H PARENT
REMARK Flexibility Score: inf
ROOT
ATOM      1  C   UNL     1      18.629  17.563  16.650  1.00  0.00     0.000 C 
ENDROOT
BRANCH   1   2
ATOM      2  C   UNL     1      19.166  19.007  16.605  1.00  0.00     0.000 C 
BRANCH   2   3
ATOM      3  C   UNL     1      19.370  19.581  15.189  1.00  0.00     0.000 C 
BRANCH   3   4
ATOM      4  C   UNL     1      19.015  18.589  14.061  1.00  0.00     0.000 C 
BRANCH   4   5
ATOM      5  C   UNL     1      17.794  19.039  13.240  1.00  0.00     0.000 C 
BRANCH   5   6
ATOM      6  C   UNL     1      18.123  20.225  12.308  1.00  0.00     0.000 C 
BRANCH   6   7
ATOM      7  C   UNL     1      17.182  20.335  11.096  1.00  0.00     0.000 C 
BRANCH   7   8
ATOM      8  C   UNL     1      17.896  20.836   9.830  1.00  0.00     0.000 C 
BRANCH   8   9
ATOM      9  C   UNL     1      17.824  19.834   8.666  1.00  0.00     0.000 C 
BRANCH   9  10
ATOM     10  C   UNL     1      19.009  19.959   7.696  1.00  0.00     0.006 C 
BRANCH  10  11
ATOM     11  C   UNL     1      19.262  21.424   7.324  1.00  0.00     0.053 C 
BRANCH  11  12
ATOM     12  C   UNL     1      20.577  21.572   6.623  1.00  0.00     0.041 C 
ATOM     13  O   UNL     1      20.973  22.708   6.249  1.00  0.00    -0.550 OA
ATOM     14  O   UNL     1      21.366  20.454   6.381  1.00  0.00    -0.550 OA
ENDBRANCH  11  12
ENDBRANCH  10  11
ENDBRANCH   9  10
ENDBRANCH   8   9
ENDBRANCH   7   8
ENDBRANCH   6   7
ENDBRANCH   5   6
ENDBRANCH   4   5
ENDBRANCH   3   4
ENDBRANCH   2   3
ENDBRANCH   1   2
BRANCH   1  15
ATOM     15  C   UNL     1      17.128  17.440  16.972  1.00  0.00     0.000 C 
BRANCH  15  16
ATOM     16  C   UNL     1      16.798  17.798  18.428  1.00  0.00     0.000 C 
BRANCH  16  17
ATOM     17  C   UNL     1      15.868  19.018  18.498  1.00  0.00     0.000 C 
BRANCH  17  18
ATOM     18  C   UNL     1      16.254  20.005  19.617  1.00  0.00    -0.000 C 
BRANCH  18  19
ATOM     19  C   UNL     1      15.135  20.972  20.048  1.00  0.00    -0.000 C 
BRANCH  19  20
ATOM     20  C   UNL     1      14.082  21.194  18.948  1.00  0.00    -0.000 C 
BRANCH  20  21
ATOM     21  C   UNL     1      14.110  22.622  18.380  1.00  0.00    -0.000 C 
BRANCH  21  22
ATOM     22  C   UNL     1      14.431  22.660  16.877  1.00  0.00    -0.000 C 
BRANCH  22  23
ATOM     23  C   UNL     1      15.132  21.381  16.388  1.00  0.00    -0.000 C 
BRANCH  23  24
ATOM     24  C   UNL     1      16.040  21.602  15.159  1.00  0.00    -0.000 C 
BRANCH  24  25
ATOM     25  C   UNL     1      15.249  22.066  13.927  1.00  0.00    -0.003 C 
ATOM     26  C   UNL     1      14.485  20.906  13.294  1.00  0.00     0.004 C 
ENDBRANCH  24  25
ENDBRANCH  23  24
ENDBRANCH  22  23
ENDBRANCH  21  22
ENDBRANCH  20  21
ENDBRANCH  19  20
ENDBRANCH  18  19
ENDBRANCH  17  18
ENDBRANCH  16  17
ENDBRANCH  15  16
ENDBRANCH   1  15
TORSDOF 22
ENDMDL
MODEL 4
REMARK VINA RESULT:    -5.915      2.680      7.436
REMARK INTER + INTRA:         -15.655
REMARK INTER:                 -13.102
REMARK INTRA:                  -2.552
REMARK UNBOUND:                -2.133
REMARK SMILES CCCCCCCCCCCCCCCCCCCCCCCC(=O)[O-]
REMARK SMILES IDX 13 1 14 2 15 3 16 4 17 5 18 6 19 7 20 8 21 9 22 10 23 11
REMARK SMILES IDX 24 12 25 13 26 14 12 15 11 16 10 17 9 18 8 19 7 20 6 21 5 22
REMARK SMILES IDX 4 23 3 24 2 25 1 26
REMARK H PARENT
REMARK Flexibility Score: inf
ROOT
ATOM      1  C   UNL     1      14.539  21.855  19.152  1.00  0.00     0.000 C 
ENDROOT
BRANCH   1   2
ATOM      2  C   UNL     1      14.132  22.564  17.845  1.00  0.00     0.000 C 
BRANCH   2   3
ATOM      3  C   UNL     1      14.363  21.743  16.561  1.00  0.00     0.000 C 
BRANCH   3   4
ATOM      4  C   UNL     1      15.000  22.555  15.413  1.00  0.00     0.000 C 
BRANCH   4   5
ATOM      5  C   UNL     1      15.122  21.742  14.113  1.00  0.00     0.000 C 
BRANCH   5   6
ATOM      6  C   UNL     1      15.362  22.643  12.882  1.00  0.00     0.000 C 
BRANCH   6   7
ATOM      7  C   UNL     1      16.078  21.927  11.725  1.00  0.00     0.000 C 
BRANCH   7   8
ATOM      8  C   UNL     1      16.506  20.494  12.082  1.00  0.00     0.000 C 
BRANCH   8   9
ATOM      9  C   UNL     1      17.626  19.959  11.175  1.00  0.00     0.000 C 
BRANCH   9  10
ATOM     10  C   UNL     1      17.781  20.766   9.877  1.00  0.00     0.006 C 
BRANCH  10  11
ATOM     11  C   UNL     1      18.022  19.840   8.680  1.00  0.00     0.053 C 
BRANCH  11  12
ATOM     12  C   UNL     1      19.066  20.412   7.772  1.00  0.00     0.041 C 
ATOM     13  O   UNL     1      19.902  19.655   7.208  1.00  0.00    -0.550 OA
ATOM     14  O   UNL     1      19.119  21.783   7.549  1.00  0.00    -0.550 OA
ENDBRANCH  11  12
ENDBRANCH  10  11
ENDBRANCH   9  10
ENDBRANCH   8   9
ENDBRANCH   7   8
ENDBRANCH   6   7
ENDBRANCH   5   6
ENDBRANCH   4   5
ENDBRANCH   3   4
ENDBRANCH   2   3
ENDBRANCH   1   2
BRANCH   1  15
ATOM     15  C   UNL     1      14.088  20.387  19.261  1.00  0.00     0.000 C 
BRANCH  15  16
ATOM     16  C   UNL     1      15.163  19.475  19.872  1.00  0.00     0.000 C 
BRANCH  16  17
ATOM     17  C   UNL     1      16.563  20.080  19.694  1.00  0.00     0.000 C 
BRANCH  17  18
ATOM     18  C   UNL     1      17.362  19.419  18.553  1.00  0.00    -0.000 C 
BRANCH  18  19
ATOM     19  C   UNL     1      17.118  17.908  18.378  1.00  0.00    -0.000 C 
BRANCH  19  20
ATOM     20  C   UNL     1      16.912  17.504  16.908  1.00  0.00    -0.000 C 
BRANCH  20  21
ATOM     21  C   UNL     1      16.302  18.633  16.062  1.00  0.00    -0.000 C 
BRANCH  21  22
ATOM     22  C   UNL     1      17.349  19.648  15.577  1.00  0.00    -0.000 C 
BRANCH  22  23
ATOM     23  C   UNL     1      18.509  18.986  14.815  1.00  0.00    -0.000 C 
BRANCH  23  24
ATOM     24  C   UNL     1      19.900  19.519  15.217  1.00  0.00    -0.000 C 
BRANCH  24  25
ATOM     25  C   UNL     1      20.723  18.477  15.987  1.00  0.00    -0.003 C 
ATOM     26  C   UNL     1      20.181  17.068  15.760  1.00  0.00     0.004 C 
ENDBRANCH  24  25
ENDBRANCH  23  24
ENDBRANCH  22  23
ENDBRANCH  21  22
ENDBRANCH  20  21
ENDBRANCH  19  20
ENDBRANCH  18  19
ENDBRANCH  17  18
ENDBRANCH  16  17
ENDBRANCH  15  16
ENDBRANCH   1  15
TORSDOF 22
ENDMDL
MODEL 5
REMARK VINA RESULT:    -5.896      2.621      8.347
REMARK INTER + INTRA:         -15.612
REMARK INTER:                 -13.123
REMARK INTRA:                  -2.488
REMARK UNBOUND:                -2.133
REMARK SMILES CCCCCCCCCCCCCCCCCCCCCCCC(=O)[O-]
REMARK SMILES IDX 13 1 14 2 15 3 16 4 17 5 18 6 19 7 20 8 21 9 22 10 23 11
REMARK SMILES IDX 24 12 25 13 26 14 12 15 11 16 10 17 9 18 8 19 7 20 6 21 5 22
REMARK SMILES IDX 4 23 3 24 2 25 1 26
REMARK H PARENT
REMARK Flexibility Score: inf
ROOT
ATOM      1  C   UNL     1      15.608  21.691  16.724  1.00  0.00     0.000 C 
ENDROOT
BRANCH   1   2
ATOM      2  C   UNL     1      15.018  21.326  15.348  1.00  0.00     0.000 C 
BRANCH   2   3
ATOM      3  C   UNL     1      14.493  22.521  14.528  1.00  0.00     0.000 C 
BRANCH   3   4
ATOM      4  C   UNL     1      15.247  22.739  13.199  1.00  0.00     0.000 C 
BRANCH   4   5
ATOM      5  C   UNL     1      15.423  21.438  12.399  1.00  0.00     0.000 C 
BRANCH   5   6
ATOM      6  C   UNL     1      16.904  21.017  12.287  1.00  0.00     0.000 C 
BRANCH   6   7
ATOM      7  C   UNL     1      17.167  19.970  11.193  1.00  0.00     0.000 C 
BRANCH   7   8
ATOM      8  C   UNL     1      18.210  20.432  10.162  1.00  0.00     0.000 C 
BRANCH   8   9
ATOM      9  C   UNL     1      17.812  20.100   8.715  1.00  0.00     0.000 C 
BRANCH   9  10
ATOM     10  C   UNL     1      18.770  20.705   7.677  1.00  0.00     0.006 C 
BRANCH  10  11
ATOM     11  C   UNL     1      19.777  19.662   7.186  1.00  0.00     0.053 C 
BRANCH  11  12
ATOM     12  C   UNL     1      20.986  20.328   6.604  1.00  0.00     0.041 C 
ATOM     13  O   UNL     1      21.953  19.636   6.186  1.00  0.00    -0.550 OA
ATOM     14  O   UNL     1      21.046  21.714   6.524  1.00  0.00    -0.550 OA
ENDBRANCH  11  12
ENDBRANCH  10  11
ENDBRANCH   9  10
ENDBRANCH   8   9
ENDBRANCH   7   8
ENDBRANCH   6   7
ENDBRANCH   5   6
ENDBRANCH   4   5
ENDBRANCH   3   4
ENDBRANCH   2   3
ENDBRANCH   1   2
BRANCH   1  15
ATOM     15  C   UNL     1      14.945  22.897  17.415  1.00  0.00     0.000 C 
BRANCH  15  16
ATOM     16  C   UNL     1      13.913  22.485  18.476  1.00  0.00     0.000 C 
BRANCH  16  17
ATOM     17  C   UNL     1      14.148  21.040  18.939  1.00  0.00     0.000 C 
BRANCH  17  18
ATOM     18  C   UNL     1      15.089  20.945  20.156  1.00  0.00    -0.000 C 
BRANCH  18  19
ATOM     19  C   UNL     1      16.327  20.050  19.954  1.00  0.00    -0.000 C 
BRANCH  19  20
ATOM     20  C   UNL     1      16.057  18.862  19.014  1.00  0.00    -0.000 C 
BRANCH  20  21
ATOM     21  C   UNL     1      17.145  18.696  17.941  1.00  0.00    -0.000 C 
BRANCH  21  22
ATOM     22  C   UNL     1      18.295  19.703  18.096  1.00  0.00    -0.000 C 
BRANCH  22  23
ATOM     23  C   UNL     1      18.929  20.092  16.749  1.00  0.00    -0.000 C 
BRANCH  23  24
ATOM     24  C   UNL     1      18.183  19.520  15.524  1.00  0.00    -0.000 C 
BRANCH  24  25
ATOM     25  C   UNL     1      19.125  18.779  14.564  1.00  0.00    -0.003 C 
ATOM     26  C   UNL     1      19.923  17.702  15.294  1.00  0.00     0.004 C 
ENDBRANCH  24  25
ENDBRANCH  23  24
ENDBRANCH  22  23
ENDBRANCH  21  22
ENDBRANCH  20  21
ENDBRANCH  19  20
ENDBRANCH  18  19
ENDBRANCH  17  18
ENDBRANCH  16  17
ENDBRANCH  15  16
ENDBRANCH   1  15
TORSDOF 22
ENDMDL
MODEL 6
REMARK VINA RESULT:    -5.850      2.509      9.233
REMARK INTER + INTRA:         -15.507
REMARK INTER:                 -13.323
REMARK INTRA:                  -2.184
REMARK UNBOUND:                -2.133
REMARK SMILES CCCCCCCCCCCCCCCCCCCCCCCC(=O)[O-]
REMARK SMILES IDX 13 1 14 2 15 3 16 4 17 5 18 6 19 7 20 8 21 9 22 10 23 11
REMARK SMILES IDX 24 12 25 13 26 14 12 15 11 16 10 17 9 18 8 19 7 20 6 21 5 22
REMARK SMILES IDX 4 23 3 24 2 25 1 26
REMARK H PARENT
REMARK Flexibility Score: inf
ROOT
ATOM      1  C   UNL     1      15.382  22.143  14.251  1.00  0.00     0.000 C 
ENDROOT
BRANCH   1   2
ATOM      2  C   UNL     1      15.005  21.050  13.232  1.00  0.00     0.000 C 
BRANCH   2   3
ATOM      3  C   UNL     1      15.614  21.231  11.828  1.00  0.00     0.000 C 
BRANCH   3   4
ATOM      4  C   UNL     1      17.153  21.110  11.800  1.00  0.00     0.000 C 
BRANCH   4   5
ATOM      5  C   UNL     1      17.725  21.174  10.373  1.00  0.00     0.000 C 
BRANCH   5   6
ATOM      6  C   UNL     1      17.646  19.811   9.652  1.00  0.00     0.000 C 
BRANCH   6   7
ATOM      7  C   UNL     1      18.298  19.813   8.259  1.00  0.00     0.000 C 
BRANCH   7   8
ATOM      8  C   UNL     1      18.791  21.205   7.832  1.00  0.00     0.000 C 
BRANCH   8   9
ATOM      9  C   UNL     1      19.952  21.148   6.826  1.00  0.00     0.000 C 
BRANCH   9  10
ATOM     10  C   UNL     1      20.924  19.991   7.100  1.00  0.00     0.006 C 
BRANCH  10  11
ATOM     11  C   UNL     1      21.157  19.158   5.836  1.00  0.00     0.053 C 
BRANCH  11  12
ATOM     12  C   UNL     1      22.278  18.187   6.042  1.00  0.00     0.041 C 
ATOM     13  O   UNL     1      22.042  17.026   6.474  1.00  0.00    -0.550 OA
ATOM     14  O   UNL     1      23.586  18.563   5.760  1.00  0.00    -0.550 OA
ENDBRANCH  11  12
ENDBRANCH  10  11
ENDBRANCH   9  10
ENDBRANCH   8   9
ENDBRANCH   7   8
ENDBRANCH   6   7
ENDBRANCH   5   6
ENDBRANCH   4   5
ENDBRANCH   3   4
ENDBRANCH   2   3
ENDBRANCH   1   2
BRANCH   1  15
ATOM     15  C   UNL     1      14.350  22.368  15.372  1.00  0.00     0.000 C 
BRANCH  15  16
ATOM     16  C   UNL     1      14.990  22.436  16.767  1.00  0.00     0.000 C 
BRANCH  16  17
ATOM     17  C   UNL     1      13.927  22.302  17.867  1.00  0.00     0.000 C 
BRANCH  17  18
ATOM     18  C   UNL     1      14.494  21.738  19.185  1.00  0.00    -0.000 C 
BRANCH  18  19
ATOM     19  C   UNL     1      14.189  20.251  19.443  1.00  0.00    -0.000 C 
BRANCH  19  20
ATOM     20  C   UNL     1      14.113  19.424  18.147  1.00  0.00    -0.000 C 
BRANCH  20  21
ATOM     21  C   UNL     1      15.041  18.198  18.171  1.00  0.00    -0.000 C 
BRANCH  21  22
ATOM     22  C   UNL     1      16.512  18.567  18.419  1.00  0.00    -0.000 C 
BRANCH  22  23
ATOM     23  C   UNL     1      17.090  19.472  17.317  1.00  0.00    -0.000 C 
BRANCH  23  24
ATOM     24  C   UNL     1      17.154  18.798  15.930  1.00  0.00    -0.000 C 
BRANCH  24  25
ATOM     25  C   UNL     1      17.968  19.620  14.921  1.00  0.00    -0.003 C 
ATOM     26  C   UNL     1      18.929  18.733  14.134  1.00  0.00     0.004 C 
ENDBRANCH  24  25
ENDBRANCH  23  24
ENDBRANCH  22  23
ENDBRANCH  21  22
ENDBRANCH  20  21
ENDBRANCH  19  20
ENDBRANCH  18  19
ENDBRANCH  17  18
ENDBRANCH  16  17
ENDBRANCH  15  16
ENDBRANCH   1  15
TORSDOF 22
ENDMDL
MODEL 7
REMARK VINA RESULT:    -5.774      3.804      8.667
REMARK INTER + INTRA:         -15.333
REMARK INTER:                 -14.158
REMARK INTRA:                  -1.174
REMARK UNBOUND:                -2.133
REMARK SMILES CCCCCCCCCCCCCCCCCCCCCCCC(=O)[O-]
REMARK SMILES IDX 13 1 14 2 15 3 16 4 17 5 18 6 19 7 20 8 21 9 22 10 23 11
REMARK SMILES IDX 24 12 25 13 26 14 12 15 11 16 10 17 9 18 8 19 7 20 6 21 5 22
REMARK SMILES IDX 4 23 3 24 2 25 1 26
REMARK H PARENT
REMARK Flexibility Score: inf
ROOT
ATOM      1  C   UNL     1      20.583  19.388   6.873  1.00  0.00     0.000 C 
ENDROOT
BRANCH   1   2
ATOM      2  C   UNL     1      20.164  20.847   6.610  1.00  0.00     0.000 C 
BRANCH   2   3
ATOM      3  C   UNL     1      19.115  21.409   7.589  1.00  0.00     0.000 C 
BRANCH   3   4
ATOM      4  C   UNL     1      18.355  20.320   8.376  1.00  0.00     0.000 C 
BRANCH   4   5
ATOM      5  C   UNL     1      17.648  20.877   9.623  1.00  0.00     0.000 C 
BRANCH   5   6
ATOM      6  C   UNL     1      17.780  19.936  10.840  1.00  0.00     0.000 C 
BRANCH   6   7
ATOM      7  C   UNL     1      17.038  20.436  12.090  1.00  0.00     0.000 C 
BRANCH   7   8
ATOM      8  C   UNL     1      15.762  21.223  11.752  1.00  0.00     0.000 C 
BRANCH   8   9
ATOM      9  C   UNL     1      15.427  22.300  12.797  1.00  0.00     0.000 C 
BRANCH   9  10
ATOM     10  C   UNL     1      14.748  21.726  14.050  1.00  0.00     0.006 C 
BRANCH  10  11
ATOM     11  C   UNL     1      15.399  22.270  15.325  1.00  0.00     0.053 C 
BRANCH  11  12
ATOM     12  C   UNL     1      15.986  21.156  16.135  1.00  0.00     0.041 C 
ATOM     13  O   UNL     1      16.319  20.074  15.581  1.00  0.00    -0.550 OA
ATOM     14  O   UNL     1      16.165  21.311  17.505  1.00  0.00    -0.550 OA
ENDBRANCH  11  12
ENDBRANCH  10  11
ENDBRANCH   9  10
ENDBRANCH   8   9
ENDBRANCH   7   8
ENDBRANCH   6   7
ENDBRANCH   5   6
ENDBRANCH   4   5
ENDBRANCH   3   4
ENDBRANCH   2   3
ENDBRANCH   1   2
BRANCH   1  15
ATOM     15  C   UNL     1      21.994  19.019   6.377  1.00  0.00     0.000 C 
BRANCH  15  16
ATOM     16  C   UNL     1      22.155  17.517   6.098  1.00  0.00     0.000 C 
BRANCH  16  17
ATOM     17  C   UNL     1      23.475  17.232   5.366  1.00  0.00     0.000 C 
BRANCH  17  18
ATOM     18  C   UNL     1      24.453  18.423   5.405  1.00  0.00    -0.000 C 
BRANCH  18  19
ATOM     19  C   UNL     1      25.913  18.056   5.730  1.00  0.00    -0.000 C 
BRANCH  19  20
ATOM     20  C   UNL     1      26.691  19.218   6.370  1.00  0.00    -0.000 C 
BRANCH  20  21
ATOM     21  C   UNL     1      27.926  18.744   7.154  1.00  0.00    -0.000 C 
BRANCH  21  22
ATOM     22  C   UNL     1      28.493  19.826   8.087  1.00  0.00    -0.000 C 
BRANCH  22  23
ATOM     23  C   UNL     1      30.027  19.778   8.188  1.00  0.00    -0.000 C 
BRANCH  23  24
ATOM     24  C   UNL     1      30.712  19.160   6.951  1.00  0.00    -0.000 C 
BRANCH  24  25
ATOM     25  C   UNL     1      31.771  18.115   7.333  1.00  0.00    -0.003 C 
ATOM     26  C   UNL     1      31.216  16.698   7.214  1.00  0.00     0.004 C 
ENDBRANCH  24  25
ENDBRANCH  23  24
ENDBRANCH  22  23
ENDBRANCH  21  22
ENDBRANCH  20  21
ENDBRANCH  19  20
ENDBRANCH  18  19
ENDBRANCH  17  18
ENDBRANCH  16  17
ENDBRANCH  15  16
ENDBRANCH   1  15
TORSDOF 22
ENDMDL
MODEL 8
REMARK VINA RESULT:    -5.754      4.146      8.080
REMARK INTER + INTRA:         -15.287
REMARK INTER:                 -12.481
REMARK INTRA:                  -2.805
REMARK UNBOUND:                -2.133
REMARK SMILES CCCCCCCCCCCCCCCCCCCCCCCC(=O)[O-]
REMARK SMILES IDX 13 1 14 2 15 3 16 4 17 5 18 6 19 7 20 8 21 9 22 10 23 11
REMARK SMILES IDX 24 12 25 13 26 14 12 15 11 16 10 17 9 18 8 19 7 20 6 21 5 22
REMARK SMILES IDX 4 23 3 24 2 25 1 26
REMARK H PARENT
REMARK Flexibility Score: inf
ROOT
ATOM      1  C   UNL     1      17.851  19.888  17.994  1.00  0.00     0.000 C 
ENDROOT
BRANCH   1   2
ATOM      2  C   UNL     1      17.899  20.459  16.564  1.00  0.00     0.000 C 
BRANCH   2   3
ATOM      3  C   UNL     1      17.378  19.510  15.467  1.00  0.00     0.000 C 
BRANCH   3   4
ATOM      4  C   UNL     1      18.481  18.994  14.518  1.00  0.00     0.000 C 
BRANCH   4   5
ATOM      5  C   UNL     1      19.864  18.951  15.188  1.00  0.00     0.000 C 
BRANCH   5   6
ATOM      6  C   UNL     1      20.152  17.585  15.848  1.00  0.00     0.000 C 
BRANCH   6   7
ATOM      7  C   UNL     1      21.559  17.042  15.552  1.00  0.00     0.000 C 
BRANCH   7   8
ATOM      8  C   UNL     1      22.592  17.452  16.615  1.00  0.00     0.000 C 
BRANCH   8   9
ATOM      9  C   UNL     1      23.962  17.807  16.013  1.00  0.00     0.000 C 
BRANCH   9  10
ATOM     10  C   UNL     1      24.544  19.111  16.579  1.00  0.00     0.006 C 
BRANCH  10  11
ATOM     11  C   UNL     1      24.267  20.289  15.639  1.00  0.00     0.053 C 
BRANCH  11  12
ATOM     12  C   UNL     1      23.691  21.445  16.396  1.00  0.00     0.041 C 
ATOM     13  O   UNL     1      24.443  22.209  17.059  1.00  0.00    -0.550 OA
ATOM     14  O   UNL     1      22.321  21.679  16.373  1.00  0.00    -0.550 OA
ENDBRANCH  11  12
ENDBRANCH  10  11
ENDBRANCH   9  10
ENDBRANCH   8   9
ENDBRANCH   7   8
ENDBRANCH   6   7
ENDBRANCH   5   6
ENDBRANCH   4   5
ENDBRANCH   3   4
ENDBRANCH   2   3
ENDBRANCH   1   2
BRANCH   1  15
ATOM     15  C   UNL     1      17.090  18.556  18.135  1.00  0.00     0.000 C 
BRANCH  15  16
ATOM     16  C   UNL     1      15.696  18.728  18.757  1.00  0.00     0.000 C 
BRANCH  16  17
ATOM     17  C   UNL     1      15.767  19.561  20.046  1.00  0.00     0.000 C 
BRANCH  17  18
ATOM     18  C   UNL     1      14.573  20.521  20.208  1.00  0.00    -0.000 C 
BRANCH  18  19
ATOM     19  C   UNL     1      13.953  21.017  18.888  1.00  0.00    -0.000 C 
BRANCH  19  20
ATOM     20  C   UNL     1      14.213  22.512  18.631  1.00  0.00    -0.000 C 
BRANCH  20  21
ATOM     21  C   UNL     1      14.647  22.798  17.184  1.00  0.00    -0.000 C 
BRANCH  21  22
ATOM     22  C   UNL     1      14.460  21.589  16.254  1.00  0.00    -0.000 C 
BRANCH  22  23
ATOM     23  C   UNL     1      13.995  21.991  14.844  1.00  0.00    -0.000 C 
BRANCH  23  24
ATOM     24  C   UNL     1      15.152  22.202  13.845  1.00  0.00    -0.000 C 
BRANCH  24  25
ATOM     25  C   UNL     1      15.204  21.103  12.775  1.00  0.00    -0.003 C 
ATOM     26  C   UNL     1      16.169  21.472  11.651  1.00  0.00     0.004 C 
ENDBRANCH  24  25
ENDBRANCH  23  24
ENDBRANCH  22  23
ENDBRANCH  21  22
ENDBRANCH  20  21
ENDBRANCH  19  20
ENDBRANCH  18  19
ENDBRANCH  17  18
ENDBRANCH  16  17
ENDBRANCH  15  16
ENDBRANCH   1  15
TORSDOF 22
ENDMDL
MODEL 9
REMARK VINA RESULT:    -5.723      3.819      7.011
REMARK INTER + INTRA:         -15.216
REMARK INTER:                 -12.610
REMARK INTRA:                  -2.606
REMARK UNBOUND:                -2.133
REMARK SMILES CCCCCCCCCCCCCCCCCCCCCCCC(=O)[O-]
REMARK SMILES IDX 13 1 14 2 15 3 16 4 17 5 18 6 19 7 20 8 21 9 22 10 23 11
REMARK SMILES IDX 24 12 25 13 26 14 12 15 11 16 10 17 9 18 8 19 7 20 6 21 5 22
REMARK SMILES IDX 4 23 3 24 2 25 1 26
REMARK H PARENT
REMARK Flexibility Score: inf
ROOT
ATOM      1  C   UNL     1      16.399  20.199  19.324  1.00  0.00     0.000 C 
ENDROOT
BRANCH   1   2
ATOM      2  C   UNL     1      17.235  19.623  18.165  1.00  0.00     0.000 C 
BRANCH   2   3
ATOM      3  C   UNL     1      18.457  20.470  17.760  1.00  0.00     0.000 C 
BRANCH   3   4
ATOM      4  C   UNL     1      18.939  20.212  16.316  1.00  0.00     0.000 C 
BRANCH   4   5
ATOM      5  C   UNL     1      18.413  18.885  15.745  1.00  0.00     0.000 C 
BRANCH   5   6
ATOM      6  C   UNL     1      19.460  18.172  14.862  1.00  0.00     0.000 C 
BRANCH   6   7
ATOM      7  C   UNL     1      20.316  17.149  15.626  1.00  0.00     0.000 C 
BRANCH   7   8
ATOM      8  C   UNL     1      21.623  17.750  16.168  1.00  0.00     0.000 C 
BRANCH   8   9
ATOM      9  C   UNL     1      22.682  16.685  16.498  1.00  0.00     0.000 C 
BRANCH   9  10
ATOM     10  C   UNL     1      24.027  16.943  15.802  1.00  0.00     0.006 C 
BRANCH  10  11
ATOM     11  C   UNL     1      24.494  18.384  16.028  1.00  0.00     0.053 C 
BRANCH  11  12
ATOM     12  C   UNL     1      25.515  18.775  15.005  1.00  0.00     0.041 C 
ATOM     13  O   UNL     1      25.706  19.990  14.731  1.00  0.00    -0.550 OA
ATOM     14  O   UNL     1      26.255  17.798  14.351  1.00  0.00    -0.550 OA
ENDBRANCH  11  12
ENDBRANCH  10  11
ENDBRANCH   9  10
ENDBRANCH   8   9
ENDBRANCH   7   8
ENDBRANCH   6   7
ENDBRANCH   5   6
ENDBRANCH   4   5
ENDBRANCH   3   4
ENDBRANCH   2   3
ENDBRANCH   1   2
BRANCH   1  15
ATOM     15  C   UNL     1      14.984  19.606  19.461  1.00  0.00     0.000 C 
BRANCH  15  16
ATOM     16  C   UNL     1      13.889  20.551  18.943  1.00  0.00     0.000 C 
BRANCH  16  17
ATOM     17  C   UNL     1      14.280  22.019  19.164  1.00  0.00     0.000 C 
BRANCH  17  18
ATOM     18  C   UNL     1      14.149  22.874  17.888  1.00  0.00    -0.000 C 
BRANCH  18  19
ATOM     19  C   UNL     1      15.411  22.927  17.007  1.00  0.00    -0.000 C 
BRANCH  19  20
ATOM     20  C   UNL     1      15.142  22.508  15.552  1.00  0.00    -0.000 C 
BRANCH  20  21
ATOM     21  C   UNL     1      15.060  20.982  15.380  1.00  0.00    -0.000 C 
BRANCH  21  22
ATOM     22  C   UNL     1      15.703  20.493  14.072  1.00  0.00    -0.000 C 
BRANCH  22  23
ATOM     23  C   UNL     1      16.201  21.650  13.188  1.00  0.00    -0.000 C 
BRANCH  23  24
ATOM     24  C   UNL     1      15.936  21.438  11.682  1.00  0.00    -0.000 C 
BRANCH  24  25
ATOM     25  C   UNL     1      16.963  20.495  11.037  1.00  0.00    -0.003 C 
ATOM     26  C   UNL     1      18.226  20.392  11.888  1.00  0.00     0.004 C 
ENDBRANCH  24  25
ENDBRANCH  23  24
ENDBRANCH  22  23
ENDBRANCH  21  22
ENDBRANCH  20  21
ENDBRANCH  19  20
ENDBRANCH  18  19
ENDBRANCH  17  18
ENDBRANCH  16  17
ENDBRANCH  15  16
ENDBRANCH   1  15
TORSDOF 22
ENDMDL
