MODEL 1
REMARK VINA RESULT:    37.301      0.000      0.000
REMARK INTER + INTRA:          40.136
REMARK INTER:                  40.572
REMARK INTRA:                  -0.436
REMARK UNBOUND:                -0.436
REMARK SMILES C=C(C)[C@@H]1CC[C@]2(C)CC[C@@]3(C)[C@H](CC[C@H]4[C@@]5(C)CC[C@H](O)C(C)(C)[C@H]5CC[C@@]43C)[C@@H]12
REMARK SMILES IDX 4 1 5 2 6 3 7 4 31 5 13 6 14 7 15 8 16 9 17 10 19 11 20 12
REMARK SMILES IDX 21 13 23 14 26 15 27 16 28 17 29 18 11 19 10 20 9 21 12 22
REMARK SMILES IDX 30 23 24 24 25 25 18 26 8 27 2 28 3 29 1 30 22 31
REMARK H PARENT 22 32
REMARK Flexibility Score: inf
ROOT
ATOM      1  C   UNL     1     131.771 133.029 137.624  1.00  0.00     0.018 C 
ATOM      2  C   UNL     1     130.863 133.957 136.785  1.00  0.00     0.009 C 
ATOM      3  C   UNL     1     131.645 135.258 136.591  1.00  0.00     0.008 C 
ATOM      4  C   UNL     1     132.636 135.288 137.766  1.00  0.00    -0.029 C 
ATOM      5  C   UNL     1     133.083 133.828 137.821  1.00  0.00     0.006 C 
ATOM      6  C   UNL     1     133.987 133.473 139.042  1.00  0.00    -0.000 C 
ATOM      7  C   UNL     1     134.569 132.043 138.789  1.00  0.00     0.005 C 
ATOM      8  C   UNL     1     135.746 131.570 139.654  1.00  0.00     0.005 C 
ATOM      9  C   UNL     1     136.657 132.694 140.196  1.00  0.00     0.002 C 
ATOM     10  C   UNL     1     138.118 132.247 140.661  1.00  0.00    -0.026 C 
ATOM     11  C   UNL     1     139.013 131.914 139.430  1.00  0.00     0.010 C 
ATOM     12  C   UNL     1     140.478 131.700 139.774  1.00  0.00     0.033 C 
ATOM     13  C   UNL     1     141.064 132.991 140.350  1.00  0.00     0.120 C 
ATOM     14  C   UNL     1     140.378 133.409 141.684  1.00  0.00    -0.006 C 
ATOM     15  C   UNL     1     138.770 133.393 141.572  1.00  0.00     0.003 C 
ATOM     16  C   UNL     1     138.075 134.778 141.335  1.00  0.00     0.005 C 
ATOM     17  C   UNL     1     137.664 135.021 139.877  1.00  0.00     0.008 C 
ATOM     18  C   UNL     1     136.572 134.017 139.331  1.00  0.00    -0.024 C 
ATOM     19  C   UNL     1     135.072 134.615 139.413  1.00  0.00    -0.024 C 
ATOM     20  C   UNL     1     134.986 135.959 138.534  1.00  0.00     0.008 C 
ATOM     21  C   UNL     1     133.881 136.125 137.469  1.00  0.00     0.007 C 
ATOM     22  C   UNL     1     134.736 135.084 140.874  1.00  0.00     0.012 C 
ATOM     23  C   UNL     1     136.886 133.726 137.809  1.00  0.00     0.012 C 
ATOM     24  C   UNL     1     140.852 132.476 142.841  1.00  0.00     0.014 C 
ATOM     25  C   UNL     1     140.933 134.813 142.056  1.00  0.00     0.014 C 
ATOM     26  C   UNL     1     137.958 130.951 141.514  1.00  0.00     0.012 C 
ATOM     27  C   UNL     1     131.887 135.797 139.043  1.00  0.00     0.011 C 
ENDROOT
BRANCH   1  28
ATOM     28  C   UNL     1     131.948 131.667 136.957  1.00  0.00    -0.077 C 
ATOM     29  C   UNL     1     132.923 131.506 135.819  1.00  0.00     0.039 C 
ATOM     30  C   UNL     1     131.288 130.579 137.393  1.00  0.00     0.008 C 
ENDBRANCH   1  28
BRANCH  13  31
ATOM     31  O   UNL     1     142.450 132.828 140.538  1.00  0.00    -0.393 OA
ATOM     32  H   UNL     1     142.720 132.022 140.025  1.00  0.00     0.210 HD
ENDBRANCH  13  31
TORSDOF 2
ENDMDL
MODEL 2
REMARK VINA RESULT:    37.783      0.255      0.255
REMARK INTER + INTRA:          40.660
REMARK INTER:                  41.179
REMARK INTRA:                  -0.519
REMARK UNBOUND:                -0.436
REMARK SMILES C=C(C)[C@@H]1CC[C@]2(C)CC[C@@]3(C)[C@H](CC[C@H]4[C@@]5(C)CC[C@H](O)C(C)(C)[C@H]5CC[C@@]43C)[C@@H]12
REMARK SMILES IDX 4 1 5 2 6 3 7 4 31 5 13 6 14 7 15 8 16 9 17 10 19 11 20 12
REMARK SMILES IDX 21 13 23 14 26 15 27 16 28 17 29 18 11 19 10 20 9 21 12 22
REMARK SMILES IDX 30 23 24 24 25 25 18 26 8 27 2 28 3 29 1 30 22 31
REMARK H PARENT 22 32
REMARK Flexibility Score: inf
ROOT
ATOM      1  C   UNL     1     131.797 132.708 137.489  1.00  0.00     0.018 C 
ATOM      2  C   UNL     1     130.867 133.602 136.638  1.00  0.00     0.009 C 
ATOM      3  C   UNL     1     131.584 134.946 136.490  1.00  0.00     0.008 C 
ATOM      4  C   UNL     1     132.538 135.006 137.694  1.00  0.00    -0.029 C 
ATOM      5  C   UNL     1     133.059 133.570 137.738  1.00  0.00     0.006 C 
ATOM      6  C   UNL     1     133.944 133.240 138.980  1.00  0.00    -0.000 C 
ATOM      7  C   UNL     1     134.607 131.847 138.721  1.00  0.00     0.005 C 
ATOM      8  C   UNL     1     135.782 131.420 139.613  1.00  0.00     0.005 C 
ATOM      9  C   UNL     1     136.616 132.580 140.201  1.00  0.00     0.002 C 
ATOM     10  C   UNL     1     138.085 132.201 140.703  1.00  0.00    -0.026 C 
ATOM     11  C   UNL     1     139.032 131.938 139.494  1.00  0.00     0.010 C 
ATOM     12  C   UNL     1     140.495 131.794 139.878  1.00  0.00     0.033 C 
ATOM     13  C   UNL     1     140.995 133.103 140.493  1.00  0.00     0.120 C 
ATOM     14  C   UNL     1     140.250 133.461 141.812  1.00  0.00    -0.006 C 
ATOM     15  C   UNL     1     138.649 133.362 141.652  1.00  0.00     0.003 C 
ATOM     16  C   UNL     1     137.889 134.714 141.417  1.00  0.00     0.005 C 
ATOM     17  C   UNL     1     137.509 134.962 139.951  1.00  0.00     0.008 C 
ATOM     18  C   UNL     1     136.487 133.913 139.356  1.00  0.00    -0.024 C 
ATOM     19  C   UNL     1     134.956 134.430 139.403  1.00  0.00    -0.024 C 
ATOM     20  C   UNL     1     134.825 135.783 138.544  1.00  0.00     0.008 C 
ATOM     21  C   UNL     1     133.745 135.911 137.449  1.00  0.00     0.007 C 
ATOM     22  C   UNL     1     134.554 134.854 140.860  1.00  0.00     0.012 C 
ATOM     23  C   UNL     1     136.861 133.666 137.840  1.00  0.00     0.012 C 
ATOM     24  C   UNL     1     140.738 132.532 142.967  1.00  0.00     0.014 C 
ATOM     25  C   UNL     1     140.719 134.884 142.225  1.00  0.00     0.014 C 
ATOM     26  C   UNL     1     137.968 130.883 141.528  1.00  0.00     0.012 C 
ATOM     27  C   UNL     1     131.726 135.451 138.957  1.00  0.00     0.011 C 
ENDROOT
BRANCH   1  28
ATOM     28  C   UNL     1     132.065 131.369 136.804  1.00  0.00    -0.077 C 
ATOM     29  C   UNL     1     132.885 131.320 135.541  1.00  0.00     0.039 C 
ATOM     30  C   UNL     1     131.628 130.211 137.330  1.00  0.00     0.008 C 
ENDBRANCH   1  28
BRANCH  13  31
ATOM     31  O   UNL     1     142.382 133.009 140.720  1.00  0.00    -0.393 OA
ATOM     32  H   UNL     1     142.531 132.201 141.277  1.00  0.00     0.210 HD
ENDBRANCH  13  31
TORSDOF 2
ENDMDL
