MODEL 1
REMARK VINA RESULT:    -5.616      0.000      0.000
REMARK INTER + INTRA:          -7.144
REMARK INTER:                  -6.765
REMARK INTRA:                  -0.379
REMARK UNBOUND:                -0.379
REMARK SMILES O=c1c(O)c(-c2ccc(O)cc2O)oc2cc(O)cc(O)c12
REMARK SMILES IDX 5 1 3 2 2 3 1 4 22 5 20 6 19 7 17 8 16 9 15 10 14 11 6 12
REMARK SMILES IDX 8 13 7 14 9 15 11 16 12 17 10 18 13 20 4 22 21 24 18 26
REMARK H PARENT 10 19 13 21 4 23 21 25 18 27
REMARK Flexibility Score: inf
ROOT
ATOM      1  C   UNL     1     131.447 132.215 132.855  1.00  0.00     0.184 A 
ATOM      2  C   UNL     1     130.695 133.345 132.498  1.00  0.00     0.208 A 
ATOM      3  C   UNL     1     131.340 134.587 132.395  1.00  0.00     0.238 A 
ATOM      4  O   UNL     1     130.651 135.606 132.126  1.00  0.00    -0.285 OA
ATOM      5  C   UNL     1     132.733 134.679 132.635  1.00  0.00     0.111 A 
ATOM      6  C   UNL     1     133.497 135.878 132.520  1.00  0.00     0.134 A 
ATOM      7  C   UNL     1     134.844 135.879 132.908  1.00  0.00     0.093 A 
ATOM      8  C   UNL     1     135.468 134.707 133.343  1.00  0.00     0.123 A 
ATOM      9  C   UNL     1     134.745 133.519 133.403  1.00  0.00     0.094 A 
ATOM     10  C   UNL     1     133.392 133.494 133.057  1.00  0.00     0.146 A 
ATOM     11  O   UNL     1     132.737 132.342 133.139  1.00  0.00    -0.451 OA
ENDROOT
BRANCH   1  12
ATOM     12  C   UNL     1     130.832 130.875 132.965  1.00  0.00     0.063 A 
ATOM     13  C   UNL     1     129.306 129.380 134.124  1.00  0.00     0.047 A 
ATOM     14  C   UNL     1     129.902 130.635 133.988  1.00  0.00     0.020 A 
ATOM     15  C   UNL     1     129.644 128.343 133.246  1.00  0.00     0.119 A 
ATOM     16  C   UNL     1     130.587 128.565 132.239  1.00  0.00     0.093 A 
ATOM     17  C   UNL     1     131.194 129.822 132.099  1.00  0.00     0.130 A 
BRANCH  15  18
ATOM     18  O   UNL     1     129.054 127.086 133.370  1.00  0.00    -0.508 OA
ATOM     19  H   UNL     1     128.354 126.763 132.711  1.00  0.00     0.293 HD
ENDBRANCH  15  18
BRANCH  17  20
ATOM     20  O   UNL     1     132.170 130.017 131.121  1.00  0.00    -0.507 OA
ATOM     21  H   UNL     1     133.154 130.077 131.357  1.00  0.00     0.293 HD
ENDBRANCH  17  20
ENDBRANCH   1  12
BRANCH   2  22
ATOM     22  O   UNL     1     129.318 133.229 132.284  1.00  0.00    -0.502 OA
ATOM     23  H   UNL     1     128.676 132.960 133.020  1.00  0.00     0.293 HD
ENDBRANCH   2  22
BRANCH   6  24
ATOM     24  O   UNL     1     132.995 137.078 132.010  1.00  0.00    -0.507 OA
ATOM     25  H   UNL     1     132.029 137.366 132.063  1.00  0.00     0.293 HD
ENDBRANCH   6  24
BRANCH   8  26
ATOM     26  O   UNL     1     136.811 134.714 133.712  1.00  0.00    -0.508 OA
ATOM     27  H   UNL     1     137.111 135.059 134.617  1.00  0.00     0.293 HD
ENDBRANCH   8  26
TORSDOF 6
ENDMDL
MODEL 2
REMARK VINA RESULT:    -5.594      3.770      9.740
REMARK INTER + INTRA:          -7.117
REMARK INTER:                  -6.710
REMARK INTRA:                  -0.407
REMARK UNBOUND:                -0.379
REMARK SMILES O=c1c(O)c(-c2ccc(O)cc2O)oc2cc(O)cc(O)c12
REMARK SMILES IDX 5 1 3 2 2 3 1 4 22 5 20 6 19 7 17 8 16 9 15 10 14 11 6 12
REMARK SMILES IDX 8 13 7 14 9 15 11 16 12 17 10 18 13 20 4 22 21 24 18 26
REMARK H PARENT 10 19 13 21 4 23 21 25 18 27
REMARK Flexibility Score: inf
ROOT
ATOM      1  C   UNL     1     128.264 127.507 132.816  1.00  0.00     0.184 A 
ATOM      2  C   UNL     1     129.015 126.372 132.470  1.00  0.00     0.208 A 
ATOM      3  C   UNL     1     128.366 125.131 132.376  1.00  0.00     0.238 A 
ATOM      4  O   UNL     1     129.053 124.108 132.117  1.00  0.00    -0.285 OA
ATOM      5  C   UNL     1     126.972 125.045 132.614  1.00  0.00     0.111 A 
ATOM      6  C   UNL     1     126.205 123.847 132.507  1.00  0.00     0.134 A 
ATOM      7  C   UNL     1     124.858 123.853 132.891  1.00  0.00     0.093 A 
ATOM      8  C   UNL     1     124.235 125.030 133.316  1.00  0.00     0.123 A 
ATOM      9  C   UNL     1     124.961 126.217 133.368  1.00  0.00     0.094 A 
ATOM     10  C   UNL     1     126.316 126.235 133.025  1.00  0.00     0.146 A 
ATOM     11  O   UNL     1     126.974 127.386 133.099  1.00  0.00    -0.451 OA
ENDROOT
BRANCH   1  12
ATOM     12  C   UNL     1     128.883 128.846 132.917  1.00  0.00     0.063 A 
ATOM     13  C   UNL     1     130.333 130.379 134.125  1.00  0.00     0.047 A 
ATOM     14  C   UNL     1     129.736 129.123 133.996  1.00  0.00     0.020 A 
ATOM     15  C   UNL     1     130.072 131.380 133.181  1.00  0.00     0.119 A 
ATOM     16  C   UNL     1     129.205 131.122 132.116  1.00  0.00     0.093 A 
ATOM     17  C   UNL     1     128.597 129.864 131.983  1.00  0.00     0.130 A 
BRANCH  15  18
ATOM     18  O   UNL     1     130.664 132.637 133.297  1.00  0.00    -0.508 OA
ATOM     19  H   UNL     1     130.498 133.365 132.611  1.00  0.00     0.293 HD
ENDBRANCH  15  18
BRANCH  17  20
ATOM     20  O   UNL     1     127.696 129.635 130.943  1.00  0.00    -0.507 OA
ATOM     21  H   UNL     1     126.704 129.520 131.116  1.00  0.00     0.293 HD
ENDBRANCH  17  20
ENDBRANCH   1  12
BRANCH   2  22
ATOM     22  O   UNL     1     130.392 126.483 132.259  1.00  0.00    -0.502 OA
ATOM     23  H   UNL     1     130.787 127.118 131.576  1.00  0.00     0.293 HD
ENDBRANCH   2  22
BRANCH   6  24
ATOM     24  O   UNL     1     126.706 122.641 132.008  1.00  0.00    -0.507 OA
ATOM     25  H   UNL     1     127.550 122.551 131.463  1.00  0.00     0.293 HD
ENDBRANCH   6  24
BRANCH   8  26
ATOM     26  O   UNL     1     122.891 125.030 133.682  1.00  0.00    -0.508 OA
ATOM     27  H   UNL     1     122.519 124.348 134.333  1.00  0.00     0.293 HD
ENDBRANCH   8  26
TORSDOF 6
ENDMDL
MODEL 3
REMARK VINA RESULT:    -5.338      3.479      9.554
REMARK INTER + INTRA:          -6.809
REMARK INTER:                  -6.429
REMARK INTRA:                  -0.380
REMARK UNBOUND:                -0.379
REMARK SMILES O=c1c(O)c(-c2ccc(O)cc2O)oc2cc(O)cc(O)c12
REMARK SMILES IDX 5 1 3 2 2 3 1 4 22 5 20 6 19 7 17 8 16 9 15 10 14 11 6 12
REMARK SMILES IDX 8 13 7 14 9 15 11 16 12 17 10 18 13 20 4 22 21 24 18 26
REMARK H PARENT 10 19 13 21 4 23 21 25 18 27
REMARK Flexibility Score: inf
ROOT
ATOM      1  C   UNL     1     128.744 127.480 133.125  1.00  0.00     0.184 A 
ATOM      2  C   UNL     1     129.528 126.324 133.266  1.00  0.00     0.208 A 
ATOM      3  C   UNL     1     128.890 125.078 133.362  1.00  0.00     0.238 A 
ATOM      4  O   UNL     1     129.596 124.050 133.542  1.00  0.00    -0.285 OA
ATOM      5  C   UNL     1     127.477 125.003 133.299  1.00  0.00     0.111 A 
ATOM      6  C   UNL     1     126.728 123.789 133.345  1.00  0.00     0.134 A 
ATOM      7  C   UNL     1     125.329 123.844 133.405  1.00  0.00     0.093 A 
ATOM      8  C   UNL     1     124.653 125.065 133.355  1.00  0.00     0.123 A 
ATOM      9  C   UNL     1     125.374 126.252 133.250  1.00  0.00     0.094 A 
ATOM     10  C   UNL     1     126.771 126.232 133.224  1.00  0.00     0.146 A 
ATOM     11  O   UNL     1     127.420 127.387 133.135  1.00  0.00    -0.451 OA
ENDROOT
BRANCH   1  12
ATOM     12  C   UNL     1     129.353 128.821 133.002  1.00  0.00     0.063 A 
ATOM     13  C   UNL     1     129.942 130.938 134.043  1.00  0.00     0.047 A 
ATOM     14  C   UNL     1     129.380 129.662 134.125  1.00  0.00     0.020 A 
ATOM     15  C   UNL     1     130.473 131.394 132.830  1.00  0.00     0.119 A 
ATOM     16  C   UNL     1     130.430 130.573 131.700  1.00  0.00     0.093 A 
ATOM     17  C   UNL     1     129.861 129.293 131.773  1.00  0.00     0.130 A 
BRANCH  15  18
ATOM     18  O   UNL     1     131.040 132.664 132.736  1.00  0.00    -0.508 OA
ATOM     19  H   UNL     1     131.337 133.173 133.561  1.00  0.00     0.293 HD
ENDBRANCH  15  18
BRANCH  17  20
ATOM     20  O   UNL     1     129.779 128.503 130.626  1.00  0.00    -0.507 OA
ATOM     21  H   UNL     1     129.363 127.579 130.646  1.00  0.00     0.293 HD
ENDBRANCH  17  20
ENDBRANCH   1  12
BRANCH   2  22
ATOM     22  O   UNL     1     130.919 126.429 133.344  1.00  0.00    -0.502 OA
ATOM     23  H   UNL     1     131.389 126.834 134.145  1.00  0.00     0.293 HD
ENDBRANCH   2  22
BRANCH   6  24
ATOM     24  O   UNL     1     127.301 122.515 133.307  1.00  0.00    -0.507 OA
ATOM     25  H   UNL     1     126.822 121.661 133.548  1.00  0.00     0.293 HD
ENDBRANCH   6  24
BRANCH   8  26
ATOM     26  O   UNL     1     123.261 125.109 133.400  1.00  0.00    -0.508 OA
ATOM     27  H   UNL     1     122.748 125.946 133.147  1.00  0.00     0.293 HD
ENDBRANCH   8  26
TORSDOF 6
ENDMDL
MODEL 4
REMARK VINA RESULT:    -5.290      4.010      9.775
REMARK INTER + INTRA:          -6.752
REMARK INTER:                  -6.344
REMARK INTRA:                  -0.408
REMARK UNBOUND:                -0.379
REMARK SMILES O=c1c(O)c(-c2ccc(O)cc2O)oc2cc(O)cc(O)c12
REMARK SMILES IDX 5 1 3 2 2 3 1 4 22 5 20 6 19 7 17 8 16 9 15 10 14 11 6 12
REMARK SMILES IDX 8 13 7 14 9 15 11 16 12 17 10 18 13 20 4 22 21 24 18 26
REMARK H PARENT 10 19 13 21 4 23 21 25 18 27
REMARK Flexibility Score: inf
ROOT
ATOM      1  C   UNL     1     128.503 126.599 132.976  1.00  0.00     0.184 A 
ATOM      2  C   UNL     1     127.120 126.652 132.745  1.00  0.00     0.208 A 
ATOM      3  C   UNL     1     126.374 125.465 132.810  1.00  0.00     0.238 A 
ATOM      4  O   UNL     1     125.143 125.510 132.551  1.00  0.00    -0.285 OA
ATOM      5  C   UNL     1     127.020 124.243 133.122  1.00  0.00     0.111 A 
ATOM      6  C   UNL     1     126.357 122.987 133.253  1.00  0.00     0.134 A 
ATOM      7  C   UNL     1     127.114 121.822 133.435  1.00  0.00     0.093 A 
ATOM      8  C   UNL     1     128.506 121.879 133.555  1.00  0.00     0.123 A 
ATOM      9  C   UNL     1     129.157 123.108 133.486  1.00  0.00     0.094 A 
ATOM     10  C   UNL     1     128.432 124.282 133.269  1.00  0.00     0.146 A 
ATOM     11  O   UNL     1     129.093 125.432 133.199  1.00  0.00    -0.451 OA
ENDROOT
BRANCH   1  12
ATOM     12  C   UNL     1     129.344 127.815 132.938  1.00  0.00     0.063 A 
ATOM     13  C   UNL     1     130.325 129.699 134.121  1.00  0.00     0.047 A 
ATOM     14  C   UNL     1     129.542 128.542 134.122  1.00  0.00     0.020 A 
ATOM     15  C   UNL     1     130.909 130.150 132.931  1.00  0.00     0.119 A 
ATOM     16  C   UNL     1     130.698 129.446 131.743  1.00  0.00     0.093 A 
ATOM     17  C   UNL     1     129.908 128.287 131.734  1.00  0.00     0.130 A 
BRANCH  15  18
ATOM     18  O   UNL     1     131.695 131.301 132.918  1.00  0.00    -0.508 OA
ATOM     19  H   UNL     1     132.167 131.610 132.076  1.00  0.00     0.293 HD
ENDBRANCH  15  18
BRANCH  17  20
ATOM     20  O   UNL     1     129.665 127.621 130.533  1.00  0.00    -0.507 OA
ATOM     21  H   UNL     1     129.026 126.836 130.480  1.00  0.00     0.293 HD
ENDBRANCH  17  20
ENDBRANCH   1  12
BRANCH   2  22
ATOM     22  O   UNL     1     126.511 127.868 132.423  1.00  0.00    -0.502 OA
ATOM     23  H   UNL     1     126.134 128.490 133.128  1.00  0.00     0.293 HD
ENDBRANCH   2  22
BRANCH   6  24
ATOM     24  O   UNL     1     124.968 122.832 133.241  1.00  0.00    -0.507 OA
ATOM     25  H   UNL     1     124.378 122.871 134.059  1.00  0.00     0.293 HD
ENDBRANCH   6  24
BRANCH   8  26
ATOM     26  O   UNL     1     129.249 120.717 133.750  1.00  0.00    -0.508 OA
ATOM     27  H   UNL     1     129.008 119.848 133.286  1.00  0.00     0.293 HD
ENDBRANCH   8  26
TORSDOF 6
ENDMDL
MODEL 5
REMARK VINA RESULT:    -5.290      1.751      3.185
REMARK INTER + INTRA:          -6.752
REMARK INTER:                  -6.341
REMARK INTRA:                  -0.410
REMARK UNBOUND:                -0.379
REMARK SMILES O=c1c(O)c(-c2ccc(O)cc2O)oc2cc(O)cc(O)c12
REMARK SMILES IDX 5 1 3 2 2 3 1 4 22 5 20 6 19 7 17 8 16 9 15 10 14 11 6 12
REMARK SMILES IDX 8 13 7 14 9 15 11 16 12 17 10 18 13 20 4 22 21 24 18 26
REMARK H PARENT 10 19 13 21 4 23 21 25 18 27
REMARK Flexibility Score: inf
ROOT
ATOM      1  C   UNL     1     130.887 132.782 132.953  1.00  0.00     0.184 A 
ATOM      2  C   UNL     1     132.283 132.825 132.816  1.00  0.00     0.208 A 
ATOM      3  C   UNL     1     132.933 134.068 132.870  1.00  0.00     0.238 A 
ATOM      4  O   UNL     1     134.179 134.106 132.694  1.00  0.00    -0.285 OA
ATOM      5  C   UNL     1     132.179 135.249 133.076  1.00  0.00     0.111 A 
ATOM      6  C   UNL     1     132.737 136.557 133.188  1.00  0.00     0.134 A 
ATOM      7  C   UNL     1     131.885 137.667 133.261  1.00  0.00     0.093 A 
ATOM      8  C   UNL     1     130.497 137.510 133.293  1.00  0.00     0.123 A 
ATOM      9  C   UNL     1     129.945 136.233 133.243  1.00  0.00     0.094 A 
ATOM     10  C   UNL     1     130.767 135.109 133.134  1.00  0.00     0.146 A 
ATOM     11  O   UNL     1     130.198 133.910 133.078  1.00  0.00    -0.451 OA
ENDROOT
BRANCH   1  12
ATOM     12  C   UNL     1     130.142 131.505 132.921  1.00  0.00     0.063 A 
ATOM     13  C   UNL     1     129.258 129.587 134.125  1.00  0.00     0.047 A 
ATOM     14  C   UNL     1     129.951 130.799 134.119  1.00  0.00     0.020 A 
ATOM     15  C   UNL     1     128.759 129.057 132.928  1.00  0.00     0.119 A 
ATOM     16  C   UNL     1     128.965 129.741 131.727  1.00  0.00     0.093 A 
ATOM     17  C   UNL     1     129.665 130.956 131.712  1.00  0.00     0.130 A 
BRANCH  15  18
ATOM     18  O   UNL     1     128.063 127.850 132.922  1.00  0.00    -0.508 OA
ATOM     19  H   UNL     1     128.390 127.048 133.448  1.00  0.00     0.293 HD
ENDBRANCH  15  18
BRANCH  17  20
ATOM     20  O   UNL     1     129.908 131.603 130.500  1.00  0.00    -0.507 OA
ATOM     21  H   UNL     1     129.234 132.244 130.096  1.00  0.00     0.293 HD
ENDBRANCH  17  20
ENDBRANCH   1  12
BRANCH   2  22
ATOM     22  O   UNL     1     133.000 131.647 132.595  1.00  0.00    -0.502 OA
ATOM     23  H   UNL     1     133.318 131.369 131.674  1.00  0.00     0.293 HD
ENDBRANCH   2  22
BRANCH   6  24
ATOM     24  O   UNL     1     134.109 136.817 133.259  1.00  0.00    -0.507 OA
ATOM     25  H   UNL     1     134.805 136.400 132.660  1.00  0.00     0.293 HD
ENDBRANCH   6  24
BRANCH   8  26
ATOM     26  O   UNL     1     129.659 138.618 133.381  1.00  0.00    -0.508 OA
ATOM     27  H   UNL     1     129.475 139.076 134.267  1.00  0.00     0.293 HD
ENDBRANCH   8  26
TORSDOF 6
ENDMDL
MODEL 6
REMARK VINA RESULT:    -5.260      1.685      6.598
REMARK INTER + INTRA:          -6.715
REMARK INTER:                  -6.371
REMARK INTRA:                  -0.344
REMARK UNBOUND:                -0.379
REMARK SMILES O=c1c(O)c(-c2ccc(O)cc2O)oc2cc(O)cc(O)c12
REMARK SMILES IDX 5 1 3 2 2 3 1 4 22 5 20 6 19 7 17 8 16 9 15 10 14 11 6 12
REMARK SMILES IDX 8 13 7 14 9 15 11 16 12 17 10 18 13 20 4 22 21 24 18 26
REMARK H PARENT 10 19 13 21 4 23 21 25 18 27
REMARK Flexibility Score: inf
ROOT
ATOM      1  C   UNL     1     131.249 131.654 132.843  1.00  0.00     0.184 A 
ATOM      2  C   UNL     1     129.865 131.792 132.659  1.00  0.00     0.208 A 
ATOM      3  C   UNL     1     129.055 130.646 132.707  1.00  0.00     0.238 A 
ATOM      4  O   UNL     1     127.821 130.769 132.489  1.00  0.00    -0.285 OA
ATOM      5  C   UNL     1     129.640 129.381 132.955  1.00  0.00     0.111 A 
ATOM      6  C   UNL     1     128.911 128.159 133.064  1.00  0.00     0.134 A 
ATOM      7  C   UNL     1     129.607 126.948 133.181  1.00  0.00     0.093 A 
ATOM      8  C   UNL     1     131.002 126.923 133.258  1.00  0.00     0.123 A 
ATOM      9  C   UNL     1     131.719 128.116 133.211  1.00  0.00     0.094 A 
ATOM     10  C   UNL     1     131.055 129.336 133.058  1.00  0.00     0.146 A 
ATOM     11  O   UNL     1     131.779 130.449 133.006  1.00  0.00    -0.451 OA
ENDROOT
BRANCH   1  12
ATOM     12  C   UNL     1     132.156 132.822 132.820  1.00  0.00     0.063 A 
ATOM     13  C   UNL     1     133.511 134.423 134.049  1.00  0.00     0.047 A 
ATOM     14  C   UNL     1     132.658 133.318 134.033  1.00  0.00     0.020 A 
ATOM     15  C   UNL     1     133.863 135.056 132.850  1.00  0.00     0.119 A 
ATOM     16  C   UNL     1     133.349 134.584 131.639  1.00  0.00     0.093 A 
ATOM     17  C   UNL     1     132.486 133.478 131.616  1.00  0.00     0.130 A 
BRANCH  15  18
ATOM     18  O   UNL     1     134.716 136.158 132.853  1.00  0.00    -0.508 OA
ATOM     19  H   UNL     1     135.126 136.512 131.996  1.00  0.00     0.293 HD
ENDBRANCH  15  18
BRANCH  17  20
ATOM     20  O   UNL     1     131.941 133.048 130.405  1.00  0.00    -0.507 OA
ATOM     21  H   UNL     1     131.483 132.149 130.319  1.00  0.00     0.293 HD
ENDBRANCH  17  20
ENDBRANCH   1  12
BRANCH   2  22
ATOM     22  O   UNL     1     129.316 133.051 132.398  1.00  0.00    -0.502 OA
ATOM     23  H   UNL     1     128.343 133.177 132.144  1.00  0.00     0.293 HD
ENDBRANCH   2  22
BRANCH   6  24
ATOM     24  O   UNL     1     127.516 128.082 133.092  1.00  0.00    -0.507 OA
ATOM     25  H   UNL     1     126.894 128.841 132.859  1.00  0.00     0.293 HD
ENDBRANCH   6  24
BRANCH   8  26
ATOM     26  O   UNL     1     131.684 125.716 133.389  1.00  0.00    -0.508 OA
ATOM     27  H   UNL     1     131.415 125.027 134.083  1.00  0.00     0.293 HD
ENDBRANCH   8  26
TORSDOF 6
ENDMDL
MODEL 7
REMARK VINA RESULT:    -5.224      1.759      1.994
REMARK INTER + INTRA:          -6.672
REMARK INTER:                  -6.260
REMARK INTRA:                  -0.412
REMARK UNBOUND:                -0.379
REMARK SMILES O=c1c(O)c(-c2ccc(O)cc2O)oc2cc(O)cc(O)c12
REMARK SMILES IDX 5 1 3 2 2 3 1 4 22 5 20 6 19 7 17 8 16 9 15 10 14 11 6 12
REMARK SMILES IDX 8 13 7 14 9 15 11 16 12 17 10 18 13 20 4 22 21 24 18 26
REMARK H PARENT 10 19 13 21 4 23 21 25 18 27
REMARK Flexibility Score: inf
ROOT
ATOM      1  C   UNL     1     129.981 131.648 133.343  1.00  0.00     0.184 A 
ATOM      2  C   UNL     1     129.139 132.749 133.565  1.00  0.00     0.208 A 
ATOM      3  C   UNL     1     129.713 134.005 133.811  1.00  0.00     0.238 A 
ATOM      4  O   UNL     1     128.954 134.978 134.062  1.00  0.00    -0.285 OA
ATOM      5  C   UNL     1     131.122 134.147 133.814  1.00  0.00     0.111 A 
ATOM      6  C   UNL     1     131.811 135.381 134.012  1.00  0.00     0.134 A 
ATOM      7  C   UNL     1     133.208 135.381 134.125  1.00  0.00     0.093 A 
ATOM      8  C   UNL     1     133.942 134.201 133.982  1.00  0.00     0.123 A 
ATOM      9  C   UNL     1     133.282 133.001 133.730  1.00  0.00     0.094 A 
ATOM     10  C   UNL     1     131.888 132.963 133.648  1.00  0.00     0.146 A 
ATOM     11  O   UNL     1     131.297 131.796 133.418  1.00  0.00    -0.451 OA
ENDROOT
BRANCH   1  12
ATOM     12  C   UNL     1     129.440 130.301 133.062  1.00  0.00     0.063 A 
ATOM     13  C   UNL     1     128.809 128.103 133.888  1.00  0.00     0.047 A 
ATOM     14  C   UNL     1     129.311 129.386 134.119  1.00  0.00     0.020 A 
ATOM     15  C   UNL     1     128.444 127.714 132.593  1.00  0.00     0.119 A 
ATOM     16  C   UNL     1     128.592 128.610 131.531  1.00  0.00     0.093 A 
ATOM     17  C   UNL     1     129.100 129.898 131.754  1.00  0.00     0.130 A 
BRANCH  15  18
ATOM     18  O   UNL     1     127.940 126.437 132.351  1.00  0.00    -0.508 OA
ATOM     19  H   UNL     1     127.915 125.732 133.079  1.00  0.00     0.293 HD
ENDBRANCH  15  18
BRANCH  17  20
ATOM     20  O   UNL     1     129.289 130.765 130.677  1.00  0.00    -0.507 OA
ATOM     21  H   UNL     1     128.592 130.869 129.950  1.00  0.00     0.293 HD
ENDBRANCH  17  20
ENDBRANCH   1  12
BRANCH   2  22
ATOM     22  O   UNL     1     127.752 132.577 133.574  1.00  0.00    -0.502 OA
ATOM     23  H   UNL     1     127.316 131.692 133.803  1.00  0.00     0.293 HD
ENDBRANCH   2  22
BRANCH   6  24
ATOM     24  O   UNL     1     131.180 136.626 134.076  1.00  0.00    -0.507 OA
ATOM     25  H   UNL     1     130.857 137.149 133.276  1.00  0.00     0.293 HD
ENDBRANCH   6  24
BRANCH   8  26
ATOM     26  O   UNL     1     135.332 134.213 134.081  1.00  0.00    -0.508 OA
ATOM     27  H   UNL     1     135.874 135.034 133.836  1.00  0.00     0.293 HD
ENDBRANCH   8  26
TORSDOF 6
ENDMDL
MODEL 8
REMARK VINA RESULT:    -5.152      3.089      5.746
REMARK INTER + INTRA:          -6.585
REMARK INTER:                  -6.176
REMARK INTRA:                  -0.408
REMARK UNBOUND:                -0.379
REMARK SMILES O=c1c(O)c(-c2ccc(O)cc2O)oc2cc(O)cc(O)c12
REMARK SMILES IDX 5 1 3 2 2 3 1 4 22 5 20 6 19 7 17 8 16 9 15 10 14 11 6 12
REMARK SMILES IDX 8 13 7 14 9 15 11 16 12 17 10 18 13 20 4 22 21 24 18 26
REMARK H PARENT 10 19 13 21 4 23 21 25 18 27
REMARK Flexibility Score: inf
ROOT
ATOM      1  C   UNL     1     128.662 128.140 132.898  1.00  0.00     0.184 A 
ATOM      2  C   UNL     1     130.055 128.030 132.767  1.00  0.00     0.208 A 
ATOM      3  C   UNL     1     130.835 129.196 132.799  1.00  0.00     0.238 A 
ATOM      4  O   UNL     1     132.078 129.096 132.629  1.00  0.00    -0.285 OA
ATOM      5  C   UNL     1     130.212 130.456 132.979  1.00  0.00     0.111 A 
ATOM      6  C   UNL     1     130.908 131.698 133.067  1.00  0.00     0.134 A 
ATOM      7  C   UNL     1     130.180 132.895 133.114  1.00  0.00     0.093 A 
ATOM      8  C   UNL     1     128.783 132.888 133.142  1.00  0.00     0.123 A 
ATOM      9  C   UNL     1     128.096 131.677 133.115  1.00  0.00     0.094 A 
ATOM     10  C   UNL     1     128.793 130.469 133.032  1.00  0.00     0.146 A 
ATOM     11  O   UNL     1     128.099 129.337 132.997  1.00  0.00    -0.451 OA
ENDROOT
BRANCH   1  12
ATOM     12  C   UNL     1     127.784 126.950 132.889  1.00  0.00     0.063 A 
ATOM     13  C   UNL     1     126.736 125.133 134.117  1.00  0.00     0.047 A 
ATOM     14  C   UNL     1     127.555 126.264 134.091  1.00  0.00     0.020 A 
ATOM     15  C   UNL     1     126.147 124.665 132.936  1.00  0.00     0.119 A 
ATOM     16  C   UNL     1     126.389 125.327 131.730  1.00  0.00     0.093 A 
ATOM     17  C   UNL     1     127.215 126.461 131.694  1.00  0.00     0.130 A 
BRANCH  15  18
ATOM     18  O   UNL     1     125.326 123.539 132.950  1.00  0.00    -0.508 OA
ATOM     19  H   UNL     1     124.332 123.611 133.133  1.00  0.00     0.293 HD
ENDBRANCH  15  18
BRANCH  17  20
ATOM     20  O   UNL     1     127.487 127.083 130.476  1.00  0.00    -0.507 OA
ATOM     21  H   UNL     1     126.766 127.565 129.952  1.00  0.00     0.293 HD
ENDBRANCH  17  20
ENDBRANCH   1  12
BRANCH   2  22
ATOM     22  O   UNL     1     130.642 126.777 132.573  1.00  0.00    -0.502 OA
ATOM     23  H   UNL     1     131.529 126.522 132.991  1.00  0.00     0.293 HD
ENDBRANCH   2  22
BRANCH   6  24
ATOM     24  O   UNL     1     132.299 131.810 133.139  1.00  0.00    -0.507 OA
ATOM     25  H   UNL     1     132.803 132.682 133.203  1.00  0.00     0.293 HD
ENDBRANCH   6  24
BRANCH   8  26
ATOM     26  O   UNL     1     128.069 134.082 133.203  1.00  0.00    -0.508 OA
ATOM     27  H   UNL     1     128.140 134.782 132.473  1.00  0.00     0.293 HD
ENDBRANCH   8  26
TORSDOF 6
ENDMDL
MODEL 9
REMARK VINA RESULT:    -5.061      2.797      8.263
REMARK INTER + INTRA:          -6.475
REMARK INTER:                  -6.071
REMARK INTRA:                  -0.404
REMARK UNBOUND:                -0.379
REMARK SMILES O=c1c(O)c(-c2ccc(O)cc2O)oc2cc(O)cc(O)c12
REMARK SMILES IDX 5 1 3 2 2 3 1 4 22 5 20 6 19 7 17 8 16 9 15 10 14 11 6 12
REMARK SMILES IDX 8 13 7 14 9 15 11 16 12 17 10 18 13 20 4 22 21 24 18 26
REMARK H PARENT 10 19 13 21 4 23 21 25 18 27
REMARK Flexibility Score: inf
ROOT
ATOM      1  C   UNL     1     130.679 128.614 132.317  1.00  0.00     0.184 A 
ATOM      2  C   UNL     1     131.176 127.460 132.941  1.00  0.00     0.208 A 
ATOM      3  C   UNL     1     130.665 126.209 132.562  1.00  0.00     0.238 A 
ATOM      4  O   UNL     1     131.076 125.181 133.163  1.00  0.00    -0.285 OA
ATOM      5  C   UNL     1     129.676 126.129 131.551  1.00  0.00     0.111 A 
ATOM      6  C   UNL     1     129.117 124.911 131.060  1.00  0.00     0.134 A 
ATOM      7  C   UNL     1     128.053 124.958 130.150  1.00  0.00     0.093 A 
ATOM      8  C   UNL     1     127.572 126.178 129.666  1.00  0.00     0.123 A 
ATOM      9  C   UNL     1     128.150 127.369 130.096  1.00  0.00     0.094 A 
ATOM     10  C   UNL     1     129.190 127.356 131.029  1.00  0.00     0.146 A 
ATOM     11  O   UNL     1     129.705 128.516 131.421  1.00  0.00    -0.451 OA
ENDROOT
BRANCH   1  12
ATOM     12  C   UNL     1     131.185 129.961 132.658  1.00  0.00     0.063 A 
ATOM     13  C   UNL     1     131.109 131.898 134.125  1.00  0.00     0.047 A 
ATOM     14  C   UNL     1     130.657 130.623 133.777  1.00  0.00     0.020 A 
ATOM     15  C   UNL     1     132.085 132.534 133.348  1.00  0.00     0.119 A 
ATOM     16  C   UNL     1     132.600 131.892 132.218  1.00  0.00     0.093 A 
ATOM     17  C   UNL     1     132.147 130.614 131.859  1.00  0.00     0.130 A 
BRANCH  15  18
ATOM     18  O   UNL     1     132.546 133.805 133.687  1.00  0.00    -0.508 OA
ATOM     19  H   UNL     1     132.222 134.280 134.522  1.00  0.00     0.293 HD
ENDBRANCH  15  18
BRANCH  17  20
ATOM     20  O   UNL     1     132.633 130.006 130.701  1.00  0.00    -0.507 OA
ATOM     21  H   UNL     1     133.582 130.157 130.379  1.00  0.00     0.293 HD
ENDBRANCH  17  20
ENDBRANCH   1  12
BRANCH   2  22
ATOM     22  O   UNL     1     132.138 127.569 133.949  1.00  0.00    -0.502 OA
ATOM     23  H   UNL     1     133.036 128.013 133.796  1.00  0.00     0.293 HD
ENDBRANCH   2  22
BRANCH   6  24
ATOM     24  O   UNL     1     129.585 123.641 131.408  1.00  0.00    -0.507 OA
ATOM     25  H   UNL     1     130.553 123.358 131.383  1.00  0.00     0.293 HD
ENDBRANCH   6  24
BRANCH   8  26
ATOM     26  O   UNL     1     126.523 126.214 128.751  1.00  0.00    -0.508 OA
ATOM     27  H   UNL     1     125.630 125.776 128.949  1.00  0.00     0.293 HD
ENDBRANCH   8  26
TORSDOF 6
ENDMDL
