MODEL 1
REMARK VINA RESULT:     3.788      0.000      0.000
REMARK INTER + INTRA:           5.590
REMARK INTER:                   6.889
REMARK INTRA:                  -1.299
REMARK UNBOUND:                -1.299
REMARK SMILES CCCCCC=CCC=CCCCCCCCC(=O)[O-]
REMARK SMILES IDX 11 1 12 2 13 3 14 4 15 5 16 6 17 7 18 8 19 9 20 10 10 11
REMARK SMILES IDX 9 12 8 13 7 14 6 15 5 16 4 17 3 18 2 19 1 20
REMARK H PARENT
REMARK Flexibility Score: inf
ROOT
ATOM      1  C   UNL     1      17.694   1.189  25.179  1.00  0.00     0.027 C 
ENDROOT
BRANCH   1   2
ATOM      2  C   UNL     1      17.356   2.668  24.943  1.00  0.00     0.004 C 
BRANCH   2   3
ATOM      3  C   UNL     1      16.566   3.275  26.114  1.00  0.00     0.000 C 
BRANCH   3   4
ATOM      4  C   UNL     1      15.115   3.617  25.735  1.00  0.00     0.000 C 
BRANCH   4   5
ATOM      5  C   UNL     1      14.226   2.370  25.603  1.00  0.00     0.000 C 
BRANCH   5   6
ATOM      6  C   UNL     1      13.209   2.539  24.463  1.00  0.00     0.006 C 
BRANCH   6   7
ATOM      7  C   UNL     1      13.795   3.303  23.268  1.00  0.00     0.053 C 
BRANCH   7   8
ATOM      8  C   UNL     1      12.962   4.494  22.907  1.00  0.00     0.041 C 
ATOM      9  O   UNL     1      11.945   4.358  22.177  1.00  0.00    -0.550 OA
ATOM     10  O   UNL     1      13.334   5.760  23.341  1.00  0.00    -0.550 OA
ENDBRANCH   7   8
ENDBRANCH   6   7
ENDBRANCH   5   6
ENDBRANCH   4   5
ENDBRANCH   3   4
ENDBRANCH   2   3
ENDBRANCH   1   2
BRANCH   1  11
ATOM     11  C   UNL     1      19.125   0.867  24.821  1.00  0.00    -0.031 C 
ATOM     12  C   UNL     1      20.195   1.251  25.540  1.00  0.00    -0.027 C 
BRANCH  12  13
ATOM     13  C   UNL     1      20.108   2.103  26.781  1.00  0.00     0.054 C 
BRANCH  13  14
ATOM     14  C   UNL     1      19.448   1.339  27.901  1.00  0.00    -0.027 C 
ATOM     15  C   UNL     1      19.185   1.832  29.128  1.00  0.00    -0.031 C 
BRANCH  15  16
ATOM     16  C   UNL     1      19.452   3.250  29.570  1.00  0.00     0.027 C 
BRANCH  16  17
ATOM     17  C   UNL     1      18.940   3.505  30.993  1.00  0.00     0.004 C 
BRANCH  17  18
ATOM     18  C   UNL     1      17.611   4.273  30.971  1.00  0.00     0.000 C 
BRANCH  18  19
ATOM     19  C   UNL     1      17.148   4.607  29.545  1.00  0.00    -0.003 C 
ATOM     20  C   UNL     1      15.657   4.942  29.470  1.00  0.00     0.004 C 
ENDBRANCH  18  19
ENDBRANCH  17  18
ENDBRANCH  16  17
ENDBRANCH  15  16
ENDBRANCH  13  14
ENDBRANCH  12  13
ENDBRANCH   1  11
TORSDOF 14
ENDMDL
MODEL 2
REMARK VINA RESULT:     4.189      0.790      1.227
REMARK INTER + INTRA:           6.319
REMARK INTER:                   6.352
REMARK INTRA:                  -0.033
REMARK UNBOUND:                -1.299
REMARK SMILES CCCCCC=CCC=CCCCCCCCC(=O)[O-]
REMARK SMILES IDX 11 1 12 2 13 3 14 4 15 5 16 6 17 7 18 8 19 9 20 10 10 11
REMARK SMILES IDX 9 12 8 13 7 14 6 15 5 16 4 17 3 18 2 19 1 20
REMARK H PARENT
REMARK Flexibility Score: inf
ROOT
ATOM      1  C   UNL     1      18.885   0.885  24.311  1.00  0.00     0.027 C 
ENDROOT
BRANCH   1   2
ATOM      2  C   UNL     1      17.752   1.293  25.264  1.00  0.00     0.004 C 
BRANCH   2   3
ATOM      3  C   UNL     1      17.199   2.692  24.939  1.00  0.00     0.000 C 
BRANCH   3   4
ATOM      4  C   UNL     1      16.539   3.363  26.156  1.00  0.00     0.000 C 
BRANCH   4   5
ATOM      5  C   UNL     1      15.030   3.585  25.966  1.00  0.00     0.000 C 
BRANCH   5   6
ATOM      6  C   UNL     1      14.358   2.326  25.395  1.00  0.00     0.006 C 
BRANCH   6   7
ATOM      7  C   UNL     1      13.097   2.656  24.586  1.00  0.00     0.053 C 
BRANCH   7   8
ATOM      8  C   UNL     1      13.424   3.380  23.316  1.00  0.00     0.041 C 
ATOM      9  O   UNL     1      14.101   2.812  22.419  1.00  0.00    -0.550 OA
ATOM     10  O   UNL     1      13.018   4.697  23.142  1.00  0.00    -0.550 OA
ENDBRANCH   7   8
ENDBRANCH   6   7
ENDBRANCH   5   6
ENDBRANCH   4   5
ENDBRANCH   3   4
ENDBRANCH   2   3
ENDBRANCH   1   2
BRANCH   1  11
ATOM     11  C   UNL     1      20.220   0.808  25.013  1.00  0.00    -0.031 C 
ATOM     12  C   UNL     1      20.436   1.194  26.283  1.00  0.00    -0.027 C 
BRANCH  12  13
ATOM     13  C   UNL     1      19.376   1.807  27.164  1.00  0.00     0.054 C 
BRANCH  13  14
ATOM     14  C   UNL     1      19.484   1.273  28.569  1.00  0.00    -0.027 C 
ATOM     15  C   UNL     1      19.491   2.026  29.688  1.00  0.00    -0.031 C 
BRANCH  15  16
ATOM     16  C   UNL     1      19.332   3.526  29.726  1.00  0.00     0.027 C 
BRANCH  16  17
ATOM     17  C   UNL     1      18.793   4.004  31.080  1.00  0.00     0.004 C 
BRANCH  17  18
ATOM     18  C   UNL     1      17.304   4.367  30.984  1.00  0.00     0.000 C 
BRANCH  18  19
ATOM     19  C   UNL     1      16.870   4.692  29.546  1.00  0.00    -0.003 C 
ATOM     20  C   UNL     1      15.397   5.094  29.450  1.00  0.00     0.004 C 
ENDBRANCH  18  19
ENDBRANCH  17  18
ENDBRANCH  16  17
ENDBRANCH  15  16
ENDBRANCH  13  14
ENDBRANCH  12  13
ENDBRANCH   1  11
TORSDOF 14
ENDMDL
MODEL 3
REMARK VINA RESULT:     4.487      1.137      2.284
REMARK INTER + INTRA:           6.860
REMARK INTER:                   8.200
REMARK INTRA:                  -1.340
REMARK UNBOUND:                -1.299
REMARK SMILES CCCCCC=CCC=CCCCCCCCC(=O)[O-]
REMARK SMILES IDX 11 1 12 2 13 3 14 4 15 5 16 6 17 7 18 8 19 9 20 10 10 11
REMARK SMILES IDX 9 12 8 13 7 14 6 15 5 16 4 17 3 18 2 19 1 20
REMARK H PARENT
REMARK Flexibility Score: inf
ROOT
ATOM      1  C   UNL     1      16.973   3.237  25.840  1.00  0.00     0.027 C 
ENDROOT
BRANCH   1   2
ATOM      2  C   UNL     1      15.476   3.504  26.052  1.00  0.00     0.004 C 
BRANCH   2   3
ATOM      3  C   UNL     1      14.624   2.244  25.817  1.00  0.00     0.000 C 
BRANCH   3   4
ATOM      4  C   UNL     1      13.231   2.569  25.251  1.00  0.00     0.000 C 
BRANCH   4   5
ATOM      5  C   UNL     1      13.132   2.321  23.738  1.00  0.00     0.000 C 
BRANCH   5   6
ATOM      6  C   UNL     1      13.709   3.506  22.948  1.00  0.00     0.006 C 
BRANCH   6   7
ATOM      7  C   UNL     1      12.685   4.634  22.759  1.00  0.00     0.053 C 
BRANCH   7   8
ATOM      8  C   UNL     1      13.254   5.969  23.128  1.00  0.00     0.041 C 
ATOM      9  O   UNL     1      13.883   6.647  22.273  1.00  0.00    -0.550 OA
ATOM     10  O   UNL     1      13.128   6.445  24.427  1.00  0.00    -0.550 OA
ENDBRANCH   7   8
ENDBRANCH   6   7
ENDBRANCH   5   6
ENDBRANCH   4   5
ENDBRANCH   3   4
ENDBRANCH   2   3
ENDBRANCH   1   2
BRANCH   1  11
ATOM     11  C   UNL     1      17.220   1.960  25.073  1.00  0.00    -0.031 C 
ATOM     12  C   UNL     1      18.439   1.469  24.783  1.00  0.00    -0.027 C 
BRANCH  12  13
ATOM     13  C   UNL     1      19.729   2.163  25.145  1.00  0.00     0.054 C 
BRANCH  13  14
ATOM     14  C   UNL     1      20.678   1.199  25.811  1.00  0.00    -0.027 C 
ATOM     15  C   UNL     1      20.490   0.635  27.020  1.00  0.00    -0.031 C 
BRANCH  15  16
ATOM     16  C   UNL     1      19.271   0.825  27.888  1.00  0.00     0.027 C 
BRANCH  16  17
ATOM     17  C   UNL     1      19.609   1.567  29.187  1.00  0.00     0.004 C 
BRANCH  17  18
ATOM     18  C   UNL     1      19.073   3.005  29.155  1.00  0.00     0.000 C 
BRANCH  18  19
ATOM     19  C   UNL     1      18.964   3.624  30.558  1.00  0.00    -0.003 C 
ATOM     20  C   UNL     1      17.617   4.309  30.799  1.00  0.00     0.004 C 
ENDBRANCH  18  19
ENDBRANCH  17  18
ENDBRANCH  16  17
ENDBRANCH  15  16
ENDBRANCH  13  14
ENDBRANCH  12  13
ENDBRANCH   1  11
TORSDOF 14
ENDMDL
MODEL 4
REMARK VINA RESULT:     4.594      2.689      6.591
REMARK INTER + INTRA:           7.055
REMARK INTER:                   8.068
REMARK INTRA:                  -1.013
REMARK UNBOUND:                -1.299
REMARK SMILES CCCCCC=CCC=CCCCCCCCC(=O)[O-]
REMARK SMILES IDX 11 1 12 2 13 3 14 4 15 5 16 6 17 7 18 8 19 9 20 10 10 11
REMARK SMILES IDX 9 12 8 13 7 14 6 15 5 16 4 17 3 18 2 19 1 20
REMARK H PARENT
REMARK Flexibility Score: inf
ROOT
ATOM      1  C   UNL     1      19.647   1.457  24.963  1.00  0.00     0.027 C 
ENDROOT
BRANCH   1   2
ATOM      2  C   UNL     1      20.488   1.128  26.204  1.00  0.00     0.004 C 
BRANCH   2   3
ATOM      3  C   UNL     1      19.613   0.794  27.425  1.00  0.00     0.000 C 
BRANCH   3   4
ATOM      4  C   UNL     1      19.213   2.044  28.226  1.00  0.00     0.000 C 
BRANCH   4   5
ATOM      5  C   UNL     1      19.626   1.959  29.704  1.00  0.00     0.000 C 
BRANCH   5   6
ATOM      6  C   UNL     1      19.534   3.336  30.380  1.00  0.00     0.006 C 
BRANCH   6   7
ATOM      7  C   UNL     1      18.589   4.289  29.636  1.00  0.00     0.053 C 
BRANCH   7   8
ATOM      8  C   UNL     1      17.290   4.462  30.362  1.00  0.00     0.041 C 
ATOM      9  O   UNL     1      17.235   4.299  31.609  1.00  0.00    -0.550 OA
ATOM     10  O   UNL     1      16.132   4.760  29.654  1.00  0.00    -0.550 OA
ENDBRANCH   7   8
ENDBRANCH   6   7
ENDBRANCH   5   6
ENDBRANCH   4   5
ENDBRANCH   3   4
ENDBRANCH   2   3
ENDBRANCH   1   2
BRANCH   1  11
ATOM     11  C   UNL     1      18.250   0.889  25.054  1.00  0.00    -0.031 C 
ATOM     12  C   UNL     1      17.127   1.629  25.091  1.00  0.00    -0.027 C 
BRANCH  12  13
ATOM     13  C   UNL     1      17.119   3.137  25.097  1.00  0.00     0.054 C 
BRANCH  13  14
ATOM     14  C   UNL     1      16.098   3.657  26.077  1.00  0.00    -0.027 C 
ATOM     15  C   UNL     1      14.835   3.201  26.198  1.00  0.00    -0.031 C 
BRANCH  15  16
ATOM     16  C   UNL     1      14.247   2.053  25.414  1.00  0.00     0.027 C 
BRANCH  16  17
ATOM     17  C   UNL     1      13.174   2.532  24.428  1.00  0.00     0.004 C 
BRANCH  17  18
ATOM     18  C   UNL     1      13.799   3.350  23.289  1.00  0.00     0.000 C 
BRANCH  18  19
ATOM     19  C   UNL     1      12.849   4.431  22.751  1.00  0.00    -0.003 C 
ATOM     20  C   UNL     1      13.330   5.850  23.062  1.00  0.00     0.004 C 
ENDBRANCH  18  19
ENDBRANCH  17  18
ENDBRANCH  16  17
ENDBRANCH  15  16
ENDBRANCH  13  14
ENDBRANCH  12  13
ENDBRANCH   1  11
TORSDOF 14
ENDMDL
MODEL 5
REMARK VINA RESULT:     5.224      3.226      7.122
REMARK INTER + INTRA:           8.201
REMARK INTER:                   8.583
REMARK INTRA:                  -0.382
REMARK UNBOUND:                -1.299
REMARK SMILES CCCCCC=CCC=CCCCCCCCC(=O)[O-]
REMARK SMILES IDX 11 1 12 2 13 3 14 4 15 5 16 6 17 7 18 8 19 9 20 10 10 11
REMARK SMILES IDX 9 12 8 13 7 14 6 15 5 16 4 17 3 18 2 19 1 20
REMARK H PARENT
REMARK Flexibility Score: inf
ROOT
ATOM      1  C   UNL     1      18.514   1.288  24.733  1.00  0.00     0.027 C 
ENDROOT
BRANCH   1   2
ATOM      2  C   UNL     1      19.905   0.656  24.888  1.00  0.00     0.004 C 
BRANCH   2   3
ATOM      3  C   UNL     1      20.712   1.306  26.026  1.00  0.00     0.000 C 
BRANCH   3   4
ATOM      4  C   UNL     1      20.578   0.545  27.356  1.00  0.00     0.000 C 
BRANCH   4   5
ATOM      5  C   UNL     1      19.316   0.938  28.140  1.00  0.00     0.000 C 
BRANCH   5   6
ATOM      6  C   UNL     1      19.657   1.922  29.270  1.00  0.00     0.006 C 
BRANCH   6   7
ATOM      7  C   UNL     1      18.810   3.200  29.204  1.00  0.00     0.053 C 
BRANCH   7   8
ATOM      8  C   UNL     1      18.650   3.831  30.553  1.00  0.00     0.041 C 
ATOM      9  O   UNL     1      19.620   3.867  31.355  1.00  0.00    -0.550 OA
ATOM     10  O   UNL     1      17.417   4.341  30.941  1.00  0.00    -0.550 OA
ENDBRANCH   7   8
ENDBRANCH   6   7
ENDBRANCH   5   6
ENDBRANCH   4   5
ENDBRANCH   3   4
ENDBRANCH   2   3
ENDBRANCH   1   2
BRANCH   1  11
ATOM     11  C   UNL     1      18.287   2.414  25.713  1.00  0.00    -0.031 C 
ATOM     12  C   UNL     1      17.129   3.085  25.848  1.00  0.00    -0.027 C 
BRANCH  12  13
ATOM     13  C   UNL     1      15.911   2.832  24.996  1.00  0.00     0.054 C 
BRANCH  13  14
ATOM     14  C   UNL     1      14.672   2.760  25.853  1.00  0.00    -0.027 C 
ATOM     15  C   UNL     1      13.421   2.562  25.393  1.00  0.00    -0.031 C 
BRANCH  15  16
ATOM     16  C   UNL     1      13.053   2.318  23.950  1.00  0.00     0.027 C 
BRANCH  16  17
ATOM     17  C   UNL     1      13.658   3.380  23.024  1.00  0.00     0.004 C 
BRANCH  17  18
ATOM     18  C   UNL     1      12.663   4.522  22.772  1.00  0.00     0.000 C 
BRANCH  18  19
ATOM     19  C   UNL     1      13.335   5.903  22.794  1.00  0.00    -0.003 C 
ATOM     20  C   UNL     1      13.323   6.545  24.183  1.00  0.00     0.004 C 
ENDBRANCH  18  19
ENDBRANCH  17  18
ENDBRANCH  16  17
ENDBRANCH  15  16
ENDBRANCH  13  14
ENDBRANCH  12  13
ENDBRANCH   1  11
TORSDOF 14
ENDMDL
MODEL 6
REMARK VINA RESULT:     5.262      0.883      4.081
REMARK INTER + INTRA:           8.270
REMARK INTER:                   9.798
REMARK INTRA:                  -1.528
REMARK UNBOUND:                -1.299
REMARK SMILES CCCCCC=CCC=CCCCCCCCC(=O)[O-]
REMARK SMILES IDX 11 1 12 2 13 3 14 4 15 5 16 6 17 7 18 8 19 9 20 10 10 11
REMARK SMILES IDX 9 12 8 13 7 14 6 15 5 16 4 17 3 18 2 19 1 20
REMARK H PARENT
REMARK Flexibility Score: inf
ROOT
ATOM      1  C   UNL     1      16.339   5.127  28.422  1.00  0.00     0.027 C 
ENDROOT
BRANCH   1   2
ATOM      2  C   UNL     1      15.560   4.255  27.428  1.00  0.00     0.004 C 
BRANCH   2   3
ATOM      3  C   UNL     1      16.449   3.751  26.278  1.00  0.00     0.000 C 
BRANCH   3   4
ATOM      4  C   UNL     1      15.726   2.746  25.366  1.00  0.00     0.000 C 
BRANCH   4   5
ATOM      5  C   UNL     1      14.240   2.583  25.724  1.00  0.00     0.000 C 
BRANCH   5   6
ATOM      6  C   UNL     1      13.364   2.619  24.462  1.00  0.00     0.006 C 
BRANCH   6   7
ATOM      7  C   UNL     1      13.995   3.452  23.338  1.00  0.00     0.053 C 
BRANCH   7   8
ATOM      8  C   UNL     1      13.058   4.507  22.835  1.00  0.00     0.041 C 
ATOM      9  O   UNL     1      11.970   4.180  22.291  1.00  0.00    -0.550 OA
ATOM     10  O   UNL     1      13.406   5.848  22.926  1.00  0.00    -0.550 OA
ENDBRANCH   7   8
ENDBRANCH   6   7
ENDBRANCH   5   6
ENDBRANCH   4   5
ENDBRANCH   3   4
ENDBRANCH   2   3
ENDBRANCH   1   2
BRANCH   1  11
ATOM     11  C   UNL     1      16.159   4.664  29.848  1.00  0.00    -0.031 C 
ATOM     12  C   UNL     1      17.168   4.370  30.688  1.00  0.00    -0.027 C 
BRANCH  12  13
ATOM     13  C   UNL     1      18.624   4.417  30.295  1.00  0.00     0.054 C 
BRANCH  13  14
ATOM     14  C   UNL     1      19.255   3.055  30.440  1.00  0.00    -0.027 C 
ATOM     15  C   UNL     1      19.406   2.160  29.443  1.00  0.00    -0.031 C 
BRANCH  15  16
ATOM     16  C   UNL     1      19.026   2.392  28.001  1.00  0.00     0.027 C 
BRANCH  16  17
ATOM     17  C   UNL     1      18.998   1.082  27.205  1.00  0.00     0.004 C 
BRANCH  17  18
ATOM     18  C   UNL     1      19.023   1.356  25.694  1.00  0.00     0.000 C 
BRANCH  18  19
ATOM     19  C   UNL     1      20.378   1.012  25.056  1.00  0.00    -0.003 C 
ATOM     20  C   UNL     1      21.487   0.814  26.092  1.00  0.00     0.004 C 
ENDBRANCH  18  19
ENDBRANCH  17  18
ENDBRANCH  16  17
ENDBRANCH  15  16
ENDBRANCH  13  14
ENDBRANCH  12  13
ENDBRANCH   1  11
TORSDOF 14
ENDMDL
MODEL 7
REMARK VINA RESULT:     5.488      1.022      4.453
REMARK INTER + INTRA:           8.681
REMARK INTER:                   9.694
REMARK INTRA:                  -1.013
REMARK UNBOUND:                -1.299
REMARK SMILES CCCCCC=CCC=CCCCCCCCC(=O)[O-]
REMARK SMILES IDX 11 1 12 2 13 3 14 4 15 5 16 6 17 7 18 8 19 9 20 10 10 11
REMARK SMILES IDX 9 12 8 13 7 14 6 15 5 16 4 17 3 18 2 19 1 20
REMARK H PARENT
REMARK Flexibility Score: inf
ROOT
ATOM      1  C   UNL     1      17.275   5.113  29.847  1.00  0.00     0.027 C 
ENDROOT
BRANCH   1   2
ATOM      2  C   UNL     1      15.872   4.772  29.324  1.00  0.00     0.004 C 
BRANCH   2   3
ATOM      3  C   UNL     1      15.726   5.070  27.822  1.00  0.00     0.000 C 
BRANCH   3   4
ATOM      4  C   UNL     1      16.000   3.836  26.945  1.00  0.00     0.000 C 
BRANCH   4   5
ATOM      5  C   UNL     1      15.139   3.810  25.672  1.00  0.00     0.000 C 
BRANCH   5   6
ATOM      6  C   UNL     1      14.502   2.426  25.469  1.00  0.00     0.006 C 
BRANCH   6   7
ATOM      7  C   UNL     1      13.244   2.488  24.592  1.00  0.00     0.053 C 
BRANCH   7   8
ATOM      8  C   UNL     1      13.468   3.300  23.354  1.00  0.00     0.041 C 
ATOM      9  O   UNL     1      14.049   2.792  22.359  1.00  0.00    -0.550 OA
ATOM     10  O   UNL     1      13.074   4.632  23.315  1.00  0.00    -0.550 OA
ENDBRANCH   7   8
ENDBRANCH   6   7
ENDBRANCH   5   6
ENDBRANCH   4   5
ENDBRANCH   3   4
ENDBRANCH   2   3
ENDBRANCH   1   2
BRANCH   1  11
ATOM     11  C   UNL     1      17.683   4.228  31.001  1.00  0.00    -0.031 C 
ATOM     12  C   UNL     1      18.728   3.381  30.980  1.00  0.00    -0.027 C 
BRANCH  12  13
ATOM     13  C   UNL     1      19.606   3.166  29.773  1.00  0.00     0.054 C 
BRANCH  13  14
ATOM     14  C   UNL     1      19.476   1.751  29.270  1.00  0.00    -0.027 C 
ATOM     15  C   UNL     1      19.098   1.401  28.024  1.00  0.00    -0.031 C 
BRANCH  15  16
ATOM     16  C   UNL     1      18.798   2.366  26.903  1.00  0.00     0.027 C 
BRANCH  16  17
ATOM     17  C   UNL     1      18.408   1.634  25.614  1.00  0.00     0.004 C 
BRANCH  17  18
ATOM     18  C   UNL     1      19.614   0.900  25.011  1.00  0.00     0.000 C 
BRANCH  18  19
ATOM     19  C   UNL     1      20.954   1.508  25.453  1.00  0.00    -0.003 C 
ATOM     20  C   UNL     1      21.927   0.461  26.000  1.00  0.00     0.004 C 
ENDBRANCH  18  19
ENDBRANCH  17  18
ENDBRANCH  16  17
ENDBRANCH  15  16
ENDBRANCH  13  14
ENDBRANCH  12  13
ENDBRANCH   1  11
TORSDOF 14
ENDMDL
MODEL 8
REMARK VINA RESULT:     5.489      1.984      6.116
REMARK INTER + INTRA:           8.683
REMARK INTER:                   9.223
REMARK INTRA:                  -0.541
REMARK UNBOUND:                -1.299
REMARK SMILES CCCCCC=CCC=CCCCCCCCC(=O)[O-]
REMARK SMILES IDX 11 1 12 2 13 3 14 4 15 5 16 6 17 7 18 8 19 9 20 10 10 11
REMARK SMILES IDX 9 12 8 13 7 14 6 15 5 16 4 17 3 18 2 19 1 20
REMARK H PARENT
REMARK Flexibility Score: inf
ROOT
ATOM      1  C   UNL     1      19.758   0.861  27.043  1.00  0.00     0.027 C 
ENDROOT
BRANCH   1   2
ATOM      2  C   UNL     1      19.047   1.986  27.809  1.00  0.00     0.004 C 
BRANCH   2   3
ATOM      3  C   UNL     1      19.410   1.987  29.304  1.00  0.00     0.000 C 
BRANCH   3   4
ATOM      4  C   UNL     1      19.478   3.406  29.895  1.00  0.00     0.000 C 
BRANCH   4   5
ATOM      5  C   UNL     1      18.682   3.543  31.202  1.00  0.00     0.000 C 
BRANCH   5   6
ATOM      6  C   UNL     1      17.355   4.280  30.963  1.00  0.00     0.006 C 
BRANCH   6   7
ATOM      7  C   UNL     1      17.314   4.976  29.596  1.00  0.00     0.053 C 
BRANCH   7   8
ATOM      8  C   UNL     1      15.916   5.082  29.068  1.00  0.00     0.041 C 
ATOM      9  O   UNL     1      15.705   5.053  27.827  1.00  0.00    -0.550 OA
ATOM     10  O   UNL     1      14.852   5.256  29.944  1.00  0.00    -0.550 OA
ENDBRANCH   7   8
ENDBRANCH   6   7
ENDBRANCH   5   6
ENDBRANCH   4   5
ENDBRANCH   3   4
ENDBRANCH   2   3
ENDBRANCH   1   2
BRANCH   1  11
ATOM     11  C   UNL     1      19.779   1.112  25.554  1.00  0.00    -0.031 C 
ATOM     12  C   UNL     1      18.695   1.410  24.816  1.00  0.00    -0.027 C 
BRANCH  12  13
ATOM     13  C   UNL     1      17.296   1.484  25.375  1.00  0.00     0.054 C 
BRANCH  13  14
ATOM     14  C   UNL     1      16.781   2.900  25.326  1.00  0.00    -0.027 C 
ATOM     15  C   UNL     1      15.484   3.257  25.402  1.00  0.00    -0.031 C 
BRANCH  15  16
ATOM     16  C   UNL     1      14.331   2.306  25.610  1.00  0.00     0.027 C 
BRANCH  16  17
ATOM     17  C   UNL     1      13.273   2.449  24.509  1.00  0.00     0.004 C 
BRANCH  17  18
ATOM     18  C   UNL     1      13.825   3.239  23.314  1.00  0.00     0.000 C 
BRANCH  18  19
ATOM     19  C   UNL     1      12.839   4.302  22.806  1.00  0.00    -0.003 C 
ATOM     20  C   UNL     1      13.290   5.729  23.127  1.00  0.00     0.004 C 
ENDBRANCH  18  19
ENDBRANCH  17  18
ENDBRANCH  16  17
ENDBRANCH  15  16
ENDBRANCH  13  14
ENDBRANCH  12  13
ENDBRANCH   1  11
TORSDOF 14
ENDMDL
MODEL 9
REMARK VINA RESULT:     5.882      3.140      6.985
REMARK INTER + INTRA:           9.398
REMARK INTER:                  10.862
REMARK INTRA:                  -1.464
REMARK UNBOUND:                -1.299
REMARK SMILES CCCCCC=CCC=CCCCCCCCC(=O)[O-]
REMARK SMILES IDX 11 1 12 2 13 3 14 4 15 5 16 6 17 7 18 8 19 9 20 10 10 11
REMARK SMILES IDX 9 12 8 13 7 14 6 15 5 16 4 17 3 18 2 19 1 20
REMARK H PARENT
REMARK Flexibility Score: inf
ROOT
ATOM      1  C   UNL     1      17.592   3.835  30.542  1.00  0.00     0.027 C 
ENDROOT
BRANCH   1   2
ATOM      2  C   UNL     1      19.005   3.777  29.944  1.00  0.00     0.004 C 
BRANCH   2   3
ATOM      3  C   UNL     1      19.549   2.339  29.882  1.00  0.00     0.000 C 
BRANCH   3   4
ATOM      4  C   UNL     1      19.187   1.626  28.568  1.00  0.00     0.000 C 
BRANCH   4   5
ATOM      5  C   UNL     1      18.872   2.606  27.428  1.00  0.00     0.000 C 
BRANCH   5   6
ATOM      6  C   UNL     1      18.608   1.854  26.114  1.00  0.00     0.006 C 
BRANCH   6   7
ATOM      7  C   UNL     1      19.687   0.804  25.817  1.00  0.00     0.053 C 
BRANCH   7   8
ATOM      8  C   UNL     1      21.040   1.426  25.660  1.00  0.00     0.041 C 
ATOM      9  O   UNL     1      22.071   0.800  26.024  1.00  0.00    -0.550 OA
ATOM     10  O   UNL     1      21.160   2.714  25.154  1.00  0.00    -0.550 OA
ENDBRANCH   7   8
ENDBRANCH   6   7
ENDBRANCH   5   6
ENDBRANCH   4   5
ENDBRANCH   3   4
ENDBRANCH   2   3
ENDBRANCH   1   2
BRANCH   1  11
ATOM     11  C   UNL     1      16.831   5.057  30.088  1.00  0.00    -0.031 C 
ATOM     12  C   UNL     1      15.957   5.075  29.065  1.00  0.00    -0.027 C 
BRANCH  12  13
ATOM     13  C   UNL     1      15.659   3.877  28.199  1.00  0.00     0.054 C 
BRANCH  13  14
ATOM     14  C   UNL     1      15.892   4.204  26.746  1.00  0.00    -0.027 C 
ATOM     15  C   UNL     1      15.354   3.540  25.704  1.00  0.00    -0.031 C 
BRANCH  15  16
ATOM     16  C   UNL     1      14.379   2.394  25.814  1.00  0.00     0.027 C 
BRANCH  16  17
ATOM     17  C   UNL     1      13.408   2.359  24.628  1.00  0.00     0.004 C 
BRANCH  17  18
ATOM     18  C   UNL     1      13.860   3.320  23.518  1.00  0.00     0.000 C 
BRANCH  18  19
ATOM     19  C   UNL     1      12.749   4.292  23.093  1.00  0.00    -0.003 C 
ATOM     20  C   UNL     1      13.280   5.689  22.764  1.00  0.00     0.004 C 
ENDBRANCH  18  19
ENDBRANCH  17  18
ENDBRANCH  16  17
ENDBRANCH  15  16
ENDBRANCH  13  14
ENDBRANCH  12  13
ENDBRANCH   1  11
TORSDOF 14
ENDMDL
