MODEL 1
REMARK VINA RESULT:    -4.805      0.000      0.000
REMARK INTER + INTRA:          -5.120
REMARK INTER:                  -5.086
REMARK INTRA:                  -0.034
REMARK UNBOUND:                -0.034
REMARK SMILES COc1ccc2ccc(=O)oc2c1
REMARK SMILES IDX 3 1 13 2 12 3 6 4 5 5 4 6 7 7 8 8 9 9 10 10 11 11 2 12 1 13
REMARK H PARENT
REMARK Flexibility Score: inf
ROOT
ATOM      1  C   UNL     1      17.440  -5.355   7.756  1.00  0.00     0.122 A 
ATOM      2  C   UNL     1      16.897  -6.584   7.330  1.00  0.00     0.094 A 
ATOM      3  C   UNL     1      17.084  -7.741   8.094  1.00  0.00     0.142 A 
ATOM      4  C   UNL     1      17.820  -7.677   9.297  1.00  0.00     0.018 A 
ATOM      5  C   UNL     1      18.359  -6.456   9.721  1.00  0.00     0.016 A 
ATOM      6  C   UNL     1      18.168  -5.305   8.952  1.00  0.00     0.047 A 
ATOM      7  C   UNL     1      17.990  -8.850  10.038  1.00  0.00     0.019 A 
ATOM      8  C   UNL     1      17.432 -10.040   9.573  1.00  0.00     0.094 A 
ATOM      9  C   UNL     1      16.715 -10.029   8.372  1.00  0.00     0.336 A 
ATOM     10  O   UNL     1      16.204 -11.093   7.935  1.00  0.00    -0.246 OA
ATOM     11  O   UNL     1      16.569  -8.898   7.685  1.00  0.00    -0.423 OA
ENDROOT
BRANCH   1  12
ATOM     12  O   UNL     1      17.279  -4.169   7.025  1.00  0.00    -0.497 OA
ATOM     13  C   UNL     1      16.386  -3.119   7.380  1.00  0.00     0.278 C 
ENDBRANCH   1  12
TORSDOF 1
ENDMDL
MODEL 2
REMARK VINA RESULT:    -4.722      1.049      4.780
REMARK INTER + INTRA:          -5.031
REMARK INTER:                  -4.998
REMARK INTRA:                  -0.033
REMARK UNBOUND:                -0.034
REMARK SMILES COc1ccc2ccc(=O)oc2c1
REMARK SMILES IDX 3 1 13 2 12 3 6 4 5 5 4 6 7 7 8 8 9 9 10 10 11 11 2 12 1 13
REMARK H PARENT
REMARK Flexibility Score: inf
ROOT
ATOM      1  C   UNL     1      16.854 -10.121   8.352  1.00  0.00     0.122 A 
ATOM      2  C   UNL     1      16.669  -8.962   7.569  1.00  0.00     0.094 A 
ATOM      3  C   UNL     1      17.136  -7.724   8.021  1.00  0.00     0.142 A 
ATOM      4  C   UNL     1      17.796  -7.633   9.266  1.00  0.00     0.018 A 
ATOM      5  C   UNL     1      17.980  -8.783  10.044  1.00  0.00     0.016 A 
ATOM      6  C   UNL     1      17.510 -10.017   9.586  1.00  0.00     0.047 A 
ATOM      7  C   UNL     1      18.251  -6.381   9.690  1.00  0.00     0.019 A 
ATOM      8  C   UNL     1      18.043  -5.266   8.879  1.00  0.00     0.094 A 
ATOM      9  C   UNL     1      17.382  -5.431   7.657  1.00  0.00     0.336 A 
ATOM     10  O   UNL     1      17.184  -4.437   6.910  1.00  0.00    -0.246 OA
ATOM     11  O   UNL     1      16.958  -6.634   7.277  1.00  0.00    -0.423 OA
ENDROOT
BRANCH   1  12
ATOM     12  O   UNL     1      16.404 -11.384   7.942  1.00  0.00    -0.497 OA
ATOM     13  C   UNL     1      16.964 -12.127   6.864  1.00  0.00     0.278 C 
ENDBRANCH   1  12
TORSDOF 1
ENDMDL
MODEL 3
REMARK VINA RESULT:    -4.522     14.243     16.314
REMARK INTER + INTRA:          -4.820
REMARK INTER:                  -4.787
REMARK INTRA:                  -0.033
REMARK UNBOUND:                -0.034
REMARK SMILES COc1ccc2ccc(=O)oc2c1
REMARK SMILES IDX 3 1 13 2 12 3 6 4 5 5 4 6 7 7 8 8 9 9 10 10 11 11 2 12 1 13
REMARK H PARENT
REMARK Flexibility Score: inf
ROOT
ATOM      1  C   UNL     1      12.488 -14.974  19.659  1.00  0.00     0.122 A 
ATOM      2  C   UNL     1      13.255 -14.564  20.769  1.00  0.00     0.094 A 
ATOM      3  C   UNL     1      13.543 -15.464  21.800  1.00  0.00     0.142 A 
ATOM      4  C   UNL     1      13.062 -16.790  21.729  1.00  0.00     0.018 A 
ATOM      5  C   UNL     1      12.301 -17.198  20.627  1.00  0.00     0.016 A 
ATOM      6  C   UNL     1      12.017 -16.292  19.601  1.00  0.00     0.047 A 
ATOM      7  C   UNL     1      13.366 -17.666  22.775  1.00  0.00     0.019 A 
ATOM      8  C   UNL     1      14.129 -17.211  23.850  1.00  0.00     0.094 A 
ATOM      9  C   UNL     1      14.571 -15.883  23.853  1.00  0.00     0.336 A 
ATOM     10  O   UNL     1      15.261 -15.453  24.814  1.00  0.00    -0.246 OA
ATOM     11  O   UNL     1      14.267 -15.070  22.845  1.00  0.00    -0.423 OA
ENDROOT
BRANCH   1  12
ATOM     12  O   UNL     1      12.174 -14.108  18.602  1.00  0.00    -0.497 OA
ATOM     13  C   UNL     1      12.558 -14.319  17.247  1.00  0.00     0.278 C 
ENDBRANCH   1  12
TORSDOF 1
ENDMDL
MODEL 4
REMARK VINA RESULT:    -4.435      1.881      4.730
REMARK INTER + INTRA:          -4.728
REMARK INTER:                  -4.692
REMARK INTRA:                  -0.036
REMARK UNBOUND:                -0.034
REMARK SMILES COc1ccc2ccc(=O)oc2c1
REMARK SMILES IDX 3 1 13 2 12 3 6 4 5 5 4 6 7 7 8 8 9 9 10 10 11 11 2 12 1 13
REMARK H PARENT
REMARK Flexibility Score: inf
ROOT
ATOM      1  C   UNL     1      17.516  -8.057   9.382  1.00  0.00     0.122 A 
ATOM      2  C   UNL     1      16.290  -7.685   8.795  1.00  0.00     0.094 A 
ATOM      3  C   UNL     1      16.035  -6.347   8.480  1.00  0.00     0.142 A 
ATOM      4  C   UNL     1      17.011  -5.363   8.751  1.00  0.00     0.018 A 
ATOM      5  C   UNL     1      18.229  -5.732   9.334  1.00  0.00     0.016 A 
ATOM      6  C   UNL     1      18.476  -7.072   9.646  1.00  0.00     0.047 A 
ATOM      7  C   UNL     1      16.727  -4.034   8.426  1.00  0.00     0.019 A 
ATOM      8  C   UNL     1      15.499  -3.718   7.846  1.00  0.00     0.094 A 
ATOM      9  C   UNL     1      14.579  -4.745   7.605  1.00  0.00     0.336 A 
ATOM     10  O   UNL     1      13.465  -4.481   7.083  1.00  0.00    -0.246 OA
ATOM     11  O   UNL     1      14.875  -6.002   7.926  1.00  0.00    -0.423 OA
ENDROOT
BRANCH   1  12
ATOM     12  O   UNL     1      17.817  -9.386   9.715  1.00  0.00    -0.497 OA
ATOM     13  C   UNL     1      17.534 -10.508   8.885  1.00  0.00     0.278 C 
ENDBRANCH   1  12
TORSDOF 1
ENDMDL
MODEL 5
REMARK VINA RESULT:    -4.371      1.793      2.424
REMARK INTER + INTRA:          -4.661
REMARK INTER:                  -4.622
REMARK INTRA:                  -0.039
REMARK UNBOUND:                -0.034
REMARK SMILES COc1ccc2ccc(=O)oc2c1
REMARK SMILES IDX 3 1 13 2 12 3 6 4 5 5 4 6 7 7 8 8 9 9 10 10 11 11 2 12 1 13
REMARK H PARENT
REMARK Flexibility Score: inf
ROOT
ATOM      1  C   UNL     1      16.525  -4.497   8.189  1.00  0.00     0.122 A 
ATOM      2  C   UNL     1      17.409  -5.338   8.897  1.00  0.00     0.094 A 
ATOM      3  C   UNL     1      17.116  -6.696   9.054  1.00  0.00     0.142 A 
ATOM      4  C   UNL     1      15.930  -7.228   8.502  1.00  0.00     0.018 A 
ATOM      5  C   UNL     1      15.053  -6.394   7.799  1.00  0.00     0.016 A 
ATOM      6  C   UNL     1      15.352  -5.037   7.646  1.00  0.00     0.047 A 
ATOM      7  C   UNL     1      15.665  -8.589   8.677  1.00  0.00     0.019 A 
ATOM      8  C   UNL     1      16.571  -9.378   9.385  1.00  0.00     0.094 A 
ATOM      9  C   UNL     1      17.726  -8.783   9.905  1.00  0.00     0.336 A 
ATOM     10  O   UNL     1      18.556  -9.477  10.547  1.00  0.00    -0.246 OA
ATOM     11  O   UNL     1      17.954  -7.484   9.724  1.00  0.00    -0.423 OA
ENDROOT
BRANCH   1  12
ATOM     12  O   UNL     1      16.776  -3.130   8.004  1.00  0.00    -0.497 OA
ATOM     13  C   UNL     1      16.200  -2.338   6.970  1.00  0.00     0.278 C 
ENDBRANCH   1  12
TORSDOF 1
ENDMDL
MODEL 6
REMARK VINA RESULT:    -4.360      2.633      3.576
REMARK INTER + INTRA:          -4.649
REMARK INTER:                  -4.609
REMARK INTRA:                  -0.040
REMARK UNBOUND:                -0.034
REMARK SMILES COc1ccc2ccc(=O)oc2c1
REMARK SMILES IDX 3 1 13 2 12 3 6 4 5 5 4 6 7 7 8 8 9 9 10 10 11 11 2 12 1 13
REMARK H PARENT
REMARK Flexibility Score: inf
ROOT
ATOM      1  C   UNL     1      17.822  -6.540   8.941  1.00  0.00     0.122 A 
ATOM      2  C   UNL     1      16.682  -6.122   8.223  1.00  0.00     0.094 A 
ATOM      3  C   UNL     1      15.537  -6.925   8.188  1.00  0.00     0.142 A 
ATOM      4  C   UNL     1      15.523  -8.159   8.873  1.00  0.00     0.018 A 
ATOM      5  C   UNL     1      16.654  -8.574   9.586  1.00  0.00     0.016 A 
ATOM      6  C   UNL     1      17.795  -7.766   9.617  1.00  0.00     0.047 A 
ATOM      7  C   UNL     1      14.364  -8.939   8.819  1.00  0.00     0.019 A 
ATOM      8  C   UNL     1      13.264  -8.481   8.095  1.00  0.00     0.094 A 
ATOM      9  C   UNL     1      13.349  -7.247   7.440  1.00  0.00     0.336 A 
ATOM     10  O   UNL     1      12.367  -6.816   6.782  1.00  0.00    -0.246 OA
ATOM     11  O   UNL     1      14.465  -6.525   7.508  1.00  0.00    -0.423 OA
ENDROOT
BRANCH   1  12
ATOM     12  O   UNL     1      18.992  -5.770   9.006  1.00  0.00    -0.497 OA
ATOM     13  C   UNL     1      20.191  -6.181   9.655  1.00  0.00     0.278 C 
ENDBRANCH   1  12
TORSDOF 1
ENDMDL
MODEL 7
REMARK VINA RESULT:    -4.317     14.383     16.656
REMARK INTER + INTRA:          -4.603
REMARK INTER:                  -4.569
REMARK INTRA:                  -0.034
REMARK UNBOUND:                -0.034
REMARK SMILES COc1ccc2ccc(=O)oc2c1
REMARK SMILES IDX 3 1 13 2 12 3 6 4 5 5 4 6 7 7 8 8 9 9 10 10 11 11 2 12 1 13
REMARK H PARENT
REMARK Flexibility Score: inf
ROOT
ATOM      1  C   UNL     1      12.701 -16.691  19.136  1.00  0.00     0.122 A 
ATOM      2  C   UNL     1      12.235 -17.215  20.359  1.00  0.00     0.094 A 
ATOM      3  C   UNL     1      12.675 -16.675  21.571  1.00  0.00     0.142 A 
ATOM      4  C   UNL     1      13.591 -15.601  21.571  1.00  0.00     0.018 A 
ATOM      5  C   UNL     1      14.055 -15.081  20.357  1.00  0.00     0.016 A 
ATOM      6  C   UNL     1      13.610 -15.625  19.149  1.00  0.00     0.047 A 
ATOM      7  C   UNL     1      14.013 -15.084  22.799  1.00  0.00     0.019 A 
ATOM      8  C   UNL     1      13.521 -15.637  23.980  1.00  0.00     0.094 A 
ATOM      9  C   UNL     1      12.615 -16.701  23.905  1.00  0.00     0.336 A 
ATOM     10  O   UNL     1      12.160 -17.215  24.960  1.00  0.00    -0.246 OA
ATOM     11  O   UNL     1      12.231 -17.175  22.723  1.00  0.00    -0.423 OA
ENDROOT
BRANCH   1  12
ATOM     12  O   UNL     1      12.289 -17.199  17.895  1.00  0.00    -0.497 OA
ATOM     13  C   UNL     1      13.079 -18.048  17.070  1.00  0.00     0.278 C 
ENDBRANCH   1  12
TORSDOF 1
ENDMDL
MODEL 8
REMARK VINA RESULT:    -4.241      2.617      3.489
REMARK INTER + INTRA:          -4.523
REMARK INTER:                  -4.490
REMARK INTRA:                  -0.033
REMARK UNBOUND:                -0.034
REMARK SMILES COc1ccc2ccc(=O)oc2c1
REMARK SMILES IDX 3 1 13 2 12 3 6 4 5 5 4 6 7 7 8 8 9 9 10 10 11 11 2 12 1 13
REMARK H PARENT
REMARK Flexibility Score: inf
ROOT
ATOM      1  C   UNL     1      15.563  -4.061   6.992  1.00  0.00     0.122 A 
ATOM      2  C   UNL     1      16.883  -4.093   7.488  1.00  0.00     0.094 A 
ATOM      3  C   UNL     1      17.338  -5.200   8.213  1.00  0.00     0.142 A 
ATOM      4  C   UNL     1      16.471  -6.289   8.450  1.00  0.00     0.018 A 
ATOM      5  C   UNL     1      15.160  -6.257   7.958  1.00  0.00     0.016 A 
ATOM      6  C   UNL     1      14.713  -5.148   7.235  1.00  0.00     0.047 A 
ATOM      7  C   UNL     1      16.954  -7.380   9.178  1.00  0.00     0.019 A 
ATOM      8  C   UNL     1      18.267  -7.363   9.646  1.00  0.00     0.094 A 
ATOM      9  C   UNL     1      19.070  -6.250   9.373  1.00  0.00     0.336 A 
ATOM     10  O   UNL     1      20.258  -6.215   9.787  1.00  0.00    -0.246 OA
ATOM     11  O   UNL     1      18.584  -5.224   8.678  1.00  0.00    -0.423 OA
ENDROOT
BRANCH   1  12
ATOM     12  O   UNL     1      15.063  -2.974   6.261  1.00  0.00    -0.497 OA
ATOM     13  C   UNL     1      14.699  -1.720   6.829  1.00  0.00     0.278 C 
ENDBRANCH   1  12
TORSDOF 1
ENDMDL
MODEL 9
REMARK VINA RESULT:    -4.170     14.271     16.631
REMARK INTER + INTRA:          -4.447
REMARK INTER:                  -4.414
REMARK INTRA:                  -0.033
REMARK UNBOUND:                -0.034
REMARK SMILES COc1ccc2ccc(=O)oc2c1
REMARK SMILES IDX 3 1 13 2 12 3 6 4 5 5 4 6 7 7 8 8 9 9 10 10 11 11 2 12 1 13
REMARK H PARENT
REMARK Flexibility Score: inf
ROOT
ATOM      1  C   UNL     1      13.771 -16.058  23.382  1.00  0.00     0.122 A 
ATOM      2  C   UNL     1      13.950 -15.335  22.185  1.00  0.00     0.094 A 
ATOM      3  C   UNL     1      13.438 -15.827  20.980  1.00  0.00     0.142 A 
ATOM      4  C   UNL     1      12.740 -17.054  20.963  1.00  0.00     0.018 A 
ATOM      5  C   UNL     1      12.563 -17.773  22.151  1.00  0.00     0.016 A 
ATOM      6  C   UNL     1      13.077 -17.274  23.351  1.00  0.00     0.047 A 
ATOM      7  C   UNL     1      12.241 -17.520  19.743  1.00  0.00     0.019 A 
ATOM      8  C   UNL     1      12.444 -16.766  18.588  1.00  0.00     0.094 A 
ATOM      9  C   UNL     1      13.145 -15.559  18.680  1.00  0.00     0.336 A 
ATOM     10  O   UNL     1      13.339 -14.865  17.648  1.00  0.00    -0.246 OA
ATOM     11  O   UNL     1      13.611 -15.139  19.854  1.00  0.00    -0.423 OA
ENDROOT
BRANCH   1  12
ATOM     12  O   UNL     1      14.266 -15.605  24.614  1.00  0.00    -0.497 OA
ATOM     13  C   UNL     1      15.645 -15.580  24.968  1.00  0.00     0.278 C 
ENDBRANCH   1  12
TORSDOF 1
ENDMDL
