MODEL 1
REMARK VINA RESULT:    -4.471      0.000      0.000
REMARK INTER + INTRA:          -9.299
REMARK INTER:                  -8.261
REMARK INTRA:                  -1.038
REMARK UNBOUND:                -1.038
REMARK SMILES CCCCCCCCCCCCCCCCO
REMARK SMILES IDX 9 1 8 2 7 3 6 4 5 5 4 6 3 7 2 8 1 9 10 10 11 11 12 12 13 13
REMARK SMILES IDX 14 14 15 15 16 16 17 17
REMARK H PARENT 17 18
REMARK Flexibility Score: inf
ROOT
ATOM      1  C   UNL     1      26.322  27.080  23.953  1.00  0.00     0.000 C 
ENDROOT
BRANCH   1   2
ATOM      2  C   UNL     1      25.204  26.636  24.907  1.00  0.00    -0.000 C 
BRANCH   2   3
ATOM      3  C   UNL     1      24.798  25.165  24.709  1.00  0.00    -0.000 C 
BRANCH   3   4
ATOM      4  C   UNL     1      25.012  24.613  23.285  1.00  0.00    -0.000 C 
BRANCH   4   5
ATOM      5  C   UNL     1      23.866  23.746  22.734  1.00  0.00    -0.000 C 
BRANCH   5   6
ATOM      6  C   UNL     1      22.650  23.694  23.674  1.00  0.00    -0.000 C 
BRANCH   6   7
ATOM      7  C   UNL     1      21.531  22.772  23.157  1.00  0.00    -0.000 C 
BRANCH   7   8
ATOM      8  C   UNL     1      21.918  21.890  21.956  1.00  0.00    -0.003 C 
ATOM      9  C   UNL     1      21.083  20.614  21.855  1.00  0.00     0.004 C 
ENDBRANCH   7   8
ENDBRANCH   6   7
ENDBRANCH   5   6
ENDBRANCH   4   5
ENDBRANCH   3   4
ENDBRANCH   2   3
ENDBRANCH   1   2
BRANCH   1  10
ATOM     10  C   UNL     1      27.412  27.858  24.707  1.00  0.00     0.000 C 
BRANCH  10  11
ATOM     11  C   UNL     1      28.824  27.322  24.421  1.00  0.00     0.000 C 
BRANCH  11  12
ATOM     12  C   UNL     1      29.518  28.072  23.271  1.00  0.00     0.000 C 
BRANCH  12  13
ATOM     13  C   UNL     1      30.286  27.130  22.327  1.00  0.00     0.000 C 
BRANCH  13  14
ATOM     14  C   UNL     1      29.931  25.636  22.466  1.00  0.00     0.002 C 
BRANCH  14  15
ATOM     15  C   UNL     1      29.204  25.021  21.254  1.00  0.00     0.028 C 
BRANCH  15  16
ATOM     16  C   UNL     1      28.691  26.056  20.245  1.00  0.00     0.156 C 
BRANCH  16  17
ATOM     17  O   UNL     1      27.302  26.211  20.351  1.00  0.00    -0.396 OA
ATOM     18  H   UNL     1      26.921  26.024  19.454  1.00  0.00     0.210 HD
ENDBRANCH  16  17
ENDBRANCH  15  16
ENDBRANCH  14  15
ENDBRANCH  13  14
ENDBRANCH  12  13
ENDBRANCH  11  12
ENDBRANCH  10  11
ENDBRANCH   1  10
TORSDOF 15
ENDMDL
MODEL 2
REMARK VINA RESULT:    -4.440      1.818      6.635
REMARK INTER + INTRA:          -9.243
REMARK INTER:                  -8.348
REMARK INTRA:                  -0.895
REMARK UNBOUND:                -1.038
REMARK SMILES CCCCCCCCCCCCCCCCO
REMARK SMILES IDX 9 1 8 2 7 3 6 4 5 5 4 6 3 7 2 8 1 9 10 10 11 11 12 12 13 13
REMARK SMILES IDX 14 14 15 15 16 16 17 17
REMARK H PARENT 17 18
REMARK Flexibility Score: inf
ROOT
ATOM      1  C   UNL     1      26.287  27.642  24.448  1.00  0.00     0.000 C 
ENDROOT
BRANCH   1   2
ATOM      2  C   UNL     1      27.563  27.212  23.710  1.00  0.00    -0.000 C 
BRANCH   2   3
ATOM      3  C   UNL     1      28.847  27.721  24.389  1.00  0.00    -0.000 C 
BRANCH   3   4
ATOM      4  C   UNL     1      30.109  27.703  23.502  1.00  0.00    -0.000 C 
BRANCH   4   5
ATOM      5  C   UNL     1      29.933  27.052  22.118  1.00  0.00    -0.000 C 
BRANCH   5   6
ATOM      6  C   UNL     1      30.039  25.519  22.161  1.00  0.00    -0.000 C 
BRANCH   6   7
ATOM      7  C   UNL     1      29.184  24.828  21.082  1.00  0.00    -0.000 C 
BRANCH   7   8
ATOM      8  C   UNL     1      28.578  25.774  20.029  1.00  0.00    -0.003 C 
ATOM      9  C   UNL     1      28.838  25.319  18.594  1.00  0.00     0.004 C 
ENDBRANCH   7   8
ENDBRANCH   6   7
ENDBRANCH   5   6
ENDBRANCH   4   5
ENDBRANCH   3   4
ENDBRANCH   2   3
ENDBRANCH   1   2
BRANCH   1  10
ATOM     10  C   UNL     1      25.158  26.621  24.234  1.00  0.00     0.000 C 
BRANCH  10  11
ATOM     11  C   UNL     1      25.358  25.780  22.963  1.00  0.00     0.000 C 
BRANCH  11  12
ATOM     12  C   UNL     1      25.081  24.285  23.196  1.00  0.00     0.000 C 
BRANCH  12  13
ATOM     13  C   UNL     1      23.625  24.008  23.609  1.00  0.00     0.000 C 
BRANCH  13  14
ATOM     14  C   UNL     1      22.710  23.506  22.473  1.00  0.00     0.002 C 
BRANCH  14  15
ATOM     15  C   UNL     1      21.895  22.240  22.800  1.00  0.00     0.028 C 
BRANCH  15  16
ATOM     16  C   UNL     1      21.764  21.263  21.625  1.00  0.00     0.156 C 
BRANCH  16  17
ATOM     17  O   UNL     1      22.946  21.225  20.872  1.00  0.00    -0.396 OA
ATOM     18  H   UNL     1      23.309  22.149  20.858  1.00  0.00     0.210 HD
ENDBRANCH  16  17
ENDBRANCH  15  16
ENDBRANCH  14  15
ENDBRANCH  13  14
ENDBRANCH  12  13
ENDBRANCH  11  12
ENDBRANCH  10  11
ENDBRANCH   1  10
TORSDOF 15
ENDMDL
MODEL 3
REMARK VINA RESULT:    -4.353      3.090      8.020
REMARK INTER + INTRA:          -9.080
REMARK INTER:                  -8.394
REMARK INTRA:                  -0.686
REMARK UNBOUND:                -1.038
REMARK SMILES CCCCCCCCCCCCCCCCO
REMARK SMILES IDX 9 1 8 2 7 3 6 4 5 5 4 6 3 7 2 8 1 9 10 10 11 11 12 12 13 13
REMARK SMILES IDX 14 14 15 15 16 16 17 17
REMARK H PARENT 17 18
REMARK Flexibility Score: inf
ROOT
ATOM      1  C   UNL     1      25.004  25.017  23.681  1.00  0.00     0.000 C 
ENDROOT
BRANCH   1   2
ATOM      2  C   UNL     1      25.826  26.077  22.932  1.00  0.00    -0.000 C 
BRANCH   2   3
ATOM      3  C   UNL     1      26.562  27.041  23.879  1.00  0.00    -0.000 C 
BRANCH   3   4
ATOM      4  C   UNL     1      28.094  27.089  23.704  1.00  0.00    -0.000 C 
BRANCH   4   5
ATOM      5  C   UNL     1      28.605  26.810  22.279  1.00  0.00    -0.000 C 
BRANCH   5   6
ATOM      6  C   UNL     1      29.524  25.579  22.204  1.00  0.00    -0.000 C 
BRANCH   6   7
ATOM      7  C   UNL     1      29.357  24.786  20.894  1.00  0.00    -0.000 C 
BRANCH   7   8
ATOM      8  C   UNL     1      28.451  25.450  19.842  1.00  0.00    -0.003 C 
ATOM      9  C   UNL     1      28.955  25.262  18.412  1.00  0.00     0.004 C 
ENDBRANCH   7   8
ENDBRANCH   6   7
ENDBRANCH   5   6
ENDBRANCH   4   5
ENDBRANCH   3   4
ENDBRANCH   2   3
ENDBRANCH   1   2
BRANCH   1  10
ATOM     10  C   UNL     1      24.373  24.018  22.699  1.00  0.00     0.000 C 
BRANCH  10  11
ATOM     11  C   UNL     1      23.081  23.390  23.246  1.00  0.00     0.000 C 
BRANCH  11  12
ATOM     12  C   UNL     1      22.067  23.064  22.137  1.00  0.00     0.000 C 
BRANCH  12  13
ATOM     13  C   UNL     1      22.107  21.585  21.711  1.00  0.00     0.000 C 
BRANCH  13  14
ATOM     14  C   UNL     1      21.062  20.682  22.396  1.00  0.00     0.002 C 
BRANCH  14  15
ATOM     15  C   UNL     1      20.193  19.844  21.439  1.00  0.00     0.028 C 
BRANCH  15  16
ATOM     16  C   UNL     1      19.771  18.484  22.010  1.00  0.00     0.156 C 
BRANCH  16  17
ATOM     17  O   UNL     1      19.084  17.730  21.049  1.00  0.00    -0.396 OA
ATOM     18  H   UNL     1      19.640  17.735  20.227  1.00  0.00     0.210 HD
ENDBRANCH  16  17
ENDBRANCH  15  16
ENDBRANCH  14  15
ENDBRANCH  13  14
ENDBRANCH  12  13
ENDBRANCH  11  12
ENDBRANCH  10  11
ENDBRANCH   1  10
TORSDOF 15
ENDMDL
MODEL 4
REMARK VINA RESULT:    -4.193      2.139      7.650
REMARK INTER + INTRA:          -8.786
REMARK INTER:                  -7.515
REMARK INTRA:                  -1.270
REMARK UNBOUND:                -1.038
REMARK SMILES CCCCCCCCCCCCCCCCO
REMARK SMILES IDX 9 1 8 2 7 3 6 4 5 5 4 6 3 7 2 8 1 9 10 10 11 11 12 12 13 13
REMARK SMILES IDX 14 14 15 15 16 16 17 17
REMARK H PARENT 17 18
REMARK Flexibility Score: inf
ROOT
ATOM      1  C   UNL     1      27.751  26.390  21.731  1.00  0.00     0.000 C 
ENDROOT
BRANCH   1   2
ATOM      2  C   UNL     1      29.235  26.193  21.387  1.00  0.00    -0.000 C 
BRANCH   2   3
ATOM      3  C   UNL     1      29.875  25.019  22.149  1.00  0.00    -0.000 C 
BRANCH   3   4
ATOM      4  C   UNL     1      31.177  25.361  22.903  1.00  0.00    -0.000 C 
BRANCH   4   5
ATOM      5  C   UNL     1      31.026  26.365  24.059  1.00  0.00    -0.000 C 
BRANCH   5   6
ATOM      6  C   UNL     1      31.989  27.558  23.944  1.00  0.00    -0.000 C 
BRANCH   6   7
ATOM      7  C   UNL     1      32.081  28.119  22.513  1.00  0.00    -0.000 C 
BRANCH   7   8
ATOM      8  C   UNL     1      31.104  29.267  22.200  1.00  0.00    -0.003 C 
ATOM      9  C   UNL     1      30.145  29.569  23.350  1.00  0.00     0.004 C 
ENDBRANCH   7   8
ENDBRANCH   6   7
ENDBRANCH   5   6
ENDBRANCH   4   5
ENDBRANCH   3   4
ENDBRANCH   2   3
ENDBRANCH   1   2
BRANCH   1  10
ATOM     10  C   UNL     1      27.580  26.832  23.193  1.00  0.00     0.000 C 
BRANCH  10  11
ATOM     11  C   UNL     1      26.233  26.392  23.788  1.00  0.00     0.000 C 
BRANCH  11  12
ATOM     12  C   UNL     1      25.388  25.576  22.795  1.00  0.00     0.000 C 
BRANCH  12  13
ATOM     13  C   UNL     1      24.485  24.543  23.493  1.00  0.00     0.000 C 
BRANCH  13  14
ATOM     14  C   UNL     1      23.860  23.488  22.558  1.00  0.00     0.002 C 
BRANCH  14  15
ATOM     15  C   UNL     1      22.400  23.111  22.879  1.00  0.00     0.028 C 
BRANCH  15  16
ATOM     16  C   UNL     1      21.922  21.829  22.187  1.00  0.00     0.156 C 
BRANCH  16  17
ATOM     17  O   UNL     1      22.826  21.431  21.192  1.00  0.00    -0.396 OA
ATOM     18  H   UNL     1      22.304  21.320  20.355  1.00  0.00     0.210 HD
ENDBRANCH  16  17
ENDBRANCH  15  16
ENDBRANCH  14  15
ENDBRANCH  13  14
ENDBRANCH  12  13
ENDBRANCH  11  12
ENDBRANCH  10  11
ENDBRANCH   1  10
TORSDOF 15
ENDMDL
MODEL 5
REMARK VINA RESULT:    -4.186      2.456      7.128
REMARK INTER + INTRA:          -8.772
REMARK INTER:                  -8.006
REMARK INTRA:                  -0.766
REMARK UNBOUND:                -1.038
REMARK SMILES CCCCCCCCCCCCCCCCO
REMARK SMILES IDX 9 1 8 2 7 3 6 4 5 5 4 6 3 7 2 8 1 9 10 10 11 11 12 12 13 13
REMARK SMILES IDX 14 14 15 15 16 16 17 17
REMARK H PARENT 17 18
REMARK Flexibility Score: inf
ROOT
ATOM      1  C   UNL     1      27.062  26.659  23.553  1.00  0.00     0.000 C 
ENDROOT
BRANCH   1   2
ATOM      2  C   UNL     1      27.349  27.891  24.424  1.00  0.00    -0.000 C 
BRANCH   2   3
ATOM      3  C   UNL     1      28.836  28.285  24.430  1.00  0.00    -0.000 C 
BRANCH   3   4
ATOM      4  C   UNL     1      29.825  27.110  24.282  1.00  0.00    -0.000 C 
BRANCH   4   5
ATOM      5  C   UNL     1      30.407  26.911  22.871  1.00  0.00    -0.000 C 
BRANCH   5   6
ATOM      6  C   UNL     1      30.594  25.430  22.505  1.00  0.00    -0.000 C 
BRANCH   6   7
ATOM      7  C   UNL     1      29.504  24.906  21.552  1.00  0.00    -0.000 C 
BRANCH   7   8
ATOM      8  C   UNL     1      28.856  25.975  20.654  1.00  0.00    -0.003 C 
ATOM      9  C   UNL     1      28.717  25.532  19.198  1.00  0.00     0.004 C 
ENDBRANCH   7   8
ENDBRANCH   6   7
ENDBRANCH   5   6
ENDBRANCH   4   5
ENDBRANCH   3   4
ENDBRANCH   2   3
ENDBRANCH   1   2
BRANCH   1  10
ATOM     10  C   UNL     1      25.565  26.313  23.567  1.00  0.00     0.000 C 
BRANCH  10  11
ATOM     11  C   UNL     1      25.250  25.027  22.787  1.00  0.00     0.000 C 
BRANCH  11  12
ATOM     12  C   UNL     1      24.237  24.128  23.516  1.00  0.00     0.000 C 
BRANCH  12  13
ATOM     13  C   UNL     1      23.286  23.398  22.550  1.00  0.00     0.000 C 
BRANCH  13  14
ATOM     14  C   UNL     1      21.827  23.284  23.035  1.00  0.00     0.002 C 
BRANCH  14  15
ATOM     15  C   UNL     1      21.309  21.844  23.216  1.00  0.00     0.028 C 
BRANCH  15  16
ATOM     16  C   UNL     1      21.386  20.990  21.944  1.00  0.00     0.156 C 
BRANCH  16  17
ATOM     17  O   UNL     1      20.510  19.899  22.020  1.00  0.00    -0.396 OA
ATOM     18  H   UNL     1      20.576  19.540  22.943  1.00  0.00     0.210 HD
ENDBRANCH  16  17
ENDBRANCH  15  16
ENDBRANCH  14  15
ENDBRANCH  13  14
ENDBRANCH  12  13
ENDBRANCH  11  12
ENDBRANCH  10  11
ENDBRANCH   1  10
TORSDOF 15
ENDMDL
MODEL 6
REMARK VINA RESULT:    -4.172      2.146      7.428
REMARK INTER + INTRA:          -8.746
REMARK INTER:                  -7.313
REMARK INTRA:                  -1.433
REMARK UNBOUND:                -1.038
REMARK SMILES CCCCCCCCCCCCCCCCO
REMARK SMILES IDX 9 1 8 2 7 3 6 4 5 5 4 6 3 7 2 8 1 9 10 10 11 11 12 12 13 13
REMARK SMILES IDX 14 14 15 15 16 16 17 17
REMARK H PARENT 17 18
REMARK Flexibility Score: inf
ROOT
ATOM      1  C   UNL     1      29.024  26.093  21.438  1.00  0.00     0.000 C 
ENDROOT
BRANCH   1   2
ATOM      2  C   UNL     1      29.912  24.904  21.834  1.00  0.00    -0.000 C 
BRANCH   2   3
ATOM      3  C   UNL     1      31.231  25.338  22.498  1.00  0.00    -0.000 C 
BRANCH   3   4
ATOM      4  C   UNL     1      31.389  24.918  23.974  1.00  0.00    -0.000 C 
BRANCH   4   5
ATOM      5  C   UNL     1      31.492  26.076  24.982  1.00  0.00    -0.000 C 
BRANCH   5   6
ATOM      6  C   UNL     1      30.501  27.214  24.689  1.00  0.00    -0.000 C 
BRANCH   6   7
ATOM      7  C   UNL     1      31.194  28.509  24.226  1.00  0.00    -0.000 C 
BRANCH   7   8
ATOM      8  C   UNL     1      30.726  29.044  22.861  1.00  0.00    -0.003 C 
ATOM      9  C   UNL     1      31.836  29.747  22.080  1.00  0.00     0.004 C 
ENDBRANCH   7   8
ENDBRANCH   6   7
ENDBRANCH   5   6
ENDBRANCH   4   5
ENDBRANCH   3   4
ENDBRANCH   2   3
ENDBRANCH   1   2
BRANCH   1  10
ATOM     10  C   UNL     1      27.566  25.855  21.860  1.00  0.00     0.000 C 
BRANCH  10  11
ATOM     11  C   UNL     1      27.134  26.759  23.025  1.00  0.00     0.000 C 
BRANCH  11  12
ATOM     12  C   UNL     1      25.623  26.681  23.304  1.00  0.00     0.000 C 
BRANCH  12  13
ATOM     13  C   UNL     1      25.295  25.899  24.588  1.00  0.00     0.000 C 
BRANCH  13  14
ATOM     14  C   UNL     1      24.624  24.529  24.362  1.00  0.00     0.002 C 
BRANCH  14  15
ATOM     15  C   UNL     1      24.449  24.121  22.886  1.00  0.00     0.028 C 
BRANCH  15  16
ATOM     16  C   UNL     1      23.152  23.354  22.602  1.00  0.00     0.156 C 
BRANCH  16  17
ATOM     17  O   UNL     1      23.398  22.244  21.782  1.00  0.00    -0.396 OA
ATOM     18  H   UNL     1      22.550  21.729  21.730  1.00  0.00     0.210 HD
ENDBRANCH  16  17
ENDBRANCH  15  16
ENDBRANCH  14  15
ENDBRANCH  13  14
ENDBRANCH  12  13
ENDBRANCH  11  12
ENDBRANCH  10  11
ENDBRANCH   1  10
TORSDOF 15
ENDMDL
MODEL 7
REMARK VINA RESULT:    -4.157      1.476      2.760
REMARK INTER + INTRA:          -8.720
REMARK INTER:                  -8.119
REMARK INTRA:                  -0.601
REMARK UNBOUND:                -1.038
REMARK SMILES CCCCCCCCCCCCCCCCO
REMARK SMILES IDX 9 1 8 2 7 3 6 4 5 5 4 6 3 7 2 8 1 9 10 10 11 11 12 12 13 13
REMARK SMILES IDX 14 14 15 15 16 16 17 17
REMARK H PARENT 17 18
REMARK Flexibility Score: inf
ROOT
ATOM      1  C   UNL     1      25.200  24.875  24.202  1.00  0.00     0.000 C 
ENDROOT
BRANCH   1   2
ATOM      2  C   UNL     1      23.723  24.504  24.007  1.00  0.00    -0.000 C 
BRANCH   2   3
ATOM      3  C   UNL     1      23.491  23.598  22.784  1.00  0.00    -0.000 C 
BRANCH   3   4
ATOM      4  C   UNL     1      22.103  22.927  22.720  1.00  0.00    -0.000 C 
BRANCH   4   5
ATOM      5  C   UNL     1      22.040  21.617  21.915  1.00  0.00    -0.000 C 
BRANCH   5   6
ATOM      6  C   UNL     1      21.084  20.582  22.532  1.00  0.00    -0.000 C 
BRANCH   6   7
ATOM      7  C   UNL     1      20.233  19.850  21.478  1.00  0.00    -0.000 C 
BRANCH   7   8
ATOM      8  C   UNL     1      19.674  18.487  21.926  1.00  0.00    -0.003 C 
ATOM      9  C   UNL     1      18.941  17.743  20.811  1.00  0.00     0.004 C 
ENDBRANCH   7   8
ENDBRANCH   6   7
ENDBRANCH   5   6
ENDBRANCH   4   5
ENDBRANCH   3   4
ENDBRANCH   2   3
ENDBRANCH   1   2
BRANCH   1  10
ATOM     10  C   UNL     1      25.763  25.567  22.952  1.00  0.00     0.000 C 
BRANCH  10  11
ATOM     11  C   UNL     1      26.317  26.969  23.253  1.00  0.00     0.000 C 
BRANCH  11  12
ATOM     12  C   UNL     1      27.810  26.946  23.625  1.00  0.00     0.000 C 
BRANCH  12  13
ATOM     13  C   UNL     1      28.731  26.986  22.393  1.00  0.00     0.000 C 
BRANCH  13  14
ATOM     14  C   UNL     1      29.443  25.657  22.069  1.00  0.00     0.002 C 
BRANCH  14  15
ATOM     15  C   UNL     1      28.906  24.910  20.833  1.00  0.00     0.028 C 
BRANCH  15  16
ATOM     16  C   UNL     1      28.822  25.776  19.570  1.00  0.00     0.156 C 
BRANCH  16  17
ATOM     17  O   UNL     1      27.848  25.284  18.691  1.00  0.00    -0.396 OA
ATOM     18  H   UNL     1      27.902  25.831  17.864  1.00  0.00     0.210 HD
ENDBRANCH  16  17
ENDBRANCH  15  16
ENDBRANCH  14  15
ENDBRANCH  13  14
ENDBRANCH  12  13
ENDBRANCH  11  12
ENDBRANCH  10  11
ENDBRANCH   1  10
TORSDOF 15
ENDMDL
MODEL 8
REMARK VINA RESULT:    -4.118      1.993      2.996
REMARK INTER + INTRA:          -8.647
REMARK INTER:                  -7.858
REMARK INTRA:                  -0.789
REMARK UNBOUND:                -1.038
REMARK SMILES CCCCCCCCCCCCCCCCO
REMARK SMILES IDX 9 1 8 2 7 3 6 4 5 5 4 6 3 7 2 8 1 9 10 10 11 11 12 12 13 13
REMARK SMILES IDX 14 14 15 15 16 16 17 17
REMARK H PARENT 17 18
REMARK Flexibility Score: inf
ROOT
ATOM      1  C   UNL     1      26.502  25.624  22.434  1.00  0.00     0.000 C 
ENDROOT
BRANCH   1   2
ATOM      2  C   UNL     1      25.734  26.667  23.259  1.00  0.00    -0.000 C 
BRANCH   2   3
ATOM      3  C   UNL     1      25.178  26.096  24.576  1.00  0.00    -0.000 C 
BRANCH   3   4
ATOM      4  C   UNL     1      24.907  24.577  24.568  1.00  0.00    -0.000 C 
BRANCH   4   5
ATOM      5  C   UNL     1      23.473  24.165  24.189  1.00  0.00    -0.000 C 
BRANCH   5   6
ATOM      6  C   UNL     1      23.360  23.654  22.743  1.00  0.00    -0.000 C 
BRANCH   6   7
ATOM      7  C   UNL     1      22.049  22.891  22.477  1.00  0.00    -0.000 C 
BRANCH   7   8
ATOM      8  C   UNL     1      22.222  21.511  21.817  1.00  0.00    -0.003 C 
ATOM      9  C   UNL     1      20.980  20.629  21.939  1.00  0.00     0.004 C 
ENDBRANCH   7   8
ENDBRANCH   6   7
ENDBRANCH   5   6
ENDBRANCH   4   5
ENDBRANCH   3   4
ENDBRANCH   2   3
ENDBRANCH   1   2
BRANCH   1  10
ATOM     10  C   UNL     1      27.723  26.257  21.749  1.00  0.00     0.000 C 
BRANCH  10  11
ATOM     11  C   UNL     1      28.774  25.214  21.337  1.00  0.00     0.000 C 
BRANCH  11  12
ATOM     12  C   UNL     1      30.070  25.325  22.159  1.00  0.00     0.000 C 
BRANCH  12  13
ATOM     13  C   UNL     1      30.122  26.603  23.015  1.00  0.00     0.000 C 
BRANCH  13  14
ATOM     14  C   UNL     1      30.894  27.779  22.384  1.00  0.00     0.002 C 
BRANCH  14  15
ATOM     15  C   UNL     1      30.423  29.180  22.819  1.00  0.00     0.028 C 
BRANCH  15  16
ATOM     16  C   UNL     1      31.554  30.213  22.922  1.00  0.00     0.156 C 
BRANCH  16  17
ATOM     17  O   UNL     1      32.125  30.454  21.665  1.00  0.00    -0.396 OA
ATOM     18  H   UNL     1      32.422  31.401  21.659  1.00  0.00     0.210 HD
ENDBRANCH  16  17
ENDBRANCH  15  16
ENDBRANCH  14  15
ENDBRANCH  13  14
ENDBRANCH  12  13
ENDBRANCH  11  12
ENDBRANCH  10  11
ENDBRANCH   1  10
TORSDOF 15
ENDMDL
MODEL 9
REMARK VINA RESULT:    -4.034      3.144      8.455
REMARK INTER + INTRA:          -8.491
REMARK INTER:                  -8.059
REMARK INTRA:                  -0.432
REMARK UNBOUND:                -1.038
REMARK SMILES CCCCCCCCCCCCCCCCO
REMARK SMILES IDX 9 1 8 2 7 3 6 4 5 5 4 6 3 7 2 8 1 9 10 10 11 11 12 12 13 13
REMARK SMILES IDX 14 14 15 15 16 16 17 17
REMARK H PARENT 17 18
REMARK Flexibility Score: inf
ROOT
ATOM      1  C   UNL     1      25.147  24.790  23.850  1.00  0.00     0.000 C 
ENDROOT
BRANCH   1   2
ATOM      2  C   UNL     1      25.244  26.235  23.337  1.00  0.00    -0.000 C 
BRANCH   2   3
ATOM      3  C   UNL     1      26.679  26.635  22.950  1.00  0.00    -0.000 C 
BRANCH   3   4
ATOM      4  C   UNL     1      27.439  25.601  22.094  1.00  0.00    -0.000 C 
BRANCH   4   5
ATOM      5  C   UNL     1      28.573  26.171  21.224  1.00  0.00    -0.000 C 
BRANCH   5   6
ATOM      6  C   UNL     1      29.546  27.060  22.016  1.00  0.00    -0.000 C 
BRANCH   6   7
ATOM      7  C   UNL     1      30.129  26.355  23.255  1.00  0.00    -0.000 C 
BRANCH   7   8
ATOM      8  C   UNL     1      31.151  25.244  22.951  1.00  0.00    -0.003 C 
ATOM      9  C   UNL     1      32.037  24.901  24.148  1.00  0.00     0.004 C 
ENDBRANCH   7   8
ENDBRANCH   6   7
ENDBRANCH   5   6
ENDBRANCH   4   5
ENDBRANCH   3   4
ENDBRANCH   2   3
ENDBRANCH   1   2
BRANCH   1  10
ATOM     10  C   UNL     1      24.405  23.899  22.842  1.00  0.00     0.000 C 
BRANCH  10  11
ATOM     11  C   UNL     1      22.991  23.525  23.314  1.00  0.00     0.000 C 
BRANCH  11  12
ATOM     12  C   UNL     1      22.185  22.784  22.233  1.00  0.00     0.000 C 
BRANCH  12  13
ATOM     13  C   UNL     1      21.391  21.592  22.798  1.00  0.00     0.000 C 
BRANCH  13  14
ATOM     14  C   UNL     1      21.218  20.407  21.827  1.00  0.00     0.002 C 
BRANCH  14  15
ATOM     15  C   UNL     1      19.777  19.878  21.690  1.00  0.00     0.028 C 
BRANCH  15  16
ATOM     16  C   UNL     1      19.641  18.370  21.937  1.00  0.00     0.156 C 
BRANCH  16  17
ATOM     17  O   UNL     1      19.390  17.688  20.739  1.00  0.00    -0.396 OA
ATOM     18  H   UNL     1      19.720  18.266  20.002  1.00  0.00     0.210 HD
ENDBRANCH  16  17
ENDBRANCH  15  16
ENDBRANCH  14  15
ENDBRANCH  13  14
ENDBRANCH  12  13
ENDBRANCH  11  12
ENDBRANCH  10  11
ENDBRANCH   1  10
TORSDOF 15
ENDMDL
