MODEL 1
REMARK VINA RESULT:    -4.381      0.000      0.000
REMARK INTER + INTRA:          -4.381
REMARK INTER:                  -4.381
REMARK INTRA:                   0.000
REMARK UNBOUND:                 0.000
REMARK SMILES CC1=CC(=O)[C@H]2C[C@@H]1C2(C)C
REMARK SMILES IDX 1 1 2 2 3 3 4 4 5 5 6 6 7 7 8 8 9 9 10 10 11 11
REMARK H PARENT
REMARK Flexibility Score: inf
ROOT
ATOM      1  C   UNL     1      16.404  33.364  33.085  1.00  0.00     0.040 C 
ATOM      2  C   UNL     1      16.118  32.628  31.815  1.00  0.00    -0.066 C 
ATOM      3  C   UNL     1      15.002  31.858  31.678  1.00  0.00     0.047 C 
ATOM      4  C   UNL     1      14.843  31.147  30.368  1.00  0.00     0.159 C 
ATOM      5  O   UNL     1      13.875  30.377  30.135  1.00  0.00    -0.295 OA
ATOM      6  C   UNL     1      15.938  31.423  29.338  1.00  0.00     0.067 C 
ATOM      7  C   UNL     1      16.125  32.955  29.383  1.00  0.00     0.021 C 
ATOM      8  C   UNL     1      17.057  32.718  30.593  1.00  0.00     0.022 C 
ATOM      9  C   UNL     1      17.321  31.289  30.037  1.00  0.00    -0.019 C 
ATOM     10  C   UNL     1      17.525  30.129  31.054  1.00  0.00     0.012 C 
ATOM     11  C   UNL     1      18.493  31.256  29.024  1.00  0.00     0.012 C 
ENDROOT
TORSDOF 0
ENDMDL
MODEL 2
REMARK VINA RESULT:    -4.352      1.269      1.970
REMARK INTER + INTRA:          -4.352
REMARK INTER:                  -4.352
REMARK INTRA:                   0.000
REMARK UNBOUND:                 0.000
REMARK SMILES CC1=CC(=O)[C@H]2C[C@@H]1C2(C)C
REMARK SMILES IDX 1 1 2 2 3 3 4 4 5 5 6 6 7 7 8 8 9 9 10 10 11 11
REMARK H PARENT
REMARK Flexibility Score: inf
ROOT
ATOM      1  C   UNL     1      17.647  29.962  32.866  1.00  0.00     0.040 C 
ATOM      2  C   UNL     1      16.931  30.452  31.648  1.00  0.00    -0.066 C 
ATOM      3  C   UNL     1      16.071  29.649  30.960  1.00  0.00     0.047 C 
ATOM      4  C   UNL     1      15.439  30.246  29.739  1.00  0.00     0.159 C 
ATOM      5  O   UNL     1      14.659  29.592  28.999  1.00  0.00    -0.295 OA
ATOM      6  C   UNL     1      15.809  31.702  29.457  1.00  0.00     0.067 C 
ATOM      7  C   UNL     1      15.682  32.398  30.829  1.00  0.00     0.021 C 
ATOM      8  C   UNL     1      17.112  31.892  31.122  1.00  0.00     0.022 C 
ATOM      9  C   UNL     1      17.351  31.855  29.584  1.00  0.00    -0.019 C 
ATOM     10  C   UNL     1      18.256  30.728  29.008  1.00  0.00     0.012 C 
ATOM     11  C   UNL     1      17.858  33.212  29.032  1.00  0.00     0.012 C 
ENDROOT
TORSDOF 0
ENDMDL
MODEL 3
REMARK VINA RESULT:    -4.266      2.292      3.871
REMARK INTER + INTRA:          -4.266
REMARK INTER:                  -4.266
REMARK INTRA:                   0.000
REMARK UNBOUND:                 0.000
REMARK SMILES CC1=CC(=O)[C@H]2C[C@@H]1C2(C)C
REMARK SMILES IDX 1 1 2 2 3 3 4 4 5 5 6 6 7 7 8 8 9 9 10 10 11 11
REMARK H PARENT
REMARK Flexibility Score: inf
ROOT
ATOM      1  C   UNL     1      18.229  29.316  29.191  1.00  0.00     0.040 C 
ATOM      2  C   UNL     1      17.931  30.768  29.391  1.00  0.00    -0.066 C 
ATOM      3  C   UNL     1      18.815  31.733  29.012  1.00  0.00     0.047 C 
ATOM      4  C   UNL     1      18.414  33.148  29.295  1.00  0.00     0.159 C 
ATOM      5  O   UNL     1      19.162  34.125  29.027  1.00  0.00    -0.295 OA
ATOM      6  C   UNL     1      17.035  33.323  29.931  1.00  0.00     0.067 C 
ATOM      7  C   UNL     1      16.117  32.395  29.106  1.00  0.00     0.021 C 
ATOM      8  C   UNL     1      16.604  31.246  30.018  1.00  0.00     0.022 C 
ATOM      9  C   UNL     1      16.902  32.316  31.108  1.00  0.00    -0.019 C 
ATOM     10  C   UNL     1      18.131  32.098  32.037  1.00  0.00     0.012 C 
ATOM     11  C   UNL     1      15.669  32.610  32.000  1.00  0.00     0.012 C 
ENDROOT
TORSDOF 0
ENDMDL
MODEL 4
REMARK VINA RESULT:    -4.231      2.282      3.422
REMARK INTER + INTRA:          -4.231
REMARK INTER:                  -4.231
REMARK INTRA:                   0.000
REMARK UNBOUND:                 0.000
REMARK SMILES CC1=CC(=O)[C@H]2C[C@@H]1C2(C)C
REMARK SMILES IDX 1 1 2 2 3 3 4 4 5 5 6 6 7 7 8 8 9 9 10 10 11 11
REMARK H PARENT
REMARK Flexibility Score: inf
ROOT
ATOM      1  C   UNL     1      15.007  30.638  29.428  1.00  0.00     0.040 C 
ATOM      2  C   UNL     1      16.304  31.333  29.697  1.00  0.00    -0.066 C 
ATOM      3  C   UNL     1      16.654  32.465  29.024  1.00  0.00     0.047 C 
ATOM      4  C   UNL     1      17.992  33.050  29.361  1.00  0.00     0.159 C 
ATOM      5  O   UNL     1      18.445  34.071  28.780  1.00  0.00    -0.295 OA
ATOM      6  C   UNL     1      18.767  32.320  30.458  1.00  0.00     0.067 C 
ATOM      7  C   UNL     1      17.717  32.070  31.562  1.00  0.00     0.021 C 
ATOM      8  C   UNL     1      17.298  30.818  30.759  1.00  0.00     0.022 C 
ATOM      9  C   UNL     1      18.733  30.795  30.157  1.00  0.00    -0.019 C 
ATOM     10  C   UNL     1      18.905  30.328  28.684  1.00  0.00     0.012 C 
ATOM     11  C   UNL     1      19.730  29.997  31.037  1.00  0.00     0.012 C 
ENDROOT
TORSDOF 0
ENDMDL
MODEL 5
REMARK VINA RESULT:    -4.188      2.631      4.433
REMARK INTER + INTRA:          -4.188
REMARK INTER:                  -4.188
REMARK INTRA:                   0.000
REMARK UNBOUND:                 0.000
REMARK SMILES CC1=CC(=O)[C@H]2C[C@@H]1C2(C)C
REMARK SMILES IDX 1 1 2 2 3 3 4 4 5 5 6 6 7 7 8 8 9 9 10 10 11 11
REMARK H PARENT
REMARK Flexibility Score: inf
ROOT
ATOM      1  C   UNL     1      18.373  27.772  27.630  1.00  0.00     0.040 C 
ATOM      2  C   UNL     1      18.503  28.763  28.742  1.00  0.00    -0.066 C 
ATOM      3  C   UNL     1      18.521  28.368  30.046  1.00  0.00     0.047 C 
ATOM      4  C   UNL     1      18.625  29.458  31.069  1.00  0.00     0.159 C 
ATOM      5  O   UNL     1      18.611  29.223  32.305  1.00  0.00    -0.295 OA
ATOM      6  C   UNL     1      18.747  30.874  30.505  1.00  0.00     0.067 C 
ATOM      7  C   UNL     1      19.799  30.745  29.383  1.00  0.00     0.021 C 
ATOM      8  C   UNL     1      18.643  30.276  28.471  1.00  0.00     0.022 C 
ATOM      9  C   UNL     1      17.670  31.061  29.398  1.00  0.00    -0.019 C 
ATOM     10  C   UNL     1      16.251  30.473  29.641  1.00  0.00     0.012 C 
ATOM     11  C   UNL     1      17.514  32.543  28.971  1.00  0.00     0.012 C 
ENDROOT
TORSDOF 0
ENDMDL
MODEL 6
REMARK VINA RESULT:    -4.102      2.122      3.051
REMARK INTER + INTRA:          -4.102
REMARK INTER:                  -4.102
REMARK INTRA:                   0.000
REMARK UNBOUND:                 0.000
REMARK SMILES CC1=CC(=O)[C@H]2C[C@@H]1C2(C)C
REMARK SMILES IDX 1 1 2 2 3 3 4 4 5 5 6 6 7 7 8 8 9 9 10 10 11 11
REMARK H PARENT
REMARK Flexibility Score: inf
ROOT
ATOM      1  C   UNL     1      14.433  30.707  30.255  1.00  0.00     0.040 C 
ATOM      2  C   UNL     1      15.838  31.072  29.898  1.00  0.00    -0.066 C 
ATOM      3  C   UNL     1      16.702  30.151  29.386  1.00  0.00     0.047 C 
ATOM      4  C   UNL     1      18.092  30.633  29.098  1.00  0.00     0.159 C 
ATOM      5  O   UNL     1      18.991  29.869  28.660  1.00  0.00    -0.295 OA
ATOM      6  C   UNL     1      18.340  32.116  29.374  1.00  0.00     0.067 C 
ATOM      7  C   UNL     1      17.117  32.827  28.755  1.00  0.00     0.021 C 
ATOM      8  C   UNL     1      16.374  32.509  30.073  1.00  0.00     0.022 C 
ATOM      9  C   UNL     1      17.762  32.462  30.776  1.00  0.00    -0.019 C 
ATOM     10  C   UNL     1      17.967  31.442  31.932  1.00  0.00     0.012 C 
ATOM     11  C   UNL     1      18.219  33.857  31.274  1.00  0.00     0.012 C 
ENDROOT
TORSDOF 0
ENDMDL
MODEL 7
REMARK VINA RESULT:    -4.090      1.788      2.892
REMARK INTER + INTRA:          -4.090
REMARK INTER:                  -4.090
REMARK INTRA:                   0.000
REMARK UNBOUND:                 0.000
REMARK SMILES CC1=CC(=O)[C@H]2C[C@@H]1C2(C)C
REMARK SMILES IDX 1 1 2 2 3 3 4 4 5 5 6 6 7 7 8 8 9 9 10 10 11 11
REMARK H PARENT
REMARK Flexibility Score: inf
ROOT
ATOM      1  C   UNL     1      19.775  32.304  29.672  1.00  0.00     0.040 C 
ATOM      2  C   UNL     1      18.364  32.386  30.161  1.00  0.00    -0.066 C 
ATOM      3  C   UNL     1      18.061  32.963  31.358  1.00  0.00     0.047 C 
ATOM      4  C   UNL     1      16.615  32.955  31.750  1.00  0.00     0.159 C 
ATOM      5  O   UNL     1      16.214  33.422  32.848  1.00  0.00    -0.295 OA
ATOM      6  C   UNL     1      15.662  32.341  30.725  1.00  0.00     0.067 C 
ATOM      7  C   UNL     1      16.109  32.951  29.379  1.00  0.00     0.021 C 
ATOM      8  C   UNL     1      17.183  31.841  29.330  1.00  0.00     0.022 C 
ATOM      9  C   UNL     1      16.258  30.987  30.245  1.00  0.00    -0.019 C 
ATOM     10  C   UNL     1      16.922  30.056  31.300  1.00  0.00     0.012 C 
ATOM     11  C   UNL     1      15.237  30.148  29.434  1.00  0.00     0.012 C 
ENDROOT
TORSDOF 0
ENDMDL
MODEL 8
REMARK VINA RESULT:    -4.077      1.546      3.024
REMARK INTER + INTRA:          -4.077
REMARK INTER:                  -4.077
REMARK INTRA:                   0.000
REMARK UNBOUND:                 0.000
REMARK SMILES CC1=CC(=O)[C@H]2C[C@@H]1C2(C)C
REMARK SMILES IDX 1 1 2 2 3 3 4 4 5 5 6 6 7 7 8 8 9 9 10 10 11 11
REMARK H PARENT
REMARK Flexibility Score: inf
ROOT
ATOM      1  C   UNL     1      17.209  29.128  29.378  1.00  0.00     0.040 C 
ATOM      2  C   UNL     1      17.024  30.438  30.076  1.00  0.00    -0.066 C 
ATOM      3  C   UNL     1      15.853  30.751  30.699  1.00  0.00     0.047 C 
ATOM      4  C   UNL     1      15.781  32.105  31.336  1.00  0.00     0.159 C 
ATOM      5  O   UNL     1      14.741  32.525  31.906  1.00  0.00    -0.295 OA
ATOM      6  C   UNL     1      17.058  32.940  31.243  1.00  0.00     0.067 C 
ATOM      7  C   UNL     1      18.185  31.953  31.618  1.00  0.00     0.021 C 
ATOM      8  C   UNL     1      18.152  31.490  30.143  1.00  0.00     0.022 C 
ATOM      9  C   UNL     1      17.578  32.889  29.777  1.00  0.00    -0.019 C 
ATOM     10  C   UNL     1      16.540  32.979  28.622  1.00  0.00     0.012 C 
ATOM     11  C   UNL     1      18.692  33.933  29.509  1.00  0.00     0.012 C 
ENDROOT
TORSDOF 0
ENDMDL
MODEL 9
REMARK VINA RESULT:    -4.075      2.427      3.651
REMARK INTER + INTRA:          -4.075
REMARK INTER:                  -4.075
REMARK INTRA:                   0.000
REMARK UNBOUND:                 0.000
REMARK SMILES CC1=CC(=O)[C@H]2C[C@@H]1C2(C)C
REMARK SMILES IDX 1 1 2 2 3 3 4 4 5 5 6 6 7 7 8 8 9 9 10 10 11 11
REMARK H PARENT
REMARK Flexibility Score: inf
ROOT
ATOM      1  C   UNL     1      19.572  30.733  32.474  1.00  0.00     0.040 C 
ATOM      2  C   UNL     1      18.990  31.323  31.229  1.00  0.00    -0.066 C 
ATOM      3  C   UNL     1      19.426  32.517  30.739  1.00  0.00     0.047 C 
ATOM      4  C   UNL     1      18.742  33.017  29.503  1.00  0.00     0.159 C 
ATOM      5  O   UNL     1      19.028  34.125  28.978  1.00  0.00    -0.295 OA
ATOM      6  C   UNL     1      17.674  32.088  28.926  1.00  0.00     0.067 C 
ATOM      7  C   UNL     1      18.332  30.692  28.951  1.00  0.00     0.021 C 
ATOM      8  C   UNL     1      17.884  30.603  30.428  1.00  0.00     0.022 C 
ATOM      9  C   UNL     1      16.752  31.614  30.085  1.00  0.00    -0.019 C 
ATOM     10  C   UNL     1      16.336  32.649  31.170  1.00  0.00     0.012 C 
ATOM     11  C   UNL     1      15.470  30.912  29.569  1.00  0.00     0.012 C 
ENDROOT
TORSDOF 0
ENDMDL
