MODEL 1
REMARK VINA RESULT:    -7.996      0.000      0.000
REMARK INTER + INTRA:         -14.030
REMARK INTER:                 -13.138
REMARK INTRA:                  -0.892
REMARK UNBOUND:                -0.892
REMARK SMILES C[C@@H]1O[C@@H](OC[C@@H]2O[C@@H](Oc3c(-c4ccc(O)c(O)c4)oc4cc(O)cc(O)c4c3=O)[C@H](O)[C@@H](O)[C@@H]2O)[C@@H](O)[C@@H](O)[C@H]1O
REMARK SMILES IDX 7 1 36 2 34 3 32 4 9 5 8 6 6 7 5 8 4 9 1 10 2 11 42 12 3 13
REMARK SMILES IDX 40 14 38 15 43 16 41 18 39 20 37 22 35 24 10 26 11 27 12 28
REMARK SMILES IDX 30 29 21 30 29 31 31 32 22 33 27 34 23 35 26 36 24 37 13 38
REMARK SMILES IDX 20 39 14 40 18 41 15 42 16 43 19 44 17 46 28 48 25 50 33 52
REMARK H PARENT 43 17 41 19 39 21 37 23 35 25 19 45 17 47 28 49 25 51 33 53
REMARK Flexibility Score: inf
ROOT
ATOM      1  C   UNL     1     175.580 170.247 177.385  1.00  0.00     0.180 C 
ATOM      2  C   UNL     1     175.281 168.735 177.205  1.00  0.00     0.177 C 
ATOM      3  C   UNL     1     176.566 167.920 177.385  1.00  0.00     0.180 C 
ATOM      4  C   UNL     1     177.766 168.543 176.599  1.00  0.00     0.214 C 
ATOM      5  C   UNL     1     177.832 170.079 176.734  1.00  0.00     0.339 C 
ATOM      6  O   UNL     1     176.577 170.686 176.478  1.00  0.00    -0.332 OA
ENDROOT
BRANCH   1   7
ATOM      7  C   UNL     1     174.329 171.145 177.244  1.00  0.00     0.198 C 
BRANCH   7   8
ATOM      8  O   UNL     1     173.300 170.478 176.524  1.00  0.00    -0.347 OA
BRANCH   8   9
ATOM      9  C   UNL     1     172.050 170.562 177.209  1.00  0.00     0.281 C 
ATOM     10  C   UNL     1     171.742 167.386 179.115  1.00  0.00     0.041 C 
ATOM     11  C   UNL     1     171.845 168.274 177.864  1.00  0.00     0.150 C 
ATOM     12  C   UNL     1     170.598 168.089 176.990  1.00  0.00     0.174 C 
ATOM     13  O   UNL     1     171.957 169.631 178.275  1.00  0.00    -0.344 OA
ATOM     14  C   UNL     1     170.761 168.962 175.724  1.00  0.00     0.179 C 
ATOM     15  C   UNL     1     170.886 170.426 176.176  1.00  0.00     0.202 C 
BRANCH  12  16
ATOM     16  O   UNL     1     170.442 166.753 176.621  1.00  0.00    -0.388 OA
ATOM     17  H   UNL     1     171.344 166.360 176.691  1.00  0.00     0.211 HD
ENDBRANCH  12  16
BRANCH  14  18
ATOM     18  O   UNL     1     171.939 168.582 175.030  1.00  0.00    -0.387 OA
ATOM     19  H   UNL     1     171.666 167.986 174.288  1.00  0.00     0.211 HD
ENDBRANCH  14  18
BRANCH  15  20
ATOM     20  O   UNL     1     171.164 171.210 175.029  1.00  0.00    -0.385 OA
ATOM     21  H   UNL     1     172.125 171.084 174.802  1.00  0.00     0.211 HD
ENDBRANCH  15  20
ENDBRANCH   8   9
ENDBRANCH   7   8
ENDBRANCH   1   7
BRANCH   2  22
ATOM     22  O   UNL     1     174.683 168.416 175.956  1.00  0.00    -0.387 OA
ATOM     23  H   UNL     1     175.361 168.021 175.363  1.00  0.00     0.211 HD
ENDBRANCH   2  22
BRANCH   3  24
ATOM     24  O   UNL     1     176.848 167.693 178.747  1.00  0.00    -0.387 OA
ATOM     25  H   UNL     1     176.083 167.221 179.153  1.00  0.00     0.211 HD
ENDBRANCH   3  24
BRANCH   5  26
ATOM     26  O   UNL     1     178.348 170.483 177.997  1.00  0.00    -0.454 OA
BRANCH  26  27
ATOM     27  C   UNL     1     179.246 169.767 178.823  1.00  0.00     0.214 A 
ATOM     28  C   UNL     1     180.545 169.506 178.330  1.00  0.00     0.180 A 
ATOM     29  C   UNL     1     178.928 169.344 180.138  1.00  0.00     0.239 A 
ATOM     30  O   UNL     1     181.480 169.011 179.140  1.00  0.00    -0.452 OA
ATOM     31  C   UNL     1     179.918 168.756 180.950  1.00  0.00     0.111 A 
ATOM     32  O   UNL     1     177.783 169.558 180.594  1.00  0.00    -0.285 OA
ATOM     33  C   UNL     1     181.237 168.671 180.406  1.00  0.00     0.146 A 
ATOM     34  C   UNL     1     179.708 168.266 182.279  1.00  0.00     0.134 A 
ATOM     35  C   UNL     1     182.308 168.203 181.188  1.00  0.00     0.094 A 
ATOM     36  C   UNL     1     180.807 167.841 183.048  1.00  0.00     0.093 A 
ATOM     37  C   UNL     1     182.098 167.816 182.514  1.00  0.00     0.123 A 
BRANCH  28  38
ATOM     38  C   UNL     1     180.916 169.806 176.928  1.00  0.00     0.025 A 
ATOM     39  C   UNL     1     181.387 168.789 176.068  1.00  0.00     0.062 A 
ATOM     40  C   UNL     1     180.880 171.138 176.470  1.00  0.00     0.016 A 
ATOM     41  C   UNL     1     181.838 169.101 174.775  1.00  0.00     0.158 A 
ATOM     42  C   UNL     1     181.343 171.446 175.178  1.00  0.00     0.051 A 
ATOM     43  C   UNL     1     181.821 170.434 174.332  1.00  0.00     0.157 A 
BRANCH  41  44
ATOM     44  O   UNL     1     182.303 168.087 173.944  1.00  0.00    -0.504 OA
ATOM     45  H   UNL     1     183.276 167.801 173.963  1.00  0.00     0.293 HD
ENDBRANCH  41  44
BRANCH  43  46
ATOM     46  O   UNL     1     182.283 170.744 173.057  1.00  0.00    -0.504 OA
ATOM     47  H   UNL     1     183.146 170.329 172.676  1.00  0.00     0.293 HD
ENDBRANCH  43  46
ENDBRANCH  28  38
BRANCH  34  48
ATOM     48  O   UNL     1     178.440 168.103 182.865  1.00  0.00    -0.507 OA
ATOM     49  H   UNL     1     177.751 167.441 182.578  1.00  0.00     0.293 HD
ENDBRANCH  34  48
BRANCH  37  50
ATOM     50  O   UNL     1     183.183 167.392 183.286  1.00  0.00    -0.508 OA
ATOM     51  H   UNL     1     183.440 166.420 183.337  1.00  0.00     0.293 HD
ENDBRANCH  37  50
ENDBRANCH  26  27
ENDBRANCH   5  26
BRANCH   4  52
ATOM     52  O   UNL     1     177.676 168.239 175.238  1.00  0.00    -0.384 OA
ATOM     53  H   UNL     1     177.799 169.083 174.729  1.00  0.00     0.211 HD
ENDBRANCH   4  52
TORSDOF 16
ENDMDL
MODEL 2
REMARK VINA RESULT:    -7.393      1.863      5.567
REMARK INTER + INTRA:         -13.039
REMARK INTER:                 -11.401
REMARK INTRA:                  -1.638
REMARK UNBOUND:                -0.892
REMARK SMILES C[C@@H]1O[C@@H](OC[C@@H]2O[C@@H](Oc3c(-c4ccc(O)c(O)c4)oc4cc(O)cc(O)c4c3=O)[C@H](O)[C@@H](O)[C@@H]2O)[C@@H](O)[C@@H](O)[C@H]1O
REMARK SMILES IDX 7 1 36 2 34 3 32 4 9 5 8 6 6 7 5 8 4 9 1 10 2 11 42 12 3 13
REMARK SMILES IDX 40 14 38 15 43 16 41 18 39 20 37 22 35 24 10 26 11 27 12 28
REMARK SMILES IDX 30 29 21 30 29 31 31 32 22 33 27 34 23 35 26 36 24 37 13 38
REMARK SMILES IDX 20 39 14 40 18 41 15 42 16 43 19 44 17 46 28 48 25 50 33 52
REMARK H PARENT 43 17 41 19 39 21 37 23 35 25 19 45 17 47 28 49 25 51 33 53
REMARK Flexibility Score: inf
ROOT
ATOM      1  C   UNL     1     175.792 168.692 177.264  1.00  0.00     0.180 C 
ATOM      2  C   UNL     1     175.188 167.368 177.805  1.00  0.00     0.177 C 
ATOM      3  C   UNL     1     176.049 166.180 177.365  1.00  0.00     0.180 C 
ATOM      4  C   UNL     1     176.429 166.265 175.849  1.00  0.00     0.214 C 
ATOM      5  C   UNL     1     176.844 167.687 175.419  1.00  0.00     0.339 C 
ATOM      6  O   UNL     1     175.913 168.663 175.852  1.00  0.00    -0.332 OA
ENDROOT
BRANCH   1   7
ATOM      7  C   UNL     1     174.997 169.950 177.684  1.00  0.00     0.198 C 
BRANCH   7   8
ATOM      8  O   UNL     1     173.793 170.067 176.936  1.00  0.00    -0.347 OA
BRANCH   8   9
ATOM      9  C   UNL     1     172.651 170.101 177.792  1.00  0.00     0.281 C 
ATOM     10  C   UNL     1     170.255 167.650 176.355  1.00  0.00     0.041 C 
ATOM     11  C   UNL     1     171.117 168.923 176.391  1.00  0.00     0.150 C 
ATOM     12  C   UNL     1     170.222 170.162 176.252  1.00  0.00     0.174 C 
ATOM     13  O   UNL     1     171.820 168.963 177.626  1.00  0.00    -0.344 OA
ATOM     14  C   UNL     1     171.129 171.414 176.248  1.00  0.00     0.179 C 
ATOM     15  C   UNL     1     171.890 171.449 177.583  1.00  0.00     0.202 C 
BRANCH  12  16
ATOM     16  O   UNL     1     169.484 170.113 175.070  1.00  0.00    -0.388 OA
ATOM     17  H   UNL     1     168.609 169.739 175.329  1.00  0.00     0.211 HD
ENDBRANCH  12  16
BRANCH  14  18
ATOM     18  O   UNL     1     172.059 171.328 175.180  1.00  0.00    -0.387 OA
ATOM     19  H   UNL     1     172.650 172.121 175.237  1.00  0.00     0.211 HD
ENDBRANCH  14  18
BRANCH  15  20
ATOM     20  O   UNL     1     172.814 172.522 177.527  1.00  0.00    -0.385 OA
ATOM     21  H   UNL     1     173.425 172.355 176.759  1.00  0.00     0.211 HD
ENDBRANCH  15  20
ENDBRANCH   8   9
ENDBRANCH   7   8
ENDBRANCH   1   7
BRANCH   2  22
ATOM     22  O   UNL     1     173.839 167.153 177.412  1.00  0.00    -0.387 OA
ATOM     23  H   UNL     1     173.467 167.992 177.057  1.00  0.00     0.211 HD
ENDBRANCH   2  22
BRANCH   3  24
ATOM     24  O   UNL     1     177.163 166.007 178.210  1.00  0.00    -0.387 OA
ATOM     25  H   UNL     1     176.941 166.366 179.102  1.00  0.00     0.211 HD
ENDBRANCH   3  24
BRANCH   5  26
ATOM     26  O   UNL     1     178.162 168.011 175.847  1.00  0.00    -0.454 OA
BRANCH  26  27
ATOM     27  C   UNL     1     178.956 169.101 175.422  1.00  0.00     0.214 A 
ATOM     28  C   UNL     1     179.879 169.655 176.340  1.00  0.00     0.180 A 
ATOM     29  C   UNL     1     178.912 169.634 174.110  1.00  0.00     0.239 A 
ATOM     30  O   UNL     1     180.778 170.547 175.927  1.00  0.00    -0.452 OA
ATOM     31  C   UNL     1     179.828 170.631 173.720  1.00  0.00     0.111 A 
ATOM     32  O   UNL     1     178.100 169.165 173.282  1.00  0.00    -0.285 OA
ATOM     33  C   UNL     1     180.814 171.017 174.680  1.00  0.00     0.146 A 
ATOM     34  C   UNL     1     179.861 171.261 172.434  1.00  0.00     0.134 A 
ATOM     35  C   UNL     1     181.836 171.921 174.337  1.00  0.00     0.094 A 
ATOM     36  C   UNL     1     180.918 172.131 172.110  1.00  0.00     0.093 A 
ATOM     37  C   UNL     1     181.903 172.454 173.048  1.00  0.00     0.123 A 
BRANCH  28  38
ATOM     38  C   UNL     1     179.902 169.238 177.761  1.00  0.00     0.025 A 
ATOM     39  C   UNL     1     178.782 169.449 178.597  1.00  0.00     0.062 A 
ATOM     40  C   UNL     1     181.084 168.703 178.309  1.00  0.00     0.016 A 
ATOM     41  C   UNL     1     178.851 169.150 179.968  1.00  0.00     0.158 A 
ATOM     42  C   UNL     1     181.150 168.415 179.684  1.00  0.00     0.051 A 
ATOM     43  C   UNL     1     180.040 168.637 180.513  1.00  0.00     0.157 A 
BRANCH  41  44
ATOM     44  O   UNL     1     177.741 169.369 180.777  1.00  0.00    -0.504 OA
ATOM     45  H   UNL     1     176.814 169.076 180.483  1.00  0.00     0.293 HD
ENDBRANCH  41  44
BRANCH  43  46
ATOM     46  O   UNL     1     180.112 168.357 181.873  1.00  0.00    -0.504 OA
ATOM     47  H   UNL     1     179.290 168.032 182.405  1.00  0.00     0.293 HD
ENDBRANCH  43  46
ENDBRANCH  28  38
BRANCH  34  48
ATOM     48  O   UNL     1     178.846 171.130 171.470  1.00  0.00    -0.507 OA
ATOM     49  H   UNL     1     178.415 171.883 170.977  1.00  0.00     0.293 HD
ENDBRANCH  34  48
BRANCH  37  50
ATOM     50  O   UNL     1     182.949 173.320 172.716  1.00  0.00    -0.508 OA
ATOM     51  H   UNL     1     183.879 172.975 172.543  1.00  0.00     0.293 HD
ENDBRANCH  37  50
ENDBRANCH  26  27
ENDBRANCH   5  26
BRANCH   4  52
ATOM     52  O   UNL     1     175.351 165.875 175.049  1.00  0.00    -0.384 OA
ATOM     53  H   UNL     1     175.129 166.635 174.448  1.00  0.00     0.211 HD
ENDBRANCH   4  52
TORSDOF 16
ENDMDL
MODEL 3
REMARK VINA RESULT:    -7.344      1.954      5.671
REMARK INTER + INTRA:         -12.959
REMARK INTER:                 -11.251
REMARK INTRA:                  -1.707
REMARK UNBOUND:                -0.892
REMARK SMILES C[C@@H]1O[C@@H](OC[C@@H]2O[C@@H](Oc3c(-c4ccc(O)c(O)c4)oc4cc(O)cc(O)c4c3=O)[C@H](O)[C@@H](O)[C@@H]2O)[C@@H](O)[C@@H](O)[C@H]1O
REMARK SMILES IDX 7 1 36 2 34 3 32 4 9 5 8 6 6 7 5 8 4 9 1 10 2 11 42 12 3 13
REMARK SMILES IDX 40 14 38 15 43 16 41 18 39 20 37 22 35 24 10 26 11 27 12 28
REMARK SMILES IDX 30 29 21 30 29 31 31 32 22 33 27 34 23 35 26 36 24 37 13 38
REMARK SMILES IDX 20 39 14 40 18 41 15 42 16 43 19 44 17 46 28 48 25 50 33 52
REMARK H PARENT 43 17 41 19 39 21 37 23 35 25 19 45 17 47 28 49 25 51 33 53
REMARK Flexibility Score: inf
ROOT
ATOM      1  C   UNL     1     175.754 168.480 176.650  1.00  0.00     0.180 C 
ATOM      2  C   UNL     1     175.757 167.720 178.003  1.00  0.00     0.177 C 
ATOM      3  C   UNL     1     177.174 167.688 178.585  1.00  0.00     0.180 C 
ATOM      4  C   UNL     1     178.238 167.300 177.506  1.00  0.00     0.214 C 
ATOM      5  C   UNL     1     178.002 168.007 176.156  1.00  0.00     0.339 C 
ATOM      6  O   UNL     1     176.656 167.893 175.728  1.00  0.00    -0.332 OA
ENDROOT
BRANCH   1   7
ATOM      7  C   UNL     1     174.354 168.582 176.002  1.00  0.00     0.198 C 
BRANCH   7   8
ATOM      8  O   UNL     1     173.375 168.969 176.959  1.00  0.00    -0.347 OA
BRANCH   8   9
ATOM      9  C   UNL     1     172.486 169.949 176.424  1.00  0.00     0.281 C 
ATOM     10  C   UNL     1     172.878 172.941 178.596  1.00  0.00     0.041 C 
ATOM     11  C   UNL     1     172.508 171.488 178.251  1.00  0.00     0.150 C 
ATOM     12  C   UNL     1     171.018 171.251 178.527  1.00  0.00     0.174 C 
ATOM     13  O   UNL     1     172.793 171.258 176.877  1.00  0.00    -0.344 OA
ATOM     14  C   UNL     1     170.697 169.772 178.211  1.00  0.00     0.179 C 
ATOM     15  C   UNL     1     171.013 169.529 176.726  1.00  0.00     0.202 C 
BRANCH  12  16
ATOM     16  O   UNL     1     170.708 171.524 179.859  1.00  0.00    -0.388 OA
ATOM     17  H   UNL     1     170.238 172.389 179.842  1.00  0.00     0.211 HD
ENDBRANCH  12  16
BRANCH  14  18
ATOM     18  O   UNL     1     171.511 168.925 179.008  1.00  0.00    -0.387 OA
ATOM     19  H   UNL     1     171.325 167.992 178.734  1.00  0.00     0.211 HD
ENDBRANCH  14  18
BRANCH  15  20
ATOM     20  O   UNL     1     170.842 168.146 176.468  1.00  0.00    -0.385 OA
ATOM     21  H   UNL     1     170.782 167.680 177.346  1.00  0.00     0.211 HD
ENDBRANCH  15  20
ENDBRANCH   8   9
ENDBRANCH   7   8
ENDBRANCH   1   7
BRANCH   2  22
ATOM     22  O   UNL     1     175.246 166.397 177.916  1.00  0.00    -0.387 OA
ATOM     23  H   UNL     1     175.756 165.896 177.240  1.00  0.00     0.211 HD
ENDBRANCH   2  22
BRANCH   3  24
ATOM     24  O   UNL     1     177.480 168.884 179.266  1.00  0.00    -0.387 OA
ATOM     25  H   UNL     1     176.850 168.989 180.017  1.00  0.00     0.211 HD
ENDBRANCH   3  24
BRANCH   5  26
ATOM     26  O   UNL     1     178.416 169.368 176.186  1.00  0.00    -0.454 OA
BRANCH  26  27
ATOM     27  C   UNL     1     179.459 169.963 175.439  1.00  0.00     0.214 A 
ATOM     28  C   UNL     1     180.777 169.877 175.944  1.00  0.00     0.180 A 
ATOM     29  C   UNL     1     179.260 170.595 174.186  1.00  0.00     0.239 A 
ATOM     30  O   UNL     1     181.809 170.247 175.186  1.00  0.00    -0.452 OA
ATOM     31  C   UNL     1     180.364 171.044 173.436  1.00  0.00     0.111 A 
ATOM     32  O   UNL     1     178.102 170.688 173.721  1.00  0.00    -0.285 OA
ATOM     33  C   UNL     1     181.663 170.777 173.972  1.00  0.00     0.146 A 
ATOM     34  C   UNL     1     180.285 171.718 172.176  1.00  0.00     0.134 A 
ATOM     35  C   UNL     1     182.821 171.088 173.236  1.00  0.00     0.094 A 
ATOM     36  C   UNL     1     181.460 171.981 171.449  1.00  0.00     0.093 A 
ATOM     37  C   UNL     1     182.719 171.663 171.968  1.00  0.00     0.123 A 
BRANCH  28  38
ATOM     38  C   UNL     1     181.054 169.342 177.298  1.00  0.00     0.025 A 
ATOM     39  C   UNL     1     181.484 168.008 177.476  1.00  0.00     0.062 A 
ATOM     40  C   UNL     1     180.802 170.145 178.426  1.00  0.00     0.016 A 
ATOM     41  C   UNL     1     181.640 167.477 178.768  1.00  0.00     0.158 A 
ATOM     42  C   UNL     1     180.950 169.606 179.717  1.00  0.00     0.051 A 
ATOM     43  C   UNL     1     181.366 168.277 179.890  1.00  0.00     0.157 A 
BRANCH  41  44
ATOM     44  O   UNL     1     182.060 166.160 178.924  1.00  0.00    -0.504 OA
ATOM     45  H   UNL     1     181.703 165.584 179.679  1.00  0.00     0.293 HD
ENDBRANCH  41  44
BRANCH  43  46
ATOM     46  O   UNL     1     181.506 167.745 181.167  1.00  0.00    -0.504 OA
ATOM     47  H   UNL     1     181.656 168.344 181.992  1.00  0.00     0.293 HD
ENDBRANCH  43  46
ENDBRANCH  28  38
BRANCH  34  48
ATOM     48  O   UNL     1     179.090 172.219 171.628  1.00  0.00    -0.507 OA
ATOM     49  H   UNL     1     178.415 171.684 171.125  1.00  0.00     0.293 HD
ENDBRANCH  34  48
BRANCH  37  50
ATOM     50  O   UNL     1     183.880 171.928 171.238  1.00  0.00    -0.508 OA
ATOM     51  H   UNL     1     183.872 172.556 170.451  1.00  0.00     0.293 HD
ENDBRANCH  37  50
ENDBRANCH  26  27
ENDBRANCH   5  26
BRANCH   4  52
ATOM     52  O   UNL     1     178.223 165.921 177.274  1.00  0.00    -0.384 OA
ATOM     53  H   UNL     1     178.546 165.471 178.098  1.00  0.00     0.211 HD
ENDBRANCH   4  52
TORSDOF 16
ENDMDL
MODEL 4
REMARK VINA RESULT:    -7.320      1.847      2.896
REMARK INTER + INTRA:         -12.919
REMARK INTER:                 -11.474
REMARK INTRA:                  -1.445
REMARK UNBOUND:                -0.892
REMARK SMILES C[C@@H]1O[C@@H](OC[C@@H]2O[C@@H](Oc3c(-c4ccc(O)c(O)c4)oc4cc(O)cc(O)c4c3=O)[C@H](O)[C@@H](O)[C@@H]2O)[C@@H](O)[C@@H](O)[C@H]1O
REMARK SMILES IDX 7 1 36 2 34 3 32 4 9 5 8 6 6 7 5 8 4 9 1 10 2 11 42 12 3 13
REMARK SMILES IDX 40 14 38 15 43 16 41 18 39 20 37 22 35 24 10 26 11 27 12 28
REMARK SMILES IDX 30 29 21 30 29 31 31 32 22 33 27 34 23 35 26 36 24 37 13 38
REMARK SMILES IDX 20 39 14 40 18 41 15 42 16 43 19 44 17 46 28 48 25 50 33 52
REMARK H PARENT 43 17 41 19 39 21 37 23 35 25 19 45 17 47 28 49 25 51 33 53
REMARK Flexibility Score: inf
ROOT
ATOM      1  C   UNL     1     176.546 170.435 176.874  1.00  0.00     0.180 C 
ATOM      2  C   UNL     1     177.285 171.219 175.756  1.00  0.00     0.177 C 
ATOM      3  C   UNL     1     178.798 171.007 175.879  1.00  0.00     0.180 C 
ATOM      4  C   UNL     1     179.290 171.166 177.356  1.00  0.00     0.214 C 
ATOM      5  C   UNL     1     178.356 170.477 178.372  1.00  0.00     0.339 C 
ATOM      6  O   UNL     1     176.998 170.822 178.160  1.00  0.00    -0.332 OA
ENDROOT
BRANCH   1   7
ATOM      7  C   UNL     1     175.007 170.572 176.809  1.00  0.00     0.198 C 
BRANCH   7   8
ATOM      8  O   UNL     1     174.374 169.309 176.968  1.00  0.00    -0.347 OA
BRANCH   8   9
ATOM      9  C   UNL     1     173.100 169.282 176.325  1.00  0.00     0.281 C 
ATOM     10  C   UNL     1     170.681 170.526 178.859  1.00  0.00     0.041 C 
ATOM     11  C   UNL     1     171.720 169.567 178.254  1.00  0.00     0.150 C 
ATOM     12  C   UNL     1     171.099 168.175 178.071  1.00  0.00     0.174 C 
ATOM     13  O   UNL     1     172.141 170.083 176.998  1.00  0.00    -0.344 OA
ATOM     14  C   UNL     1     172.186 167.233 177.504  1.00  0.00     0.179 C 
ATOM     15  C   UNL     1     172.641 167.800 176.150  1.00  0.00     0.202 C 
BRANCH  12  16
ATOM     16  O   UNL     1     170.631 167.675 179.285  1.00  0.00    -0.388 OA
ATOM     17  H   UNL     1     169.651 167.643 179.189  1.00  0.00     0.211 HD
ENDBRANCH  12  16
BRANCH  14  18
ATOM     18  O   UNL     1     173.293 167.192 178.391  1.00  0.00    -0.387 OA
ATOM     19  H   UNL     1     173.050 167.720 179.193  1.00  0.00     0.211 HD
ENDBRANCH  14  18
BRANCH  15  20
ATOM     20  O   UNL     1     173.725 167.010 175.692  1.00  0.00    -0.385 OA
ATOM     21  H   UNL     1     173.374 166.389 174.997  1.00  0.00     0.211 HD
ENDBRANCH  15  20
ENDBRANCH   8   9
ENDBRANCH   7   8
ENDBRANCH   1   7
BRANCH   2  22
ATOM     22  O   UNL     1     176.996 172.610 175.747  1.00  0.00    -0.387 OA
ATOM     23  H   UNL     1     176.048 172.743 175.518  1.00  0.00     0.211 HD
ENDBRANCH   2  22
BRANCH   3  24
ATOM     24  O   UNL     1     179.200 169.795 175.284  1.00  0.00    -0.387 OA
ATOM     25  H   UNL     1     178.822 169.750 174.374  1.00  0.00     0.211 HD
ENDBRANCH   3  24
BRANCH   5  26
ATOM     26  O   UNL     1     178.528 169.064 178.383  1.00  0.00    -0.454 OA
BRANCH  26  27
ATOM     27  C   UNL     1     179.322 168.306 179.275  1.00  0.00     0.214 A 
ATOM     28  C   UNL     1     180.205 167.344 178.733  1.00  0.00     0.180 A 
ATOM     29  C   UNL     1     179.317 168.496 180.679  1.00  0.00     0.239 A 
ATOM     30  O   UNL     1     181.107 166.749 179.512  1.00  0.00    -0.452 OA
ATOM     31  C   UNL     1     180.232 167.799 181.491  1.00  0.00     0.111 A 
ATOM     32  O   UNL     1     178.539 169.337 181.184  1.00  0.00    -0.285 OA
ATOM     33  C   UNL     1     181.180 166.960 180.827  1.00  0.00     0.146 A 
ATOM     34  C   UNL     1     180.302 167.888 182.919  1.00  0.00     0.134 A 
ATOM     35  C   UNL     1     182.202 166.317 181.549  1.00  0.00     0.094 A 
ATOM     36  C   UNL     1     181.358 167.265 183.607  1.00  0.00     0.093 A 
ATOM     37  C   UNL     1     182.307 166.491 182.931  1.00  0.00     0.123 A 
BRANCH  28  38
ATOM     38  C   UNL     1     180.185 167.001 177.291  1.00  0.00     0.025 A 
ATOM     39  C   UNL     1     181.210 167.444 176.426  1.00  0.00     0.062 A 
ATOM     40  C   UNL     1     179.086 166.298 176.760  1.00  0.00     0.016 A 
ATOM     41  C   UNL     1     181.127 167.206 175.043  1.00  0.00     0.158 A 
ATOM     42  C   UNL     1     179.004 166.071 175.374  1.00  0.00     0.051 A 
ATOM     43  C   UNL     1     180.018 166.523 174.517  1.00  0.00     0.157 A 
BRANCH  41  44
ATOM     44  O   UNL     1     182.144 167.654 174.206  1.00  0.00    -0.504 OA
ATOM     45  H   UNL     1     181.955 167.899 173.240  1.00  0.00     0.293 HD
ENDBRANCH  41  44
BRANCH  43  46
ATOM     46  O   UNL     1     179.930 166.303 173.147  1.00  0.00    -0.504 OA
ATOM     47  H   UNL     1     180.171 167.035 172.462  1.00  0.00     0.293 HD
ENDBRANCH  43  46
ENDBRANCH  28  38
BRANCH  34  48
ATOM     48  O   UNL     1     179.322 168.509 183.714  1.00  0.00    -0.507 OA
ATOM     49  H   UNL     1     179.199 168.370 184.695  1.00  0.00     0.293 HD
ENDBRANCH  34  48
BRANCH  37  50
ATOM     50  O   UNL     1     183.352 165.875 183.624  1.00  0.00    -0.508 OA
ATOM     51  H   UNL     1     183.542 164.892 183.519  1.00  0.00     0.293 HD
ENDBRANCH  37  50
ENDBRANCH  26  27
ENDBRANCH   5  26
BRANCH   4  52
ATOM     52  O   UNL     1     179.376 172.517 177.704  1.00  0.00    -0.384 OA
ATOM     53  H   UNL     1     178.560 172.749 178.221  1.00  0.00     0.211 HD
ENDBRANCH   4  52
TORSDOF 16
ENDMDL
MODEL 5
REMARK VINA RESULT:    -7.270      1.688      5.314
REMARK INTER + INTRA:         -12.837
REMARK INTER:                 -11.093
REMARK INTRA:                  -1.744
REMARK UNBOUND:                -0.892
REMARK SMILES C[C@@H]1O[C@@H](OC[C@@H]2O[C@@H](Oc3c(-c4ccc(O)c(O)c4)oc4cc(O)cc(O)c4c3=O)[C@H](O)[C@@H](O)[C@@H]2O)[C@@H](O)[C@@H](O)[C@H]1O
REMARK SMILES IDX 7 1 36 2 34 3 32 4 9 5 8 6 6 7 5 8 4 9 1 10 2 11 42 12 3 13
REMARK SMILES IDX 40 14 38 15 43 16 41 18 39 20 37 22 35 24 10 26 11 27 12 28
REMARK SMILES IDX 30 29 21 30 29 31 31 32 22 33 27 34 23 35 26 36 24 37 13 38
REMARK SMILES IDX 20 39 14 40 18 41 15 42 16 43 19 44 17 46 28 48 25 50 33 52
REMARK H PARENT 43 17 41 19 39 21 37 23 35 25 19 45 17 47 28 49 25 51 33 53
REMARK Flexibility Score: inf
ROOT
ATOM      1  C   UNL     1     175.840 169.734 177.351  1.00  0.00     0.180 C 
ATOM      2  C   UNL     1     175.609 168.364 178.043  1.00  0.00     0.177 C 
ATOM      3  C   UNL     1     176.836 167.466 177.855  1.00  0.00     0.180 C 
ATOM      4  C   UNL     1     177.347 167.481 176.376  1.00  0.00     0.214 C 
ATOM      5  C   UNL     1     177.358 168.897 175.764  1.00  0.00     0.339 C 
ATOM      6  O   UNL     1     176.130 169.572 175.973  1.00  0.00    -0.332 OA
ENDROOT
BRANCH   1   7
ATOM      7  C   UNL     1     174.657 170.716 177.514  1.00  0.00     0.198 C 
BRANCH   7   8
ATOM      8  O   UNL     1     173.579 170.364 176.656  1.00  0.00    -0.347 OA
BRANCH   8   9
ATOM      9  C   UNL     1     172.320 170.692 177.242  1.00  0.00     0.281 C 
ATOM     10  C   UNL     1     171.258 167.648 179.092  1.00  0.00     0.041 C 
ATOM     11  C   UNL     1     171.627 168.492 177.860  1.00  0.00     0.150 C 
ATOM     12  C   UNL     1     170.438 168.545 176.891  1.00  0.00     0.174 C 
ATOM     13  O   UNL     1     171.966 169.804 178.290  1.00  0.00    -0.344 OA
ATOM     14  C   UNL     1     170.865 169.363 175.649  1.00  0.00     0.179 C 
ATOM     15  C   UNL     1     171.235 170.777 176.122  1.00  0.00     0.202 C 
BRANCH  12  16
ATOM     16  O   UNL     1     170.057 167.262 176.499  1.00  0.00    -0.388 OA
ATOM     17  H   UNL     1     169.936 166.762 177.340  1.00  0.00     0.211 HD
ENDBRANCH  12  16
BRANCH  14  18
ATOM     18  O   UNL     1     171.997 168.758 175.044  1.00  0.00    -0.387 OA
ATOM     19  H   UNL     1     172.061 169.108 174.120  1.00  0.00     0.211 HD
ENDBRANCH  14  18
BRANCH  15  20
ATOM     20  O   UNL     1     171.747 171.486 175.007  1.00  0.00    -0.385 OA
ATOM     21  H   UNL     1     172.175 172.317 175.348  1.00  0.00     0.211 HD
ENDBRANCH  15  20
ENDBRANCH   8   9
ENDBRANCH   7   8
ENDBRANCH   1   7
BRANCH   2  22
ATOM     22  O   UNL     1     174.445 167.685 177.591  1.00  0.00    -0.387 OA
ATOM     23  H   UNL     1     173.900 168.301 177.051  1.00  0.00     0.211 HD
ENDBRANCH   2  22
BRANCH   3  24
ATOM     24  O   UNL     1     177.842 167.762 178.796  1.00  0.00    -0.387 OA
ATOM     25  H   UNL     1     177.525 168.492 179.378  1.00  0.00     0.211 HD
ENDBRANCH   3  24
BRANCH   5  26
ATOM     26  O   UNL     1     178.455 169.673 176.233  1.00  0.00    -0.454 OA
BRANCH  26  27
ATOM     27  C   UNL     1     179.552 170.149 175.477  1.00  0.00     0.214 A 
ATOM     28  C   UNL     1     180.856 169.912 175.968  1.00  0.00     0.180 A 
ATOM     29  C   UNL     1     179.413 170.807 174.230  1.00  0.00     0.239 A 
ATOM     30  O   UNL     1     181.916 170.167 175.202  1.00  0.00    -0.452 OA
ATOM     31  C   UNL     1     180.554 171.132 173.470  1.00  0.00     0.111 A 
ATOM     32  O   UNL     1     178.268 171.033 173.777  1.00  0.00    -0.285 OA
ATOM     33  C   UNL     1     181.818 170.716 173.991  1.00  0.00     0.146 A 
ATOM     34  C   UNL     1     180.539 171.818 172.214  1.00  0.00     0.134 A 
ATOM     35  C   UNL     1     182.997 170.898 173.245  1.00  0.00     0.094 A 
ATOM     36  C   UNL     1     181.729 171.949 171.476  1.00  0.00     0.093 A 
ATOM     37  C   UNL     1     182.948 171.488 171.980  1.00  0.00     0.123 A 
BRANCH  28  38
ATOM     38  C   UNL     1     181.084 169.342 177.317  1.00  0.00     0.025 A 
ATOM     39  C   UNL     1     181.296 167.956 177.492  1.00  0.00     0.062 A 
ATOM     40  C   UNL     1     181.001 170.178 178.447  1.00  0.00     0.016 A 
ATOM     41  C   UNL     1     181.404 167.409 178.782  1.00  0.00     0.158 A 
ATOM     42  C   UNL     1     181.099 169.624 179.737  1.00  0.00     0.051 A 
ATOM     43  C   UNL     1     181.299 168.245 179.906  1.00  0.00     0.157 A 
BRANCH  41  44
ATOM     44  O   UNL     1     181.608 166.042 178.935  1.00  0.00    -0.504 OA
ATOM     45  H   UNL     1     181.926 165.657 179.818  1.00  0.00     0.293 HD
ENDBRANCH  41  44
BRANCH  43  46
ATOM     46  O   UNL     1     181.389 167.700 181.182  1.00  0.00    -0.504 OA
ATOM     47  H   UNL     1     180.577 167.267 181.647  1.00  0.00     0.293 HD
ENDBRANCH  43  46
ENDBRANCH  28  38
BRANCH  34  48
ATOM     48  O   UNL     1     179.403 172.454 171.681  1.00  0.00    -0.507 OA
ATOM     49  H   UNL     1     178.710 172.018 171.110  1.00  0.00     0.293 HD
ENDBRANCH  34  48
BRANCH  37  50
ATOM     50  O   UNL     1     184.125 171.624 171.239  1.00  0.00    -0.508 OA
ATOM     51  H   UNL     1     184.974 171.159 171.515  1.00  0.00     0.293 HD
ENDBRANCH  37  50
ENDBRANCH  26  27
ENDBRANCH   5  26
BRANCH   4  52
ATOM     52  O   UNL     1     176.540 166.674 175.568  1.00  0.00    -0.384 OA
ATOM     53  H   UNL     1     175.615 166.716 175.926  1.00  0.00     0.211 HD
ENDBRANCH   4  52
TORSDOF 16
ENDMDL
MODEL 6
REMARK VINA RESULT:    -7.169      2.988      6.084
REMARK INTER + INTRA:         -12.671
REMARK INTER:                 -10.410
REMARK INTRA:                  -2.261
REMARK UNBOUND:                -0.892
REMARK SMILES C[C@@H]1O[C@@H](OC[C@@H]2O[C@@H](Oc3c(-c4ccc(O)c(O)c4)oc4cc(O)cc(O)c4c3=O)[C@H](O)[C@@H](O)[C@@H]2O)[C@@H](O)[C@@H](O)[C@H]1O
REMARK SMILES IDX 7 1 36 2 34 3 32 4 9 5 8 6 6 7 5 8 4 9 1 10 2 11 42 12 3 13
REMARK SMILES IDX 40 14 38 15 43 16 41 18 39 20 37 22 35 24 10 26 11 27 12 28
REMARK SMILES IDX 30 29 21 30 29 31 31 32 22 33 27 34 23 35 26 36 24 37 13 38
REMARK SMILES IDX 20 39 14 40 18 41 15 42 16 43 19 44 17 46 28 48 25 50 33 52
REMARK H PARENT 43 17 41 19 39 21 37 23 35 25 19 45 17 47 28 49 25 51 33 53
REMARK Flexibility Score: inf
ROOT
ATOM      1  C   UNL     1     178.331 168.959 175.993  1.00  0.00     0.180 C 
ATOM      2  C   UNL     1     176.945 169.606 176.256  1.00  0.00     0.177 C 
ATOM      3  C   UNL     1     176.670 169.666 177.762  1.00  0.00     0.180 C 
ATOM      4  C   UNL     1     177.010 168.313 178.470  1.00  0.00     0.214 C 
ATOM      5  C   UNL     1     178.338 167.701 177.978  1.00  0.00     0.339 C 
ATOM      6  O   UNL     1     178.411 167.664 176.563  1.00  0.00    -0.332 OA
ENDROOT
BRANCH   1   7
ATOM      7  C   UNL     1     178.702 168.883 174.494  1.00  0.00     0.198 C 
BRANCH   7   8
ATOM      8  O   UNL     1     179.949 169.519 174.244  1.00  0.00    -0.347 OA
BRANCH   8   9
ATOM      9  C   UNL     1     179.841 170.937 174.368  1.00  0.00     0.281 C 
ATOM     10  C   UNL     1     179.913 172.251 170.891  1.00  0.00     0.041 C 
ATOM     11  C   UNL     1     180.460 171.540 172.141  1.00  0.00     0.150 C 
ATOM     12  C   UNL     1     181.721 172.259 172.638  1.00  0.00     0.174 C 
ATOM     13  O   UNL     1     179.458 171.557 173.150  1.00  0.00    -0.344 OA
ATOM     14  C   UNL     1     182.263 171.490 173.865  1.00  0.00     0.179 C 
ATOM     15  C   UNL     1     181.174 171.507 174.950  1.00  0.00     0.202 C 
BRANCH  12  16
ATOM     16  O   UNL     1     182.696 172.300 171.642  1.00  0.00    -0.388 OA
ATOM     17  H   UNL     1     182.881 171.357 171.424  1.00  0.00     0.211 HD
ENDBRANCH  12  16
BRANCH  14  18
ATOM     18  O   UNL     1     182.544 170.147 173.502  1.00  0.00    -0.387 OA
ATOM     19  H   UNL     1     181.892 169.570 173.976  1.00  0.00     0.211 HD
ENDBRANCH  14  18
BRANCH  15  20
ATOM     20  O   UNL     1     181.619 170.695 176.022  1.00  0.00    -0.385 OA
ATOM     21  H   UNL     1     181.462 171.198 176.867  1.00  0.00     0.211 HD
ENDBRANCH  15  20
ENDBRANCH   8   9
ENDBRANCH   7   8
ENDBRANCH   1   7
BRANCH   2  22
ATOM     22  O   UNL     1     175.872 168.945 175.599  1.00  0.00    -0.387 OA
ATOM     23  H   UNL     1     176.234 168.238 175.019  1.00  0.00     0.211 HD
ENDBRANCH   2  22
BRANCH   3  24
ATOM     24  O   UNL     1     177.294 170.780 178.358  1.00  0.00    -0.387 OA
ATOM     25  H   UNL     1     177.904 170.459 179.063  1.00  0.00     0.211 HD
ENDBRANCH   3  24
BRANCH   5  26
ATOM     26  O   UNL     1     179.469 168.365 178.531  1.00  0.00    -0.454 OA
BRANCH  26  27
ATOM     27  C   UNL     1     180.309 167.902 179.571  1.00  0.00     0.214 A 
ATOM     28  C   UNL     1     181.561 167.346 179.222  1.00  0.00     0.180 A 
ATOM     29  C   UNL     1     179.984 168.014 180.945  1.00  0.00     0.239 A 
ATOM     30  O   UNL     1     182.461 167.078 180.168  1.00  0.00    -0.452 OA
ATOM     31  C   UNL     1     180.927 167.656 181.928  1.00  0.00     0.111 A 
ATOM     32  O   UNL     1     178.879 168.498 181.279  1.00  0.00    -0.285 OA
ATOM     33  C   UNL     1     182.216 167.242 181.468  1.00  0.00     0.146 A 
ATOM     34  C   UNL     1     180.703 167.700 183.341  1.00  0.00     0.134 A 
ATOM     35  C   UNL     1     183.253 166.975 182.380  1.00  0.00     0.094 A 
ATOM     36  C   UNL     1     181.771 167.465 184.226  1.00  0.00     0.093 A 
ATOM     37  C   UNL     1     183.039 167.114 183.753  1.00  0.00     0.123 A 
BRANCH  28  38
ATOM     38  C   UNL     1     181.925 167.082 177.810  1.00  0.00     0.025 A 
ATOM     39  C   UNL     1     182.856 167.905 177.136  1.00  0.00     0.062 A 
ATOM     40  C   UNL     1     181.271 166.054 177.104  1.00  0.00     0.016 A 
ATOM     41  C   UNL     1     183.113 167.714 175.768  1.00  0.00     0.158 A 
ATOM     42  C   UNL     1     181.525 165.875 175.732  1.00  0.00     0.051 A 
ATOM     43  C   UNL     1     182.441 166.701 175.064  1.00  0.00     0.157 A 
BRANCH  41  44
ATOM     44  O   UNL     1     184.029 168.536 175.119  1.00  0.00    -0.504 OA
ATOM     45  H   UNL     1     184.778 168.144 174.557  1.00  0.00     0.293 HD
ENDBRANCH  41  44
BRANCH  43  46
ATOM     46  O   UNL     1     182.686 166.525 173.706  1.00  0.00    -0.504 OA
ATOM     47  H   UNL     1     182.743 165.587 173.282  1.00  0.00     0.293 HD
ENDBRANCH  43  46
ENDBRANCH  28  38
BRANCH  34  48
ATOM     48  O   UNL     1     179.439 167.893 183.929  1.00  0.00    -0.507 OA
ATOM     49  H   UNL     1     179.156 168.702 184.439  1.00  0.00     0.293 HD
ENDBRANCH  34  48
BRANCH  37  50
ATOM     50  O   UNL     1     184.093 166.882 184.641  1.00  0.00    -0.508 OA
ATOM     51  H   UNL     1     184.134 167.342 185.535  1.00  0.00     0.293 HD
ENDBRANCH  37  50
ENDBRANCH  26  27
ENDBRANCH   5  26
BRANCH   4  52
ATOM     52  O   UNL     1     176.000 167.372 178.247  1.00  0.00    -0.384 OA
ATOM     53  H   UNL     1     176.095 166.658 178.931  1.00  0.00     0.211 HD
ENDBRANCH   4  52
TORSDOF 16
ENDMDL
MODEL 7
REMARK VINA RESULT:    -7.147     14.135     18.092
REMARK INTER + INTRA:         -12.635
REMARK INTER:                 -11.214
REMARK INTRA:                  -1.421
REMARK UNBOUND:                -0.892
REMARK SMILES C[C@@H]1O[C@@H](OC[C@@H]2O[C@@H](Oc3c(-c4ccc(O)c(O)c4)oc4cc(O)cc(O)c4c3=O)[C@H](O)[C@@H](O)[C@@H]2O)[C@@H](O)[C@@H](O)[C@H]1O
REMARK SMILES IDX 7 1 36 2 34 3 32 4 9 5 8 6 6 7 5 8 4 9 1 10 2 11 42 12 3 13
REMARK SMILES IDX 40 14 38 15 43 16 41 18 39 20 37 22 35 24 10 26 11 27 12 28
REMARK SMILES IDX 30 29 21 30 29 31 31 32 22 33 27 34 23 35 26 36 24 37 13 38
REMARK SMILES IDX 20 39 14 40 18 41 15 42 16 43 19 44 17 46 28 48 25 50 33 52
REMARK H PARENT 43 17 41 19 39 21 37 23 35 25 19 45 17 47 28 49 25 51 33 53
REMARK Flexibility Score: inf
ROOT
ATOM      1  C   UNL     1     167.077 181.494 182.467  1.00  0.00     0.180 C 
ATOM      2  C   UNL     1     168.424 181.309 181.719  1.00  0.00     0.177 C 
ATOM      3  C   UNL     1     168.361 180.070 180.820  1.00  0.00     0.180 C 
ATOM      4  C   UNL     1     167.743 178.841 181.565  1.00  0.00     0.214 C 
ATOM      5  C   UNL     1     166.506 179.214 182.408  1.00  0.00     0.339 C 
ATOM      6  O   UNL     1     166.748 180.344 183.228  1.00  0.00    -0.332 OA
ENDROOT
BRANCH   1   7
ATOM      7  C   UNL     1     167.044 182.740 183.381  1.00  0.00     0.198 C 
BRANCH   7   8
ATOM      8  O   UNL     1     168.211 182.811 184.191  1.00  0.00    -0.347 OA
BRANCH   8   9
ATOM      9  C   UNL     1     167.913 182.522 185.556  1.00  0.00     0.281 C 
ATOM     10  C   UNL     1     168.776 185.608 187.439  1.00  0.00     0.041 C 
ATOM     11  C   UNL     1     169.040 184.369 186.568  1.00  0.00     0.150 C 
ATOM     12  C   UNL     1     170.028 183.434 187.279  1.00  0.00     0.174 C 
ATOM     13  O   UNL     1     167.807 183.697 186.344  1.00  0.00    -0.344 OA
ATOM     14  C   UNL     1     170.301 182.226 186.353  1.00  0.00     0.179 C 
ATOM     15  C   UNL     1     168.963 181.508 186.111  1.00  0.00     0.202 C 
BRANCH  12  16
ATOM     16  O   UNL     1     171.226 184.093 187.555  1.00  0.00    -0.388 OA
ATOM     17  H   UNL     1     171.909 183.383 187.583  1.00  0.00     0.211 HD
ENDBRANCH  12  16
BRANCH  14  18
ATOM     18  O   UNL     1     170.820 182.681 185.113  1.00  0.00    -0.387 OA
ATOM     19  H   UNL     1     170.056 183.005 184.572  1.00  0.00     0.211 HD
ENDBRANCH  14  18
BRANCH  15  20
ATOM     20  O   UNL     1     169.190 180.480 185.162  1.00  0.00    -0.385 OA
ATOM     21  H   UNL     1     168.360 179.932 185.107  1.00  0.00     0.211 HD
ENDBRANCH  15  20
ENDBRANCH   8   9
ENDBRANCH   7   8
ENDBRANCH   1   7
BRANCH   2  22
ATOM     22  O   UNL     1     169.548 181.215 182.583  1.00  0.00    -0.387 OA
ATOM     23  H   UNL     1     170.027 180.375 182.404  1.00  0.00     0.211 HD
ENDBRANCH   2  22
BRANCH   3  24
ATOM     24  O   UNL     1     167.729 180.354 179.593  1.00  0.00    -0.387 OA
ATOM     25  H   UNL     1     168.332 180.090 178.859  1.00  0.00     0.211 HD
ENDBRANCH   3  24
BRANCH   5  26
ATOM     26  O   UNL     1     165.349 179.406 181.602  1.00  0.00    -0.454 OA
BRANCH  26  27
ATOM     27  C   UNL     1     165.017 178.727 180.406  1.00  0.00     0.214 A 
ATOM     28  C   UNL     1     164.616 179.496 179.289  1.00  0.00     0.180 A 
ATOM     29  C   UNL     1     165.113 177.322 180.254  1.00  0.00     0.239 A 
ATOM     30  O   UNL     1     164.483 178.921 178.095  1.00  0.00    -0.452 OA
ATOM     31  C   UNL     1     164.896 176.730 178.995  1.00  0.00     0.111 A 
ATOM     32  O   UNL     1     165.460 176.619 181.230  1.00  0.00    -0.285 OA
ATOM     33  C   UNL     1     164.640 177.612 177.900  1.00  0.00     0.146 A 
ATOM     34  C   UNL     1     164.939 175.324 178.727  1.00  0.00     0.134 A 
ATOM     35  C   UNL     1     164.524 177.115 176.589  1.00  0.00     0.094 A 
ATOM     36  C   UNL     1     164.859 174.862 177.401  1.00  0.00     0.093 A 
ATOM     37  C   UNL     1     164.661 175.748 176.337  1.00  0.00     0.123 A 
BRANCH  28  38
ATOM     38  C   UNL     1     164.374 180.954 179.400  1.00  0.00     0.025 A 
ATOM     39  C   UNL     1     164.559 181.806 178.287  1.00  0.00     0.062 A 
ATOM     40  C   UNL     1     164.039 181.509 180.649  1.00  0.00     0.016 A 
ATOM     41  C   UNL     1     164.432 183.198 178.428  1.00  0.00     0.158 A 
ATOM     42  C   UNL     1     163.923 182.905 180.787  1.00  0.00     0.051 A 
ATOM     43  C   UNL     1     164.119 183.748 179.683  1.00  0.00     0.157 A 
BRANCH  41  44
ATOM     44  O   UNL     1     164.622 184.021 177.323  1.00  0.00    -0.504 OA
ATOM     45  H   UNL     1     163.967 184.766 177.108  1.00  0.00     0.293 HD
ENDBRANCH  41  44
BRANCH  43  46
ATOM     46  O   UNL     1     164.009 185.127 179.824  1.00  0.00    -0.504 OA
ATOM     47  H   UNL     1     164.679 185.773 179.380  1.00  0.00     0.293 HD
ENDBRANCH  43  46
ENDBRANCH  28  38
BRANCH  34  48
ATOM     48  O   UNL     1     164.982 174.336 179.727  1.00  0.00    -0.507 OA
ATOM     49  H   UNL     1     165.739 174.186 180.360  1.00  0.00     0.293 HD
ENDBRANCH  34  48
BRANCH  37  50
ATOM     50  O   UNL     1     164.582 175.279 175.023  1.00  0.00    -0.508 OA
ATOM     51  H   UNL     1     163.728 175.345 174.495  1.00  0.00     0.293 HD
ENDBRANCH  37  50
ENDBRANCH  26  27
ENDBRANCH   5  26
BRANCH   4  52
ATOM     52  O   UNL     1     168.683 178.261 182.422  1.00  0.00    -0.384 OA
ATOM     53  H   UNL     1     168.480 177.291 182.483  1.00  0.00     0.211 HD
ENDBRANCH   4  52
TORSDOF 16
ENDMDL
MODEL 8
REMARK VINA RESULT:    -7.067      2.404      8.158
REMARK INTER + INTRA:         -12.504
REMARK INTER:                 -11.600
REMARK INTRA:                  -0.904
REMARK UNBOUND:                -0.892
REMARK SMILES C[C@@H]1O[C@@H](OC[C@@H]2O[C@@H](Oc3c(-c4ccc(O)c(O)c4)oc4cc(O)cc(O)c4c3=O)[C@H](O)[C@@H](O)[C@@H]2O)[C@@H](O)[C@@H](O)[C@H]1O
REMARK SMILES IDX 7 1 36 2 34 3 32 4 9 5 8 6 6 7 5 8 4 9 1 10 2 11 42 12 3 13
REMARK SMILES IDX 40 14 38 15 43 16 41 18 39 20 37 22 35 24 10 26 11 27 12 28
REMARK SMILES IDX 30 29 21 30 29 31 31 32 22 33 27 34 23 35 26 36 24 37 13 38
REMARK SMILES IDX 20 39 14 40 18 41 15 42 16 43 19 44 17 46 28 48 25 50 33 52
REMARK H PARENT 43 17 41 19 39 21 37 23 35 25 19 45 17 47 28 49 25 51 33 53
REMARK Flexibility Score: inf
ROOT
ATOM      1  C   UNL     1     179.661 170.717 176.747  1.00  0.00     0.180 C 
ATOM      2  C   UNL     1     180.221 170.111 178.061  1.00  0.00     0.177 C 
ATOM      3  C   UNL     1     179.156 169.239 178.734  1.00  0.00     0.180 C 
ATOM      4  C   UNL     1     177.762 169.948 178.771  1.00  0.00     0.214 C 
ATOM      5  C   UNL     1     177.418 170.656 177.444  1.00  0.00     0.339 C 
ATOM      6  O   UNL     1     178.484 171.469 176.988  1.00  0.00    -0.332 OA
ENDROOT
BRANCH   1   7
ATOM      7  C   UNL     1     180.684 171.594 175.987  1.00  0.00     0.198 C 
BRANCH   7   8
ATOM      8  O   UNL     1     180.231 171.881 174.670  1.00  0.00    -0.347 OA
BRANCH   8   9
ATOM      9  C   UNL     1     180.438 170.772 173.797  1.00  0.00     0.281 C 
ATOM     10  C   UNL     1     184.125 170.458 173.442  1.00  0.00     0.041 C 
ATOM     11  C   UNL     1     182.748 171.129 173.305  1.00  0.00     0.150 C 
ATOM     12  C   UNL     1     182.439 171.386 171.824  1.00  0.00     0.174 C 
ATOM     13  O   UNL     1     181.764 170.271 173.868  1.00  0.00    -0.344 OA
ATOM     14  C   UNL     1     181.071 172.099 171.733  1.00  0.00     0.179 C 
ATOM     15  C   UNL     1     180.013 171.169 172.347  1.00  0.00     0.202 C 
BRANCH  12  16
ATOM     16  O   UNL     1     183.424 172.182 171.240  1.00  0.00    -0.388 OA
ATOM     17  H   UNL     1     183.022 172.517 170.405  1.00  0.00     0.211 HD
ENDBRANCH  12  16
BRANCH  14  18
ATOM     18  O   UNL     1     181.114 173.312 172.468  1.00  0.00    -0.387 OA
ATOM     19  H   UNL     1     180.359 173.874 172.158  1.00  0.00     0.211 HD
ENDBRANCH  14  18
BRANCH  15  20
ATOM     20  O   UNL     1     178.784 171.874 172.381  1.00  0.00    -0.385 OA
ATOM     21  H   UNL     1     178.632 172.172 173.319  1.00  0.00     0.211 HD
ENDBRANCH  15  20
ENDBRANCH   8   9
ENDBRANCH   7   8
ENDBRANCH   1   7
BRANCH   2  22
ATOM     22  O   UNL     1     180.695 171.083 178.983  1.00  0.00    -0.387 OA
ATOM     23  H   UNL     1     181.050 171.855 178.486  1.00  0.00     0.211 HD
ENDBRANCH   2  22
BRANCH   3  24
ATOM     24  O   UNL     1     179.110 167.949 178.168  1.00  0.00    -0.387 OA
ATOM     25  H   UNL     1     179.633 167.336 178.737  1.00  0.00     0.211 HD
ENDBRANCH   3  24
BRANCH   5  26
ATOM     26  O   UNL     1     177.010 169.735 176.438  1.00  0.00    -0.454 OA
BRANCH  26  27
ATOM     27  C   UNL     1     175.785 169.031 176.369  1.00  0.00     0.214 A 
ATOM     28  C   UNL     1     175.794 167.724 175.830  1.00  0.00     0.180 A 
ATOM     29  C   UNL     1     174.559 169.548 176.857  1.00  0.00     0.239 A 
ATOM     30  O   UNL     1     174.710 166.955 175.923  1.00  0.00    -0.452 OA
ATOM     31  C   UNL     1     173.407 168.737 176.877  1.00  0.00     0.111 A 
ATOM     32  O   UNL     1     174.524 170.705 177.333  1.00  0.00    -0.285 OA
ATOM     33  C   UNL     1     173.561 167.383 176.445  1.00  0.00     0.146 A 
ATOM     34  C   UNL     1     172.112 169.156 177.320  1.00  0.00     0.134 A 
ATOM     35  C   UNL     1     172.492 166.473 176.540  1.00  0.00     0.094 A 
ATOM     36  C   UNL     1     171.075 168.213 177.439  1.00  0.00     0.093 A 
ATOM     37  C   UNL     1     171.262 166.880 177.061  1.00  0.00     0.123 A 
BRANCH  28  38
ATOM     38  C   UNL     1     177.005 167.159 175.190  1.00  0.00     0.025 A 
ATOM     39  C   UNL     1     178.165 166.882 175.949  1.00  0.00     0.062 A 
ATOM     40  C   UNL     1     177.032 166.978 173.794  1.00  0.00     0.016 A 
ATOM     41  C   UNL     1     179.342 166.449 175.317  1.00  0.00     0.158 A 
ATOM     42  C   UNL     1     178.217 166.554 173.165  1.00  0.00     0.051 A 
ATOM     43  C   UNL     1     179.370 166.291 173.921  1.00  0.00     0.157 A 
BRANCH  41  44
ATOM     44  O   UNL     1     180.475 166.185 176.080  1.00  0.00    -0.504 OA
ATOM     45  H   UNL     1     180.518 166.447 177.059  1.00  0.00     0.293 HD
ENDBRANCH  41  44
BRANCH  43  46
ATOM     46  O   UNL     1     180.541 165.878 173.296  1.00  0.00    -0.504 OA
ATOM     47  H   UNL     1     180.979 166.429 172.543  1.00  0.00     0.293 HD
ENDBRANCH  43  46
ENDBRANCH  28  38
BRANCH  34  48
ATOM     48  O   UNL     1     171.768 170.495 177.582  1.00  0.00    -0.507 OA
ATOM     49  H   UNL     1     171.243 171.087 176.974  1.00  0.00     0.293 HD
ENDBRANCH  34  48
BRANCH  37  50
ATOM     50  O   UNL     1     170.225 165.952 177.182  1.00  0.00    -0.508 OA
ATOM     51  H   UNL     1     170.403 164.961 177.149  1.00  0.00     0.293 HD
ENDBRANCH  37  50
ENDBRANCH  26  27
ENDBRANCH   5  26
BRANCH   4  52
ATOM     52  O   UNL     1     177.724 170.907 179.788  1.00  0.00    -0.384 OA
ATOM     53  H   UNL     1     178.532 170.783 180.352  1.00  0.00     0.211 HD
ENDBRANCH   4  52
TORSDOF 16
ENDMDL
MODEL 9
REMARK VINA RESULT:    -6.933      1.690      2.691
REMARK INTER + INTRA:         -12.283
REMARK INTER:                 -10.648
REMARK INTRA:                  -1.635
REMARK UNBOUND:                -0.892
REMARK SMILES C[C@@H]1O[C@@H](OC[C@@H]2O[C@@H](Oc3c(-c4ccc(O)c(O)c4)oc4cc(O)cc(O)c4c3=O)[C@H](O)[C@@H](O)[C@@H]2O)[C@@H](O)[C@@H](O)[C@H]1O
REMARK SMILES IDX 7 1 36 2 34 3 32 4 9 5 8 6 6 7 5 8 4 9 1 10 2 11 42 12 3 13
REMARK SMILES IDX 40 14 38 15 43 16 41 18 39 20 37 22 35 24 10 26 11 27 12 28
REMARK SMILES IDX 30 29 21 30 29 31 31 32 22 33 27 34 23 35 26 36 24 37 13 38
REMARK SMILES IDX 20 39 14 40 18 41 15 42 16 43 19 44 17 46 28 48 25 50 33 52
REMARK H PARENT 43 17 41 19 39 21 37 23 35 25 19 45 17 47 28 49 25 51 33 53
REMARK Flexibility Score: inf
ROOT
ATOM      1  C   UNL     1     176.771 169.234 176.979  1.00  0.00     0.180 C 
ATOM      2  C   UNL     1     177.106 170.408 176.021  1.00  0.00     0.177 C 
ATOM      3  C   UNL     1     178.530 170.909 176.281  1.00  0.00     0.180 C 
ATOM      4  C   UNL     1     178.816 171.085 177.808  1.00  0.00     0.214 C 
ATOM      5  C   UNL     1     178.271 169.917 178.655  1.00  0.00     0.339 C 
ATOM      6  O   UNL     1     176.923 169.617 178.336  1.00  0.00    -0.332 OA
ENDROOT
BRANCH   1   7
ATOM      7  C   UNL     1     175.356 168.648 176.768  1.00  0.00     0.198 C 
BRANCH   7   8
ATOM      8  O   UNL     1     174.393 169.683 176.611  1.00  0.00    -0.347 OA
BRANCH   8   9
ATOM      9  C   UNL     1     173.439 169.668 177.672  1.00  0.00     0.281 C 
ATOM     10  C   UNL     1     170.745 167.363 176.559  1.00  0.00     0.041 C 
ATOM     11  C   UNL     1     171.633 168.618 176.516  1.00  0.00     0.150 C 
ATOM     12  C   UNL     1     170.762 169.875 176.641  1.00  0.00     0.174 C 
ATOM     13  O   UNL     1     172.561 168.557 177.592  1.00  0.00    -0.344 OA
ATOM     14  C   UNL     1     171.685 171.112 176.549  1.00  0.00     0.179 C 
ATOM     15  C   UNL     1     172.689 171.038 177.710  1.00  0.00     0.202 C 
BRANCH  12  16
ATOM     16  O   UNL     1     169.809 169.924 175.624  1.00  0.00    -0.388 OA
ATOM     17  H   UNL     1     168.942 169.811 176.079  1.00  0.00     0.211 HD
ENDBRANCH  12  16
BRANCH  14  18
ATOM     18  O   UNL     1     172.389 171.093 175.317  1.00  0.00    -0.387 OA
ATOM     19  H   UNL     1     172.912 171.933 175.262  1.00  0.00     0.211 HD
ENDBRANCH  14  18
BRANCH  15  20
ATOM     20  O   UNL     1     173.614 172.100 177.552  1.00  0.00    -0.385 OA
ATOM     21  H   UNL     1     173.509 172.711 178.331  1.00  0.00     0.211 HD
ENDBRANCH  15  20
ENDBRANCH   8   9
ENDBRANCH   7   8
ENDBRANCH   1   7
BRANCH   2  22
ATOM     22  O   UNL     1     176.193 171.494 176.108  1.00  0.00    -0.387 OA
ATOM     23  H   UNL     1     176.300 171.938 176.980  1.00  0.00     0.211 HD
ENDBRANCH   2  22
BRANCH   3  24
ATOM     24  O   UNL     1     179.487 170.111 175.622  1.00  0.00    -0.387 OA
ATOM     25  H   UNL     1     180.083 169.711 176.299  1.00  0.00     0.211 HD
ENDBRANCH   3  24
BRANCH   5  26
ATOM     26  O   UNL     1     179.090 168.757 178.556  1.00  0.00    -0.454 OA
BRANCH  26  27
ATOM     27  C   UNL     1     179.923 168.210 179.560  1.00  0.00     0.214 A 
ATOM     28  C   UNL     1     181.107 167.549 179.160  1.00  0.00     0.180 A 
ATOM     29  C   UNL     1     179.658 168.333 180.946  1.00  0.00     0.239 A 
ATOM     30  O   UNL     1     182.013 167.192 180.069  1.00  0.00    -0.452 OA
ATOM     31  C   UNL     1     180.601 167.880 181.890  1.00  0.00     0.111 A 
ATOM     32  O   UNL     1     178.613 168.908 181.325  1.00  0.00    -0.285 OA
ATOM     33  C   UNL     1     181.831 167.360 181.379  1.00  0.00     0.146 A 
ATOM     34  C   UNL     1     180.432 167.926 183.311  1.00  0.00     0.134 A 
ATOM     35  C   UNL     1     182.872 166.992 182.250  1.00  0.00     0.094 A 
ATOM     36  C   UNL     1     181.506 167.588 184.153  1.00  0.00     0.093 A 
ATOM     37  C   UNL     1     182.721 167.132 183.631  1.00  0.00     0.123 A 
BRANCH  28  38
ATOM     38  C   UNL     1     181.395 167.273 177.733  1.00  0.00     0.025 A 
ATOM     39  C   UNL     1     182.074 168.220 176.933  1.00  0.00     0.062 A 
ATOM     40  C   UNL     1     180.911 166.089 177.143  1.00  0.00     0.016 A 
ATOM     41  C   UNL     1     182.247 167.996 175.557  1.00  0.00     0.158 A 
ATOM     42  C   UNL     1     181.078 165.875 175.763  1.00  0.00     0.051 A 
ATOM     43  C   UNL     1     181.742 166.824 174.970  1.00  0.00     0.157 A 
BRANCH  41  44
ATOM     44  O   UNL     1     182.913 168.942 174.784  1.00  0.00    -0.504 OA
ATOM     45  H   UNL     1     183.611 168.662 174.102  1.00  0.00     0.293 HD
ENDBRANCH  41  44
BRANCH  43  46
ATOM     46  O   UNL     1     181.900 166.612 173.605  1.00  0.00    -0.504 OA
ATOM     47  H   UNL     1     181.993 165.664 173.210  1.00  0.00     0.293 HD
ENDBRANCH  43  46
ENDBRANCH  28  38
BRANCH  34  48
ATOM     48  O   UNL     1     179.213 168.223 183.947  1.00  0.00    -0.507 OA
ATOM     49  H   UNL     1     178.333 167.804 183.734  1.00  0.00     0.293 HD
ENDBRANCH  34  48
BRANCH  37  50
ATOM     50  O   UNL     1     183.781 166.797 184.477  1.00  0.00    -0.508 OA
ATOM     51  H   UNL     1     184.102 167.431 185.189  1.00  0.00     0.293 HD
ENDBRANCH  37  50
ENDBRANCH  26  27
ENDBRANCH   5  26
BRANCH   4  52
ATOM     52  O   UNL     1     178.235 172.264 178.285  1.00  0.00    -0.384 OA
ATOM     53  H   UNL     1     178.930 172.974 178.266  1.00  0.00     0.211 HD
ENDBRANCH   4  52
TORSDOF 16
ENDMDL
