MODEL 1
REMARK VINA RESULT:    -3.769      0.000      0.000
REMARK INTER + INTRA:          -3.879
REMARK INTER:                  -3.879
REMARK INTRA:                   0.000
REMARK UNBOUND:                 0.000
REMARK SMILES Cc1cccc(O)c1C
REMARK SMILES IDX 1 1 2 2 8 3 6 4 5 5 4 6 3 7 9 8 7 9
REMARK H PARENT 7 10
REMARK Flexibility Score: inf
ROOT
ATOM      1  C   UNL     1      28.624  28.625  73.535  1.00  0.00     0.045 C 
ATOM      2  C   UNL     1      28.773  30.099  73.261  1.00  0.00    -0.045 A 
ATOM      3  C   UNL     1      27.655  30.979  73.233  1.00  0.00    -0.006 A 
ATOM      4  C   UNL     1      27.870  32.356  72.968  1.00  0.00     0.118 A 
ATOM      5  C   UNL     1      29.164  32.832  72.738  1.00  0.00     0.046 A 
ATOM      6  C   UNL     1      30.252  31.965  72.767  1.00  0.00     0.004 A 
ATOM      7  C   UNL     1      30.061  30.610  73.025  1.00  0.00     0.004 A 
ATOM      8  C   UNL     1      26.247  30.486  73.479  1.00  0.00     0.048 C 
ENDROOT
BRANCH   4   9
ATOM      9  O   UNL     1      26.820  33.278  72.926  1.00  0.00    -0.508 OA
ATOM     10  H   UNL     1      26.123  33.364  73.654  1.00  0.00     0.293 HD
ENDBRANCH   4   9
TORSDOF 1
ENDMDL
MODEL 2
REMARK VINA RESULT:    -3.762     15.032     15.929
REMARK INTER + INTRA:          -3.872
REMARK INTER:                  -3.872
REMARK INTRA:                   0.000
REMARK UNBOUND:                 0.000
REMARK SMILES Cc1cccc(O)c1C
REMARK SMILES IDX 1 1 2 2 8 3 6 4 5 5 4 6 3 7 9 8 7 9
REMARK H PARENT 7 10
REMARK Flexibility Score: inf
ROOT
ATOM      1  C   UNL     1      22.242  39.077  86.214  1.00  0.00     0.045 C 
ATOM      2  C   UNL     1      22.624  37.619  86.248  1.00  0.00    -0.045 A 
ATOM      3  C   UNL     1      23.397  37.065  87.306  1.00  0.00    -0.006 A 
ATOM      4  C   UNL     1      23.720  35.684  87.271  1.00  0.00     0.118 A 
ATOM      5  C   UNL     1      23.282  34.888  86.209  1.00  0.00     0.046 A 
ATOM      6  C   UNL     1      22.526  35.438  85.177  1.00  0.00     0.004 A 
ATOM      7  C   UNL     1      22.199  36.791  85.194  1.00  0.00     0.004 A 
ATOM      8  C   UNL     1      23.881  37.907  88.464  1.00  0.00     0.048 C 
ENDROOT
BRANCH   4   9
ATOM      9  O   UNL     1      24.474  35.071  88.276  1.00  0.00    -0.508 OA
ATOM     10  H   UNL     1      24.552  35.436  89.216  1.00  0.00     0.293 HD
ENDBRANCH   4   9
TORSDOF 1
ENDMDL
MODEL 3
REMARK VINA RESULT:    -3.708      7.176      8.719
REMARK INTER + INTRA:          -3.817
REMARK INTER:                  -3.817
REMARK INTRA:                   0.000
REMARK UNBOUND:                 0.000
REMARK SMILES Cc1cccc(O)c1C
REMARK SMILES IDX 1 1 2 2 8 3 6 4 5 5 4 6 3 7 9 8 7 9
REMARK H PARENT 7 10
REMARK Flexibility Score: inf
ROOT
ATOM      1  C   UNL     1      29.371  38.492  74.155  1.00  0.00     0.045 C 
ATOM      2  C   UNL     1      30.793  38.864  73.820  1.00  0.00    -0.045 A 
ATOM      3  C   UNL     1      31.491  38.274  72.730  1.00  0.00    -0.006 A 
ATOM      4  C   UNL     1      32.828  38.672  72.474  1.00  0.00     0.118 A 
ATOM      5  C   UNL     1      33.442  39.630  73.286  1.00  0.00     0.046 A 
ATOM      6  C   UNL     1      32.752  40.203  74.350  1.00  0.00     0.004 A 
ATOM      7  C   UNL     1      31.439  39.824  74.617  1.00  0.00     0.004 A 
ATOM      8  C   UNL     1      30.847  37.237  71.839  1.00  0.00     0.048 C 
ENDROOT
BRANCH   4   9
ATOM      9  O   UNL     1      33.575  38.136  71.421  1.00  0.00    -0.508 OA
ATOM     10  H   UNL     1      34.326  37.471  71.552  1.00  0.00     0.293 HD
ENDBRANCH   4   9
TORSDOF 1
ENDMDL
MODEL 4
REMARK VINA RESULT:    -3.639      1.796      2.790
REMARK INTER + INTRA:          -3.745
REMARK INTER:                  -3.745
REMARK INTRA:                   0.000
REMARK UNBOUND:                 0.000
REMARK SMILES Cc1cccc(O)c1C
REMARK SMILES IDX 1 1 2 2 8 3 6 4 5 5 4 6 3 7 9 8 7 9
REMARK H PARENT 7 10
REMARK Flexibility Score: inf
ROOT
ATOM      1  C   UNL     1      26.204  30.116  73.516  1.00  0.00     0.045 C 
ATOM      2  C   UNL     1      27.489  30.839  73.204  1.00  0.00    -0.045 A 
ATOM      3  C   UNL     1      28.755  30.194  73.273  1.00  0.00    -0.006 A 
ATOM      4  C   UNL     1      29.924  30.937  72.967  1.00  0.00     0.118 A 
ATOM      5  C   UNL     1      29.823  32.283  72.604  1.00  0.00     0.046 A 
ATOM      6  C   UNL     1      28.581  32.908  72.539  1.00  0.00     0.004 A 
ATOM      7  C   UNL     1      27.423  32.194  72.836  1.00  0.00     0.004 A 
ATOM      8  C   UNL     1      28.888  28.739  73.663  1.00  0.00     0.048 C 
ENDROOT
BRANCH   4   9
ATOM      9  O   UNL     1      31.200  30.369  73.012  1.00  0.00    -0.508 OA
ATOM     10  H   UNL     1      31.615  29.995  73.856  1.00  0.00     0.293 HD
ENDBRANCH   4   9
TORSDOF 1
ENDMDL
MODEL 5
REMARK VINA RESULT:    -3.639      2.158      4.077
REMARK INTER + INTRA:          -3.745
REMARK INTER:                  -3.745
REMARK INTRA:                   0.000
REMARK UNBOUND:                 0.000
REMARK SMILES Cc1cccc(O)c1C
REMARK SMILES IDX 1 1 2 2 8 3 6 4 5 5 4 6 3 7 9 8 7 9
REMARK H PARENT 7 10
REMARK Flexibility Score: inf
ROOT
ATOM      1  C   UNL     1      27.677  32.413  72.701  1.00  0.00     0.045 C 
ATOM      2  C   UNL     1      27.703  30.982  73.172  1.00  0.00    -0.045 A 
ATOM      3  C   UNL     1      28.913  30.240  73.268  1.00  0.00    -0.006 A 
ATOM      4  C   UNL     1      28.863  28.897  73.719  1.00  0.00     0.118 A 
ATOM      5  C   UNL     1      27.638  28.318  74.062  1.00  0.00     0.046 A 
ATOM      6  C   UNL     1      26.458  29.050  73.966  1.00  0.00     0.004 A 
ATOM      7  C   UNL     1      26.488  30.370  73.524  1.00  0.00     0.004 A 
ATOM      8  C   UNL     1      30.250  30.846  72.903  1.00  0.00     0.048 C 
ENDROOT
BRANCH   4   9
ATOM      9  O   UNL     1      30.011  28.108  73.839  1.00  0.00    -0.508 OA
ATOM     10  H   UNL     1      30.701  28.235  74.568  1.00  0.00     0.293 HD
ENDBRANCH   4   9
TORSDOF 1
ENDMDL
MODEL 6
REMARK VINA RESULT:    -3.617      1.177      2.894
REMARK INTER + INTRA:          -3.722
REMARK INTER:                  -3.722
REMARK INTRA:                   0.000
REMARK UNBOUND:                 0.000
REMARK SMILES Cc1cccc(O)c1C
REMARK SMILES IDX 1 1 2 2 8 3 6 4 5 5 4 6 3 7 9 8 7 9
REMARK H PARENT 7 10
REMARK Flexibility Score: inf
ROOT
ATOM      1  C   UNL     1      30.320  31.143  72.864  1.00  0.00     0.045 C 
ATOM      2  C   UNL     1      29.037  30.436  73.217  1.00  0.00    -0.045 A 
ATOM      3  C   UNL     1      27.777  31.096  73.183  1.00  0.00    -0.006 A 
ATOM      4  C   UNL     1      26.610  30.369  73.529  1.00  0.00     0.118 A 
ATOM      5  C   UNL     1      26.706  29.024  73.897  1.00  0.00     0.046 A 
ATOM      6  C   UNL     1      27.942  28.384  73.927  1.00  0.00     0.004 A 
ATOM      7  C   UNL     1      29.098  29.083  73.592  1.00  0.00     0.004 A 
ATOM      8  C   UNL     1      27.650  32.550  72.789  1.00  0.00     0.048 C 
ENDROOT
BRANCH   4   9
ATOM      9  O   UNL     1      25.339  30.951  73.518  1.00  0.00    -0.508 OA
ATOM     10  H   UNL     1      24.616  30.725  74.188  1.00  0.00     0.293 HD
ENDBRANCH   4   9
TORSDOF 1
ENDMDL
MODEL 7
REMARK VINA RESULT:    -3.606     15.069     15.807
REMARK INTER + INTRA:          -3.712
REMARK INTER:                  -3.712
REMARK INTRA:                   0.000
REMARK UNBOUND:                 0.000
REMARK SMILES Cc1cccc(O)c1C
REMARK SMILES IDX 1 1 2 2 8 3 6 4 5 5 4 6 3 7 9 8 7 9
REMARK H PARENT 7 10
REMARK Flexibility Score: inf
ROOT
ATOM      1  C   UNL     1      22.586  34.996  84.806  1.00  0.00     0.045 C 
ATOM      2  C   UNL     1      22.970  35.675  86.095  1.00  0.00    -0.045 A 
ATOM      3  C   UNL     1      22.954  37.090  86.238  1.00  0.00    -0.006 A 
ATOM      4  C   UNL     1      23.329  37.661  87.481  1.00  0.00     0.118 A 
ATOM      5  C   UNL     1      23.706  36.836  88.545  1.00  0.00     0.046 A 
ATOM      6  C   UNL     1      23.718  35.452  88.399  1.00  0.00     0.004 A 
ATOM      7  C   UNL     1      23.354  34.874  87.185  1.00  0.00     0.004 A 
ATOM      8  C   UNL     1      22.550  38.001  85.101  1.00  0.00     0.048 C 
ENDROOT
BRANCH   4   9
ATOM      9  O   UNL     1      23.337  39.042  87.694  1.00  0.00    -0.508 OA
ATOM     10  H   UNL     1      23.210  39.467  88.603  1.00  0.00     0.293 HD
ENDBRANCH   4   9
TORSDOF 1
ENDMDL
MODEL 8
REMARK VINA RESULT:    -3.554     14.527     15.504
REMARK INTER + INTRA:          -3.658
REMARK INTER:                  -3.658
REMARK INTRA:                   0.000
REMARK UNBOUND:                 0.000
REMARK SMILES Cc1cccc(O)c1C
REMARK SMILES IDX 1 1 2 2 8 3 6 4 5 5 4 6 3 7 9 8 7 9
REMARK H PARENT 7 10
REMARK Flexibility Score: inf
ROOT
ATOM      1  C   UNL     1      19.798  33.650  87.228  1.00  0.00     0.045 C 
ATOM      2  C   UNL     1      21.055  34.236  86.639  1.00  0.00    -0.045 A 
ATOM      3  C   UNL     1      22.204  34.510  87.432  1.00  0.00    -0.006 A 
ATOM      4  C   UNL     1      23.353  35.063  86.811  1.00  0.00     0.118 A 
ATOM      5  C   UNL     1      23.347  35.332  85.439  1.00  0.00     0.046 A 
ATOM      6  C   UNL     1      22.219  35.061  84.669  1.00  0.00     0.004 A 
ATOM      7  C   UNL     1      21.082  34.519  85.262  1.00  0.00     0.004 A 
ATOM      8  C   UNL     1      22.233  34.228  88.917  1.00  0.00     0.048 C 
ENDROOT
BRANCH   4   9
ATOM      9  O   UNL     1      24.517  35.358  87.526  1.00  0.00    -0.508 OA
ATOM     10  H   UNL     1      24.599  36.142  88.160  1.00  0.00     0.293 HD
ENDBRANCH   4   9
TORSDOF 1
ENDMDL
MODEL 9
REMARK VINA RESULT:    -3.521     15.331     16.142
REMARK INTER + INTRA:          -3.624
REMARK INTER:                  -3.624
REMARK INTRA:                   0.000
REMARK UNBOUND:                 0.000
REMARK SMILES Cc1cccc(O)c1C
REMARK SMILES IDX 1 1 2 2 8 3 6 4 5 5 4 6 3 7 9 8 7 9
REMARK H PARENT 7 10
REMARK Flexibility Score: inf
ROOT
ATOM      1  C   UNL     1      22.564  38.050  85.108  1.00  0.00     0.045 C 
ATOM      2  C   UNL     1      22.925  37.362  86.399  1.00  0.00    -0.045 A 
ATOM      3  C   UNL     1      23.091  35.952  86.483  1.00  0.00    -0.006 A 
ATOM      4  C   UNL     1      23.430  35.372  87.732  1.00  0.00     0.118 A 
ATOM      5  C   UNL     1      23.597  36.182  88.859  1.00  0.00     0.046 A 
ATOM      6  C   UNL     1      23.433  37.562  88.769  1.00  0.00     0.004 A 
ATOM      7  C   UNL     1      23.099  38.148  87.552  1.00  0.00     0.004 A 
ATOM      8  C   UNL     1      22.916  35.056  85.278  1.00  0.00     0.048 C 
ENDROOT
BRANCH   4   9
ATOM      9  O   UNL     1      23.610  33.995  87.889  1.00  0.00    -0.508 OA
ATOM     10  H   UNL     1      23.293  33.479  88.700  1.00  0.00     0.293 HD
ENDBRANCH   4   9
TORSDOF 1
ENDMDL
