MODEL 1
REMARK VINA RESULT:    -4.880      0.000      0.000
REMARK INTER + INTRA:          -6.717
REMARK INTER:                  -6.307
REMARK INTRA:                  -0.410
REMARK UNBOUND:                -0.410
REMARK SMILES CO[C@]1(CO)O[C@@H](CO)[C@H](O)[C@H]1O
REMARK SMILES IDX 3 1 12 2 10 3 7 4 6 5 2 6 1 7 4 8 5 9 13 11 11 13 8 15 9 16
REMARK H PARENT 5 10 13 12 11 14 9 17
REMARK Flexibility Score: inf
ROOT
ATOM      1  C   UNL     1      22.417   3.389  38.107  1.00  0.00     0.221 C 
ATOM      2  C   UNL     1      21.165   3.995  38.782  1.00  0.00     0.207 C 
ATOM      3  C   UNL     1      21.620   4.230  40.200  1.00  0.00     0.180 C 
ATOM      4  C   UNL     1      22.672   3.142  40.385  1.00  0.00     0.179 C 
ATOM      5  O   UNL     1      23.247   2.853  39.129  1.00  0.00    -0.337 OA
ENDROOT
BRANCH   1   6
ATOM      6  O   UNL     1      21.959   2.353  37.240  1.00  0.00    -0.349 OA
ATOM      7  C   UNL     1      21.865   2.755  35.887  1.00  0.00     0.198 C 
ENDBRANCH   1   6
BRANCH   1   8
ATOM      8  C   UNL     1      23.228   4.454  37.318  1.00  0.00     0.224 C 
BRANCH   8   9
ATOM      9  O   UNL     1      23.926   5.298  38.194  1.00  0.00    -0.391 OA
ATOM     10  H   UNL     1      23.239   5.761  38.739  1.00  0.00     0.210 HD
ENDBRANCH   8   9
ENDBRANCH   1   8
BRANCH   2  11
ATOM     11  O   UNL     1      20.731   5.185  38.172  1.00  0.00    -0.385 OA
ATOM     12  H   UNL     1      20.399   5.771  38.901  1.00  0.00     0.211 HD
ENDBRANCH   2  11
BRANCH   3  13
ATOM     13  O   UNL     1      20.569   4.136  41.132  1.00  0.00    -0.387 OA
ATOM     14  H   UNL     1      19.739   3.884  40.647  1.00  0.00     0.211 HD
ENDBRANCH   3  13
BRANCH   4  15
ATOM     15  C   UNL     1      23.763   3.568  41.374  1.00  0.00     0.191 C 
BRANCH  15  16
ATOM     16  O   UNL     1      23.342   4.681  42.117  1.00  0.00    -0.394 OA
ATOM     17  H   UNL     1      22.400   4.857  41.856  1.00  0.00     0.210 HD
ENDBRANCH  15  16
ENDBRANCH   4  15
TORSDOF 7
ENDMDL
MODEL 2
REMARK VINA RESULT:    -4.662      1.439      2.712
REMARK INTER + INTRA:          -6.436
REMARK INTER:                  -5.993
REMARK INTRA:                  -0.443
REMARK UNBOUND:                -0.410
REMARK SMILES CO[C@]1(CO)O[C@@H](CO)[C@H](O)[C@H]1O
REMARK SMILES IDX 3 1 12 2 10 3 7 4 6 5 2 6 1 7 4 8 5 9 13 11 11 13 8 15 9 16
REMARK H PARENT 5 10 13 12 11 14 9 17
REMARK Flexibility Score: inf
ROOT
ATOM      1  C   UNL     1      20.997   3.322  39.037  1.00  0.00     0.221 C 
ATOM      2  C   UNL     1      21.223   3.528  40.553  1.00  0.00     0.207 C 
ATOM      3  C   UNL     1      22.658   3.985  40.626  1.00  0.00     0.180 C 
ATOM      4  C   UNL     1      23.273   3.311  39.404  1.00  0.00     0.179 C 
ATOM      5  O   UNL     1      22.269   3.150  38.426  1.00  0.00    -0.337 OA
ENDROOT
BRANCH   1   6
ATOM      6  O   UNL     1      20.209   2.143  38.893  1.00  0.00    -0.349 OA
ATOM      7  C   UNL     1      20.383   1.218  39.949  1.00  0.00     0.198 C 
ENDBRANCH   1   6
BRANCH   1   8
ATOM      8  C   UNL     1      20.295   4.543  38.380  1.00  0.00     0.224 C 
BRANCH   8   9
ATOM      9  O   UNL     1      21.213   5.316  37.655  1.00  0.00    -0.391 OA
ATOM     10  H   UNL     1      20.717   6.118  37.346  1.00  0.00     0.210 HD
ENDBRANCH   8   9
ENDBRANCH   1   8
BRANCH   2  11
ATOM     11  O   UNL     1      20.348   4.472  41.117  1.00  0.00    -0.385 OA
ATOM     12  H   UNL     1      19.579   4.551  40.495  1.00  0.00     0.211 HD
ENDBRANCH   2  11
BRANCH   3  13
ATOM     13  O   UNL     1      23.288   3.611  41.829  1.00  0.00    -0.387 OA
ATOM     14  H   UNL     1      23.167   4.344  42.489  1.00  0.00     0.211 HD
ENDBRANCH   3  13
BRANCH   4  15
ATOM     15  C   UNL     1      24.436   4.130  38.829  1.00  0.00     0.191 C 
BRANCH  15  16
ATOM     16  O   UNL     1      23.954   5.280  38.188  1.00  0.00    -0.394 OA
ATOM     17  H   UNL     1      24.660   5.972  38.277  1.00  0.00     0.210 HD
ENDBRANCH  15  16
ENDBRANCH   4  15
TORSDOF 7
ENDMDL
MODEL 3
REMARK VINA RESULT:    -4.600      1.419      3.093
REMARK INTER + INTRA:          -6.355
REMARK INTER:                  -6.136
REMARK INTRA:                  -0.219
REMARK UNBOUND:                -0.410
REMARK SMILES CO[C@]1(CO)O[C@@H](CO)[C@H](O)[C@H]1O
REMARK SMILES IDX 3 1 12 2 10 3 7 4 6 5 2 6 1 7 4 8 5 9 13 11 11 13 8 15 9 16
REMARK H PARENT 5 10 13 12 11 14 9 17
REMARK Flexibility Score: inf
ROOT
ATOM      1  C   UNL     1      23.389   3.750  39.852  1.00  0.00     0.221 C 
ATOM      2  C   UNL     1      23.002   4.224  38.432  1.00  0.00     0.207 C 
ATOM      3  C   UNL     1      21.495   4.249  38.477  1.00  0.00     0.180 C 
ATOM      4  C   UNL     1      21.186   3.165  39.504  1.00  0.00     0.179 C 
ATOM      5  O   UNL     1      22.265   3.081  40.409  1.00  0.00    -0.337 OA
ENDROOT
BRANCH   1   6
ATOM      6  O   UNL     1      24.485   2.850  39.704  1.00  0.00    -0.349 OA
ATOM      7  C   UNL     1      25.128   2.952  38.448  1.00  0.00     0.198 C 
ENDBRANCH   1   6
BRANCH   1   8
ATOM      8  C   UNL     1      23.767   4.938  40.781  1.00  0.00     0.224 C 
BRANCH   8   9
ATOM      9  O   UNL     1      22.833   5.078  41.816  1.00  0.00    -0.391 OA
ATOM     10  H   UNL     1      22.763   4.188  42.249  1.00  0.00     0.210 HD
ENDBRANCH   8   9
ENDBRANCH   1   8
BRANCH   2  11
ATOM     11  O   UNL     1      23.532   5.485  38.108  1.00  0.00    -0.385 OA
ATOM     12  H   UNL     1      22.762   6.107  38.041  1.00  0.00     0.211 HD
ENDBRANCH   2  11
BRANCH   3  13
ATOM     13  O   UNL     1      20.908   3.995  37.223  1.00  0.00    -0.387 OA
ATOM     14  H   UNL     1      20.509   4.841  36.884  1.00  0.00     0.211 HD
ENDBRANCH   3  13
BRANCH   4  15
ATOM     15  C   UNL     1      19.887   3.456  40.265  1.00  0.00     0.191 C 
BRANCH  15  16
ATOM     16  O   UNL     1      20.072   4.521  41.158  1.00  0.00    -0.394 OA
ATOM     17  H   UNL     1      19.252   4.569  41.716  1.00  0.00     0.210 HD
ENDBRANCH  15  16
ENDBRANCH   4  15
TORSDOF 7
ENDMDL
MODEL 4
REMARK VINA RESULT:    -4.482     15.478     17.442
REMARK INTER + INTRA:          -6.202
REMARK INTER:                  -5.639
REMARK INTRA:                  -0.563
REMARK UNBOUND:                -0.410
REMARK SMILES CO[C@]1(CO)O[C@@H](CO)[C@H](O)[C@H]1O
REMARK SMILES IDX 3 1 12 2 10 3 7 4 6 5 2 6 1 7 4 8 5 9 13 11 11 13 8 15 9 16
REMARK H PARENT 5 10 13 12 11 14 9 17
REMARK Flexibility Score: inf
ROOT
ATOM      1  C   UNL     1      38.331  -0.551  44.755  1.00  0.00     0.221 C 
ATOM      2  C   UNL     1      39.081   0.513  45.589  1.00  0.00     0.207 C 
ATOM      3  C   UNL     1      38.046   1.594  45.777  1.00  0.00     0.180 C 
ATOM      4  C   UNL     1      37.189   1.439  44.525  1.00  0.00     0.179 C 
ATOM      5  O   UNL     1      37.240   0.092  44.108  1.00  0.00    -0.337 OA
ENDROOT
BRANCH   1   6
ATOM      6  O   UNL     1      39.257  -1.053  43.794  1.00  0.00    -0.349 OA
ATOM      7  C   UNL     1      38.641  -1.503  42.602  1.00  0.00     0.198 C 
ENDBRANCH   1   6
BRANCH   1   8
ATOM      8  C   UNL     1      37.772  -1.700  45.640  1.00  0.00     0.224 C 
BRANCH   8   9
ATOM      9  O   UNL     1      38.811  -2.515  46.114  1.00  0.00    -0.391 OA
ATOM     10  H   UNL     1      38.594  -3.438  45.822  1.00  0.00     0.210 HD
ENDBRANCH   8   9
ENDBRANCH   1   8
BRANCH   2  11
ATOM     11  O   UNL     1      39.545   0.020  46.821  1.00  0.00    -0.385 OA
ATOM     12  H   UNL     1      39.693  -0.953  46.698  1.00  0.00     0.211 HD
ENDBRANCH   2  11
BRANCH   3  13
ATOM     13  O   UNL     1      38.614   2.877  45.893  1.00  0.00    -0.387 OA
ATOM     14  H   UNL     1      39.602   2.781  45.938  1.00  0.00     0.211 HD
ENDBRANCH   3  13
BRANCH   4  15
ATOM     15  C   UNL     1      35.734   1.853  44.778  1.00  0.00     0.191 C 
BRANCH  15  16
ATOM     16  O   UNL     1      35.643   2.636  45.937  1.00  0.00    -0.394 OA
ATOM     17  H   UNL     1      34.768   2.424  46.355  1.00  0.00     0.210 HD
ENDBRANCH  15  16
ENDBRANCH   4  15
TORSDOF 7
ENDMDL
MODEL 5
REMARK VINA RESULT:    -4.437      1.582      4.139
REMARK INTER + INTRA:          -6.144
REMARK INTER:                  -5.578
REMARK INTRA:                  -0.566
REMARK UNBOUND:                -0.410
REMARK SMILES CO[C@]1(CO)O[C@@H](CO)[C@H](O)[C@H]1O
REMARK SMILES IDX 3 1 12 2 10 3 7 4 6 5 2 6 1 7 4 8 5 9 13 11 11 13 8 15 9 16
REMARK H PARENT 5 10 13 12 11 14 9 17
REMARK Flexibility Score: inf
ROOT
ATOM      1  C   UNL     1      22.451   3.170  39.535  1.00  0.00     0.221 C 
ATOM      2  C   UNL     1      23.761   3.984  39.422  1.00  0.00     0.207 C 
ATOM      3  C   UNL     1      23.949   4.124  37.932  1.00  0.00     0.180 C 
ATOM      4  C   UNL     1      23.273   2.864  37.403  1.00  0.00     0.179 C 
ATOM      5  O   UNL     1      22.255   2.487  38.304  1.00  0.00    -0.337 OA
ENDROOT
BRANCH   1   6
ATOM      6  O   UNL     1      22.633   2.239  40.600  1.00  0.00    -0.349 OA
ATOM      7  C   UNL     1      21.908   1.037  40.424  1.00  0.00     0.198 C 
ENDBRANCH   1   6
BRANCH   1   8
ATOM      8  C   UNL     1      21.218   4.079  39.798  1.00  0.00     0.224 C 
BRANCH   8   9
ATOM      9  O   UNL     1      21.115   4.397  41.160  1.00  0.00    -0.391 OA
ATOM     10  H   UNL     1      21.836   3.893  41.618  1.00  0.00     0.210 HD
ENDBRANCH   8   9
ENDBRANCH   1   8
BRANCH   2  11
ATOM     11  O   UNL     1      23.687   5.237  40.055  1.00  0.00    -0.385 OA
ATOM     12  H   UNL     1      23.719   5.920  39.335  1.00  0.00     0.211 HD
ENDBRANCH   2  11
BRANCH   3  13
ATOM     13  O   UNL     1      25.305   4.212  37.561  1.00  0.00    -0.387 OA
ATOM     14  H   UNL     1      25.453   3.630  36.769  1.00  0.00     0.211 HD
ENDBRANCH   3  13
BRANCH   4  15
ATOM     15  C   UNL     1      22.681   3.081  36.005  1.00  0.00     0.191 C 
BRANCH  15  16
ATOM     16  O   UNL     1      23.688   3.440  35.098  1.00  0.00    -0.394 OA
ATOM     17  H   UNL     1      24.415   3.857  35.630  1.00  0.00     0.210 HD
ENDBRANCH  15  16
ENDBRANCH   4  15
TORSDOF 7
ENDMDL
MODEL 6
REMARK VINA RESULT:    -4.388      1.765      2.298
REMARK INTER + INTRA:          -6.082
REMARK INTER:                  -5.496
REMARK INTRA:                  -0.586
REMARK UNBOUND:                -0.410
REMARK SMILES CO[C@]1(CO)O[C@@H](CO)[C@H](O)[C@H]1O
REMARK SMILES IDX 3 1 12 2 10 3 7 4 6 5 2 6 1 7 4 8 5 9 13 11 11 13 8 15 9 16
REMARK H PARENT 5 10 13 12 11 14 9 17
REMARK Flexibility Score: inf
ROOT
ATOM      1  C   UNL     1      23.708   3.268  37.184  1.00  0.00     0.221 C 
ATOM      2  C   UNL     1      23.067   4.459  37.933  1.00  0.00     0.207 C 
ATOM      3  C   UNL     1      22.549   3.829  39.201  1.00  0.00     0.180 C 
ATOM      4  C   UNL     1      22.260   2.400  38.755  1.00  0.00     0.179 C 
ATOM      5  O   UNL     1      23.136   2.072  37.698  1.00  0.00    -0.337 OA
ENDROOT
BRANCH   1   6
ATOM      6  O   UNL     1      23.385   3.425  35.805  1.00  0.00    -0.349 OA
ATOM      7  C   UNL     1      23.270   2.196  35.112  1.00  0.00     0.198 C 
ENDBRANCH   1   6
BRANCH   1   8
ATOM      8  C   UNL     1      25.247   3.208  37.391  1.00  0.00     0.224 C 
BRANCH   8   9
ATOM      9  O   UNL     1      25.899   4.130  36.560  1.00  0.00    -0.391 OA
ATOM     10  H   UNL     1      25.912   3.725  35.654  1.00  0.00     0.210 HD
ENDBRANCH   8   9
ENDBRANCH   1   8
BRANCH   2  11
ATOM     11  O   UNL     1      23.979   5.494  38.204  1.00  0.00    -0.385 OA
ATOM     12  H   UNL     1      24.368   5.302  39.097  1.00  0.00     0.211 HD
ENDBRANCH   2  11
BRANCH   3  13
ATOM     13  O   UNL     1      21.410   4.483  39.708  1.00  0.00    -0.387 OA
ATOM     14  H   UNL     1      21.326   5.365  39.258  1.00  0.00     0.211 HD
ENDBRANCH   3  13
BRANCH   4  15
ATOM     15  C   UNL     1      22.430   1.400  39.904  1.00  0.00     0.191 C 
BRANCH  15  16
ATOM     16  O   UNL     1      22.112   2.004  41.129  1.00  0.00    -0.394 OA
ATOM     17  H   UNL     1      21.230   2.445  41.008  1.00  0.00     0.210 HD
ENDBRANCH  15  16
ENDBRANCH   4  15
TORSDOF 7
ENDMDL
MODEL 7
REMARK VINA RESULT:    -4.380      2.232      3.512
REMARK INTER + INTRA:          -6.071
REMARK INTER:                  -5.540
REMARK INTRA:                  -0.531
REMARK UNBOUND:                -0.410
REMARK SMILES CO[C@]1(CO)O[C@@H](CO)[C@H](O)[C@H]1O
REMARK SMILES IDX 3 1 12 2 10 3 7 4 6 5 2 6 1 7 4 8 5 9 13 11 11 13 8 15 9 16
REMARK H PARENT 5 10 13 12 11 14 9 17
REMARK Flexibility Score: inf
ROOT
ATOM      1  C   UNL     1      21.246   4.935  36.071  1.00  0.00     0.221 C 
ATOM      2  C   UNL     1      21.072   4.318  37.478  1.00  0.00     0.207 C 
ATOM      3  C   UNL     1      22.458   3.825  37.810  1.00  0.00     0.180 C 
ATOM      4  C   UNL     1      23.029   3.517  36.430  1.00  0.00     0.179 C 
ATOM      5  O   UNL     1      22.411   4.367  35.488  1.00  0.00    -0.337 OA
ENDROOT
BRANCH   1   6
ATOM      6  O   UNL     1      20.087   4.582  35.318  1.00  0.00    -0.349 OA
ATOM      7  C   UNL     1      20.365   4.305  33.959  1.00  0.00     0.198 C 
ENDBRANCH   1   6
BRANCH   1   8
ATOM      8  C   UNL     1      21.423   6.478  36.127  1.00  0.00     0.224 C 
BRANCH   8   9
ATOM      9  O   UNL     1      20.177   7.123  36.124  1.00  0.00    -0.391 OA
ATOM     10  H   UNL     1      19.936   7.264  37.076  1.00  0.00     0.210 HD
ENDBRANCH   8   9
ENDBRANCH   1   8
BRANCH   2  11
ATOM     11  O   UNL     1      20.608   5.242  38.431  1.00  0.00    -0.385 OA
ATOM     12  H   UNL     1      19.815   5.686  38.031  1.00  0.00     0.211 HD
ENDBRANCH   2  11
BRANCH   3  13
ATOM     13  O   UNL     1      22.447   2.701  38.659  1.00  0.00    -0.387 OA
ATOM     14  H   UNL     1      21.748   2.071  38.338  1.00  0.00     0.211 HD
ENDBRANCH   3  13
BRANCH   4  15
ATOM     15  C   UNL     1      24.549   3.708  36.389  1.00  0.00     0.191 C 
BRANCH  15  16
ATOM     16  O   UNL     1      24.995   4.342  37.558  1.00  0.00    -0.394 OA
ATOM     17  H   UNL     1      25.652   5.031  37.275  1.00  0.00     0.210 HD
ENDBRANCH  15  16
ENDBRANCH   4  15
TORSDOF 7
ENDMDL
MODEL 8
REMARK VINA RESULT:    -4.375     14.341     16.401
REMARK INTER + INTRA:          -6.064
REMARK INTER:                  -5.493
REMARK INTRA:                  -0.571
REMARK UNBOUND:                -0.410
REMARK SMILES CO[C@]1(CO)O[C@@H](CO)[C@H](O)[C@H]1O
REMARK SMILES IDX 3 1 12 2 10 3 7 4 6 5 2 6 1 7 4 8 5 9 13 11 11 13 8 15 9 16
REMARK H PARENT 5 10 13 12 11 14 9 17
REMARK Flexibility Score: inf
ROOT
ATOM      1  C   UNL     1      37.826   0.614  44.844  1.00  0.00     0.221 C 
ATOM      2  C   UNL     1      37.628   1.990  45.521  1.00  0.00     0.207 C 
ATOM      3  C   UNL     1      36.143   2.221  45.402  1.00  0.00     0.180 C 
ATOM      4  C   UNL     1      35.799   1.451  44.131  1.00  0.00     0.179 C 
ATOM      5  O   UNL     1      36.714   0.386  43.989  1.00  0.00    -0.337 OA
ENDROOT
BRANCH   1   6
ATOM      6  O   UNL     1      39.031   0.695  44.087  1.00  0.00    -0.349 OA
ATOM      7  C   UNL     1      39.384   2.019  43.733  1.00  0.00     0.198 C 
ENDBRANCH   1   6
BRANCH   1   8
ATOM      8  C   UNL     1      37.898  -0.542  45.881  1.00  0.00     0.224 C 
BRANCH   8   9
ATOM      9  O   UNL     1      39.191  -0.658  46.409  1.00  0.00    -0.391 OA
ATOM     10  H   UNL     1      39.081  -0.756  47.390  1.00  0.00     0.210 HD
ENDBRANCH   8   9
ENDBRANCH   1   8
BRANCH   2  11
ATOM     11  O   UNL     1      38.050   2.010  46.862  1.00  0.00    -0.385 OA
ATOM     12  H   UNL     1      37.933   1.087  47.209  1.00  0.00     0.211 HD
ENDBRANCH   2  11
BRANCH   3  13
ATOM     13  O   UNL     1      35.809   3.587  45.319  1.00  0.00    -0.387 OA
ATOM     14  H   UNL     1      36.383   4.010  44.626  1.00  0.00     0.211 HD
ENDBRANCH   3  13
BRANCH   4  15
ATOM     15  C   UNL     1      34.366   0.909  44.166  1.00  0.00     0.191 C 
BRANCH  15  16
ATOM     16  O   UNL     1      33.554   1.723  44.969  1.00  0.00    -0.394 OA
ATOM     17  H   UNL     1      32.704   1.228  45.108  1.00  0.00     0.210 HD
ENDBRANCH  15  16
ENDBRANCH   4  15
TORSDOF 7
ENDMDL
MODEL 9
REMARK VINA RESULT:    -4.349     14.879     16.826
REMARK INTER + INTRA:          -6.031
REMARK INTER:                  -5.608
REMARK INTRA:                  -0.423
REMARK UNBOUND:                -0.410
REMARK SMILES CO[C@]1(CO)O[C@@H](CO)[C@H](O)[C@H]1O
REMARK SMILES IDX 3 1 12 2 10 3 7 4 6 5 2 6 1 7 4 8 5 9 13 11 11 13 8 15 9 16
REMARK H PARENT 5 10 13 12 11 14 9 17
REMARK Flexibility Score: inf
ROOT
ATOM      1  C   UNL     1      38.889   6.126  43.930  1.00  0.00     0.221 C 
ATOM      2  C   UNL     1      38.440   7.432  44.626  1.00  0.00     0.207 C 
ATOM      3  C   UNL     1      36.969   7.204  44.867  1.00  0.00     0.180 C 
ATOM      4  C   UNL     1      36.597   6.268  43.721  1.00  0.00     0.179 C 
ATOM      5  O   UNL     1      37.736   5.513  43.369  1.00  0.00    -0.337 OA
ENDROOT
BRANCH   1   6
ATOM      6  O   UNL     1      39.806   6.499  42.903  1.00  0.00    -0.349 OA
ATOM      7  C   UNL     1      39.481   5.957  41.637  1.00  0.00     0.198 C 
ENDBRANCH   1   6
BRANCH   1   8
ATOM      8  C   UNL     1      39.545   5.129  44.925  1.00  0.00     0.224 C 
BRANCH   8   9
ATOM      9  O   UNL     1      38.650   4.105  45.267  1.00  0.00    -0.391 OA
ATOM     10  H   UNL     1      38.237   4.375  46.128  1.00  0.00     0.210 HD
ENDBRANCH   8   9
ENDBRANCH   1   8
BRANCH   2  11
ATOM     11  O   UNL     1      39.130   7.681  45.825  1.00  0.00    -0.385 OA
ATOM     12  H   UNL     1      40.091   7.521  45.637  1.00  0.00     0.211 HD
ENDBRANCH   2  11
BRANCH   3  13
ATOM     13  O   UNL     1      36.225   8.399  44.859  1.00  0.00    -0.387 OA
ATOM     14  H   UNL     1      36.552   8.979  45.596  1.00  0.00     0.211 HD
ENDBRANCH   3  13
BRANCH   4  15
ATOM     15  C   UNL     1      35.446   5.331  44.104  1.00  0.00     0.191 C 
BRANCH  15  16
ATOM     16  O   UNL     1      35.861   4.424  45.089  1.00  0.00    -0.394 OA
ATOM     17  H   UNL     1      36.485   3.790  44.647  1.00  0.00     0.210 HD
ENDBRANCH  15  16
ENDBRANCH   4  15
TORSDOF 7
ENDMDL
