MODEL 1
REMARK VINA RESULT:    -2.902      0.000      0.000
REMARK INTER + INTRA:          -3.454
REMARK INTER:                  -3.412
REMARK INTRA:                  -0.043
REMARK UNBOUND:                -0.043
REMARK SMILES CCCCC(=O)[O-]
REMARK SMILES IDX 4 1 5 2 6 3 7 4 3 5 2 6 1 7
REMARK H PARENT
REMARK Flexibility Score: inf
ROOT
ATOM      1  C   UNL     1     143.096 158.915 153.950  1.00  0.00     0.053 C 
ENDROOT
BRANCH   1   2
ATOM      2  C   UNL     1     143.999 158.857 155.142  1.00  0.00     0.041 C 
ATOM      3  O   UNL     1     144.740 159.834 155.424  1.00  0.00    -0.550 OA
ATOM      4  O   UNL     1     143.985 157.742 155.971  1.00  0.00    -0.550 OA
ENDBRANCH   1   2
BRANCH   1   5
ATOM      5  C   UNL     1     142.150 160.117 154.054  1.00  0.00     0.006 C 
BRANCH   5   6
ATOM      6  C   UNL     1     140.694 159.753 153.720  1.00  0.00    -0.003 C 
ATOM      7  C   UNL     1     140.562 158.371 153.082  1.00  0.00     0.004 C 
ENDBRANCH   5   6
ENDBRANCH   1   5
TORSDOF 3
ENDMDL
MODEL 2
REMARK VINA RESULT:    -2.681     19.439     20.051
REMARK INTER + INTRA:          -3.194
REMARK INTER:                  -3.131
REMARK INTRA:                  -0.064
REMARK UNBOUND:                -0.043
REMARK SMILES CCCCC(=O)[O-]
REMARK SMILES IDX 4 1 5 2 6 3 7 4 3 5 2 6 1 7
REMARK H PARENT
REMARK Flexibility Score: inf
ROOT
ATOM      1  C   UNL     1     143.436 142.475 145.109  1.00  0.00     0.053 C 
ENDROOT
BRANCH   1   2
ATOM      2  C   UNL     1     144.314 142.063 143.970  1.00  0.00     0.041 C 
ATOM      3  O   UNL     1     144.569 142.873 143.041  1.00  0.00    -0.550 OA
ATOM      4  O   UNL     1     144.891 140.799 143.959  1.00  0.00    -0.550 OA
ENDBRANCH   1   2
BRANCH   1   5
ATOM      5  C   UNL     1     142.990 141.246 145.912  1.00  0.00     0.006 C 
BRANCH   5   6
ATOM      6  C   UNL     1     141.615 140.720 145.470  1.00  0.00    -0.003 C 
ATOM      7  C   UNL     1     140.486 141.714 145.743  1.00  0.00     0.004 C 
ENDBRANCH   5   6
ENDBRANCH   1   5
TORSDOF 3
ENDMDL
MODEL 3
REMARK VINA RESULT:    -2.626     19.256     20.209
REMARK INTER + INTRA:          -3.130
REMARK INTER:                  -3.093
REMARK INTRA:                  -0.037
REMARK UNBOUND:                -0.043
REMARK SMILES CCCCC(=O)[O-]
REMARK SMILES IDX 4 1 5 2 6 3 7 4 3 5 2 6 1 7
REMARK H PARENT
REMARK Flexibility Score: inf
ROOT
ATOM      1  C   UNL     1     143.280 141.395 145.582  1.00  0.00     0.053 C 
ENDROOT
BRANCH   1   2
ATOM      2  C   UNL     1     144.098 141.163 144.351  1.00  0.00     0.041 C 
ATOM      3  O   UNL     1     144.468 142.136 143.643  1.00  0.00    -0.550 OA
ATOM      4  O   UNL     1     144.494 139.875 144.012  1.00  0.00    -0.550 OA
ENDBRANCH   1   2
BRANCH   1   5
ATOM      5  C   UNL     1     141.970 140.602 145.511  1.00  0.00     0.006 C 
BRANCH   5   6
ATOM      6  C   UNL     1     140.745 141.452 145.885  1.00  0.00    -0.003 C 
ATOM      7  C   UNL     1     141.099 142.637 146.781  1.00  0.00     0.004 C 
ENDBRANCH   5   6
ENDBRANCH   1   5
TORSDOF 3
ENDMDL
MODEL 4
REMARK VINA RESULT:    -2.546     18.491     19.224
REMARK INTER + INTRA:          -3.035
REMARK INTER:                  -2.952
REMARK INTRA:                  -0.083
REMARK UNBOUND:                -0.043
REMARK SMILES CCCCC(=O)[O-]
REMARK SMILES IDX 4 1 5 2 6 3 7 4 3 5 2 6 1 7
REMARK H PARENT
REMARK Flexibility Score: inf
ROOT
ATOM      1  C   UNL     1     142.298 141.882 147.809  1.00  0.00     0.053 C 
ENDROOT
BRANCH   1   2
ATOM      2  C   UNL     1     141.927 140.996 148.956  1.00  0.00     0.041 C 
ATOM      3  O   UNL     1     142.605 139.966 149.207  1.00  0.00    -0.550 OA
ATOM      4  O   UNL     1     140.860 141.335 149.779  1.00  0.00    -0.550 OA
ENDBRANCH   1   2
BRANCH   1   5
ATOM      5  C   UNL     1     141.047 142.292 147.023  1.00  0.00     0.006 C 
BRANCH   5   6
ATOM      6  C   UNL     1     140.788 141.383 145.811  1.00  0.00    -0.003 C 
ATOM      7  C   UNL     1     142.069 140.775 145.243  1.00  0.00     0.004 C 
ENDBRANCH   5   6
ENDBRANCH   1   5
TORSDOF 3
ENDMDL
MODEL 5
REMARK VINA RESULT:    -2.489     19.107     20.166
REMARK INTER + INTRA:          -2.968
REMARK INTER:                  -2.902
REMARK INTRA:                  -0.066
REMARK UNBOUND:                -0.043
REMARK SMILES CCCCC(=O)[O-]
REMARK SMILES IDX 4 1 5 2 6 3 7 4 3 5 2 6 1 7
REMARK H PARENT
REMARK Flexibility Score: inf
ROOT
ATOM      1  C   UNL     1     142.306 140.893 146.516  1.00  0.00     0.053 C 
ENDROOT
BRANCH   1   2
ATOM      2  C   UNL     1     141.061 141.718 146.447  1.00  0.00     0.041 C 
ATOM      3  O   UNL     1     140.881 142.665 147.257  1.00  0.00    -0.550 OA
ATOM      4  O   UNL     1     140.119 141.474 145.455  1.00  0.00    -0.550 OA
ENDBRANCH   1   2
BRANCH   1   5
ATOM      5  C   UNL     1     142.475 140.071 145.233  1.00  0.00     0.006 C 
BRANCH   5   6
ATOM      6  C   UNL     1     143.869 140.234 144.607  1.00  0.00    -0.003 C 
ATOM      7  C   UNL     1     144.241 141.697 144.364  1.00  0.00     0.004 C 
ENDBRANCH   5   6
ENDBRANCH   1   5
TORSDOF 3
ENDMDL
MODEL 6
REMARK VINA RESULT:    -2.479      9.243      9.932
REMARK INTER + INTRA:          -2.956
REMARK INTER:                  -2.854
REMARK INTRA:                  -0.102
REMARK UNBOUND:                -0.043
REMARK SMILES CCCCC(=O)[O-]
REMARK SMILES IDX 4 1 5 2 6 3 7 4 3 5 2 6 1 7
REMARK H PARENT
REMARK Flexibility Score: inf
ROOT
ATOM      1  C   UNL     1     141.616 157.701 145.465  1.00  0.00     0.053 C 
ENDROOT
BRANCH   1   2
ATOM      2  C   UNL     1     141.229 156.851 144.297  1.00  0.00     0.041 C 
ATOM      3  O   UNL     1     142.107 156.221 143.652  1.00  0.00    -0.550 OA
ATOM      4  O   UNL     1     139.890 156.715 143.950  1.00  0.00    -0.550 OA
ENDBRANCH   1   2
BRANCH   1   5
ATOM      5  C   UNL     1     140.992 159.097 145.342  1.00  0.00     0.006 C 
BRANCH   5   6
ATOM      6  C   UNL     1     139.889 159.343 146.383  1.00  0.00    -0.003 C 
ATOM      7  C   UNL     1     139.881 158.296 147.496  1.00  0.00     0.004 C 
ENDBRANCH   5   6
ENDBRANCH   1   5
TORSDOF 3
ENDMDL
MODEL 7
REMARK VINA RESULT:    -2.478     19.373     20.431
REMARK INTER + INTRA:          -2.956
REMARK INTER:                  -2.903
REMARK INTRA:                  -0.053
REMARK UNBOUND:                -0.043
REMARK SMILES CCCCC(=O)[O-]
REMARK SMILES IDX 4 1 5 2 6 3 7 4 3 5 2 6 1 7
REMARK H PARENT
REMARK Flexibility Score: inf
ROOT
ATOM      1  C   UNL     1     142.009 140.532 145.487  1.00  0.00     0.053 C 
ENDROOT
BRANCH   1   2
ATOM      2  C   UNL     1     140.998 141.498 146.021  1.00  0.00     0.041 C 
ATOM      3  O   UNL     1     139.875 141.613 145.465  1.00  0.00    -0.550 OA
ATOM      4  O   UNL     1     141.279 142.236 147.164  1.00  0.00    -0.550 OA
ENDBRANCH   1   2
BRANCH   1   5
ATOM      5  C   UNL     1     143.040 140.185 146.568  1.00  0.00     0.006 C 
BRANCH   5   6
ATOM      6  C   UNL     1     144.453 139.993 145.996  1.00  0.00    -0.003 C 
ATOM      7  C   UNL     1     144.514 140.213 144.485  1.00  0.00     0.004 C 
ENDBRANCH   5   6
ENDBRANCH   1   5
TORSDOF 3
ENDMDL
MODEL 8
REMARK VINA RESULT:    -2.441      1.549      1.991
REMARK INTER + INTRA:          -2.911
REMARK INTER:                  -2.811
REMARK INTRA:                  -0.100
REMARK UNBOUND:                -0.043
REMARK SMILES CCCCC(=O)[O-]
REMARK SMILES IDX 4 1 5 2 6 3 7 4 3 5 2 6 1 7
REMARK H PARENT
REMARK Flexibility Score: inf
ROOT
ATOM      1  C   UNL     1     141.695 160.125 153.873  1.00  0.00     0.053 C 
ENDROOT
BRANCH   1   2
ATOM      2  C   UNL     1     142.999 159.436 154.124  1.00  0.00     0.041 C 
ATOM      3  O   UNL     1     144.085 160.031 153.902  1.00  0.00    -0.550 OA
ATOM      4  O   UNL     1     143.015 158.150 154.652  1.00  0.00    -0.550 OA
ENDBRANCH   1   2
BRANCH   1   5
ATOM      5  C   UNL     1     140.682 159.148 153.265  1.00  0.00     0.006 C 
BRANCH   5   6
ATOM      6  C   UNL     1     140.962 158.855 151.782  1.00  0.00    -0.003 C 
ATOM      7  C   UNL     1     141.203 160.123 150.964  1.00  0.00     0.004 C 
ENDBRANCH   5   6
ENDBRANCH   1   5
TORSDOF 3
ENDMDL
MODEL 9
REMARK VINA RESULT:    -2.361     15.105     16.063
REMARK INTER + INTRA:          -2.818
REMARK INTER:                  -2.788
REMARK INTRA:                  -0.030
REMARK UNBOUND:                -0.043
REMARK SMILES CCCCC(=O)[O-]
REMARK SMILES IDX 4 1 5 2 6 3 7 4 3 5 2 6 1 7
REMARK H PARENT
REMARK Flexibility Score: inf
ROOT
ATOM      1  C   UNL     1     141.723 143.311 153.962  1.00  0.00     0.053 C 
ENDROOT
BRANCH   1   2
ATOM      2  C   UNL     1     141.245 144.184 155.079  1.00  0.00     0.041 C 
ATOM      3  O   UNL     1     140.013 144.377 155.251  1.00  0.00    -0.550 OA
ATOM      4  O   UNL     1     142.159 144.745 155.963  1.00  0.00    -0.550 OA
ENDBRANCH   1   2
BRANCH   1   5
ATOM      5  C   UNL     1     140.811 142.088 153.810  1.00  0.00     0.006 C 
BRANCH   5   6
ATOM      6  C   UNL     1     139.875 142.197 152.596  1.00  0.00    -0.003 C 
ATOM      7  C   UNL     1     140.622 142.121 151.265  1.00  0.00     0.004 C 
ENDBRANCH   5   6
ENDBRANCH   1   5
TORSDOF 3
ENDMDL
