MODEL 1
REMARK VINA RESULT:    -4.245      0.000      0.000
REMARK INTER + INTRA:          -5.792
REMARK INTER:                  -5.486
REMARK INTRA:                  -0.306
REMARK UNBOUND:                -0.306
REMARK SMILES CCO[C@@H]1O[C@@H](CO)[C@H](O)[C@@H](O)[C@H]1O
REMARK SMILES IDX 4 1 13 2 11 3 9 4 6 5 5 6 3 7 2 8 1 9 14 10 12 12 7 14 8 15
REMARK SMILES IDX 10 17
REMARK H PARENT 14 11 12 13 8 16 10 18
REMARK Flexibility Score: inf
ROOT
ATOM      1  C   UNL     1     -22.313 -14.484  39.899  1.00  0.00     0.281 C 
ATOM      2  C   UNL     1     -23.323 -14.312  38.751  1.00  0.00     0.202 C 
ATOM      3  C   UNL     1     -23.738 -12.835  38.627  1.00  0.00     0.179 C 
ATOM      4  C   UNL     1     -22.494 -11.935  38.549  1.00  0.00     0.177 C 
ATOM      5  C   UNL     1     -21.540 -12.266  39.722  1.00  0.00     0.178 C 
ATOM      6  O   UNL     1     -21.183 -13.642  39.706  1.00  0.00    -0.341 OA
ENDROOT
BRANCH   1   7
ATOM      7  O   UNL     1     -22.947 -14.234  41.145  1.00  0.00    -0.350 OA
BRANCH   7   8
ATOM      8  C   UNL     1     -22.281 -14.927  42.179  1.00  0.00     0.160 C 
ATOM      9  C   UNL     1     -23.146 -14.906  43.429  1.00  0.00     0.035 C 
ENDBRANCH   7   8
ENDBRANCH   1   7
BRANCH   2  10
ATOM     10  O   UNL     1     -22.734 -14.759  37.555  1.00  0.00    -0.385 OA
ATOM     11  H   UNL     1     -21.973 -14.152  37.362  1.00  0.00     0.211 HD
ENDBRANCH   2  10
BRANCH   3  12
ATOM     12  O   UNL     1     -24.537 -12.666  37.483  1.00  0.00    -0.387 OA
ATOM     13  H   UNL     1     -24.039 -12.062  36.871  1.00  0.00     0.211 HD
ENDBRANCH   3  12
BRANCH   5  14
ATOM     14  C   UNL     1     -20.255 -11.436  39.633  1.00  0.00     0.191 C 
BRANCH  14  15
ATOM     15  O   UNL     1     -20.366 -10.308  40.459  1.00  0.00    -0.394 OA
ATOM     16  H   UNL     1     -20.006 -10.578  41.343  1.00  0.00     0.210 HD
ENDBRANCH  14  15
ENDBRANCH   5  14
BRANCH   4  17
ATOM     17  O   UNL     1     -22.899 -10.591  38.621  1.00  0.00    -0.387 OA
ATOM     18  H   UNL     1     -22.083 -10.045  38.768  1.00  0.00     0.211 HD
ENDBRANCH   4  17
TORSDOF 7
ENDMDL
MODEL 2
REMARK VINA RESULT:    -4.171      1.318      3.817
REMARK INTER + INTRA:          -5.697
REMARK INTER:                  -5.538
REMARK INTRA:                  -0.158
REMARK UNBOUND:                -0.306
REMARK SMILES CCO[C@@H]1O[C@@H](CO)[C@H](O)[C@@H](O)[C@H]1O
REMARK SMILES IDX 4 1 13 2 11 3 9 4 6 5 5 6 3 7 2 8 1 9 14 10 12 12 7 14 8 15
REMARK SMILES IDX 10 17
REMARK H PARENT 14 11 12 13 8 16 10 18
REMARK Flexibility Score: inf
ROOT
ATOM      1  C   UNL     1     -21.573 -11.417  39.827  1.00  0.00     0.281 C 
ATOM      2  C   UNL     1     -22.580 -11.216  38.680  1.00  0.00     0.202 C 
ATOM      3  C   UNL     1     -23.029 -12.579  38.124  1.00  0.00     0.179 C 
ATOM      4  C   UNL     1     -23.506 -13.492  39.267  1.00  0.00     0.177 C 
ATOM      5  C   UNL     1     -22.425 -13.543  40.374  1.00  0.00     0.178 C 
ATOM      6  O   UNL     1     -22.129 -12.237  40.848  1.00  0.00    -0.341 OA
ENDROOT
BRANCH   1   7
ATOM      7  O   UNL     1     -20.363 -11.959  39.319  1.00  0.00    -0.350 OA
BRANCH   7   8
ATOM      8  C   UNL     1     -19.327 -11.003  39.405  1.00  0.00     0.160 C 
ATOM      9  C   UNL     1     -19.269 -10.459  40.824  1.00  0.00     0.035 C 
ENDBRANCH   7   8
ENDBRANCH   1   7
BRANCH   2  10
ATOM     10  O   UNL     1     -23.686 -10.496  39.166  1.00  0.00    -0.385 OA
ATOM     11  H   UNL     1     -23.986  -9.896  38.434  1.00  0.00     0.211 HD
ENDBRANCH   2  10
BRANCH   3  12
ATOM     12  O   UNL     1     -24.059 -12.389  37.188  1.00  0.00    -0.387 OA
ATOM     13  H   UNL     1     -24.554 -11.573  37.465  1.00  0.00     0.211 HD
ENDBRANCH   3  12
BRANCH   5  14
ATOM     14  C   UNL     1     -22.899 -14.389  41.561  1.00  0.00     0.191 C 
BRANCH  14  15
ATOM     15  O   UNL     1     -23.295 -13.547  42.610  1.00  0.00    -0.394 OA
ATOM     16  H   UNL     1     -24.287 -13.536  42.595  1.00  0.00     0.210 HD
ENDBRANCH  14  15
ENDBRANCH   5  14
BRANCH   4  17
ATOM     17  O   UNL     1     -23.733 -14.781  38.754  1.00  0.00    -0.387 OA
ATOM     18  H   UNL     1     -22.944 -15.021  38.201  1.00  0.00     0.211 HD
ENDBRANCH   4  17
TORSDOF 7
ENDMDL
MODEL 3
REMARK VINA RESULT:    -4.090      1.451      2.086
REMARK INTER + INTRA:          -5.591
REMARK INTER:                  -5.234
REMARK INTRA:                  -0.357
REMARK UNBOUND:                -0.306
REMARK SMILES CCO[C@@H]1O[C@@H](CO)[C@H](O)[C@@H](O)[C@H]1O
REMARK SMILES IDX 4 1 13 2 11 3 9 4 6 5 5 6 3 7 2 8 1 9 14 10 12 12 7 14 8 15
REMARK SMILES IDX 10 17
REMARK H PARENT 14 11 12 13 8 16 10 18
REMARK Flexibility Score: inf
ROOT
ATOM      1  C   UNL     1     -21.656 -13.786  40.391  1.00  0.00     0.281 C 
ATOM      2  C   UNL     1     -21.419 -14.323  38.968  1.00  0.00     0.202 C 
ATOM      3  C   UNL     1     -22.564 -13.885  38.038  1.00  0.00     0.179 C 
ATOM      4  C   UNL     1     -22.786 -12.367  38.141  1.00  0.00     0.177 C 
ATOM      5  C   UNL     1     -22.939 -11.964  39.628  1.00  0.00     0.178 C 
ATOM      6  O   UNL     1     -21.802 -12.371  40.378  1.00  0.00    -0.341 OA
ENDROOT
BRANCH   1   7
ATOM      7  O   UNL     1     -22.785 -14.425  40.968  1.00  0.00    -0.350 OA
BRANCH   7   8
ATOM      8  C   UNL     1     -22.545 -14.700  42.332  1.00  0.00     0.160 C 
ATOM      9  C   UNL     1     -23.807 -14.408  43.128  1.00  0.00     0.035 C 
ENDBRANCH   7   8
ENDBRANCH   1   7
BRANCH   2  10
ATOM     10  O   UNL     1     -20.189 -13.832  38.495  1.00  0.00    -0.385 OA
ATOM     11  H   UNL     1     -19.788 -13.298  39.229  1.00  0.00     0.211 HD
ENDBRANCH   2  10
BRANCH   3  12
ATOM     12  O   UNL     1     -22.261 -14.247  36.715  1.00  0.00    -0.387 OA
ATOM     13  H   UNL     1     -23.109 -14.554  36.298  1.00  0.00     0.211 HD
ENDBRANCH   3  12
BRANCH   5  14
ATOM     14  C   UNL     1     -23.090 -10.446  39.771  1.00  0.00     0.191 C 
BRANCH  14  15
ATOM     15  O   UNL     1     -24.450 -10.107  39.776  1.00  0.00    -0.394 OA
ATOM     16  H   UNL     1     -24.871 -10.648  39.058  1.00  0.00     0.210 HD
ENDBRANCH  14  15
ENDBRANCH   5  14
BRANCH   4  17
ATOM     17  O   UNL     1     -23.949 -12.027  37.427  1.00  0.00    -0.387 OA
ATOM     18  H   UNL     1     -24.032 -12.673  36.678  1.00  0.00     0.211 HD
ENDBRANCH   4  17
TORSDOF 7
ENDMDL
MODEL 4
REMARK VINA RESULT:    -4.027      1.996      4.204
REMARK INTER + INTRA:          -5.509
REMARK INTER:                  -5.370
REMARK INTRA:                  -0.139
REMARK UNBOUND:                -0.306
REMARK SMILES CCO[C@@H]1O[C@@H](CO)[C@H](O)[C@@H](O)[C@H]1O
REMARK SMILES IDX 4 1 13 2 11 3 9 4 6 5 5 6 3 7 2 8 1 9 14 10 12 12 7 14 8 15
REMARK SMILES IDX 10 17
REMARK H PARENT 14 11 12 13 8 16 10 18
REMARK Flexibility Score: inf
ROOT
ATOM      1  C   UNL     1     -22.488 -11.065  39.752  1.00  0.00     0.281 C 
ATOM      2  C   UNL     1     -21.911 -12.245  40.554  1.00  0.00     0.202 C 
ATOM      3  C   UNL     1     -22.485 -13.573  40.028  1.00  0.00     0.179 C 
ATOM      4  C   UNL     1     -22.310 -13.665  38.503  1.00  0.00     0.177 C 
ATOM      5  C   UNL     1     -22.870 -12.384  37.839  1.00  0.00     0.178 C 
ATOM      6  O   UNL     1     -22.232 -11.226  38.363  1.00  0.00    -0.341 OA
ENDROOT
BRANCH   1   7
ATOM      7  O   UNL     1     -23.876 -10.930  40.019  1.00  0.00    -0.350 OA
BRANCH   7   8
ATOM      8  C   UNL     1     -24.226  -9.564  40.102  1.00  0.00     0.160 C 
ATOM      9  C   UNL     1     -25.652  -9.447  40.616  1.00  0.00     0.035 C 
ENDBRANCH   7   8
ENDBRANCH   1   7
BRANCH   2  10
ATOM     10  O   UNL     1     -20.510 -12.236  40.436  1.00  0.00    -0.385 OA
ATOM     11  H   UNL     1     -20.178 -11.473  40.978  1.00  0.00     0.211 HD
ENDBRANCH   2  10
BRANCH   3  12
ATOM     12  O   UNL     1     -21.837 -14.649  40.660  1.00  0.00    -0.387 OA
ATOM     13  H   UNL     1     -21.025 -14.280  41.096  1.00  0.00     0.211 HD
ENDBRANCH   3  12
BRANCH   5  14
ATOM     14  C   UNL     1     -22.646 -12.410  36.324  1.00  0.00     0.191 C 
BRANCH  14  15
ATOM     15  O   UNL     1     -23.569 -11.561  35.697  1.00  0.00    -0.394 OA
ATOM     16  H   UNL     1     -24.224 -12.153  35.243  1.00  0.00     0.210 HD
ENDBRANCH  14  15
ENDBRANCH   5  14
BRANCH   4  17
ATOM     17  O   UNL     1     -23.002 -14.795  38.033  1.00  0.00    -0.387 OA
ATOM     18  H   UNL     1     -23.150 -14.665  37.059  1.00  0.00     0.211 HD
ENDBRANCH   4  17
TORSDOF 7
ENDMDL
MODEL 5
REMARK VINA RESULT:    -3.876      2.126      3.546
REMARK INTER + INTRA:          -5.314
REMARK INTER:                  -4.937
REMARK INTRA:                  -0.377
REMARK UNBOUND:                -0.306
REMARK SMILES CCO[C@@H]1O[C@@H](CO)[C@H](O)[C@@H](O)[C@H]1O
REMARK SMILES IDX 4 1 13 2 11 3 9 4 6 5 5 6 3 7 2 8 1 9 14 10 12 12 7 14 8 15
REMARK SMILES IDX 10 17
REMARK H PARENT 14 11 12 13 8 16 10 18
REMARK Flexibility Score: inf
ROOT
ATOM      1  C   UNL     1     -21.118 -13.100  39.221  1.00  0.00     0.281 C 
ATOM      2  C   UNL     1     -22.608 -12.812  39.477  1.00  0.00     0.202 C 
ATOM      3  C   UNL     1     -23.160 -11.874  38.389  1.00  0.00     0.179 C 
ATOM      4  C   UNL     1     -22.826 -12.422  36.991  1.00  0.00     0.177 C 
ATOM      5  C   UNL     1     -21.312 -12.731  36.904  1.00  0.00     0.178 C 
ATOM      6  O   UNL     1     -20.925 -13.645  37.921  1.00  0.00    -0.341 OA
ENDROOT
BRANCH   1   7
ATOM      7  O   UNL     1     -20.355 -11.918  39.414  1.00  0.00    -0.350 OA
BRANCH   7   8
ATOM      8  C   UNL     1     -20.378 -11.540  40.774  1.00  0.00     0.160 C 
ATOM      9  C   UNL     1     -19.340 -10.453  41.005  1.00  0.00     0.035 C 
ENDBRANCH   7   8
ENDBRANCH   1   7
BRANCH   2  10
ATOM     10  O   UNL     1     -23.314 -14.028  39.481  1.00  0.00    -0.385 OA
ATOM     11  H   UNL     1     -22.640 -14.755  39.435  1.00  0.00     0.211 HD
ENDBRANCH   2  10
BRANCH   3  12
ATOM     12  O   UNL     1     -24.550 -11.742  38.542  1.00  0.00    -0.387 OA
ATOM     13  H   UNL     1     -24.765 -12.013  39.474  1.00  0.00     0.211 HD
ENDBRANCH   3  12
BRANCH   5  14
ATOM     14  C   UNL     1     -20.956 -13.346  35.546  1.00  0.00     0.191 C 
BRANCH  14  15
ATOM     15  O   UNL     1     -22.103 -13.912  34.971  1.00  0.00    -0.394 OA
ATOM     16  H   UNL     1     -21.924 -14.886  34.902  1.00  0.00     0.210 HD
ENDBRANCH  14  15
ENDBRANCH   5  14
BRANCH   4  17
ATOM     17  O   UNL     1     -23.179 -11.459  36.029  1.00  0.00    -0.387 OA
ATOM     18  H   UNL     1     -22.676 -10.630  36.244  1.00  0.00     0.211 HD
ENDBRANCH   4  17
TORSDOF 7
ENDMDL
MODEL 6
REMARK VINA RESULT:    -3.749      2.293      4.366
REMARK INTER + INTRA:          -5.150
REMARK INTER:                  -4.816
REMARK INTRA:                  -0.334
REMARK UNBOUND:                -0.306
REMARK SMILES CCO[C@@H]1O[C@@H](CO)[C@H](O)[C@@H](O)[C@H]1O
REMARK SMILES IDX 4 1 13 2 11 3 9 4 6 5 5 6 3 7 2 8 1 9 14 10 12 12 7 14 8 15
REMARK SMILES IDX 10 17
REMARK H PARENT 14 11 12 13 8 16 10 18
REMARK Flexibility Score: inf
ROOT
ATOM      1  C   UNL     1     -22.435 -13.305  37.583  1.00  0.00     0.281 C 
ATOM      2  C   UNL     1     -21.158 -13.769  38.305  1.00  0.00     0.202 C 
ATOM      3  C   UNL     1     -20.430 -12.561  38.923  1.00  0.00     0.179 C 
ATOM      4  C   UNL     1     -21.404 -11.730  39.775  1.00  0.00     0.177 C 
ATOM      5  C   UNL     1     -22.667 -11.398  38.944  1.00  0.00     0.178 C 
ATOM      6  O   UNL     1     -23.284 -12.587  38.470  1.00  0.00    -0.341 OA
ENDROOT
BRANCH   1   7
ATOM      7  O   UNL     1     -22.093 -12.531  36.442  1.00  0.00    -0.350 OA
BRANCH   7   8
ATOM      8  C   UNL     1     -21.368 -13.317  35.520  1.00  0.00     0.160 C 
ATOM      9  C   UNL     1     -22.027 -13.215  34.153  1.00  0.00     0.035 C 
ENDBRANCH   7   8
ENDBRANCH   1   7
BRANCH   2  10
ATOM     10  O   UNL     1     -21.509 -14.694  39.304  1.00  0.00    -0.385 OA
ATOM     11  H   UNL     1     -21.584 -15.581  38.864  1.00  0.00     0.211 HD
ENDBRANCH   2  10
BRANCH   3  12
ATOM     12  O   UNL     1     -19.355 -13.011  39.708  1.00  0.00    -0.387 OA
ATOM     13  H   UNL     1     -19.646 -12.954  40.656  1.00  0.00     0.211 HD
ENDBRANCH   3  12
BRANCH   5  14
ATOM     14  C   UNL     1     -23.690 -10.630  39.788  1.00  0.00     0.191 C 
BRANCH  14  15
ATOM     15  O   UNL     1     -23.524  -9.252  39.590  1.00  0.00    -0.394 OA
ATOM     16  H   UNL     1     -24.434  -8.882  39.452  1.00  0.00     0.210 HD
ENDBRANCH  14  15
ENDBRANCH   5  14
BRANCH   4  17
ATOM     17  O   UNL     1     -20.762 -10.544  40.173  1.00  0.00    -0.387 OA
ATOM     18  H   UNL     1     -21.349 -10.100  40.839  1.00  0.00     0.211 HD
ENDBRANCH   4  17
TORSDOF 7
ENDMDL
MODEL 7
REMARK VINA RESULT:    -3.694      1.977      4.035
REMARK INTER + INTRA:          -5.080
REMARK INTER:                  -4.905
REMARK INTRA:                  -0.174
REMARK UNBOUND:                -0.306
REMARK SMILES CCO[C@@H]1O[C@@H](CO)[C@H](O)[C@@H](O)[C@H]1O
REMARK SMILES IDX 4 1 13 2 11 3 9 4 6 5 5 6 3 7 2 8 1 9 14 10 12 12 7 14 8 15
REMARK SMILES IDX 10 17
REMARK H PARENT 14 11 12 13 8 16 10 18
REMARK Flexibility Score: inf
ROOT
ATOM      1  C   UNL     1     -22.266 -12.036  37.412  1.00  0.00     0.281 C 
ATOM      2  C   UNL     1     -23.550 -12.848  37.659  1.00  0.00     0.202 C 
ATOM      3  C   UNL     1     -23.281 -13.968  38.680  1.00  0.00     0.179 C 
ATOM      4  C   UNL     1     -22.612 -13.393  39.940  1.00  0.00     0.177 C 
ATOM      5  C   UNL     1     -21.381 -12.548  39.533  1.00  0.00     0.178 C 
ATOM      6  O   UNL     1     -21.756 -11.514  38.633  1.00  0.00    -0.341 OA
ENDROOT
BRANCH   1   7
ATOM      7  O   UNL     1     -21.306 -12.841  36.743  1.00  0.00    -0.350 OA
BRANCH   7   8
ATOM      8  C   UNL     1     -21.736 -13.120  35.427  1.00  0.00     0.160 C 
ATOM      9  C   UNL     1     -20.519 -13.350  34.545  1.00  0.00     0.035 C 
ENDBRANCH   7   8
ENDBRANCH   1   7
BRANCH   2  10
ATOM     10  O   UNL     1     -24.552 -11.982  38.134  1.00  0.00    -0.385 OA
ATOM     11  H   UNL     1     -25.420 -12.450  38.016  1.00  0.00     0.211 HD
ENDBRANCH   2  10
BRANCH   3  12
ATOM     12  O   UNL     1     -24.490 -14.600  39.014  1.00  0.00    -0.387 OA
ATOM     13  H   UNL     1     -24.332 -15.099  39.859  1.00  0.00     0.211 HD
ENDBRANCH   3  12
BRANCH   5  14
ATOM     14  C   UNL     1     -20.731 -11.902  40.762  1.00  0.00     0.191 C 
BRANCH  14  15
ATOM     15  O   UNL     1     -20.531 -10.535  40.524  1.00  0.00    -0.394 OA
ATOM     16  H   UNL     1     -19.664 -10.463  40.047  1.00  0.00     0.210 HD
ENDBRANCH  14  15
ENDBRANCH   5  14
BRANCH   4  17
ATOM     17  O   UNL     1     -22.214 -14.458  40.769  1.00  0.00    -0.387 OA
ATOM     18  H   UNL     1     -22.019 -14.075  41.664  1.00  0.00     0.211 HD
ENDBRANCH   4  17
TORSDOF 7
ENDMDL
MODEL 8
REMARK VINA RESULT:    -3.693      1.932      3.950
REMARK INTER + INTRA:          -5.078
REMARK INTER:                  -4.733
REMARK INTRA:                  -0.345
REMARK UNBOUND:                -0.306
REMARK SMILES CCO[C@@H]1O[C@@H](CO)[C@H](O)[C@@H](O)[C@H]1O
REMARK SMILES IDX 4 1 13 2 11 3 9 4 6 5 5 6 3 7 2 8 1 9 14 10 12 12 7 14 8 15
REMARK SMILES IDX 10 17
REMARK H PARENT 14 11 12 13 8 16 10 18
REMARK Flexibility Score: inf
ROOT
ATOM      1  C   UNL     1     -20.421 -12.216  38.953  1.00  0.00     0.281 C 
ATOM      2  C   UNL     1     -20.269 -13.690  39.368  1.00  0.00     0.202 C 
ATOM      3  C   UNL     1     -21.653 -14.323  39.594  1.00  0.00     0.179 C 
ATOM      4  C   UNL     1     -22.561 -14.072  38.378  1.00  0.00     0.177 C 
ATOM      5  C   UNL     1     -22.562 -12.563  38.035  1.00  0.00     0.178 C 
ATOM      6  O   UNL     1     -21.239 -12.101  37.795  1.00  0.00    -0.341 OA
ENDROOT
BRANCH   1   7
ATOM      7  O   UNL     1     -20.936 -11.458  40.037  1.00  0.00    -0.350 OA
BRANCH   7   8
ATOM      8  C   UNL     1     -20.072 -11.552  41.150  1.00  0.00     0.160 C 
ATOM      9  C   UNL     1     -19.134 -10.355  41.154  1.00  0.00     0.035 C 
ENDBRANCH   7   8
ENDBRANCH   1   7
BRANCH   2  10
ATOM     10  O   UNL     1     -19.573 -14.379  38.359  1.00  0.00    -0.385 OA
ATOM     11  H   UNL     1     -20.011 -15.265  38.257  1.00  0.00     0.211 HD
ENDBRANCH   2  10
BRANCH   3  12
ATOM     12  O   UNL     1     -21.509 -15.702  39.820  1.00  0.00    -0.387 OA
ATOM     13  H   UNL     1     -20.776 -16.017  39.228  1.00  0.00     0.211 HD
ENDBRANCH   3  12
BRANCH   5  14
ATOM     14  C   UNL     1     -23.401 -12.288  36.782  1.00  0.00     0.191 C 
BRANCH  14  15
ATOM     15  O   UNL     1     -24.763 -12.345  37.106  1.00  0.00    -0.394 OA
ATOM     16  H   UNL     1     -24.945 -11.551  37.673  1.00  0.00     0.210 HD
ENDBRANCH  14  15
ENDBRANCH   5  14
BRANCH   4  17
ATOM     17  O   UNL     1     -23.865 -14.498  38.687  1.00  0.00    -0.387 OA
ATOM     18  H   UNL     1     -23.810 -15.460  38.927  1.00  0.00     0.211 HD
ENDBRANCH   4  17
TORSDOF 7
ENDMDL
MODEL 9
REMARK VINA RESULT:    -3.686      1.537      3.217
REMARK INTER + INTRA:          -5.069
REMARK INTER:                  -4.691
REMARK INTRA:                  -0.378
REMARK UNBOUND:                -0.306
REMARK SMILES CCO[C@@H]1O[C@@H](CO)[C@H](O)[C@@H](O)[C@H]1O
REMARK SMILES IDX 4 1 13 2 11 3 9 4 6 5 5 6 3 7 2 8 1 9 14 10 12 12 7 14 8 15
REMARK SMILES IDX 10 17
REMARK H PARENT 14 11 12 13 8 16 10 18
REMARK Flexibility Score: inf
ROOT
ATOM      1  C   UNL     1     -22.269 -13.415  41.081  1.00  0.00     0.281 C 
ATOM      2  C   UNL     1     -20.879 -13.746  40.508  1.00  0.00     0.202 C 
ATOM      3  C   UNL     1     -21.022 -14.482  39.164  1.00  0.00     0.179 C 
ATOM      4  C   UNL     1     -21.954 -13.701  38.222  1.00  0.00     0.177 C 
ATOM      5  C   UNL     1     -23.279 -13.380  38.954  1.00  0.00     0.178 C 
ATOM      6  O   UNL     1     -23.031 -12.655  40.151  1.00  0.00    -0.341 OA
ENDROOT
BRANCH   1   7
ATOM      7  O   UNL     1     -22.937 -14.612  41.452  1.00  0.00    -0.350 OA
BRANCH   7   8
ATOM      8  C   UNL     1     -23.363 -14.535  42.796  1.00  0.00     0.160 C 
ATOM      9  C   UNL     1     -22.717 -15.661  43.588  1.00  0.00     0.035 C 
ENDBRANCH   7   8
ENDBRANCH   1   7
BRANCH   2  10
ATOM     10  O   UNL     1     -20.160 -12.549  40.337  1.00  0.00    -0.385 OA
ATOM     11  H   UNL     1     -19.334 -12.776  39.836  1.00  0.00     0.211 HD
ENDBRANCH   2  10
BRANCH   3  12
ATOM     12  O   UNL     1     -19.755 -14.640  38.577  1.00  0.00    -0.387 OA
ATOM     13  H   UNL     1     -19.272 -13.781  38.699  1.00  0.00     0.211 HD
ENDBRANCH   3  12
BRANCH   5  14
ATOM     14  C   UNL     1     -24.204 -12.540  38.067  1.00  0.00     0.191 C 
BRANCH  14  15
ATOM     15  O   UNL     1     -23.437 -11.790  37.165  1.00  0.00    -0.394 OA
ATOM     16  H   UNL     1     -23.107 -11.003  37.671  1.00  0.00     0.210 HD
ENDBRANCH  14  15
ENDBRANCH   5  14
BRANCH   4  17
ATOM     17  O   UNL     1     -22.209 -14.484  37.082  1.00  0.00    -0.387 OA
ATOM     18  H   UNL     1     -23.116 -14.873  37.190  1.00  0.00     0.211 HD
ENDBRANCH   4  17
TORSDOF 7
ENDMDL
