MODEL 1
REMARK VINA RESULT:    -4.846      0.000      0.000
REMARK INTER + INTRA:          -4.784
REMARK INTER:                  -5.271
REMARK INTRA:                   0.488
REMARK UNBOUND:                 0.488
REMARK SMILES C[C@H]1[C@@H](C)CC[C@]2(C(=O)[O-])CC[C@]3(C)C(=CC[C@@H]4[C@@]5(C)CC[C@H](O)C(C)(C)[C@H]5CC[C@]43C)[C@@H]12
REMARK SMILES IDX 7 1 6 2 11 3 33 4 5 5 12 6 15 7 2 8 3 9 13 10 16 11 1 12
REMARK SMILES IDX 4 13 14 14 31 15 17 16 18 17 30 18 32 19 19 20 29 21 28 22
REMARK SMILES IDX 21 23 20 24 25 25 22 26 23 27 26 28 27 29 8 30 9 31 10 32
REMARK SMILES IDX 24 33
REMARK H PARENT 24 34
REMARK Flexibility Score: inf
ROOT
ATOM      1  C   UNL     1      -0.388   5.041   6.127  1.00  0.00     0.017 C 
ATOM      2  C   UNL     1      -0.022   6.543   5.937  1.00  0.00     0.014 C 
ATOM      3  C   UNL     1       0.428   4.510   7.329  1.00  0.00     0.014 C 
ATOM      4  C   UNL     1       0.027   4.264   4.825  1.00  0.00     0.030 C 
ATOM      5  C   UNL     1      -0.667   7.161   4.691  1.00  0.00     0.004 C 
ATOM      6  C   UNL     1       0.291   2.992   7.525  1.00  0.00     0.013 C 
ATOM      7  C   UNL     1       0.001   2.725   5.000  1.00  0.00    -0.063 C 
ATOM      8  C   UNL     1      -0.624   4.872   3.530  1.00  0.00    -0.003 C 
ATOM      9  C   UNL     1      -0.272   6.385   3.421  1.00  0.00    -0.011 C 
ATOM     10  C   UNL     1       0.665   2.129   6.266  1.00  0.00    -0.006 C 
ATOM     11  C   UNL     1      -0.322   1.909   3.958  1.00  0.00    -0.027 C 
ATOM     12  C   UNL     1      -2.141   4.606   3.377  1.00  0.00     0.008 C 
ATOM     13  C   UNL     1      -0.866   7.050   2.170  1.00  0.00     0.008 C 
ATOM     14  C   UNL     1       2.216   2.255   6.082  1.00  0.00     0.017 C 
ATOM     15  C   UNL     1       0.188   0.600   6.466  1.00  0.00    -0.020 C 
ATOM     16  C   UNL     1      -0.370   0.398   4.009  1.00  0.00     0.032 C 
ATOM     17  C   UNL     1       0.476  -0.212   5.157  1.00  0.00     0.006 C 
ATOM     18  C   UNL     1       0.971  -0.099   7.601  1.00  0.00     0.008 C 
ATOM     19  C   UNL     1      -1.348   0.584   6.800  1.00  0.00     0.012 C 
ATOM     20  C   UNL     1       0.538  -1.833   5.299  1.00  0.00    -0.025 C 
ATOM     21  C   UNL     1       0.501  -1.529   7.896  1.00  0.00     0.005 C 
ATOM     22  C   UNL     1      -0.042  -2.359   6.682  1.00  0.00     0.003 C 
ATOM     23  C   UNL     1       2.036  -2.318   5.168  1.00  0.00     0.010 C 
ATOM     24  C   UNL     1      -0.259  -2.459   4.117  1.00  0.00     0.012 C 
ATOM     25  C   UNL     1       0.067  -3.948   6.921  1.00  0.00    -0.006 C 
ATOM     26  C   UNL     1       2.455  -3.517   6.043  1.00  0.00     0.033 C 
ATOM     27  C   UNL     1       1.359  -4.564   6.259  1.00  0.00     0.120 C 
ATOM     28  C   UNL     1      -1.226  -4.657   6.408  1.00  0.00     0.014 C 
ATOM     29  C   UNL     1       0.098  -4.310   8.440  1.00  0.00     0.014 C 
ENDROOT
BRANCH   1  30
ATOM     30  C   UNL     1      -1.870   4.913   6.472  1.00  0.00     0.048 C 
ATOM     31  O   UNL     1      -2.467   3.811   6.360  1.00  0.00    -0.550 OA
ATOM     32  O   UNL     1      -2.561   5.988   7.017  1.00  0.00    -0.550 OA
ENDBRANCH   1  30
BRANCH  27  33
ATOM     33  O   UNL     1       1.098  -5.214   5.037  1.00  0.00    -0.393 OA
ATOM     34  H   UNL     1       1.963  -5.309   4.559  1.00  0.00     0.210 HD
ENDBRANCH  27  33
TORSDOF 2
ENDMDL
MODEL 2
REMARK VINA RESULT:    -4.720      1.944      2.951
REMARK INTER + INTRA:          -4.646
REMARK INTER:                  -5.134
REMARK INTRA:                   0.488
REMARK UNBOUND:                 0.488
REMARK SMILES C[C@H]1[C@@H](C)CC[C@]2(C(=O)[O-])CC[C@]3(C)C(=CC[C@@H]4[C@@]5(C)CC[C@H](O)C(C)(C)[C@H]5CC[C@]43C)[C@@H]12
REMARK SMILES IDX 7 1 6 2 11 3 33 4 5 5 12 6 15 7 2 8 3 9 13 10 16 11 1 12
REMARK SMILES IDX 4 13 14 14 31 15 17 16 18 17 30 18 32 19 19 20 29 21 28 22
REMARK SMILES IDX 21 23 20 24 25 25 22 26 23 27 26 28 27 29 8 30 9 31 10 32
REMARK SMILES IDX 24 33
REMARK H PARENT 24 34
REMARK Flexibility Score: inf
ROOT
ATOM      1  C   UNL     1       0.180   7.553   4.670  1.00  0.00     0.017 C 
ATOM      2  C   UNL     1       0.547   8.825   3.849  1.00  0.00     0.014 C 
ATOM      3  C   UNL     1       1.335   7.290   5.665  1.00  0.00     0.014 C 
ATOM      4  C   UNL     1       0.058   6.343   3.675  1.00  0.00     0.030 C 
ATOM      5  C   UNL     1      -0.458   9.124   2.731  1.00  0.00     0.004 C 
ATOM      6  C   UNL     1       1.182   5.963   6.426  1.00  0.00     0.013 C 
ATOM      7  C   UNL     1       0.001   4.970   4.389  1.00  0.00    -0.063 C 
ATOM      8  C   UNL     1      -0.970   6.618   2.518  1.00  0.00    -0.003 C 
ATOM      9  C   UNL     1      -0.587   7.929   1.769  1.00  0.00    -0.011 C 
ATOM     10  C   UNL     1       1.031   4.694   5.512  1.00  0.00    -0.006 C 
ATOM     11  C   UNL     1      -0.720   3.939   3.866  1.00  0.00    -0.027 C 
ATOM     12  C   UNL     1      -2.457   6.597   2.950  1.00  0.00     0.008 C 
ATOM     13  C   UNL     1      -1.544   8.259   0.613  1.00  0.00     0.008 C 
ATOM     14  C   UNL     1       2.421   4.472   4.824  1.00  0.00     0.017 C 
ATOM     15  C   UNL     1       0.563   3.420   6.385  1.00  0.00    -0.020 C 
ATOM     16  C   UNL     1      -0.840   2.557   4.468  1.00  0.00     0.032 C 
ATOM     17  C   UNL     1       0.318   2.198   5.436  1.00  0.00     0.006 C 
ATOM     18  C   UNL     1       1.652   2.986   7.392  1.00  0.00     0.008 C 
ATOM     19  C   UNL     1      -0.753   3.790   7.161  1.00  0.00     0.012 C 
ATOM     20  C   UNL     1       0.326   0.723   6.124  1.00  0.00    -0.025 C 
ATOM     21  C   UNL     1       1.230   1.833   8.312  1.00  0.00     0.005 C 
ATOM     22  C   UNL     1       0.242   0.775   7.710  1.00  0.00     0.003 C 
ATOM     23  C   UNL     1       1.647  -0.042   5.718  1.00  0.00     0.010 C 
ATOM     24  C   UNL     1      -0.875  -0.090   5.556  1.00  0.00     0.012 C 
ATOM     25  C   UNL     1       0.330  -0.648   8.458  1.00  0.00    -0.006 C 
ATOM     26  C   UNL     1       2.274  -0.959   6.789  1.00  0.00     0.033 C 
ATOM     27  C   UNL     1       1.263  -1.667   7.695  1.00  0.00     0.120 C 
ATOM     28  C   UNL     1      -1.102  -1.236   8.662  1.00  0.00     0.014 C 
ATOM     29  C   UNL     1       0.875  -0.511   9.915  1.00  0.00     0.014 C 
ENDROOT
BRANCH   1  30
ATOM     30  C   UNL     1      -1.089   7.812   5.479  1.00  0.00     0.048 C 
ATOM     31  O   UNL     1      -1.782   6.858   5.919  1.00  0.00    -0.550 OA
ATOM     32  O   UNL     1      -1.444   9.108   5.835  1.00  0.00    -0.550 OA
ENDBRANCH   1  30
BRANCH  27  33
ATOM     33  O   UNL     1       0.547  -2.610   6.935  1.00  0.00    -0.393 OA
ATOM     34  H   UNL     1       0.774  -2.459   5.980  1.00  0.00     0.210 HD
ENDBRANCH  27  33
TORSDOF 2
ENDMDL
MODEL 3
REMARK VINA RESULT:    -4.345      9.004     11.291
REMARK INTER + INTRA:          -4.238
REMARK INTER:                  -4.723
REMARK INTRA:                   0.484
REMARK UNBOUND:                 0.488
REMARK SMILES C[C@H]1[C@@H](C)CC[C@]2(C(=O)[O-])CC[C@]3(C)C(=CC[C@@H]4[C@@]5(C)CC[C@H](O)C(C)(C)[C@H]5CC[C@]43C)[C@@H]12
REMARK SMILES IDX 7 1 6 2 11 3 33 4 5 5 12 6 15 7 2 8 3 9 13 10 16 11 1 12
REMARK SMILES IDX 4 13 14 14 31 15 17 16 18 17 30 18 32 19 19 20 29 21 28 22
REMARK SMILES IDX 21 23 20 24 25 25 22 26 23 27 26 28 27 29 8 30 9 31 10 32
REMARK SMILES IDX 24 33
REMARK H PARENT 24 34
REMARK Flexibility Score: inf
ROOT
ATOM      1  C   UNL     1      -7.457  -2.527   1.109  1.00  0.00     0.017 C 
ATOM      2  C   UNL     1      -7.736  -1.640   2.359  1.00  0.00     0.014 C 
ATOM      3  C   UNL     1      -6.904  -3.881   1.612  1.00  0.00     0.014 C 
ATOM      4  C   UNL     1      -6.370  -1.810   0.229  1.00  0.00     0.030 C 
ATOM      5  C   UNL     1      -8.168  -0.214   1.995  1.00  0.00     0.004 C 
ATOM      6  C   UNL     1      -6.426  -4.795   0.473  1.00  0.00     0.013 C 
ATOM      7  C   UNL     1      -5.781  -2.722  -0.875  1.00  0.00    -0.063 C 
ATOM      8  C   UNL     1      -6.786  -0.346  -0.165  1.00  0.00    -0.003 C 
ATOM      9  C   UNL     1      -7.108   0.477   1.118  1.00  0.00    -0.011 C 
ATOM     10  C   UNL     1      -5.350  -4.155  -0.477  1.00  0.00    -0.006 C 
ATOM     11  C   UNL     1      -5.383  -2.204  -2.071  1.00  0.00    -0.027 C 
ATOM     12  C   UNL     1      -7.911  -0.253  -1.224  1.00  0.00     0.008 C 
ATOM     13  C   UNL     1      -7.514   1.927   0.813  1.00  0.00     0.008 C 
ATOM     14  C   UNL     1      -4.032  -4.029   0.362  1.00  0.00     0.017 C 
ATOM     15  C   UNL     1      -5.155  -5.058  -1.801  1.00  0.00    -0.020 C 
ATOM     16  C   UNL     1      -4.787  -2.994  -3.214  1.00  0.00     0.032 C 
ATOM     17  C   UNL     1      -4.159  -4.343  -2.778  1.00  0.00     0.006 C 
ATOM     18  C   UNL     1      -4.539  -6.435  -1.469  1.00  0.00     0.008 C 
ATOM     19  C   UNL     1      -6.554  -5.260  -2.490  1.00  0.00     0.012 C 
ATOM     20  C   UNL     1      -3.451  -5.274  -3.910  1.00  0.00    -0.025 C 
ATOM     21  C   UNL     1      -4.411  -7.370  -2.678  1.00  0.00     0.005 C 
ATOM     22  C   UNL     1      -4.140  -6.697  -4.067  1.00  0.00     0.003 C 
ATOM     23  C   UNL     1      -1.931  -5.493  -3.539  1.00  0.00     0.010 C 
ATOM     24  C   UNL     1      -3.493  -4.512  -5.267  1.00  0.00     0.012 C 
ATOM     25  C   UNL     1      -3.436  -7.698  -5.113  1.00  0.00    -0.006 C 
ATOM     26  C   UNL     1      -1.326  -6.871  -3.878  1.00  0.00     0.033 C 
ATOM     27  C   UNL     1      -1.870  -7.509  -5.159  1.00  0.00     0.120 C 
ATOM     28  C   UNL     1      -4.068  -7.526  -6.530  1.00  0.00     0.014 C 
ATOM     29  C   UNL     1      -3.719  -9.196  -4.771  1.00  0.00     0.014 C 
ENDROOT
BRANCH   1  30
ATOM     30  C   UNL     1      -8.764  -2.798   0.369  1.00  0.00     0.048 C 
ATOM     31  O   UNL     1      -8.762  -3.173  -0.832  1.00  0.00    -0.550 OA
ATOM     32  O   UNL     1      -9.979  -2.736   1.042  1.00  0.00    -0.550 OA
ENDBRANCH   1  30
BRANCH  27  33
ATOM     33  O   UNL     1      -1.436  -6.757  -6.266  1.00  0.00    -0.393 OA
ATOM     34  H   UNL     1      -1.324  -5.818  -5.965  1.00  0.00     0.210 HD
ENDBRANCH  27  33
TORSDOF 2
ENDMDL
MODEL 4
REMARK VINA RESULT:    -4.344      2.696      9.395
REMARK INTER + INTRA:          -4.237
REMARK INTER:                  -4.721
REMARK INTRA:                   0.483
REMARK UNBOUND:                 0.488
REMARK SMILES C[C@H]1[C@@H](C)CC[C@]2(C(=O)[O-])CC[C@]3(C)C(=CC[C@@H]4[C@@]5(C)CC[C@H](O)C(C)(C)[C@H]5CC[C@]43C)[C@@H]12
REMARK SMILES IDX 7 1 6 2 11 3 33 4 5 5 12 6 15 7 2 8 3 9 13 10 16 11 1 12
REMARK SMILES IDX 4 13 14 14 31 15 17 16 18 17 30 18 32 19 19 20 29 21 28 22
REMARK SMILES IDX 21 23 20 24 25 25 22 26 23 27 26 28 27 29 8 30 9 31 10 32
REMARK SMILES IDX 24 33
REMARK H PARENT 24 34
REMARK Flexibility Score: inf
ROOT
ATOM      1  C   UNL     1       0.326  -7.335   4.953  1.00  0.00     0.017 C 
ATOM      2  C   UNL     1       0.276  -8.673   4.158  1.00  0.00     0.014 C 
ATOM      3  C   UNL     1      -1.114  -6.771   5.009  1.00  0.00     0.014 C 
ATOM      4  C   UNL     1       1.252  -6.333   4.173  1.00  0.00     0.030 C 
ATOM      5  C   UNL     1       1.665  -9.275   3.916  1.00  0.00     0.004 C 
ATOM      6  C   UNL     1      -1.185  -5.363   5.621  1.00  0.00     0.013 C 
ATOM      7  C   UNL     1       1.143  -4.876   4.688  1.00  0.00    -0.063 C 
ATOM      8  C   UNL     1       2.688  -6.920   3.914  1.00  0.00    -0.003 C 
ATOM      9  C   UNL     1       2.575  -8.283   3.168  1.00  0.00    -0.011 C 
ATOM     10  C   UNL     1      -0.272  -4.293   4.920  1.00  0.00    -0.006 C 
ATOM     11  C   UNL     1       2.221  -4.042   4.659  1.00  0.00    -0.027 C 
ATOM     12  C   UNL     1       3.592  -7.006   5.167  1.00  0.00     0.008 C 
ATOM     13  C   UNL     1       3.942  -8.916   2.868  1.00  0.00     0.008 C 
ATOM     14  C   UNL     1      -0.901  -4.025   3.510  1.00  0.00     0.017 C 
ATOM     15  C   UNL     1      -0.175  -2.956   5.818  1.00  0.00    -0.020 C 
ATOM     16  C   UNL     1       2.230  -2.603   5.124  1.00  0.00     0.032 C 
ATOM     17  C   UNL     1       0.824  -1.950   5.150  1.00  0.00     0.006 C 
ATOM     18  C   UNL     1      -1.536  -2.231   5.913  1.00  0.00     0.008 C 
ATOM     19  C   UNL     1       0.315  -3.345   7.260  1.00  0.00     0.012 C 
ATOM     20  C   UNL     1       0.700  -0.390   5.597  1.00  0.00    -0.025 C 
ATOM     21  C   UNL     1      -1.526  -0.999   6.826  1.00  0.00     0.005 C 
ATOM     22  C   UNL     1      -0.189  -0.184   6.899  1.00  0.00     0.003 C 
ATOM     23  C   UNL     1       0.064   0.449   4.419  1.00  0.00     0.010 C 
ATOM     24  C   UNL     1       2.134   0.165   5.842  1.00  0.00     0.012 C 
ATOM     25  C   UNL     1      -0.420   1.346   7.347  1.00  0.00    -0.006 C 
ATOM     26  C   UNL     1      -0.880   1.602   4.820  1.00  0.00     0.033 C 
ATOM     27  C   UNL     1      -0.491   2.325   6.112  1.00  0.00     0.120 C 
ATOM     28  C   UNL     1       0.690   1.783   8.353  1.00  0.00     0.014 C 
ATOM     29  C   UNL     1      -1.739   1.523   8.165  1.00  0.00     0.014 C 
ENDROOT
BRANCH   1  30
ATOM     30  C   UNL     1       0.781  -7.604   6.385  1.00  0.00     0.048 C 
ATOM     31  O   UNL     1       1.235  -6.677   7.105  1.00  0.00    -0.550 OA
ATOM     32  O   UNL     1       0.604  -8.859   6.955  1.00  0.00    -0.550 OA
ENDBRANCH   1  30
BRANCH  27  33
ATOM     33  O   UNL     1       0.705   3.034   5.899  1.00  0.00    -0.393 OA
ATOM     34  H   UNL     1       1.137   3.166   6.783  1.00  0.00     0.210 HD
ENDBRANCH  27  33
TORSDOF 2
ENDMDL
MODEL 5
REMARK VINA RESULT:    -4.338      8.837     13.372
REMARK INTER + INTRA:          -4.230
REMARK INTER:                  -4.717
REMARK INTRA:                   0.486
REMARK UNBOUND:                 0.488
REMARK SMILES C[C@H]1[C@@H](C)CC[C@]2(C(=O)[O-])CC[C@]3(C)C(=CC[C@@H]4[C@@]5(C)CC[C@H](O)C(C)(C)[C@H]5CC[C@]43C)[C@@H]12
REMARK SMILES IDX 7 1 6 2 11 3 33 4 5 5 12 6 15 7 2 8 3 9 13 10 16 11 1 12
REMARK SMILES IDX 4 13 14 14 31 15 17 16 18 17 30 18 32 19 19 20 29 21 28 22
REMARK SMILES IDX 21 23 20 24 25 25 22 26 23 27 26 28 27 29 8 30 9 31 10 32
REMARK SMILES IDX 24 33
REMARK H PARENT 24 34
REMARK Flexibility Score: inf
ROOT
ATOM      1  C   UNL     1      -4.377  -6.906  -2.324  1.00  0.00     0.017 C 
ATOM      2  C   UNL     1      -3.464  -8.163  -2.209  1.00  0.00     0.014 C 
ATOM      3  C   UNL     1      -3.455  -5.668  -2.425  1.00  0.00     0.014 C 
ATOM      4  C   UNL     1      -5.248  -6.808  -1.020  1.00  0.00     0.030 C 
ATOM      5  C   UNL     1      -4.255  -9.455  -1.970  1.00  0.00     0.004 C 
ATOM      6  C   UNL     1      -4.226  -4.339  -2.375  1.00  0.00     0.013 C 
ATOM      7  C   UNL     1      -5.970  -5.446  -0.870  1.00  0.00    -0.063 C 
ATOM      8  C   UNL     1      -6.076  -8.117  -0.750  1.00  0.00    -0.003 C 
ATOM      9  C   UNL     1      -5.121  -9.346  -0.701  1.00  0.00    -0.011 C 
ATOM     10  C   UNL     1      -5.145  -4.158  -1.113  1.00  0.00    -0.006 C 
ATOM     11  C   UNL     1      -7.189  -5.363  -0.267  1.00  0.00    -0.027 C 
ATOM     12  C   UNL     1      -7.274  -8.337  -1.705  1.00  0.00     0.008 C 
ATOM     13  C   UNL     1      -5.858 -10.667  -0.430  1.00  0.00     0.008 C 
ATOM     14  C   UNL     1      -4.187  -3.980   0.115  1.00  0.00     0.017 C 
ATOM     15  C   UNL     1      -6.136  -2.900  -1.310  1.00  0.00    -0.020 C 
ATOM     16  C   UNL     1      -7.980  -4.092  -0.058  1.00  0.00     0.032 C 
ATOM     17  C   UNL     1      -7.112  -2.807  -0.087  1.00  0.00     0.006 C 
ATOM     18  C   UNL     1      -5.362  -1.564  -1.361  1.00  0.00     0.008 C 
ATOM     19  C   UNL     1      -6.943  -3.091  -2.646  1.00  0.00     0.012 C 
ATOM     20  C   UNL     1      -7.838  -1.372   0.163  1.00  0.00    -0.025 C 
ATOM     21  C   UNL     1      -6.245  -0.340  -1.634  1.00  0.00     0.005 C 
ATOM     22  C   UNL     1      -7.708  -0.384  -1.075  1.00  0.00     0.003 C 
ATOM     23  C   UNL     1      -7.205  -0.672   1.429  1.00  0.00     0.010 C 
ATOM     24  C   UNL     1      -9.341  -1.632   0.478  1.00  0.00     0.012 C 
ATOM     25  C   UNL     1      -8.334   1.084  -0.861  1.00  0.00    -0.006 C 
ATOM     26  C   UNL     1      -7.071   0.864   1.379  1.00  0.00     0.033 C 
ATOM     27  C   UNL     1      -8.200   1.579   0.631  1.00  0.00     0.120 C 
ATOM     28  C   UNL     1      -9.822   1.107  -1.333  1.00  0.00     0.014 C 
ATOM     29  C   UNL     1      -7.650   2.150  -1.774  1.00  0.00     0.014 C 
ENDROOT
BRANCH   1  30
ATOM     30  C   UNL     1      -5.201  -6.985  -3.607  1.00  0.00     0.048 C 
ATOM     31  O   UNL     1      -6.249  -6.302  -3.746  1.00  0.00    -0.550 OA
ATOM     32  O   UNL     1      -4.750  -7.734  -4.688  1.00  0.00    -0.550 OA
ENDBRANCH   1  30
BRANCH  27  33
ATOM     33  O   UNL     1      -9.392   1.447   1.367  1.00  0.00    -0.393 OA
ATOM     34  H   UNL     1      -9.922   0.718   0.951  1.00  0.00     0.210 HD
ENDBRANCH  27  33
TORSDOF 2
ENDMDL
MODEL 6
REMARK VINA RESULT:    -4.335     11.084     13.795
REMARK INTER + INTRA:          -4.227
REMARK INTER:                  -4.714
REMARK INTRA:                   0.486
REMARK UNBOUND:                 0.488
REMARK SMILES C[C@H]1[C@@H](C)CC[C@]2(C(=O)[O-])CC[C@]3(C)C(=CC[C@@H]4[C@@]5(C)CC[C@H](O)C(C)(C)[C@H]5CC[C@]43C)[C@@H]12
REMARK SMILES IDX 7 1 6 2 11 3 33 4 5 5 12 6 15 7 2 8 3 9 13 10 16 11 1 12
REMARK SMILES IDX 4 13 14 14 31 15 17 16 18 17 30 18 32 19 19 20 29 21 28 22
REMARK SMILES IDX 21 23 20 24 25 25 22 26 23 27 26 28 27 29 8 30 9 31 10 32
REMARK SMILES IDX 24 33
REMARK H PARENT 24 34
REMARK Flexibility Score: inf
ROOT
ATOM      1  C   UNL     1       4.266   7.105  -4.512  1.00  0.00     0.017 C 
ATOM      2  C   UNL     1       5.640   7.125  -3.779  1.00  0.00     0.014 C 
ATOM      3  C   UNL     1       3.646   8.516  -4.377  1.00  0.00     0.014 C 
ATOM      4  C   UNL     1       3.342   6.054  -3.797  1.00  0.00     0.030 C 
ATOM      5  C   UNL     1       6.307   5.745  -3.724  1.00  0.00     0.004 C 
ATOM      6  C   UNL     1       2.207   8.593  -4.912  1.00  0.00     0.013 C 
ATOM      7  C   UNL     1       1.857   6.156  -4.228  1.00  0.00    -0.063 C 
ATOM      8  C   UNL     1       3.996   4.626  -3.729  1.00  0.00    -0.003 C 
ATOM      9  C   UNL     1       5.389   4.715  -3.040  1.00  0.00    -0.011 C 
ATOM     10  C   UNL     1       1.210   7.562  -4.270  1.00  0.00    -0.006 C 
ATOM     11  C   UNL     1       1.068   5.047  -4.284  1.00  0.00    -0.027 C 
ATOM     12  C   UNL     1       4.052   3.872  -5.080  1.00  0.00     0.008 C 
ATOM     13  C   UNL     1       6.089   3.352  -2.926  1.00  0.00     0.008 C 
ATOM     14  C   UNL     1       0.989   8.017  -2.787  1.00  0.00     0.017 C 
ATOM     15  C   UNL     1      -0.167   7.507  -5.111  1.00  0.00    -0.020 C 
ATOM     16  C   UNL     1      -0.391   5.027  -4.679  1.00  0.00     0.032 C 
ATOM     17  C   UNL     1      -1.099   6.397  -4.515  1.00  0.00     0.006 C 
ATOM     18  C   UNL     1      -0.947   8.837  -5.018  1.00  0.00     0.008 C 
ATOM     19  C   UNL     1       0.167   7.198  -6.616  1.00  0.00     0.012 C 
ATOM     20  C   UNL     1      -2.683   6.501  -4.873  1.00  0.00    -0.025 C 
ATOM     21  C   UNL     1      -2.223   8.875  -5.868  1.00  0.00     0.005 C 
ATOM     22  C   UNL     1      -2.989   7.520  -6.054  1.00  0.00     0.003 C 
ATOM     23  C   UNL     1      -3.485   6.965  -3.593  1.00  0.00     0.010 C 
ATOM     24  C   UNL     1      -3.194   5.081  -5.254  1.00  0.00     0.012 C 
ATOM     25  C   UNL     1      -4.547   7.733  -6.402  1.00  0.00    -0.006 C 
ATOM     26  C   UNL     1      -4.692   7.896  -3.831  1.00  0.00     0.033 C 
ATOM     27  C   UNL     1      -5.465   7.623  -5.124  1.00  0.00     0.120 C 
ATOM     28  C   UNL     1      -4.992   6.724  -7.507  1.00  0.00     0.014 C 
ATOM     29  C   UNL     1      -4.815   9.125  -7.056  1.00  0.00     0.014 C 
ENDROOT
BRANCH   1  30
ATOM     30  C   UNL     1       4.479   6.825  -5.997  1.00  0.00     0.048 C 
ATOM     31  O   UNL     1       3.538   6.404  -6.718  1.00  0.00    -0.550 OA
ATOM     32  O   UNL     1       5.693   7.130  -6.603  1.00  0.00    -0.550 OA
ENDBRANCH   1  30
BRANCH  27  33
ATOM     33  O   UNL     1      -6.115   6.380  -5.015  1.00  0.00    -0.393 OA
ATOM     34  H   UNL     1      -5.590   5.822  -4.384  1.00  0.00     0.210 HD
ENDBRANCH  27  33
TORSDOF 2
ENDMDL
MODEL 7
REMARK VINA RESULT:    -4.312      3.248      6.354
REMARK INTER + INTRA:          -4.202
REMARK INTER:                  -4.689
REMARK INTRA:                   0.486
REMARK UNBOUND:                 0.488
REMARK SMILES C[C@H]1[C@@H](C)CC[C@]2(C(=O)[O-])CC[C@]3(C)C(=CC[C@@H]4[C@@]5(C)CC[C@H](O)C(C)(C)[C@H]5CC[C@]43C)[C@@H]12
REMARK SMILES IDX 7 1 6 2 11 3 33 4 5 5 12 6 15 7 2 8 3 9 13 10 16 11 1 12
REMARK SMILES IDX 4 13 14 14 31 15 17 16 18 17 30 18 32 19 19 20 29 21 28 22
REMARK SMILES IDX 21 23 20 24 25 25 22 26 23 27 26 28 27 29 8 30 9 31 10 32
REMARK SMILES IDX 24 33
REMARK H PARENT 24 34
REMARK Flexibility Score: inf
ROOT
ATOM      1  C   UNL     1      -0.106  -0.183   5.459  1.00  0.00     0.017 C 
ATOM      2  C   UNL     1      -0.857   1.181   5.499  1.00  0.00     0.014 C 
ATOM      3  C   UNL     1      -0.205  -0.727   4.014  1.00  0.00     0.014 C 
ATOM      4  C   UNL     1      -0.828  -1.172   6.444  1.00  0.00     0.030 C 
ATOM      5  C   UNL     1      -0.947   1.771   6.911  1.00  0.00     0.004 C 
ATOM      6  C   UNL     1       0.350  -2.153   3.870  1.00  0.00     0.013 C 
ATOM      7  C   UNL     1      -0.376  -2.643   6.271  1.00  0.00    -0.063 C 
ATOM      8  C   UNL     1      -0.932  -0.597   7.904  1.00  0.00    -0.003 C 
ATOM      9  C   UNL     1      -1.639   0.791   7.876  1.00  0.00    -0.011 C 
ATOM     10  C   UNL     1      -0.298  -3.213   4.833  1.00  0.00    -0.006 C 
ATOM     11  C   UNL     1      -0.331  -3.490   7.337  1.00  0.00    -0.027 C 
ATOM     12  C   UNL     1       0.403  -0.565   8.686  1.00  0.00     0.008 C 
ATOM     13  C   UNL     1      -1.788   1.414   9.273  1.00  0.00     0.008 C 
ATOM     14  C   UNL     1      -1.769  -3.427   4.337  1.00  0.00     0.017 C 
ATOM     15  C   UNL     1       0.560  -4.580   4.830  1.00  0.00    -0.020 C 
ATOM     16  C   UNL     1       0.084  -4.943   7.286  1.00  0.00     0.032 C 
ATOM     17  C   UNL     1      -0.045  -5.578   5.877  1.00  0.00     0.006 C 
ATOM     18  C   UNL     1       0.502  -5.288   3.458  1.00  0.00     0.008 C 
ATOM     19  C   UNL     1       2.054  -4.245   5.186  1.00  0.00     0.012 C 
ATOM     20  C   UNL     1       0.337  -7.150   5.694  1.00  0.00    -0.025 C 
ATOM     21  C   UNL     1       1.371  -6.549   3.369  1.00  0.00     0.005 C 
ATOM     22  C   UNL     1       1.541  -7.385   4.683  1.00  0.00     0.003 C 
ATOM     23  C   UNL     1      -0.923  -7.941   5.163  1.00  0.00     0.010 C 
ATOM     24  C   UNL     1       0.697  -7.732   7.092  1.00  0.00     0.012 C 
ATOM     25  C   UNL     1       1.914  -8.925   4.394  1.00  0.00    -0.006 C 
ATOM     26  C   UNL     1      -0.652  -9.092   4.172  1.00  0.00     0.033 C 
ATOM     27  C   UNL     1       0.646  -9.863   4.429  1.00  0.00     0.120 C 
ATOM     28  C   UNL     1       3.005  -9.410   5.399  1.00  0.00     0.014 C 
ATOM     29  C   UNL     1       2.598  -9.109   3.003  1.00  0.00     0.014 C 
ENDROOT
BRANCH   1  30
ATOM     30  C   UNL     1       1.370   0.033   5.780  1.00  0.00     0.048 C 
ATOM     31  O   UNL     1       2.097  -0.921   6.159  1.00  0.00    -0.550 OA
ATOM     32  O   UNL     1       1.965   1.270   5.556  1.00  0.00    -0.550 OA
ENDBRANCH   1  30
BRANCH  27  33
ATOM     33  O   UNL     1       0.522 -10.581   5.633  1.00  0.00    -0.393 OA
ATOM     34  H   UNL     1       1.331 -11.149   5.727  1.00  0.00     0.210 HD
ENDBRANCH  27  33
TORSDOF 2
ENDMDL
MODEL 8
REMARK VINA RESULT:    -4.253      9.917     11.388
REMARK INTER + INTRA:          -4.139
REMARK INTER:                  -4.620
REMARK INTRA:                   0.482
REMARK UNBOUND:                 0.488
REMARK SMILES C[C@H]1[C@@H](C)CC[C@]2(C(=O)[O-])CC[C@]3(C)C(=CC[C@@H]4[C@@]5(C)CC[C@H](O)C(C)(C)[C@H]5CC[C@]43C)[C@@H]12
REMARK SMILES IDX 7 1 6 2 11 3 33 4 5 5 12 6 15 7 2 8 3 9 13 10 16 11 1 12
REMARK SMILES IDX 4 13 14 14 31 15 17 16 18 17 30 18 32 19 19 20 29 21 28 22
REMARK SMILES IDX 21 23 20 24 25 25 22 26 23 27 26 28 27 29 8 30 9 31 10 32
REMARK SMILES IDX 24 33
REMARK H PARENT 24 34
REMARK Flexibility Score: inf
ROOT
ATOM      1  C   UNL     1      -7.400   2.471  -3.076  1.00  0.00     0.017 C 
ATOM      2  C   UNL     1      -7.314   3.979  -2.692  1.00  0.00     0.014 C 
ATOM      3  C   UNL     1      -7.942   1.707  -1.846  1.00  0.00     0.014 C 
ATOM      4  C   UNL     1      -5.951   1.965  -3.413  1.00  0.00     0.030 C 
ATOM      5  C   UNL     1      -6.665   4.837  -3.785  1.00  0.00     0.004 C 
ATOM      6  C   UNL     1      -7.919   0.181  -2.028  1.00  0.00     0.013 C 
ATOM      7  C   UNL     1      -5.851   0.423  -3.510  1.00  0.00    -0.063 C 
ATOM      8  C   UNL     1      -5.260   2.823  -4.535  1.00  0.00    -0.003 C 
ATOM      9  C   UNL     1      -5.253   4.325  -4.124  1.00  0.00    -0.011 C 
ATOM     10  C   UNL     1      -6.512  -0.418  -2.390  1.00  0.00    -0.006 C 
ATOM     11  C   UNL     1      -4.977  -0.169  -4.372  1.00  0.00    -0.027 C 
ATOM     12  C   UNL     1      -5.823   2.603  -5.961  1.00  0.00     0.008 C 
ATOM     13  C   UNL     1      -4.583   5.229  -5.170  1.00  0.00     0.008 C 
ATOM     14  C   UNL     1      -5.621  -0.269  -1.110  1.00  0.00     0.017 C 
ATOM     15  C   UNL     1      -6.655  -1.953  -2.868  1.00  0.00    -0.020 C 
ATOM     16  C   UNL     1      -4.788  -1.659  -4.545  1.00  0.00     0.032 C 
ATOM     17  C   UNL     1      -5.256  -2.491  -3.323  1.00  0.00     0.006 C 
ATOM     18  C   UNL     1      -7.128  -2.868  -1.716  1.00  0.00     0.008 C 
ATOM     19  C   UNL     1      -7.686  -2.024  -4.052  1.00  0.00     0.012 C 
ATOM     20  C   UNL     1      -5.072  -4.108  -3.368  1.00  0.00    -0.025 C 
ATOM     21  C   UNL     1      -7.367  -4.325  -2.133  1.00  0.00     0.005 C 
ATOM     22  C   UNL     1      -6.450  -4.894  -3.270  1.00  0.00     0.003 C 
ATOM     23  C   UNL     1      -4.149  -4.568  -2.172  1.00  0.00     0.010 C 
ATOM     24  C   UNL     1      -4.341  -4.482  -4.691  1.00  0.00     0.012 C 
ATOM     25  C   UNL     1      -6.332  -6.499  -3.225  1.00  0.00    -0.006 C 
ATOM     26  C   UNL     1      -4.490  -5.920  -1.512  1.00  0.00     0.033 C 
ATOM     27  C   UNL     1      -5.031  -6.981  -2.475  1.00  0.00     0.120 C 
ATOM     28  C   UNL     1      -6.402  -7.083  -4.671  1.00  0.00     0.014 C 
ATOM     29  C   UNL     1      -7.557  -7.156  -2.512  1.00  0.00     0.014 C 
ENDROOT
BRANCH   1  30
ATOM     30  C   UNL     1      -8.394   2.288  -4.220  1.00  0.00     0.048 C 
ATOM     31  O   UNL     1      -8.381   1.249  -4.929  1.00  0.00    -0.550 OA
ATOM     32  O   UNL     1      -9.404   3.221  -4.431  1.00  0.00    -0.550 OA
ENDBRANCH   1  30
BRANCH  27  33
ATOM     33  O   UNL     1      -4.001  -7.374  -3.350  1.00  0.00    -0.393 OA
ATOM     34  H   UNL     1      -4.190  -6.966  -4.236  1.00  0.00     0.210 HD
ENDBRANCH  27  33
TORSDOF 2
ENDMDL
MODEL 9
REMARK VINA RESULT:    -4.248      2.354      9.238
REMARK INTER + INTRA:          -4.132
REMARK INTER:                  -4.672
REMARK INTRA:                   0.540
REMARK UNBOUND:                 0.488
REMARK SMILES C[C@H]1[C@@H](C)CC[C@]2(C(=O)[O-])CC[C@]3(C)C(=CC[C@@H]4[C@@]5(C)CC[C@H](O)C(C)(C)[C@H]5CC[C@]43C)[C@@H]12
REMARK SMILES IDX 7 1 6 2 11 3 33 4 5 5 12 6 15 7 2 8 3 9 13 10 16 11 1 12
REMARK SMILES IDX 4 13 14 14 31 15 17 16 18 17 30 18 32 19 19 20 29 21 28 22
REMARK SMILES IDX 21 23 20 24 25 25 22 26 23 27 26 28 27 29 8 30 9 31 10 32
REMARK SMILES IDX 24 33
REMARK H PARENT 24 34
REMARK Flexibility Score: inf
ROOT
ATOM      1  C   UNL     1      -0.170  -6.654   5.434  1.00  0.00     0.017 C 
ATOM      2  C   UNL     1       0.297  -8.134   5.305  1.00  0.00     0.014 C 
ATOM      3  C   UNL     1       0.045  -5.976   4.060  1.00  0.00     0.014 C 
ATOM      4  C   UNL     1       0.725  -5.947   6.515  1.00  0.00     0.030 C 
ATOM      5  C   UNL     1       0.258  -8.890   6.639  1.00  0.00     0.004 C 
ATOM      6  C   UNL     1      -0.217  -4.462   4.090  1.00  0.00     0.013 C 
ATOM      7  C   UNL     1       0.573  -4.406   6.519  1.00  0.00    -0.063 C 
ATOM      8  C   UNL     1       0.703  -6.697   7.897  1.00  0.00    -0.003 C 
ATOM      9  C   UNL     1       1.122  -8.183   7.700  1.00  0.00    -0.011 C 
ATOM     10  C   UNL     1       0.620  -3.669   5.158  1.00  0.00    -0.006 C 
ATOM     11  C   UNL     1       0.688  -3.696   7.676  1.00  0.00    -0.027 C 
ATOM     12  C   UNL     1      -0.619  -6.556   8.691  1.00  0.00     0.008 C 
ATOM     13  C   UNL     1       1.134  -8.981   9.013  1.00  0.00     0.008 C 
ATOM     14  C   UNL     1       2.108  -3.693   4.668  1.00  0.00     0.017 C 
ATOM     15  C   UNL     1       0.049  -2.169   5.326  1.00  0.00    -0.020 C 
ATOM     16  C   UNL     1       0.568  -2.193   7.799  1.00  0.00     0.032 C 
ATOM     17  C   UNL     1       0.830  -1.438   6.471  1.00  0.00     0.006 C 
ATOM     18  C   UNL     1       0.255  -1.332   4.044  1.00  0.00     0.008 C 
ATOM     19  C   UNL     1      -1.485  -2.243   5.664  1.00  0.00     0.012 C 
ATOM     20  C   UNL     1       0.767   0.189   6.476  1.00  0.00    -0.025 C 
ATOM     21  C   UNL     1      -0.347   0.077   4.113  1.00  0.00     0.005 C 
ATOM     22  C   UNL     1      -0.359   0.772   5.518  1.00  0.00     0.003 C 
ATOM     23  C   UNL     1       2.163   0.773   6.020  1.00  0.00     0.010 C 
ATOM     24  C   UNL     1       0.519   0.665   7.938  1.00  0.00     0.012 C 
ATOM     25  C   UNL     1      -0.419   2.378   5.414  1.00  0.00    -0.006 C 
ATOM     26  C   UNL     1       2.132   2.062   5.173  1.00  0.00     0.033 C 
ATOM     27  C   UNL     1       1.009   3.038   5.537  1.00  0.00     0.120 C 
ATOM     28  C   UNL     1      -1.401   2.949   6.485  1.00  0.00     0.014 C 
ATOM     29  C   UNL     1      -1.042   2.853   4.063  1.00  0.00     0.014 C 
ENDROOT
BRANCH   1  30
ATOM     30  C   UNL     1      -1.663  -6.611   5.750  1.00  0.00     0.048 C 
ATOM     31  O   UNL     1      -2.238  -5.523   6.011  1.00  0.00    -0.550 OA
ATOM     32  O   UNL     1      -2.436  -7.762   5.652  1.00  0.00    -0.550 OA
ENDBRANCH   1  30
BRANCH  27  33
ATOM     33  O   UNL     1       1.262   3.573   6.813  1.00  0.00    -0.393 OA
ATOM     34  H   UNL     1       1.689   4.461   6.686  1.00  0.00     0.210 HD
ENDBRANCH  27  33
TORSDOF 2
ENDMDL
