MODEL 1
REMARK VINA RESULT:    -2.943      0.000      0.000
REMARK INTER + INTRA:          -3.907
REMARK INTER:                  -3.631
REMARK INTRA:                  -0.277
REMARK UNBOUND:                -0.277
REMARK SMILES O=c1c(O)c(-c2cc(O)c(O)c(O)c2)oc2cc(O)cc(O)c12
REMARK SMILES IDX 5 1 3 2 2 3 1 4 23 5 21 6 20 7 18 8 17 9 16 10 15 11 6 12
REMARK SMILES IDX 7 13 8 14 14 15 10 16 12 17 9 18 11 20 13 22 4 24 22 26
REMARK SMILES IDX 19 28
REMARK H PARENT 9 19 11 21 13 23 4 25 22 27 19 29
REMARK Flexibility Score: inf
ROOT
ATOM      1  C   UNL     1      21.934 -46.316   6.578  1.00  0.00     0.180 A 
ATOM      2  C   UNL     1      22.734 -45.317   7.159  1.00  0.00     0.208 A 
ATOM      3  C   UNL     1      22.113 -44.262   7.845  1.00  0.00     0.238 A 
ATOM      4  O   UNL     1      22.836 -43.411   8.426  1.00  0.00    -0.285 OA
ATOM      5  C   UNL     1      20.699 -44.189   7.896  1.00  0.00     0.111 A 
ATOM      6  C   UNL     1      19.962 -43.140   8.525  1.00  0.00     0.134 A 
ATOM      7  C   UNL     1      18.567 -43.228   8.605  1.00  0.00     0.093 A 
ATOM      8  C   UNL     1      17.878 -44.293   8.021  1.00  0.00     0.123 A 
ATOM      9  C   UNL     1      18.583 -45.292   7.356  1.00  0.00     0.094 A 
ATOM     10  C   UNL     1      19.979 -45.253   7.294  1.00  0.00     0.146 A 
ATOM     11  O   UNL     1      20.613 -46.238   6.669  1.00  0.00    -0.452 OA
ENDROOT
BRANCH   1  12
ATOM     12  C   UNL     1      22.517 -47.467   5.850  1.00  0.00     0.029 A 
ATOM     13  C   UNL     1      22.494 -48.764   6.392  1.00  0.00     0.062 A 
ATOM     14  C   UNL     1      23.029 -49.844   5.677  1.00  0.00     0.162 A 
ATOM     15  C   UNL     1      23.052 -47.273   4.568  1.00  0.00     0.062 A 
ATOM     16  C   UNL     1      23.584 -49.636   4.403  1.00  0.00     0.200 A 
ATOM     17  C   UNL     1      23.589 -48.345   3.848  1.00  0.00     0.162 A 
BRANCH  14  18
ATOM     18  O   UNL     1      23.007 -51.125   6.228  1.00  0.00    -0.504 OA
ATOM     19  H   UNL     1      22.138 -51.578   6.484  1.00  0.00     0.293 HD
ENDBRANCH  14  18
BRANCH  16  20
ATOM     20  O   UNL     1      24.125 -50.699   3.680  1.00  0.00    -0.502 OA
ATOM     21  H   UNL     1      24.955 -50.597   3.108  1.00  0.00     0.293 HD
ENDBRANCH  16  20
BRANCH  17  22
ATOM     22  O   UNL     1      24.125 -48.107   2.582  1.00  0.00    -0.504 OA
ATOM     23  H   UNL     1      23.717 -48.499   1.742  1.00  0.00     0.293 HD
ENDBRANCH  17  22
ENDBRANCH   1  12
BRANCH   2  24
ATOM     24  O   UNL     1      24.125 -45.367   7.033  1.00  0.00    -0.502 OA
ATOM     25  H   UNL     1      24.674 -44.568   6.737  1.00  0.00     0.293 HD
ENDBRANCH   2  24
BRANCH   6  26
ATOM     26  O   UNL     1      20.543 -41.987   9.063  1.00  0.00    -0.507 OA
ATOM     27  H   UNL     1      20.521 -41.729  10.037  1.00  0.00     0.293 HD
ENDBRANCH   6  26
BRANCH   8  28
ATOM     28  O   UNL     1      16.488 -44.364   8.090  1.00  0.00    -0.508 OA
ATOM     29  H   UNL     1      15.946 -44.858   7.390  1.00  0.00     0.293 HD
ENDBRANCH   8  28
TORSDOF 7
ENDMDL
MODEL 2
REMARK VINA RESULT:    -2.335      0.587      1.843
REMARK INTER + INTRA:          -3.158
REMARK INTER:                  -2.882
REMARK INTRA:                  -0.276
REMARK UNBOUND:                -0.277
REMARK SMILES O=c1c(O)c(-c2cc(O)c(O)c(O)c2)oc2cc(O)cc(O)c12
REMARK SMILES IDX 5 1 3 2 2 3 1 4 23 5 21 6 20 7 18 8 17 9 16 10 15 11 6 12
REMARK SMILES IDX 7 13 8 14 14 15 10 16 12 17 9 18 11 20 13 22 4 24 22 26
REMARK SMILES IDX 19 28
REMARK H PARENT 9 19 11 21 13 23 4 25 22 27 19 29
REMARK Flexibility Score: inf
ROOT
ATOM      1  C   UNL     1      21.504 -46.510   6.633  1.00  0.00     0.180 A 
ATOM      2  C   UNL     1      22.220 -45.398   7.109  1.00  0.00     0.208 A 
ATOM      3  C   UNL     1      21.523 -44.365   7.755  1.00  0.00     0.238 A 
ATOM      4  O   UNL     1      22.179 -43.409   8.243  1.00  0.00    -0.285 OA
ATOM      5  C   UNL     1      20.113 -44.430   7.869  1.00  0.00     0.111 A 
ATOM      6  C   UNL     1      19.299 -43.419   8.464  1.00  0.00     0.134 A 
ATOM      7  C   UNL     1      17.925 -43.640   8.616  1.00  0.00     0.093 A 
ATOM      8  C   UNL     1      17.325 -44.806   8.137  1.00  0.00     0.123 A 
ATOM      9  C   UNL     1      18.101 -45.773   7.504  1.00  0.00     0.094 A 
ATOM     10  C   UNL     1      19.481 -45.600   7.372  1.00  0.00     0.146 A 
ATOM     11  O   UNL     1      20.186 -46.558   6.782  1.00  0.00    -0.452 OA
ENDROOT
BRANCH   1  12
ATOM     12  C   UNL     1      22.171 -47.645   5.954  1.00  0.00     0.029 A 
ATOM     13  C   UNL     1      22.684 -47.520   4.652  1.00  0.00     0.062 A 
ATOM     14  C   UNL     1      23.332 -48.599   4.036  1.00  0.00     0.162 A 
ATOM     15  C   UNL     1      22.347 -48.854   6.645  1.00  0.00     0.062 A 
ATOM     16  C   UNL     1      23.484 -49.814   4.726  1.00  0.00     0.200 A 
ATOM     17  C   UNL     1      22.992 -49.935   6.037  1.00  0.00     0.162 A 
BRANCH  14  18
ATOM     18  O   UNL     1      23.831 -48.466   2.740  1.00  0.00    -0.504 OA
ATOM     19  H   UNL     1      23.313 -47.980   2.018  1.00  0.00     0.293 HD
ENDBRANCH  14  18
BRANCH  16  20
ATOM     20  O   UNL     1      24.124 -50.899   4.126  1.00  0.00    -0.502 OA
ATOM     21  H   UNL     1      23.641 -51.531   3.499  1.00  0.00     0.293 HD
ENDBRANCH  16  20
BRANCH  17  22
ATOM     22  O   UNL     1      23.135 -51.125   6.752  1.00  0.00    -0.504 OA
ATOM     23  H   UNL     1      22.500 -51.385   7.497  1.00  0.00     0.293 HD
ENDBRANCH  17  22
ENDBRANCH   1  12
BRANCH   2  24
ATOM     24  O   UNL     1      23.602 -45.318   6.919  1.00  0.00    -0.502 OA
ATOM     25  H   UNL     1      24.087 -44.435   6.811  1.00  0.00     0.293 HD
ENDBRANCH   2  24
BRANCH   6  26
ATOM     26  O   UNL     1      19.781 -42.179   8.897  1.00  0.00    -0.507 OA
ATOM     27  H   UNL     1      20.196 -42.003   9.798  1.00  0.00     0.293 HD
ENDBRANCH   6  26
BRANCH   8  28
ATOM     28  O   UNL     1      15.954 -45.009   8.277  1.00  0.00    -0.508 OA
ATOM     29  H   UNL     1      15.477 -44.828   9.153  1.00  0.00     0.293 HD
ENDBRANCH   8  28
TORSDOF 7
ENDMDL
MODEL 3
REMARK VINA RESULT:    -1.812      1.470      3.440
REMARK INTER + INTRA:          -2.512
REMARK INTER:                  -2.196
REMARK INTRA:                  -0.316
REMARK UNBOUND:                -0.277
REMARK SMILES O=c1c(O)c(-c2cc(O)c(O)c(O)c2)oc2cc(O)cc(O)c12
REMARK SMILES IDX 5 1 3 2 2 3 1 4 23 5 21 6 20 7 18 8 17 9 16 10 15 11 6 12
REMARK SMILES IDX 7 13 8 14 14 15 10 16 12 17 9 18 11 20 13 22 4 24 22 26
REMARK SMILES IDX 19 28
REMARK H PARENT 9 19 11 21 13 23 4 25 22 27 19 29
REMARK Flexibility Score: inf
ROOT
ATOM      1  C   UNL     1      20.485 -47.327   6.657  1.00  0.00     0.180 A 
ATOM      2  C   UNL     1      19.109 -47.576   6.800  1.00  0.00     0.208 A 
ATOM      3  C   UNL     1      18.290 -46.578   7.351  1.00  0.00     0.238 A 
ATOM      4  O   UNL     1      17.049 -46.778   7.408  1.00  0.00    -0.285 OA
ATOM      5  C   UNL     1      18.865 -45.364   7.803  1.00  0.00     0.111 A 
ATOM      6  C   UNL     1      18.138 -44.301   8.418  1.00  0.00     0.134 A 
ATOM      7  C   UNL     1      18.794 -43.104   8.728  1.00  0.00     0.093 A 
ATOM      8  C   UNL     1      20.165 -42.955   8.505  1.00  0.00     0.123 A 
ATOM      9  C   UNL     1      20.894 -44.006   7.957  1.00  0.00     0.094 A 
ATOM     10  C   UNL     1      20.260 -45.199   7.601  1.00  0.00     0.146 A 
ATOM     11  O   UNL     1      20.990 -46.168   7.060  1.00  0.00    -0.452 OA
ENDROOT
BRANCH   1  12
ATOM     12  C   UNL     1      21.410 -48.325   6.072  1.00  0.00     0.029 A 
ATOM     13  C   UNL     1      21.449 -48.564   4.688  1.00  0.00     0.062 A 
ATOM     14  C   UNL     1      22.348 -49.496   4.152  1.00  0.00     0.162 A 
ATOM     15  C   UNL     1      22.307 -49.007   6.909  1.00  0.00     0.062 A 
ATOM     16  C   UNL     1      23.227 -50.191   4.999  1.00  0.00     0.200 A 
ATOM     17  C   UNL     1      23.206 -49.939   6.382  1.00  0.00     0.162 A 
BRANCH  14  18
ATOM     18  O   UNL     1      22.374 -49.729   2.777  1.00  0.00    -0.504 OA
ATOM     19  H   UNL     1      23.141 -49.408   2.198  1.00  0.00     0.293 HD
ENDBRANCH  14  18
BRANCH  16  20
ATOM     20  O   UNL     1      24.125 -51.125   4.482  1.00  0.00    -0.502 OA
ATOM     21  H   UNL     1      25.069 -51.222   4.837  1.00  0.00     0.293 HD
ENDBRANCH  16  20
BRANCH  17  22
ATOM     22  O   UNL     1      24.072 -50.607   7.249  1.00  0.00    -0.504 OA
ATOM     23  H   UNL     1      25.006 -50.268   7.443  1.00  0.00     0.293 HD
ENDBRANCH  17  22
ENDBRANCH   1  12
BRANCH   2  24
ATOM     24  O   UNL     1      18.574 -48.809   6.419  1.00  0.00    -0.502 OA
ATOM     25  H   UNL     1      18.626 -49.631   7.008  1.00  0.00     0.293 HD
ENDBRANCH   2  24
BRANCH   6  26
ATOM     26  O   UNL     1      16.785 -44.376   8.767  1.00  0.00    -0.507 OA
ATOM     27  H   UNL     1      16.059 -44.761   8.185  1.00  0.00     0.293 HD
ENDBRANCH   6  26
BRANCH   8  28
ATOM     28  O   UNL     1      20.813 -41.766   8.833  1.00  0.00    -0.508 OA
ATOM     29  H   UNL     1      21.197 -41.157   8.120  1.00  0.00     0.293 HD
ENDBRANCH   8  28
TORSDOF 7
ENDMDL
MODEL 4
REMARK VINA RESULT:    -0.518      2.097      6.560
REMARK INTER + INTRA:          -0.915
REMARK INTER:                  -0.961
REMARK INTRA:                   0.046
REMARK UNBOUND:                -0.277
REMARK SMILES O=c1c(O)c(-c2cc(O)c(O)c(O)c2)oc2cc(O)cc(O)c12
REMARK SMILES IDX 5 1 3 2 2 3 1 4 23 5 21 6 20 7 18 8 17 9 16 10 15 11 6 12
REMARK SMILES IDX 7 13 8 14 14 15 10 16 12 17 9 18 11 20 13 22 4 24 22 26
REMARK SMILES IDX 19 28
REMARK H PARENT 9 19 11 21 13 23 4 25 22 27 19 29
REMARK Flexibility Score: inf
ROOT
ATOM      1  C   UNL     1      21.713 -46.288   7.341  1.00  0.00     0.180 A 
ATOM      2  C   UNL     1      22.678 -46.793   6.451  1.00  0.00     0.208 A 
ATOM      3  C   UNL     1      22.583 -48.128   6.030  1.00  0.00     0.238 A 
ATOM      4  O   UNL     1      23.406 -48.552   5.178  1.00  0.00    -0.285 OA
ATOM      5  C   UNL     1      21.557 -48.959   6.545  1.00  0.00     0.111 A 
ATOM      6  C   UNL     1      21.392 -50.340   6.222  1.00  0.00     0.134 A 
ATOM      7  C   UNL     1      20.278 -51.034   6.709  1.00  0.00     0.093 A 
ATOM      8  C   UNL     1      19.358 -50.416   7.559  1.00  0.00     0.123 A 
ATOM      9  C   UNL     1      19.541 -49.085   7.924  1.00  0.00     0.094 A 
ATOM     10  C   UNL     1      20.621 -48.354   7.424  1.00  0.00     0.146 A 
ATOM     11  O   UNL     1      20.745 -47.081   7.781  1.00  0.00    -0.452 OA
ENDROOT
BRANCH   1  12
ATOM     12  C   UNL     1      21.738 -44.886   7.818  1.00  0.00     0.029 A 
ATOM     13  C   UNL     1      22.930 -44.283   8.255  1.00  0.00     0.062 A 
ATOM     14  C   UNL     1      22.938 -42.948   8.681  1.00  0.00     0.162 A 
ATOM     15  C   UNL     1      20.561 -44.124   7.782  1.00  0.00     0.062 A 
ATOM     16  C   UNL     1      21.749 -42.199   8.662  1.00  0.00     0.200 A 
ATOM     17  C   UNL     1      20.559 -42.792   8.206  1.00  0.00     0.162 A 
BRANCH  14  18
ATOM     18  O   UNL     1      24.125 -42.361   9.118  1.00  0.00    -0.504 OA
ATOM     19  H   UNL     1      24.247 -42.061  10.078  1.00  0.00     0.293 HD
ENDBRANCH  14  18
BRANCH  16  20
ATOM     20  O   UNL     1      21.738 -40.870   9.087  1.00  0.00    -0.502 OA
ATOM     21  H   UNL     1      20.916 -40.283   9.005  1.00  0.00     0.293 HD
ENDBRANCH  16  20
BRANCH  17  22
ATOM     22  O   UNL     1      19.364 -42.072   8.167  1.00  0.00    -0.504 OA
ATOM     23  H   UNL     1      18.461 -42.525   8.232  1.00  0.00     0.293 HD
ENDBRANCH  17  22
ENDBRANCH   1  12
BRANCH   2  24
ATOM     24  O   UNL     1      23.726 -45.978   6.015  1.00  0.00    -0.502 OA
ATOM     25  H   UNL     1      23.660 -45.405   5.182  1.00  0.00     0.293 HD
ENDBRANCH   2  24
BRANCH   6  26
ATOM     26  O   UNL     1      22.298 -51.079   5.455  1.00  0.00    -0.507 OA
ATOM     27  H   UNL     1      22.160 -52.032   5.156  1.00  0.00     0.293 HD
ENDBRANCH   6  26
BRANCH   8  28
ATOM     28  O   UNL     1      18.262 -51.120   8.052  1.00  0.00    -0.508 OA
ATOM     29  H   UNL     1      18.377 -51.921   8.664  1.00  0.00     0.293 HD
ENDBRANCH   8  28
TORSDOF 7
ENDMDL
