MODEL 1
REMARK VINA RESULT:    -3.383      0.000      0.000
REMARK INTER + INTRA:          -3.802
REMARK INTER:                  -3.778
REMARK INTRA:                  -0.024
REMARK UNBOUND:                -0.024
REMARK SMILES CCCC(=O)[O-]
REMARK SMILES IDX 3 1 4 2 5 3 6 4 2 5 1 6
REMARK H PARENT
REMARK Flexibility Score: inf
ROOT
ATOM      1  C   UNL     1      -3.066   3.874  30.901  1.00  0.00     0.052 C 
ENDROOT
BRANCH   1   2
ATOM      2  C   UNL     1      -1.745   3.359  31.377  1.00  0.00     0.041 C 
ATOM      3  O   UNL     1      -0.838   3.083  30.548  1.00  0.00    -0.550 OA
ATOM      4  O   UNL     1      -1.530   3.139  32.731  1.00  0.00    -0.550 OA
ENDBRANCH   1   2
BRANCH   1   5
ATOM      5  C   UNL     1      -3.734   4.721  31.988  1.00  0.00     0.003 C 
ATOM      6  C   UNL     1      -3.832   6.184  31.565  1.00  0.00     0.004 C 
ENDBRANCH   1   5
TORSDOF 2
ENDMDL
MODEL 2
REMARK VINA RESULT:    -3.278      2.425      3.451
REMARK INTER + INTRA:          -3.686
REMARK INTER:                  -3.680
REMARK INTRA:                  -0.006
REMARK UNBOUND:                -0.024
REMARK SMILES CCCC(=O)[O-]
REMARK SMILES IDX 3 1 4 2 5 3 6 4 2 5 1 6
REMARK H PARENT
REMARK Flexibility Score: inf
ROOT
ATOM      1  C   UNL     1      -3.284   4.060  30.978  1.00  0.00     0.052 C 
ENDROOT
BRANCH   1   2
ATOM      2  C   UNL     1      -3.946   5.116  31.804  1.00  0.00     0.041 C 
ATOM      3  O   UNL     1      -4.622   4.796  32.817  1.00  0.00    -0.550 OA
ATOM      4  O   UNL     1      -3.857   6.451  31.430  1.00  0.00    -0.550 OA
ENDBRANCH   1   2
BRANCH   1   5
ATOM      5  C   UNL     1      -2.026   3.540  31.681  1.00  0.00     0.003 C 
ATOM      6  C   UNL     1      -0.960   3.129  30.670  1.00  0.00     0.004 C 
ENDBRANCH   1   5
TORSDOF 2
ENDMDL
MODEL 3
REMARK VINA RESULT:    -2.989     15.604     16.359
REMARK INTER + INTRA:          -3.363
REMARK INTER:                  -3.350
REMARK INTRA:                  -0.013
REMARK UNBOUND:                -0.024
REMARK SMILES CCCC(=O)[O-]
REMARK SMILES IDX 3 1 4 2 5 3 6 4 2 5 1 6
REMARK H PARENT
REMARK Flexibility Score: inf
ROOT
ATOM      1  C   UNL     1       5.416   0.496  17.239  1.00  0.00     0.052 C 
ENDROOT
BRANCH   1   2
ATOM      2  C   UNL     1       4.328   1.516  17.338  1.00  0.00     0.041 C 
ATOM      3  O   UNL     1       3.962   1.945  18.465  1.00  0.00    -0.550 OA
ATOM      4  O   UNL     1       3.683   1.960  16.191  1.00  0.00    -0.550 OA
ENDBRANCH   1   2
BRANCH   1   5
ATOM      5  C   UNL     1       5.544  -0.281  18.553  1.00  0.00     0.003 C 
ATOM      6  C   UNL     1       5.950  -1.729  18.300  1.00  0.00     0.004 C 
ENDBRANCH   1   5
TORSDOF 2
ENDMDL
MODEL 4
REMARK VINA RESULT:    -2.797     25.097     25.559
REMARK INTER + INTRA:          -3.149
REMARK INTER:                  -3.137
REMARK INTRA:                  -0.012
REMARK UNBOUND:                -0.024
REMARK SMILES CCCC(=O)[O-]
REMARK SMILES IDX 3 1 4 2 5 3 6 4 2 5 1 6
REMARK H PARENT
REMARK Flexibility Score: inf
ROOT
ATOM      1  C   UNL     1      12.503  17.374  15.715  1.00  0.00     0.052 C 
ENDROOT
BRANCH   1   2
ATOM      2  C   UNL     1      12.965  16.925  17.065  1.00  0.00     0.041 C 
ATOM      3  O   UNL     1      13.687  15.900  17.178  1.00  0.00    -0.550 OA
ATOM      4  O   UNL     1      12.559  17.611  18.203  1.00  0.00    -0.550 OA
ENDBRANCH   1   2
BRANCH   1   5
ATOM      5  C   UNL     1      13.485  16.916  14.633  1.00  0.00     0.003 C 
ATOM      6  C   UNL     1      12.955  17.232  13.238  1.00  0.00     0.004 C 
ENDBRANCH   1   5
TORSDOF 2
ENDMDL
MODEL 5
REMARK VINA RESULT:    -2.788     16.106     16.563
REMARK INTER + INTRA:          -3.138
REMARK INTER:                  -3.129
REMARK INTRA:                  -0.009
REMARK UNBOUND:                -0.024
REMARK SMILES CCCC(=O)[O-]
REMARK SMILES IDX 3 1 4 2 5 3 6 4 2 5 1 6
REMARK H PARENT
REMARK Flexibility Score: inf
ROOT
ATOM      1  C   UNL     1       4.324   1.609  17.690  1.00  0.00     0.052 C 
ENDROOT
BRANCH   1   2
ATOM      2  C   UNL     1       3.704   2.029  16.396  1.00  0.00     0.041 C 
ATOM      3  O   UNL     1       4.116   3.060  15.801  1.00  0.00    -0.550 OA
ATOM      4  O   UNL     1       2.639   1.309  15.868  1.00  0.00    -0.550 OA
ENDBRANCH   1   2
BRANCH   1   5
ATOM      5  C   UNL     1       5.364   0.509  17.454  1.00  0.00     0.003 C 
ATOM      6  C   UNL     1       5.422  -0.456  18.635  1.00  0.00     0.004 C 
ENDBRANCH   1   5
TORSDOF 2
ENDMDL
MODEL 6
REMARK VINA RESULT:    -2.782     16.162     17.000
REMARK INTER + INTRA:          -3.131
REMARK INTER:                  -3.085
REMARK INTRA:                  -0.046
REMARK UNBOUND:                -0.024
REMARK SMILES CCCC(=O)[O-]
REMARK SMILES IDX 3 1 4 2 5 3 6 4 2 5 1 6
REMARK H PARENT
REMARK Flexibility Score: inf
ROOT
ATOM      1  C   UNL     1       3.204   1.579  15.768  1.00  0.00     0.052 C 
ENDROOT
BRANCH   1   2
ATOM      2  C   UNL     1       4.289   1.583  16.796  1.00  0.00     0.041 C 
ATOM      3  O   UNL     1       4.034   1.912  17.985  1.00  0.00    -0.550 OA
ATOM      4  O   UNL     1       5.593   1.268  16.434  1.00  0.00    -0.550 OA
ENDBRANCH   1   2
BRANCH   1   5
ATOM      5  C   UNL     1       3.632   2.380  14.534  1.00  0.00     0.003 C 
ATOM      6  C   UNL     1       3.200   3.840  14.648  1.00  0.00     0.004 C 
ENDBRANCH   1   5
TORSDOF 2
ENDMDL
MODEL 7
REMARK VINA RESULT:    -2.747     16.523     17.321
REMARK INTER + INTRA:          -3.092
REMARK INTER:                  -3.061
REMARK INTRA:                  -0.031
REMARK UNBOUND:                -0.024
REMARK SMILES CCCC(=O)[O-]
REMARK SMILES IDX 3 1 4 2 5 3 6 4 2 5 1 6
REMARK H PARENT
REMARK Flexibility Score: inf
ROOT
ATOM      1  C   UNL     1       3.343   2.314  15.513  1.00  0.00     0.052 C 
ENDROOT
BRANCH   1   2
ATOM      2  C   UNL     1       4.346   1.902  16.543  1.00  0.00     0.041 C 
ATOM      3  O   UNL     1       5.477   1.475  16.190  1.00  0.00    -0.550 OA
ATOM      4  O   UNL     1       4.017   1.946  17.892  1.00  0.00    -0.550 OA
ENDBRANCH   1   2
BRANCH   1   5
ATOM      5  C   UNL     1       3.808   3.580  14.788  1.00  0.00     0.003 C 
ATOM      6  C   UNL     1       4.324   3.256  13.389  1.00  0.00     0.004 C 
ENDBRANCH   1   5
TORSDOF 2
ENDMDL
MODEL 8
REMARK VINA RESULT:    -2.743     16.251     16.957
REMARK INTER + INTRA:          -3.088
REMARK INTER:                  -3.047
REMARK INTRA:                  -0.041
REMARK UNBOUND:                -0.024
REMARK SMILES CCCC(=O)[O-]
REMARK SMILES IDX 3 1 4 2 5 3 6 4 2 5 1 6
REMARK H PARENT
REMARK Flexibility Score: inf
ROOT
ATOM      1  C   UNL     1       5.450   0.635  16.779  1.00  0.00     0.052 C 
ENDROOT
BRANCH   1   2
ATOM      2  C   UNL     1       4.045   0.710  16.275  1.00  0.00     0.041 C 
ATOM      3  O   UNL     1       3.311   1.685  16.587  1.00  0.00    -0.550 OA
ATOM      4  O   UNL     1       3.527  -0.320  15.500  1.00  0.00    -0.550 OA
ENDBRANCH   1   2
BRANCH   1   5
ATOM      5  C   UNL     1       5.480   0.075  18.204  1.00  0.00     0.003 C 
ATOM      6  C   UNL     1       5.808  -1.415  18.204  1.00  0.00     0.004 C 
ENDBRANCH   1   5
TORSDOF 2
ENDMDL
MODEL 9
REMARK VINA RESULT:    -2.719     16.514     16.922
REMARK INTER + INTRA:          -3.062
REMARK INTER:                  -3.024
REMARK INTRA:                  -0.038
REMARK UNBOUND:                -0.024
REMARK SMILES CCCC(=O)[O-]
REMARK SMILES IDX 3 1 4 2 5 3 6 4 2 5 1 6
REMARK H PARENT
REMARK Flexibility Score: inf
ROOT
ATOM      1  C   UNL     1       5.497   0.451  17.716  1.00  0.00     0.052 C 
ENDROOT
BRANCH   1   2
ATOM      2  C   UNL     1       5.217  -1.007  17.540  1.00  0.00     0.041 C 
ATOM      3  O   UNL     1       5.845  -1.859  18.222  1.00  0.00    -0.550 OA
ATOM      4  O   UNL     1       4.295  -1.429  16.591  1.00  0.00    -0.550 OA
ENDBRANCH   1   2
BRANCH   1   5
ATOM      5  C   UNL     1       5.569   1.151  16.355  1.00  0.00     0.003 C 
ATOM      6  C   UNL     1       4.479   2.211  16.222  1.00  0.00     0.004 C 
ENDBRANCH   1   5
TORSDOF 2
ENDMDL
