MODEL 1
REMARK VINA RESULT:    -5.025      0.000      0.000
REMARK INTER + INTRA:          -6.171
REMARK INTER:                  -5.906
REMARK INTRA:                  -0.265
REMARK UNBOUND:                -0.265
REMARK SMILES O=c1cc(-c2ccc(O)c(O)c2)oc2cc(O)cc(O)c12
REMARK SMILES IDX 4 1 3 2 2 3 1 4 21 5 19 6 18 7 16 8 15 9 14 10 13 11 5 12
REMARK SMILES IDX 6 13 7 14 8 15 12 16 10 17 9 18 11 20 20 22 17 24
REMARK H PARENT 9 19 11 21 20 23 17 25
REMARK Flexibility Score: inf
ROOT
ATOM      1  C   UNL     1     -31.035 -21.510 -33.919  1.00  0.00     0.138 A 
ATOM      2  C   UNL     1     -32.194 -20.850 -34.351  1.00  0.00     0.100 A 
ATOM      3  C   UNL     1     -32.830 -21.266 -35.520  1.00  0.00     0.197 A 
ATOM      4  O   UNL     1     -33.835 -20.618 -35.911  1.00  0.00    -0.289 OA
ATOM      5  C   UNL     1     -32.323 -22.373 -36.242  1.00  0.00     0.107 A 
ATOM      6  C   UNL     1     -32.908 -22.908 -37.431  1.00  0.00     0.134 A 
ATOM      7  C   UNL     1     -32.258 -23.945 -38.112  1.00  0.00     0.093 A 
ATOM      8  C   UNL     1     -31.078 -24.505 -37.618  1.00  0.00     0.123 A 
ATOM      9  C   UNL     1     -30.527 -24.024 -36.434  1.00  0.00     0.094 A 
ATOM     10  C   UNL     1     -31.131 -22.967 -35.749  1.00  0.00     0.146 A 
ATOM     11  O   UNL     1     -30.561 -22.527 -34.632  1.00  0.00    -0.456 OA
ENDROOT
BRANCH   1  12
ATOM     12  C   UNL     1     -30.320 -21.111 -32.680  1.00  0.00     0.021 A 
ATOM     13  C   UNL     1     -29.196 -20.272 -32.772  1.00  0.00     0.016 A 
ATOM     14  C   UNL     1     -28.510 -19.875 -31.623  1.00  0.00     0.051 A 
ATOM     15  C   UNL     1     -28.937 -20.299 -30.361  1.00  0.00     0.157 A 
ATOM     16  C   UNL     1     -30.756 -21.524 -31.406  1.00  0.00     0.062 A 
ATOM     17  C   UNL     1     -30.068 -21.124 -30.251  1.00  0.00     0.158 A 
BRANCH  15  18
ATOM     18  O   UNL     1     -28.231 -19.887 -29.232  1.00  0.00    -0.504 OA
ATOM     19  H   UNL     1     -28.636 -19.913 -28.304  1.00  0.00     0.293 HD
ENDBRANCH  15  18
BRANCH  17  20
ATOM     20  O   UNL     1     -30.507 -21.541 -28.995  1.00  0.00    -0.504 OA
ATOM     21  H   UNL     1     -31.203 -22.269 -28.890  1.00  0.00     0.293 HD
ENDBRANCH  17  20
ENDBRANCH   1  12
BRANCH   6  22
ATOM     22  O   UNL     1     -34.125 -22.478 -37.968  1.00  0.00    -0.507 OA
ATOM     23  H   UNL     1     -34.382 -22.538 -38.941  1.00  0.00     0.293 HD
ENDBRANCH   6  22
BRANCH   8  24
ATOM     24  O   UNL     1     -30.449 -25.547 -38.295  1.00  0.00    -0.508 OA
ATOM     25  H   UNL     1     -29.758 -25.371 -39.015  1.00  0.00     0.293 HD
ENDBRANCH   8  24
TORSDOF 5
ENDMDL
MODEL 2
REMARK VINA RESULT:    -4.633      1.084      1.676
REMARK INTER + INTRA:          -5.710
REMARK INTER:                  -5.428
REMARK INTRA:                  -0.282
REMARK UNBOUND:                -0.265
REMARK SMILES O=c1cc(-c2ccc(O)c(O)c2)oc2cc(O)cc(O)c12
REMARK SMILES IDX 4 1 3 2 2 3 1 4 21 5 19 6 18 7 16 8 15 9 14 10 13 11 5 12
REMARK SMILES IDX 6 13 7 14 8 15 12 16 10 17 9 18 11 20 20 22 17 24
REMARK H PARENT 9 19 11 21 20 23 17 25
REMARK Flexibility Score: inf
ROOT
ATOM      1  C   UNL     1     -31.629 -22.036 -33.788  1.00  0.00     0.138 A 
ATOM      2  C   UNL     1     -32.515 -21.022 -34.178  1.00  0.00     0.100 A 
ATOM      3  C   UNL     1     -33.020 -21.010 -35.478  1.00  0.00     0.197 A 
ATOM      4  O   UNL     1     -33.769 -20.056 -35.814  1.00  0.00    -0.289 OA
ATOM      5  C   UNL     1     -32.664 -22.038 -36.382  1.00  0.00     0.107 A 
ATOM      6  C   UNL     1     -33.143 -22.147 -37.723  1.00  0.00     0.134 A 
ATOM      7  C   UNL     1     -32.641 -23.156 -38.556  1.00  0.00     0.093 A 
ATOM      8  C   UNL     1     -31.722 -24.094 -38.079  1.00  0.00     0.123 A 
ATOM      9  C   UNL     1     -31.286 -24.026 -36.758  1.00  0.00     0.094 A 
ATOM     10  C   UNL     1     -31.741 -23.011 -35.913  1.00  0.00     0.146 A 
ATOM     11  O   UNL     1     -31.285 -22.973 -34.665  1.00  0.00    -0.456 OA
ENDROOT
BRANCH   1  12
ATOM     12  C   UNL     1     -31.064 -22.100 -32.415  1.00  0.00     0.021 A 
ATOM     13  C   UNL     1     -30.911 -23.349 -31.790  1.00  0.00     0.016 A 
ATOM     14  C   UNL     1     -30.376 -23.439 -30.504  1.00  0.00     0.051 A 
ATOM     15  C   UNL     1     -29.975 -22.286 -29.822  1.00  0.00     0.157 A 
ATOM     16  C   UNL     1     -30.647 -20.942 -31.731  1.00  0.00     0.062 A 
ATOM     17  C   UNL     1     -30.107 -21.032 -30.439  1.00  0.00     0.158 A 
BRANCH  15  18
ATOM     18  O   UNL     1     -29.445 -22.407 -28.538  1.00  0.00    -0.504 OA
ATOM     19  H   UNL     1     -29.907 -22.943 -27.813  1.00  0.00     0.293 HD
ENDBRANCH  15  18
BRANCH  17  20
ATOM     20  O   UNL     1     -29.698 -19.879 -29.770  1.00  0.00    -0.504 OA
ATOM     21  H   UNL     1     -28.960 -19.288 -30.131  1.00  0.00     0.293 HD
ENDBRANCH  17  20
ENDBRANCH   1  12
BRANCH   6  22
ATOM     22  O   UNL     1     -34.119 -21.314 -38.277  1.00  0.00    -0.507 OA
ATOM     23  H   UNL     1     -34.610 -21.490 -39.140  1.00  0.00     0.293 HD
ENDBRANCH   6  22
BRANCH   8  24
ATOM     24  O   UNL     1     -31.241 -25.103 -38.910  1.00  0.00    -0.508 OA
ATOM     25  H   UNL     1     -31.739 -25.977 -39.026  1.00  0.00     0.293 HD
ENDBRANCH   8  24
TORSDOF 5
ENDMDL
