MODEL 1
REMARK VINA RESULT:    -4.972      0.000      0.000
REMARK INTER + INTRA:          -5.796
REMARK INTER:                  -5.699
REMARK INTRA:                  -0.097
REMARK UNBOUND:                -0.097
REMARK SMILES COc1cc(C(=O)[O-])ccc1O
REMARK SMILES IDX 5 1 9 2 4 3 10 4 3 5 11 6 6 7 7 8 8 9 2 10 1 11 12 12
REMARK H PARENT 12 13
REMARK Flexibility Score: inf
ROOT
ATOM      1  C   UNL     1      -8.785  -1.381   1.044  1.00  0.00     0.001 A 
ATOM      2  C   UNL     1      -8.152  -1.737  -0.159  1.00  0.00     0.014 A 
ATOM      3  C   UNL     1      -8.106  -1.578   2.259  1.00  0.00     0.060 A 
ATOM      4  C   UNL     1      -6.866  -2.280  -0.145  1.00  0.00     0.051 A 
ATOM      5  C   UNL     1      -6.807  -2.126   2.278  1.00  0.00     0.161 A 
ATOM      6  C   UNL     1      -6.191  -2.476   1.062  1.00  0.00     0.157 A 
ENDROOT
BRANCH   1   7
ATOM      7  C   UNL     1     -10.148  -0.805   1.033  1.00  0.00     0.072 C 
ATOM      8  O   UNL     1     -10.925  -1.012   0.063  1.00  0.00    -0.545 OA
ATOM      9  O   UNL     1     -10.593  -0.025   2.096  1.00  0.00    -0.545 OA
ENDBRANCH   1   7
BRANCH   5  10
ATOM     10  O   UNL     1      -6.105  -2.335   3.477  1.00  0.00    -0.493 OA
ATOM     11  C   UNL     1      -6.201  -3.509   4.275  1.00  0.00     0.278 C 
ENDBRANCH   5  10
BRANCH   6  12
ATOM     12  O   UNL     1      -4.908  -3.021   1.035  1.00  0.00    -0.504 OA
ATOM     13  H   UNL     1      -4.251  -2.894   1.796  1.00  0.00     0.293 HD
ENDBRANCH   6  12
TORSDOF 3
ENDMDL
MODEL 2
REMARK VINA RESULT:    -4.889     10.084     10.980
REMARK INTER + INTRA:          -5.701
REMARK INTER:                  -5.623
REMARK INTRA:                  -0.077
REMARK UNBOUND:                -0.097
REMARK SMILES COc1cc(C(=O)[O-])ccc1O
REMARK SMILES IDX 5 1 9 2 4 3 10 4 3 5 11 6 6 7 7 8 8 9 2 10 1 11 12 12
REMARK H PARENT 12 13
REMARK Flexibility Score: inf
ROOT
ATOM      1  C   UNL     1      -5.879   7.354  -2.121  1.00  0.00     0.001 A 
ATOM      2  C   UNL     1      -5.092   7.517  -0.968  1.00  0.00     0.014 A 
ATOM      3  C   UNL     1      -7.256   7.629  -2.054  1.00  0.00     0.060 A 
ATOM      4  C   UNL     1      -5.671   7.946   0.227  1.00  0.00     0.051 A 
ATOM      5  C   UNL     1      -7.846   8.063  -0.849  1.00  0.00     0.161 A 
ATOM      6  C   UNL     1      -7.040   8.220   0.293  1.00  0.00     0.157 A 
ENDROOT
BRANCH   1   7
ATOM      7  C   UNL     1      -5.268   6.899  -3.390  1.00  0.00     0.072 C 
ATOM      8  O   UNL     1      -4.440   5.949  -3.399  1.00  0.00    -0.545 OA
ATOM      9  O   UNL     1      -5.599   7.514  -4.592  1.00  0.00    -0.545 OA
ENDBRANCH   1   7
BRANCH   5  10
ATOM     10  O   UNL     1      -9.218   8.345  -0.752  1.00  0.00    -0.493 OA
ATOM     11  C   UNL     1     -10.077   8.573  -1.864  1.00  0.00     0.278 C 
ENDBRANCH   5  10
BRANCH   6  12
ATOM     12  O   UNL     1      -7.582   8.647   1.506  1.00  0.00    -0.504 OA
ATOM     13  H   UNL     1      -7.984   8.001   2.175  1.00  0.00     0.293 HD
ENDBRANCH   6  12
TORSDOF 3
ENDMDL
MODEL 3
REMARK VINA RESULT:    -4.840      1.112      2.849
REMARK INTER + INTRA:          -5.645
REMARK INTER:                  -5.566
REMARK INTRA:                  -0.079
REMARK UNBOUND:                -0.097
REMARK SMILES COc1cc(C(=O)[O-])ccc1O
REMARK SMILES IDX 5 1 9 2 4 3 10 4 3 5 11 6 6 7 7 8 8 9 2 10 1 11 12 12
REMARK H PARENT 12 13
REMARK Flexibility Score: inf
ROOT
ATOM      1  C   UNL     1      -8.560  -1.422   0.994  1.00  0.00     0.001 A 
ATOM      2  C   UNL     1      -7.916  -1.692   2.214  1.00  0.00     0.014 A 
ATOM      3  C   UNL     1      -7.901  -1.727  -0.209  1.00  0.00     0.060 A 
ATOM      4  C   UNL     1      -6.638  -2.255   2.228  1.00  0.00     0.051 A 
ATOM      5  C   UNL     1      -6.611  -2.295  -0.201  1.00  0.00     0.161 A 
ATOM      6  C   UNL     1      -5.984  -2.557   1.031  1.00  0.00     0.157 A 
ENDROOT
BRANCH   1   7
ATOM      7  C   UNL     1      -9.915  -0.826   0.977  1.00  0.00     0.072 C 
ATOM      8  O   UNL     1     -10.652  -0.938  -0.038  1.00  0.00    -0.545 OA
ATOM      9  O   UNL     1     -10.394  -0.134   2.084  1.00  0.00    -0.545 OA
ENDBRANCH   1   7
BRANCH   5  10
ATOM     10  O   UNL     1      -5.928  -2.609  -1.387  1.00  0.00    -0.493 OA
ATOM     11  C   UNL     1      -6.499  -2.544  -2.690  1.00  0.00     0.278 C 
ENDBRANCH   5  10
BRANCH   6  12
ATOM     12  O   UNL     1      -4.708  -3.118   1.086  1.00  0.00    -0.504 OA
ATOM     13  H   UNL     1      -4.188  -3.360   0.251  1.00  0.00     0.293 HD
ENDBRANCH   6  12
TORSDOF 3
ENDMDL
MODEL 4
REMARK VINA RESULT:    -4.825      9.985     10.676
REMARK INTER + INTRA:          -5.628
REMARK INTER:                  -5.536
REMARK INTRA:                  -0.092
REMARK UNBOUND:                -0.097
REMARK SMILES COc1cc(C(=O)[O-])ccc1O
REMARK SMILES IDX 5 1 9 2 4 3 10 4 3 5 11 6 6 7 7 8 8 9 2 10 1 11 12 12
REMARK H PARENT 12 13
REMARK Flexibility Score: inf
ROOT
ATOM      1  C   UNL     1      -5.744   6.612  -2.700  1.00  0.00     0.001 A 
ATOM      2  C   UNL     1      -6.922   6.793  -1.956  1.00  0.00     0.014 A 
ATOM      3  C   UNL     1      -4.542   7.162  -2.220  1.00  0.00     0.060 A 
ATOM      4  C   UNL     1      -6.898   7.509  -0.758  1.00  0.00     0.051 A 
ATOM      5  C   UNL     1      -4.512   7.885  -1.010  1.00  0.00     0.161 A 
ATOM      6  C   UNL     1      -5.704   8.054  -0.282  1.00  0.00     0.157 A 
ENDROOT
BRANCH   1   7
ATOM      7  C   UNL     1      -5.766   5.854  -3.970  1.00  0.00     0.072 C 
ATOM      8  O   UNL     1      -6.230   6.374  -5.020  1.00  0.00    -0.545 OA
ATOM      9  O   UNL     1      -5.273   4.555  -4.024  1.00  0.00    -0.545 OA
ENDBRANCH   1   7
BRANCH   5  10
ATOM     10  O   UNL     1      -3.326   8.445  -0.507  1.00  0.00    -0.493 OA
ATOM     11  C   UNL     1      -2.603   9.501  -1.130  1.00  0.00     0.278 C 
ENDBRANCH   5  10
BRANCH   6  12
ATOM     12  O   UNL     1      -5.719   8.763   0.920  1.00  0.00    -0.504 OA
ATOM     13  H   UNL     1      -4.918   9.289   1.247  1.00  0.00     0.293 HD
ENDBRANCH   6  12
TORSDOF 3
ENDMDL
MODEL 5
REMARK VINA RESULT:    -4.808      7.476      8.211
REMARK INTER + INTRA:          -5.608
REMARK INTER:                  -5.525
REMARK INTRA:                  -0.084
REMARK UNBOUND:                -0.097
REMARK SMILES COc1cc(C(=O)[O-])ccc1O
REMARK SMILES IDX 5 1 9 2 4 3 10 4 3 5 11 6 6 7 7 8 8 9 2 10 1 11 12 12
REMARK H PARENT 12 13
REMARK Flexibility Score: inf
ROOT
ATOM      1  C   UNL     1      -7.291   3.730   8.032  1.00  0.00     0.001 A 
ATOM      2  C   UNL     1      -6.204   4.505   7.591  1.00  0.00     0.014 A 
ATOM      3  C   UNL     1      -7.175   2.329   8.033  1.00  0.00     0.060 A 
ATOM      4  C   UNL     1      -5.028   3.891   7.159  1.00  0.00     0.051 A 
ATOM      5  C   UNL     1      -5.989   1.704   7.598  1.00  0.00     0.161 A 
ATOM      6  C   UNL     1      -4.914   2.499   7.160  1.00  0.00     0.157 A 
ENDROOT
BRANCH   1   7
ATOM      7  C   UNL     1      -8.539   4.379   8.491  1.00  0.00     0.072 C 
ATOM      8  O   UNL     1      -8.502   5.474   9.113  1.00  0.00    -0.545 OA
ATOM      9  O   UNL     1      -9.773   3.789   8.240  1.00  0.00    -0.545 OA
ENDBRANCH   1   7
BRANCH   5  10
ATOM     10  O   UNL     1      -5.845   0.307   7.587  1.00  0.00    -0.493 OA
ATOM     11  C   UNL     1      -6.286  -0.559   8.628  1.00  0.00     0.278 C 
ENDBRANCH   5  10
BRANCH   6  12
ATOM     12  O   UNL     1      -3.722   1.921   6.721  1.00  0.00    -0.504 OA
ATOM     13  H   UNL     1      -2.856   2.012   7.237  1.00  0.00     0.293 HD
ENDBRANCH   6  12
TORSDOF 3
ENDMDL
MODEL 6
REMARK VINA RESULT:    -4.801      9.768     10.829
REMARK INTER + INTRA:          -5.600
REMARK INTER:                  -5.504
REMARK INTRA:                  -0.097
REMARK UNBOUND:                -0.097
REMARK SMILES COc1cc(C(=O)[O-])ccc1O
REMARK SMILES IDX 5 1 9 2 4 3 10 4 3 5 11 6 6 7 7 8 8 9 2 10 1 11 12 12
REMARK H PARENT 12 13
REMARK Flexibility Score: inf
ROOT
ATOM      1  C   UNL     1      -4.808   7.751  -1.167  1.00  0.00     0.001 A 
ATOM      2  C   UNL     1      -5.987   7.867  -0.410  1.00  0.00     0.014 A 
ATOM      3  C   UNL     1      -4.857   7.102  -2.413  1.00  0.00     0.060 A 
ATOM      4  C   UNL     1      -7.188   7.343  -0.890  1.00  0.00     0.051 A 
ATOM      5  C   UNL     1      -6.069   6.571  -2.903  1.00  0.00     0.161 A 
ATOM      6  C   UNL     1      -7.236   6.698  -2.128  1.00  0.00     0.157 A 
ENDROOT
BRANCH   1   7
ATOM      7  C   UNL     1      -3.533   8.305  -0.661  1.00  0.00     0.072 C 
ATOM      8  O   UNL     1      -2.964   7.795   0.340  1.00  0.00    -0.545 OA
ATOM      9  O   UNL     1      -2.943   9.399  -1.285  1.00  0.00    -0.545 OA
ENDBRANCH   1   7
BRANCH   5  10
ATOM     10  O   UNL     1      -6.147   5.917  -4.143  1.00  0.00    -0.493 OA
ATOM     11  C   UNL     1      -5.714   4.582  -4.382  1.00  0.00     0.278 C 
ENDBRANCH   5  10
BRANCH   6  12
ATOM     12  O   UNL     1      -8.456   6.187  -2.574  1.00  0.00    -0.504 OA
ATOM     13  H   UNL     1      -8.981   6.621  -3.324  1.00  0.00     0.293 HD
ENDBRANCH   6  12
TORSDOF 3
ENDMDL
MODEL 7
REMARK VINA RESULT:    -4.780      2.042      3.813
REMARK INTER + INTRA:          -5.576
REMARK INTER:                  -5.479
REMARK INTRA:                  -0.097
REMARK UNBOUND:                -0.097
REMARK SMILES COc1cc(C(=O)[O-])ccc1O
REMARK SMILES IDX 5 1 9 2 4 3 10 4 3 5 11 6 6 7 7 8 8 9 2 10 1 11 12 12
REMARK H PARENT 12 13
REMARK Flexibility Score: inf
ROOT
ATOM      1  C   UNL     1      -6.746  -2.523  -0.920  1.00  0.00     0.001 A 
ATOM      2  C   UNL     1      -7.905  -1.728  -0.937  1.00  0.00     0.014 A 
ATOM      3  C   UNL     1      -6.131  -2.810   0.311  1.00  0.00     0.060 A 
ATOM      4  C   UNL     1      -8.436  -1.230   0.254  1.00  0.00     0.051 A 
ATOM      5  C   UNL     1      -6.665  -2.310   1.517  1.00  0.00     0.161 A 
ATOM      6  C   UNL     1      -7.825  -1.515   1.477  1.00  0.00     0.157 A 
ENDROOT
BRANCH   1   7
ATOM      7  C   UNL     1      -6.180  -3.052  -2.181  1.00  0.00     0.072 C 
ATOM      8  O   UNL     1      -6.158  -4.292  -2.404  1.00  0.00    -0.545 OA
ATOM      9  O   UNL     1      -5.665  -2.187  -3.140  1.00  0.00    -0.545 OA
ENDBRANCH   1   7
BRANCH   5  10
ATOM     10  O   UNL     1      -6.072  -2.580   2.761  1.00  0.00    -0.493 OA
ATOM     11  C   UNL     1      -6.222  -3.800   3.480  1.00  0.00     0.278 C 
ENDBRANCH   5  10
BRANCH   6  12
ATOM     12  O   UNL     1      -8.386  -1.000   2.646  1.00  0.00    -0.504 OA
ATOM     13  H   UNL     1      -7.837  -0.837   3.482  1.00  0.00     0.293 HD
ENDBRANCH   6  12
TORSDOF 3
ENDMDL
MODEL 8
REMARK VINA RESULT:    -4.720      9.980     10.617
REMARK INTER + INTRA:          -5.507
REMARK INTER:                  -5.434
REMARK INTRA:                  -0.073
REMARK UNBOUND:                -0.097
REMARK SMILES COc1cc(C(=O)[O-])ccc1O
REMARK SMILES IDX 5 1 9 2 4 3 10 4 3 5 11 6 6 7 7 8 8 9 2 10 1 11 12 12
REMARK H PARENT 12 13
REMARK Flexibility Score: inf
ROOT
ATOM      1  C   UNL     1      -7.288   8.441  -1.391  1.00  0.00     0.001 A 
ATOM      2  C   UNL     1      -6.614   8.773  -0.204  1.00  0.00     0.014 A 
ATOM      3  C   UNL     1      -6.643   7.628  -2.339  1.00  0.00     0.060 A 
ATOM      4  C   UNL     1      -5.321   8.301   0.030  1.00  0.00     0.051 A 
ATOM      5  C   UNL     1      -5.337   7.148  -2.108  1.00  0.00     0.161 A 
ATOM      6  C   UNL     1      -4.681   7.493  -0.912  1.00  0.00     0.157 A 
ENDROOT
BRANCH   1   7
ATOM      7  C   UNL     1      -8.659   8.940  -1.641  1.00  0.00     0.072 C 
ATOM      8  O   UNL     1      -8.856   9.916  -2.412  1.00  0.00    -0.545 OA
ATOM      9  O   UNL     1      -9.751   8.337  -1.027  1.00  0.00    -0.545 OA
ENDBRANCH   1   7
BRANCH   5  10
ATOM     10  O   UNL     1      -4.669   6.334  -3.037  1.00  0.00    -0.493 OA
ATOM     11  C   UNL     1      -5.265   5.785  -4.207  1.00  0.00     0.278 C 
ENDBRANCH   5  10
BRANCH   6  12
ATOM     12  O   UNL     1      -3.389   7.040  -0.643  1.00  0.00    -0.504 OA
ATOM     13  H   UNL     1      -2.617   7.676  -0.480  1.00  0.00     0.293 HD
ENDBRANCH   6  12
TORSDOF 3
ENDMDL
MODEL 9
REMARK VINA RESULT:    -4.644      2.106      4.372
REMARK INTER + INTRA:          -5.420
REMARK INTER:                  -5.339
REMARK INTRA:                  -0.082
REMARK UNBOUND:                -0.097
REMARK SMILES COc1cc(C(=O)[O-])ccc1O
REMARK SMILES IDX 5 1 9 2 4 3 10 4 3 5 11 6 6 7 7 8 8 9 2 10 1 11 12 12
REMARK H PARENT 12 13
REMARK Flexibility Score: inf
ROOT
ATOM      1  C   UNL     1      -6.478  -2.682  -0.888  1.00  0.00     0.001 A 
ATOM      2  C   UNL     1      -5.611  -3.090   0.140  1.00  0.00     0.014 A 
ATOM      3  C   UNL     1      -7.603  -1.904  -0.564  1.00  0.00     0.060 A 
ATOM      4  C   UNL     1      -5.865  -2.728   1.464  1.00  0.00     0.051 A 
ATOM      5  C   UNL     1      -7.865  -1.535   0.771  1.00  0.00     0.161 A 
ATOM      6  C   UNL     1      -6.983  -1.955   1.785  1.00  0.00     0.157 A 
ENDROOT
BRANCH   1   7
ATOM      7  C   UNL     1      -6.211  -3.065  -2.292  1.00  0.00     0.072 C 
ATOM      8  O   UNL     1      -5.660  -2.256  -3.084  1.00  0.00    -0.545 OA
ATOM      9  O   UNL     1      -6.564  -4.327  -2.758  1.00  0.00    -0.545 OA
ENDBRANCH   1   7
BRANCH   5  10
ATOM     10  O   UNL     1      -8.981  -0.759   1.124  1.00  0.00    -0.493 OA
ATOM     11  C   UNL     1     -10.314  -1.019   0.696  1.00  0.00     0.278 C 
ENDBRANCH   5  10
BRANCH   6  12
ATOM     12  O   UNL     1      -7.204  -1.613   3.119  1.00  0.00    -0.504 OA
ATOM     13  H   UNL     1      -8.094  -1.256   3.445  1.00  0.00     0.293 HD
ENDBRANCH   6  12
TORSDOF 3
ENDMDL
