MODEL 1
REMARK VINA RESULT:    -4.897      0.000      0.000
REMARK INTER + INTRA:          -4.897
REMARK INTER:                  -4.897
REMARK INTRA:                   0.000
REMARK UNBOUND:                 0.000
REMARK SMILES CC(C)=C1CC[C@H](C)CC1=O
REMARK SMILES IDX 8 1 7 2 6 3 5 4 4 5 2 6 1 7 3 8 10 9 11 10 9 11
REMARK H PARENT
REMARK Flexibility Score: inf
ROOT
ATOM      1  C   UNL     1      11.608 114.149  17.735  1.00  0.00     0.008 C 
ATOM      2  C   UNL     1      12.537 113.135  18.411  1.00  0.00    -0.006 C 
ATOM      3  C   UNL     1      11.781 112.342  19.489  1.00  0.00     0.008 C 
ATOM      4  C   UNL     1      12.720 111.394  20.246  1.00  0.00     0.039 C 
ATOM      5  C   UNL     1      13.519 110.494  19.312  1.00  0.00    -0.006 C 
ATOM      6  C   UNL     1      13.886 109.233  19.684  1.00  0.00    -0.070 C 
ATOM      7  C   UNL     1      14.630 108.311  18.745  1.00  0.00     0.039 C 
ATOM      8  C   UNL     1      13.531 108.682  21.046  1.00  0.00     0.039 C 
ATOM      9  C   UNL     1      13.968 111.115  18.030  1.00  0.00     0.159 C 
ATOM     10  O   UNL     1      15.052 110.775  17.482  1.00  0.00    -0.295 OA
ATOM     11  C   UNL     1      13.130 112.173  17.371  1.00  0.00     0.084 C 
ENDROOT
TORSDOF 0
ENDMDL
MODEL 2
REMARK VINA RESULT:    -4.728      5.352      7.498
REMARK INTER + INTRA:          -4.728
REMARK INTER:                  -4.728
REMARK INTRA:                   0.000
REMARK UNBOUND:                 0.000
REMARK SMILES CC(C)=C1CC[C@H](C)CC1=O
REMARK SMILES IDX 8 1 7 2 6 3 5 4 4 5 2 6 1 7 3 8 10 9 11 10 9 11
REMARK H PARENT
REMARK Flexibility Score: inf
ROOT
ATOM      1  C   UNL     1       6.040 119.110  18.835  1.00  0.00     0.008 C 
ATOM      2  C   UNL     1       7.483 118.680  19.117  1.00  0.00    -0.006 C 
ATOM      3  C   UNL     1       7.571 117.912  20.446  1.00  0.00     0.008 C 
ATOM      4  C   UNL     1       9.023 117.563  20.794  1.00  0.00     0.039 C 
ATOM      5  C   UNL     1       9.739 116.845  19.658  1.00  0.00    -0.006 C 
ATOM      6  C   UNL     1      10.712 115.919  19.904  1.00  0.00    -0.070 C 
ATOM      7  C   UNL     1      11.390 115.161  18.786  1.00  0.00     0.039 C 
ATOM      8  C   UNL     1      11.131 115.579  21.316  1.00  0.00     0.039 C 
ATOM      9  C   UNL     1       9.397 117.300  18.277  1.00  0.00     0.159 C 
ATOM     10  O   UNL     1      10.251 117.277  17.349  1.00  0.00    -0.295 OA
ATOM     11  C   UNL     1       8.018 117.808  17.971  1.00  0.00     0.084 C 
ENDROOT
TORSDOF 0
ENDMDL
MODEL 3
REMARK VINA RESULT:    -4.589     12.419     14.984
REMARK INTER + INTRA:          -4.589
REMARK INTER:                  -4.589
REMARK INTRA:                   0.000
REMARK UNBOUND:                 0.000
REMARK SMILES CC(C)=C1CC[C@H](C)CC1=O
REMARK SMILES IDX 8 1 7 2 6 3 5 4 4 5 2 6 1 7 3 8 10 9 11 10 9 11
REMARK H PARENT
REMARK Flexibility Score: inf
ROOT
ATOM      1  C   UNL     1      15.368 121.791  13.999  1.00  0.00     0.008 C 
ATOM      2  C   UNL     1      16.207 122.707  14.897  1.00  0.00    -0.006 C 
ATOM      3  C   UNL     1      17.189 123.538  14.056  1.00  0.00     0.008 C 
ATOM      4  C   UNL     1      18.106 124.386  14.946  1.00  0.00     0.039 C 
ATOM      5  C   UNL     1      17.330 125.235  15.945  1.00  0.00    -0.006 C 
ATOM      6  C   UNL     1      17.793 126.451  16.354  1.00  0.00    -0.070 C 
ATOM      7  C   UNL     1      17.004 127.326  17.302  1.00  0.00     0.039 C 
ATOM      8  C   UNL     1      19.107 127.002  15.847  1.00  0.00     0.039 C 
ATOM      9  C   UNL     1      16.107 124.605  16.528  1.00  0.00     0.159 C 
ATOM     10  O   UNL     1      15.734 124.863  17.704  1.00  0.00    -0.295 OA
ATOM     11  C   UNL     1      15.297 123.637  15.714  1.00  0.00     0.084 C 
ENDROOT
TORSDOF 0
ENDMDL
MODEL 4
REMARK VINA RESULT:    -4.531      5.555      7.239
REMARK INTER + INTRA:          -4.531
REMARK INTER:                  -4.531
REMARK INTRA:                   0.000
REMARK UNBOUND:                 0.000
REMARK SMILES CC(C)=C1CC[C@H](C)CC1=O
REMARK SMILES IDX 8 1 7 2 6 3 5 4 4 5 2 6 1 7 3 8 10 9 11 10 9 11
REMARK H PARENT
REMARK Flexibility Score: inf
ROOT
ATOM      1  C   UNL     1       7.789 118.018  20.286  1.00  0.00     0.008 C 
ATOM      2  C   UNL     1       8.770 117.551  19.206  1.00  0.00    -0.006 C 
ATOM      3  C   UNL     1       9.516 118.749  18.597  1.00  0.00     0.008 C 
ATOM      4  C   UNL     1      10.428 118.311  17.445  1.00  0.00     0.039 C 
ATOM      5  C   UNL     1      11.368 117.179  17.841  1.00  0.00    -0.006 C 
ATOM      6  C   UNL     1      12.610 117.062  17.289  1.00  0.00    -0.070 C 
ATOM      7  C   UNL     1      13.572 115.976  17.715  1.00  0.00     0.039 C 
ATOM      8  C   UNL     1      13.102 118.041  16.247  1.00  0.00     0.039 C 
ATOM      9  C   UNL     1      10.803 116.155  18.770  1.00  0.00     0.159 C 
ATOM     10  O   UNL     1      11.166 114.948  18.713  1.00  0.00    -0.295 OA
ATOM     11  C   UNL     1       9.777 116.549  19.792  1.00  0.00     0.084 C 
ENDROOT
TORSDOF 0
ENDMDL
MODEL 5
REMARK VINA RESULT:    -4.498      7.005      8.243
REMARK INTER + INTRA:          -4.498
REMARK INTER:                  -4.498
REMARK INTRA:                   0.000
REMARK UNBOUND:                 0.000
REMARK SMILES CC(C)=C1CC[C@H](C)CC1=O
REMARK SMILES IDX 8 1 7 2 6 3 5 4 4 5 2 6 1 7 3 8 10 9 11 10 9 11
REMARK H PARENT
REMARK Flexibility Score: inf
ROOT
ATOM      1  C   UNL     1      10.645 118.063  16.611  1.00  0.00     0.008 C 
ATOM      2  C   UNL     1       9.964 117.467  17.847  1.00  0.00    -0.006 C 
ATOM      3  C   UNL     1      11.008 117.063  18.900  1.00  0.00     0.008 C 
ATOM      4  C   UNL     1      10.351 116.371  20.101  1.00  0.00     0.039 C 
ATOM      5  C   UNL     1       9.211 117.190  20.694  1.00  0.00    -0.006 C 
ATOM      6  C   UNL     1       8.925 117.145  22.028  1.00  0.00    -0.070 C 
ATOM      7  C   UNL     1       7.832 117.994  22.636  1.00  0.00     0.039 C 
ATOM      8  C   UNL     1       9.716 116.267  22.971  1.00  0.00     0.039 C 
ATOM      9  C   UNL     1       8.366 117.940  19.717  1.00  0.00     0.159 C 
ATOM     10  O   UNL     1       7.138 118.134  19.927  1.00  0.00    -0.295 OA
ATOM     11  C   UNL     1       8.972 118.473  18.451  1.00  0.00     0.084 C 
ENDROOT
TORSDOF 0
ENDMDL
MODEL 6
REMARK VINA RESULT:    -4.492      3.828      5.775
REMARK INTER + INTRA:          -4.492
REMARK INTER:                  -4.492
REMARK INTRA:                   0.000
REMARK UNBOUND:                 0.000
REMARK SMILES CC(C)=C1CC[C@H](C)CC1=O
REMARK SMILES IDX 8 1 7 2 6 3 5 4 4 5 2 6 1 7 3 8 10 9 11 10 9 11
REMARK H PARENT
REMARK Flexibility Score: inf
ROOT
ATOM      1  C   UNL     1       9.320 119.553  18.958  1.00  0.00     0.008 C 
ATOM      2  C   UNL     1      10.255 118.355  19.151  1.00  0.00    -0.006 C 
ATOM      3  C   UNL     1       9.491 117.162  19.747  1.00  0.00     0.008 C 
ATOM      4  C   UNL     1      10.432 115.987  20.041  1.00  0.00     0.039 C 
ATOM      5  C   UNL     1      11.275 115.597  18.834  1.00  0.00    -0.006 C 
ATOM      6  C   UNL     1      11.662 114.305  18.627  1.00  0.00    -0.070 C 
ATOM      7  C   UNL     1      12.451 113.896  17.403  1.00  0.00     0.039 C 
ATOM      8  C   UNL     1      11.286 113.208  19.597  1.00  0.00     0.039 C 
ATOM      9  C   UNL     1      11.741 116.722  17.970  1.00  0.00     0.159 C 
ATOM     10  O   UNL     1      12.846 116.668  17.363  1.00  0.00    -0.295 OA
ATOM     11  C   UNL     1      10.896 117.953  17.814  1.00  0.00     0.084 C 
ENDROOT
TORSDOF 0
ENDMDL
MODEL 7
REMARK VINA RESULT:    -4.485      7.213      8.572
REMARK INTER + INTRA:          -4.485
REMARK INTER:                  -4.485
REMARK INTRA:                   0.000
REMARK UNBOUND:                 0.000
REMARK SMILES CC(C)=C1CC[C@H](C)CC1=O
REMARK SMILES IDX 8 1 7 2 6 3 5 4 4 5 2 6 1 7 3 8 10 9 11 10 9 11
REMARK H PARENT
REMARK Flexibility Score: inf
ROOT
ATOM      1  C   UNL     1      13.564 117.471  17.885  1.00  0.00     0.008 C 
ATOM      2  C   UNL     1      12.149 118.021  18.084  1.00  0.00    -0.006 C 
ATOM      3  C   UNL     1      11.135 117.227  17.246  1.00  0.00     0.008 C 
ATOM      4  C   UNL     1       9.728 117.828  17.355  1.00  0.00     0.039 C 
ATOM      5  C   UNL     1       9.279 118.006  18.799  1.00  0.00    -0.006 C 
ATOM      6  C   UNL     1       7.965 117.897  19.153  1.00  0.00    -0.070 C 
ATOM      7  C   UNL     1       7.515 118.017  20.591  1.00  0.00     0.039 C 
ATOM      8  C   UNL     1       6.896 117.612  18.122  1.00  0.00     0.039 C 
ATOM      9  C   UNL     1      10.338 118.419  19.768  1.00  0.00     0.159 C 
ATOM     10  O   UNL     1      10.070 119.150  20.760  1.00  0.00    -0.295 OA
ATOM     11  C   UNL     1      11.757 117.971  19.569  1.00  0.00     0.084 C 
ENDROOT
TORSDOF 0
ENDMDL
MODEL 8
REMARK VINA RESULT:    -4.369      1.688      2.536
REMARK INTER + INTRA:          -4.369
REMARK INTER:                  -4.369
REMARK INTRA:                   0.000
REMARK UNBOUND:                 0.000
REMARK SMILES CC(C)=C1CC[C@H](C)CC1=O
REMARK SMILES IDX 8 1 7 2 6 3 5 4 4 5 2 6 1 7 3 8 10 9 11 10 9 11
REMARK H PARENT
REMARK Flexibility Score: inf
ROOT
ATOM      1  C   UNL     1      11.246 114.972  18.631  1.00  0.00     0.008 C 
ATOM      2  C   UNL     1      11.592 113.480  18.676  1.00  0.00    -0.006 C 
ATOM      3  C   UNL     1      12.762 113.165  17.731  1.00  0.00     0.008 C 
ATOM      4  C   UNL     1      13.055 111.660  17.686  1.00  0.00     0.039 C 
ATOM      5  C   UNL     1      13.248 111.062  19.074  1.00  0.00    -0.006 C 
ATOM      6  C   UNL     1      14.093 110.010  19.281  1.00  0.00    -0.070 C 
ATOM      7  C   UNL     1      14.335 109.444  20.662  1.00  0.00     0.039 C 
ATOM      8  C   UNL     1      14.859 109.382  18.140  1.00  0.00     0.039 C 
ATOM      9  C   UNL     1      12.378 111.616  20.153  1.00  0.00     0.159 C 
ATOM     10  O   UNL     1      11.984 110.897  21.112  1.00  0.00    -0.295 OA
ATOM     11  C   UNL     1      11.945 113.053  20.109  1.00  0.00     0.084 C 
ENDROOT
TORSDOF 0
ENDMDL
MODEL 9
REMARK VINA RESULT:    -4.330      1.842      3.805
REMARK INTER + INTRA:          -4.330
REMARK INTER:                  -4.330
REMARK INTRA:                   0.000
REMARK UNBOUND:                 0.000
REMARK SMILES CC(C)=C1CC[C@H](C)CC1=O
REMARK SMILES IDX 8 1 7 2 6 3 5 4 4 5 2 6 1 7 3 8 10 9 11 10 9 11
REMARK H PARENT
REMARK Flexibility Score: inf
ROOT
ATOM      1  C   UNL     1      16.981 109.409  15.913  1.00  0.00     0.008 C 
ATOM      2  C   UNL     1      15.704 109.392  16.760  1.00  0.00    -0.006 C 
ATOM      3  C   UNL     1      15.910 108.559  18.035  1.00  0.00     0.008 C 
ATOM      4  C   UNL     1      14.612 108.446  18.844  1.00  0.00     0.039 C 
ATOM      5  C   UNL     1      13.982 109.804  19.129  1.00  0.00    -0.006 C 
ATOM      6  C   UNL     1      13.272 110.031  20.273  1.00  0.00    -0.070 C 
ATOM      7  C   UNL     1      12.691 111.389  20.592  1.00  0.00     0.039 C 
ATOM      8  C   UNL     1      13.066 108.939  21.298  1.00  0.00     0.039 C 
ATOM      9  C   UNL     1      14.090 110.818  18.038  1.00  0.00     0.159 C 
ATOM     10  O   UNL     1      13.188 111.679  17.852  1.00  0.00    -0.295 OA
ATOM     11  C   UNL     1      15.286 110.823  17.130  1.00  0.00     0.084 C 
ENDROOT
TORSDOF 0
ENDMDL
