MODEL 1
REMARK VINA RESULT:    -3.686      0.000      0.000
REMARK INTER + INTRA:          -3.797
REMARK INTER:                  -4.548
REMARK INTRA:                   0.751
REMARK UNBOUND:                 0.751
REMARK SMILES CC1=CC=CC(C)(C)CC1=O
REMARK SMILES IDX 1 1 2 2 3 3 10 4 11 5 9 6 4 8 5 9 6 10 7 11 8 12
REMARK H PARENT
REMARK Flexibility Score: 80.00
ROOT
ATOM      1  C   UNL     1      10.998 -30.145  22.112  1.00  0.00     0.048 C 
ATOM      2  C   UNL     1      12.330 -30.839  22.278  1.00  0.00    -0.008 C 
ATOM      3  C   UNL     1      12.749 -31.637  21.273  1.00  0.00     0.007 C 
ENDROOT
BRANCH   2   4
ATOM      4  C   UNL     1      13.107 -30.524  23.504  1.00  0.00     0.159 C 
ATOM      5  O   UNL     1      12.728 -29.570  24.236  1.00  0.00    -0.295 OA
BRANCH   4   6
ATOM      6  C   UNL     1      14.318 -31.293  23.933  1.00  0.00     0.091 CG0
ATOM      7  G   UNL     1      15.452 -31.279  22.883  1.00  0.00     0.000 G0
ENDBRANCH   4   6
ENDBRANCH   2   4
BRANCH   3   8
ATOM      8  C   UNL     1      14.002 -32.415  21.136  1.00  0.00    -0.003 C 
ATOM      9  C   UNL     1      15.158 -32.277  21.799  1.00  0.00    -0.020 C 
BRANCH   9  10
ATOM     10  C   UNL     1      15.452 -31.280  22.894  1.00  0.00    -0.010 CG0
ATOM     11  C   UNL     1      16.748 -31.718  23.614  1.00  0.00     0.016 C 
ATOM     12  C   UNL     1      15.695 -29.881  22.283  1.00  0.00     0.016 C 
ATOM     13  G   UNL     1      14.302 -31.288  23.927  1.00  0.00     0.000 G0
ENDBRANCH   9  10
ENDBRANCH   3   8
TORSDOF 0
ENDMDL
MODEL 2
REMARK VINA RESULT:    -3.622      1.755      2.602
REMARK INTER + INTRA:          -3.718
REMARK INTER:                  -4.476
REMARK INTRA:                   0.758
REMARK UNBOUND:                 0.751
REMARK SMILES CC1=CC=CC(C)(C)CC1=O
REMARK SMILES IDX 1 1 2 2 3 3 10 4 11 5 9 6 4 8 5 9 6 10 7 11 8 12
REMARK H PARENT
REMARK Flexibility Score: 80.00
ROOT
ATOM      1  C   UNL     1      11.182 -31.236  21.581  1.00  0.00     0.048 C 
ATOM      2  C   UNL     1      12.626 -31.134  22.014  1.00  0.00    -0.008 C 
ATOM      3  C   UNL     1      12.885 -30.520  23.188  1.00  0.00     0.007 C 
ENDROOT
BRANCH   2   4
ATOM      4  C   UNL     1      13.638 -31.789  21.147  1.00  0.00     0.159 C 
ATOM      5  O   UNL     1      13.247 -32.574  20.240  1.00  0.00    -0.295 OA
BRANCH   4   6
ATOM      6  C   UNL     1      15.112 -31.557  21.279  1.00  0.00     0.091 CG0
ATOM      7  G   UNL     1      15.672 -31.968  22.659  1.00  0.00     0.000 G0
ENDBRANCH   4   6
ENDBRANCH   2   4
BRANCH   3   8
ATOM      8  C   UNL     1      14.177 -30.294  23.878  1.00  0.00    -0.003 C 
ATOM      9  C   UNL     1      15.354 -30.903  23.686  1.00  0.00    -0.020 C 
BRANCH   9  10
ATOM     10  C   UNL     1      15.654 -31.978  22.669  1.00  0.00    -0.010 CG0
ATOM     11  C   UNL     1      17.188 -32.121  22.551  1.00  0.00     0.016 C 
ATOM     12  C   UNL     1      15.083 -33.333  23.148  1.00  0.00     0.016 C 
ATOM     13  G   UNL     1      15.104 -31.555  21.287  1.00  0.00     0.000 G0
ENDBRANCH   9  10
ENDBRANCH   3   8
TORSDOF 0
ENDMDL
MODEL 3
REMARK VINA RESULT:    -3.609      2.032      3.047
REMARK INTER + INTRA:          -3.701
REMARK INTER:                  -4.447
REMARK INTRA:                   0.746
REMARK UNBOUND:                 0.751
REMARK SMILES CC1=CC=CC(C)(C)CC1=O
REMARK SMILES IDX 1 1 2 2 3 3 10 4 11 5 9 6 4 8 5 9 6 10 7 11 8 12
REMARK H PARENT
REMARK Flexibility Score: 80.00
ROOT
ATOM      1  C   UNL     1      13.671 -29.843  23.943  1.00  0.00     0.048 C 
ATOM      2  C   UNL     1      14.412 -31.107  23.573  1.00  0.00    -0.008 C 
ATOM      3  C   UNL     1      14.104 -32.234  24.250  1.00  0.00     0.007 C 
ENDROOT
BRANCH   2   4
ATOM      4  C   UNL     1      15.365 -31.023  22.438  1.00  0.00     0.159 C 
ATOM      5  O   UNL     1      15.376 -29.979  21.728  1.00  0.00    -0.295 OA
BRANCH   4   6
ATOM      6  C   UNL     1      16.335 -32.110  22.091  1.00  0.00     0.091 CG0
ATOM      7  G   UNL     1      15.650 -33.457  21.769  1.00  0.00     0.000 G0
ENDBRANCH   4   6
ENDBRANCH   2   4
BRANCH   3   8
ATOM      8  C   UNL     1      14.632 -33.610  24.096  1.00  0.00    -0.003 C 
ATOM      9  C   UNL     1      15.281 -34.154  23.059  1.00  0.00    -0.020 C 
BRANCH   9  10
ATOM     10  C   UNL     1      15.661 -33.459  21.773  1.00  0.00    -0.010 CG0
ATOM     11  C   UNL     1      16.700 -34.336  21.037  1.00  0.00     0.016 C 
ATOM     12  C   UNL     1      14.420 -33.321  20.861  1.00  0.00     0.016 C 
ATOM     13  G   UNL     1      16.321 -32.099  22.092  1.00  0.00     0.000 G0
ENDBRANCH   9  10
ENDBRANCH   3   8
TORSDOF 0
ENDMDL
MODEL 4
REMARK VINA RESULT:    -3.552      8.706     10.647
REMARK INTER + INTRA:          -3.632
REMARK INTER:                  -4.367
REMARK INTRA:                   0.735
REMARK UNBOUND:                 0.751
REMARK SMILES CC1=CC=CC(C)(C)CC1=O
REMARK SMILES IDX 1 1 2 2 3 3 10 4 11 5 9 6 4 8 5 9 6 10 7 11 8 12
REMARK H PARENT
REMARK Flexibility Score: 80.00
ROOT
ATOM      1  C   UNL     1      24.402 -23.748  19.327  1.00  0.00     0.048 C 
ATOM      2  C   UNL     1      23.671 -24.745  20.197  1.00  0.00    -0.008 C 
ATOM      3  C   UNL     1      23.252 -24.327  21.411  1.00  0.00     0.007 C 
ENDROOT
BRANCH   2   4
ATOM      4  C   UNL     1      23.404 -26.083  19.612  1.00  0.00     0.159 C 
ATOM      5  O   UNL     1      23.608 -26.261  18.380  1.00  0.00    -0.295 OA
BRANCH   4   6
ATOM      6  C   UNL     1      22.917 -27.252  20.412  1.00  0.00     0.091 CG0
ATOM      7  G   UNL     1      21.553 -26.996  21.094  1.00  0.00     0.000 G0
ENDBRANCH   4   6
ENDBRANCH   2   4
BRANCH   3   8
ATOM      8  C   UNL     1      22.498 -25.054  22.459  1.00  0.00    -0.003 C 
ATOM      9  C   UNL     1      21.767 -26.172  22.351  1.00  0.00    -0.020 C 
BRANCH   9  10
ATOM     10  C   UNL     1      21.558 -26.991  21.100  1.00  0.00    -0.010 CG0
ATOM     11  C   UNL     1      20.984 -28.366  21.511  1.00  0.00     0.016 C 
ATOM     12  C   UNL     1      20.526 -26.298  20.181  1.00  0.00     0.016 C 
ATOM     13  G   UNL     1      22.916 -27.227  20.400  1.00  0.00     0.000 G0
ENDBRANCH   9  10
ENDBRANCH   3   8
TORSDOF 0
ENDMDL
MODEL 5
REMARK VINA RESULT:    -3.489      1.828      2.149
REMARK INTER + INTRA:          -3.553
REMARK INTER:                  -4.311
REMARK INTRA:                   0.758
REMARK UNBOUND:                 0.751
REMARK SMILES CC1=CC=CC(C)(C)CC1=O
REMARK SMILES IDX 1 1 2 2 3 3 10 4 11 5 9 6 4 8 5 9 6 10 7 11 8 12
REMARK H PARENT
REMARK Flexibility Score: 80.00
ROOT
ATOM      1  C   UNL     1      12.400 -30.695  22.357  1.00  0.00     0.048 C 
ATOM      2  C   UNL     1      13.385 -31.817  22.124  1.00  0.00    -0.008 C 
ATOM      3  C   UNL     1      13.468 -32.327  20.876  1.00  0.00     0.007 C 
ENDROOT
BRANCH   2   4
ATOM      4  C   UNL     1      14.237 -32.216  23.272  1.00  0.00     0.159 C 
ATOM      5  O   UNL     1      14.253 -31.486  24.301  1.00  0.00    -0.295 OA
BRANCH   4   6
ATOM      6  C   UNL     1      15.077 -33.456  23.285  1.00  0.00     0.091 CG0
ATOM      7  G   UNL     1      16.128 -33.492  22.153  1.00  0.00     0.000 G0
ENDBRANCH   4   6
ENDBRANCH   2   4
BRANCH   3   8
ATOM      8  C   UNL     1      14.345 -33.396  20.343  1.00  0.00    -0.003 C 
ATOM      9  C   UNL     1      15.479 -33.891  20.855  1.00  0.00    -0.020 C 
BRANCH   9  10
ATOM     10  C   UNL     1      16.134 -33.480  22.152  1.00  0.00    -0.010 CG0
ATOM     11  C   UNL     1      17.200 -34.539  22.515  1.00  0.00     0.016 C 
ATOM     12  C   UNL     1      16.851 -32.122  21.974  1.00  0.00     0.016 C 
ATOM     13  G   UNL     1      15.080 -33.453  23.282  1.00  0.00     0.000 G0
ENDBRANCH   9  10
ENDBRANCH   3   8
TORSDOF 0
ENDMDL
MODEL 6
REMARK VINA RESULT:    -3.395      4.772      6.172
REMARK INTER + INTRA:          -3.438
REMARK INTER:                  -4.182
REMARK INTRA:                   0.744
REMARK UNBOUND:                 0.751
REMARK SMILES CC1=CC=CC(C)(C)CC1=O
REMARK SMILES IDX 1 1 2 2 3 3 10 4 11 5 9 6 4 8 5 9 6 10 7 11 8 12
REMARK H PARENT
REMARK Flexibility Score: 80.00
ROOT
ATOM      1  C   UNL     1      16.541 -31.936  21.370  1.00  0.00     0.048 C 
ATOM      2  C   UNL     1      17.113 -33.164  20.699  1.00  0.00    -0.008 C 
ATOM      3  C   UNL     1      18.443 -33.190  20.473  1.00  0.00     0.007 C 
ENDROOT
BRANCH   2   4
ATOM      4  C   UNL     1      16.172 -34.276  20.413  1.00  0.00     0.159 C 
ATOM      5  O   UNL     1      15.014 -34.237  20.911  1.00  0.00    -0.295 OA
BRANCH   4   6
ATOM      6  C   UNL     1      16.518 -35.448  19.547  1.00  0.00     0.091 CG0
ATOM      7  G   UNL     1      17.728 -36.255  20.069  1.00  0.00     0.000 G0
ENDBRANCH   4   6
ENDBRANCH   2   4
BRANCH   3   8
ATOM      8  C   UNL     1      19.284 -34.250  19.868  1.00  0.00    -0.003 C 
ATOM      9  C   UNL     1      19.009 -35.549  19.694  1.00  0.00    -0.020 C 
BRANCH   9  10
ATOM     10  C   UNL     1      17.723 -36.252  20.061  1.00  0.00    -0.010 CG0
ATOM     11  C   UNL     1      17.701 -37.625  19.352  1.00  0.00     0.016 C 
ATOM     12  C   UNL     1      17.676 -36.502  21.586  1.00  0.00     0.016 C 
ATOM     13  G   UNL     1      16.517 -35.430  19.554  1.00  0.00     0.000 G0
ENDBRANCH   9  10
ENDBRANCH   3   8
TORSDOF 0
ENDMDL
MODEL 7
REMARK VINA RESULT:    -3.303      2.063      3.372
REMARK INTER + INTRA:          -3.325
REMARK INTER:                  -4.074
REMARK INTRA:                   0.749
REMARK UNBOUND:                 0.751
REMARK SMILES CC1=CC=CC(C)(C)CC1=O
REMARK SMILES IDX 1 1 2 2 3 3 10 4 11 5 9 6 4 8 5 9 6 10 7 11 8 12
REMARK H PARENT
REMARK Flexibility Score: 80.00
ROOT
ATOM      1  C   UNL     1      14.967 -29.663  23.502  1.00  0.00     0.048 C 
ATOM      2  C   UNL     1      15.282 -30.805  22.564  1.00  0.00    -0.008 C 
ATOM      3  C   UNL     1      16.565 -30.955  22.170  1.00  0.00     0.007 C 
ENDROOT
BRANCH   2   4
ATOM      4  C   UNL     1      14.165 -31.718  22.212  1.00  0.00     0.159 C 
ATOM      5  O   UNL     1      13.078 -31.622  22.846  1.00  0.00    -0.295 OA
BRANCH   4   6
ATOM      6  C   UNL     1      14.250 -32.747  21.127  1.00  0.00     0.091 CG0
ATOM      7  G   UNL     1      15.375 -33.781  21.356  1.00  0.00     0.000 G0
ENDBRANCH   4   6
ENDBRANCH   2   4
BRANCH   3   8
ATOM      8  C   UNL     1      17.176 -31.980  21.291  1.00  0.00    -0.003 C 
ATOM      9  C   UNL     1      16.699 -33.180  20.935  1.00  0.00    -0.020 C 
BRANCH   9  10
ATOM     10  C   UNL     1      15.371 -33.774  21.340  1.00  0.00    -0.010 CG0
ATOM     11  C   UNL     1      15.078 -34.979  20.417  1.00  0.00     0.016 C 
ATOM     12  C   UNL     1      15.446 -34.294  22.794  1.00  0.00     0.016 C 
ATOM     13  G   UNL     1      14.250 -32.730  21.137  1.00  0.00     0.000 G0
ENDBRANCH   9  10
ENDBRANCH   3   8
TORSDOF 0
ENDMDL
MODEL 8
REMARK VINA RESULT:    -3.299      2.351      4.066
REMARK INTER + INTRA:          -3.319
REMARK INTER:                  -4.074
REMARK INTRA:                   0.754
REMARK UNBOUND:                 0.751
REMARK SMILES CC1=CC=CC(C)(C)CC1=O
REMARK SMILES IDX 1 1 2 2 3 3 10 4 11 5 9 6 4 8 5 9 6 10 7 11 8 12
REMARK H PARENT
REMARK Flexibility Score: 80.00
ROOT
ATOM      1  C   UNL     1      17.822 -33.675  20.674  1.00  0.00     0.048 C 
ATOM      2  C   UNL     1      16.789 -32.798  21.343  1.00  0.00    -0.008 C 
ATOM      3  C   UNL     1      16.949 -31.460  21.249  1.00  0.00     0.007 C 
ENDROOT
BRANCH   2   4
ATOM      4  C   UNL     1      15.639 -33.480  21.987  1.00  0.00     0.159 C 
ATOM      5  O   UNL     1      15.466 -34.712  21.776  1.00  0.00    -0.295 OA
BRANCH   4   6
ATOM      6  C   UNL     1      14.669 -32.787  22.893  1.00  0.00     0.091 CG0
ATOM      7  G   UNL     1      13.935 -31.609  22.213  1.00  0.00     0.000 G0
ENDBRANCH   4   6
ENDBRANCH   2   4
BRANCH   3   8
ATOM      8  C   UNL     1      16.100 -30.362  21.769  1.00  0.00    -0.003 C 
ATOM      9  C   UNL     1      14.822 -30.400  22.169  1.00  0.00    -0.020 C 
BRANCH   9  10
ATOM     10  C   UNL     1      13.929 -31.617  22.208  1.00  0.00    -0.010 CG0
ATOM     11  C   UNL     1      12.685 -31.279  23.060  1.00  0.00     0.016 C 
ATOM     12  C   UNL     1      13.450 -31.967  20.780  1.00  0.00     0.016 C 
ATOM     13  G   UNL     1      14.674 -32.788  22.890  1.00  0.00     0.000 G0
ENDBRANCH   9  10
ENDBRANCH   3   8
TORSDOF 0
ENDMDL
MODEL 9
REMARK VINA RESULT:    -3.251      4.159      5.871
REMARK INTER + INTRA:          -3.260
REMARK INTER:                  -4.018
REMARK INTRA:                   0.759
REMARK UNBOUND:                 0.751
REMARK SMILES CC1=CC=CC(C)(C)CC1=O
REMARK SMILES IDX 1 1 2 2 3 3 10 4 11 5 9 6 4 8 5 9 6 10 7 11 8 12
REMARK H PARENT
REMARK Flexibility Score: 80.00
ROOT
ATOM      1  C   UNL     1      18.739 -37.148  22.249  1.00  0.00     0.048 C 
ATOM      2  C   UNL     1      17.590 -36.174  22.369  1.00  0.00    -0.008 C 
ATOM      3  C   UNL     1      17.359 -35.626  23.581  1.00  0.00     0.007 C 
ENDROOT
BRANCH   2   4
ATOM      4  C   UNL     1      16.854 -35.842  21.123  1.00  0.00     0.159 C 
ATOM      5  O   UNL     1      17.327 -36.222  20.017  1.00  0.00    -0.295 OA
BRANCH   4   6
ATOM      6  C   UNL     1      15.562 -35.084  21.105  1.00  0.00     0.091 CG0
ATOM      7  G   UNL     1      15.674 -33.674  21.727  1.00  0.00     0.000 G0
ENDBRANCH   4   6
ENDBRANCH   2   4
BRANCH   3   8
ATOM      8  C   UNL     1      16.339 -34.635  23.997  1.00  0.00    -0.003 C 
ATOM      9  C   UNL     1      15.620 -33.795  23.241  1.00  0.00    -0.020 C 
BRANCH   9  10
ATOM     10  C   UNL     1      15.665 -33.679  21.736  1.00  0.00    -0.010 CG0
ATOM     11  C   UNL     1      14.439 -32.858  21.276  1.00  0.00     0.016 C 
ATOM     12  C   UNL     1      16.939 -32.918  21.303  1.00  0.00     0.016 C 
ATOM     13  G   UNL     1      15.567 -35.086  21.103  1.00  0.00     0.000 G0
ENDBRANCH   9  10
ENDBRANCH   3   8
TORSDOF 0
ENDMDL
