MODEL 1
REMARK VINA RESULT:    -3.101      0.000      0.000
REMARK INTER + INTRA:          -3.472
REMARK INTER:                  -3.463
REMARK INTRA:                  -0.009
REMARK UNBOUND:                -0.009
REMARK SMILES CCCC(=O)[O-]
REMARK SMILES IDX 3 1 4 2 5 3 6 4 2 5 1 6
REMARK H PARENT
REMARK Flexibility Score: inf
ROOT
ATOM      1  C   UNL     1      25.013   3.827  13.468  1.00  0.00     0.052 C 
ENDROOT
BRANCH   1   2
ATOM      2  C   UNL     1      25.877   2.663  13.088  1.00  0.00     0.041 C 
ATOM      3  O   UNL     1      26.501   2.022  13.973  1.00  0.00    -0.550 OA
ATOM      4  O   UNL     1      26.020   2.309  11.753  1.00  0.00    -0.550 OA
ENDBRANCH   1   2
BRANCH   1   5
ATOM      5  C   UNL     1      24.260   3.574  14.780  1.00  0.00     0.003 C 
ATOM      6  C   UNL     1      23.410   4.772  15.203  1.00  0.00     0.004 C 
ENDBRANCH   1   5
TORSDOF 2
ENDMDL
MODEL 2
REMARK VINA RESULT:    -3.068      1.611      2.203
REMARK INTER + INTRA:          -3.435
REMARK INTER:                  -3.388
REMARK INTRA:                  -0.047
REMARK UNBOUND:                -0.009
REMARK SMILES CCCC(=O)[O-]
REMARK SMILES IDX 3 1 4 2 5 3 6 4 2 5 1 6
REMARK H PARENT
REMARK Flexibility Score: inf
ROOT
ATOM      1  C   UNL     1      24.006   3.909  14.844  1.00  0.00     0.052 C 
ENDROOT
BRANCH   1   2
ATOM      2  C   UNL     1      25.100   3.968  13.822  1.00  0.00     0.041 C 
ATOM      3  O   UNL     1      25.133   3.134  12.880  1.00  0.00    -0.550 OA
ATOM      4  O   UNL     1      26.105   4.922  13.931  1.00  0.00    -0.550 OA
ENDBRANCH   1   2
BRANCH   1   5
ATOM      5  C   UNL     1      23.352   5.280  15.057  1.00  0.00     0.003 C 
ATOM      6  C   UNL     1      22.796   5.867  13.760  1.00  0.00     0.004 C 
ENDBRANCH   1   5
TORSDOF 2
ENDMDL
MODEL 3
REMARK VINA RESULT:    -2.875      6.077      6.853
REMARK INTER + INTRA:          -3.220
REMARK INTER:                  -3.215
REMARK INTRA:                  -0.006
REMARK UNBOUND:                -0.009
REMARK SMILES CCCC(=O)[O-]
REMARK SMILES IDX 3 1 4 2 5 3 6 4 2 5 1 6
REMARK H PARENT
REMARK Flexibility Score: inf
ROOT
ATOM      1  C   UNL     1      26.011   3.884   6.815  1.00  0.00     0.052 C 
ENDROOT
BRANCH   1   2
ATOM      2  C   UNL     1      26.187   2.742   7.768  1.00  0.00     0.041 C 
ATOM      3  O   UNL     1      26.890   2.884   8.803  1.00  0.00    -0.550 OA
ATOM      4  O   UNL     1      25.605   1.510   7.496  1.00  0.00    -0.550 OA
ENDBRANCH   1   2
BRANCH   1   5
ATOM      5  C   UNL     1      24.530   4.223   6.601  1.00  0.00     0.003 C 
ATOM      6  C   UNL     1      24.331   5.327   5.562  1.00  0.00     0.004 C 
ENDBRANCH   1   5
TORSDOF 2
ENDMDL
MODEL 4
REMARK VINA RESULT:    -2.859      3.978      4.805
REMARK INTER + INTRA:          -3.202
REMARK INTER:                  -3.191
REMARK INTRA:                  -0.011
REMARK UNBOUND:                -0.009
REMARK SMILES CCCC(=O)[O-]
REMARK SMILES IDX 3 1 4 2 5 3 6 4 2 5 1 6
REMARK H PARENT
REMARK Flexibility Score: inf
ROOT
ATOM      1  C   UNL     1      23.077   5.728  14.227  1.00  0.00     0.052 C 
ENDROOT
BRANCH   1   2
ATOM      2  C   UNL     1      23.317   7.105  14.766  1.00  0.00     0.041 C 
ATOM      3  O   UNL     1      23.612   8.047  13.985  1.00  0.00    -0.550 OA
ATOM      4  O   UNL     1      23.250   7.341  16.133  1.00  0.00    -0.550 OA
ENDBRANCH   1   2
BRANCH   1   5
ATOM      5  C   UNL     1      23.501   4.644  15.226  1.00  0.00     0.003 C 
ATOM      6  C   UNL     1      24.360   3.559  14.576  1.00  0.00     0.004 C 
ENDBRANCH   1   5
TORSDOF 2
ENDMDL
MODEL 5
REMARK VINA RESULT:    -2.856      7.897      8.671
REMARK INTER + INTRA:          -3.199
REMARK INTER:                  -3.181
REMARK INTRA:                  -0.018
REMARK UNBOUND:                -0.009
REMARK SMILES CCCC(=O)[O-]
REMARK SMILES IDX 3 1 4 2 5 3 6 4 2 5 1 6
REMARK H PARENT
REMARK Flexibility Score: inf
ROOT
ATOM      1  C   UNL     1      23.263   5.830   6.638  1.00  0.00     0.052 C 
ENDROOT
BRANCH   1   2
ATOM      2  C   UNL     1      21.916   5.372   6.169  1.00  0.00     0.041 C 
ATOM      3  O   UNL     1      21.204   4.639   6.905  1.00  0.00    -0.550 OA
ATOM      4  O   UNL     1      21.460   5.726   4.905  1.00  0.00    -0.550 OA
ENDBRANCH   1   2
BRANCH   1   5
ATOM      5  C   UNL     1      24.393   5.251   5.778  1.00  0.00     0.003 C 
ATOM      6  C   UNL     1      25.287   4.291   6.562  1.00  0.00     0.004 C 
ENDBRANCH   1   5
TORSDOF 2
ENDMDL
MODEL 6
REMARK VINA RESULT:    -2.828      6.976      7.473
REMARK INTER + INTRA:          -3.167
REMARK INTER:                  -3.156
REMARK INTRA:                  -0.011
REMARK UNBOUND:                -0.009
REMARK SMILES CCCC(=O)[O-]
REMARK SMILES IDX 3 1 4 2 5 3 6 4 2 5 1 6
REMARK H PARENT
REMARK Flexibility Score: inf
ROOT
ATOM      1  C   UNL     1      23.329   5.814   6.415  1.00  0.00     0.052 C 
ENDROOT
BRANCH   1   2
ATOM      2  C   UNL     1      23.966   4.459   6.363  1.00  0.00     0.041 C 
ATOM      3  O   UNL     1      23.318   3.471   5.930  1.00  0.00    -0.550 OA
ATOM      4  O   UNL     1      25.264   4.281   6.826  1.00  0.00    -0.550 OA
ENDBRANCH   1   2
BRANCH   1   5
ATOM      5  C   UNL     1      21.995   5.788   7.172  1.00  0.00     0.003 C 
ATOM      6  C   UNL     1      21.980   6.756   8.356  1.00  0.00     0.004 C 
ENDBRANCH   1   5
TORSDOF 2
ENDMDL
MODEL 7
REMARK VINA RESULT:    -2.776      1.710      2.160
REMARK INTER + INTRA:          -3.109
REMARK INTER:                  -3.074
REMARK INTRA:                  -0.035
REMARK UNBOUND:                -0.009
REMARK SMILES CCCC(=O)[O-]
REMARK SMILES IDX 3 1 4 2 5 3 6 4 2 5 1 6
REMARK H PARENT
REMARK Flexibility Score: inf
ROOT
ATOM      1  C   UNL     1      26.259   2.433  13.416  1.00  0.00     0.052 C 
ENDROOT
BRANCH   1   2
ATOM      2  C   UNL     1      27.570   3.045  13.026  1.00  0.00     0.041 C 
ATOM      3  O   UNL     1      28.475   2.333  12.518  1.00  0.00    -0.550 OA
ATOM      4  O   UNL     1      27.806   4.394  13.257  1.00  0.00    -0.550 OA
ENDBRANCH   1   2
BRANCH   1   5
ATOM      5  C   UNL     1      25.099   3.424  13.259  1.00  0.00     0.003 C 
ATOM      6  C   UNL     1      24.354   3.660  14.572  1.00  0.00     0.004 C 
ENDBRANCH   1   5
TORSDOF 2
ENDMDL
MODEL 8
REMARK VINA RESULT:    -2.763      2.462      3.202
REMARK INTER + INTRA:          -3.095
REMARK INTER:                  -3.030
REMARK INTRA:                  -0.065
REMARK UNBOUND:                -0.009
REMARK SMILES CCCC(=O)[O-]
REMARK SMILES IDX 3 1 4 2 5 3 6 4 2 5 1 6
REMARK H PARENT
REMARK Flexibility Score: inf
ROOT
ATOM      1  C   UNL     1      23.174   5.668  13.946  1.00  0.00     0.052 C 
ENDROOT
BRANCH   1   2
ATOM      2  C   UNL     1      24.272   4.735  14.353  1.00  0.00     0.041 C 
ATOM      3  O   UNL     1      25.469   5.005  14.073  1.00  0.00    -0.550 OA
ATOM      4  O   UNL     1      23.971   3.548  15.011  1.00  0.00    -0.550 OA
ENDBRANCH   1   2
BRANCH   1   5
ATOM      5  C   UNL     1      23.431   7.099  14.436  1.00  0.00     0.003 C 
ATOM      6  C   UNL     1      23.394   7.207  15.960  1.00  0.00     0.004 C 
ENDBRANCH   1   5
TORSDOF 2
ENDMDL
MODEL 9
REMARK VINA RESULT:    -2.709     10.797     11.308
REMARK INTER + INTRA:          -3.034
REMARK INTER:                  -2.997
REMARK INTRA:                  -0.037
REMARK UNBOUND:                -0.009
REMARK SMILES CCCC(=O)[O-]
REMARK SMILES IDX 3 1 4 2 5 3 6 4 2 5 1 6
REMARK H PARENT
REMARK Flexibility Score: inf
ROOT
ATOM      1  C   UNL     1      18.286   9.906   9.642  1.00  0.00     0.052 C 
ENDROOT
BRANCH   1   2
ATOM      2  C   UNL     1      16.835   9.545   9.551  1.00  0.00     0.041 C 
ATOM      3  O   UNL     1      16.459   8.625   8.779  1.00  0.00    -0.550 OA
ATOM      4  O   UNL     1      15.894  10.250  10.291  1.00  0.00    -0.550 OA
ENDBRANCH   1   2
BRANCH   1   5
ATOM      5  C   UNL     1      18.607  10.653  10.943  1.00  0.00     0.003 C 
ATOM      6  C   UNL     1      19.068  12.088  10.691  1.00  0.00     0.004 C 
ENDBRANCH   1   5
TORSDOF 2
ENDMDL
