MODEL 1
REMARK VINA RESULT:    -6.123      0.000      0.000
REMARK INTER + INTRA:          -6.874
REMARK INTER:                  -6.660
REMARK INTRA:                  -0.214
REMARK UNBOUND:                -0.214
REMARK SMILES O=C([O-])c1ccccc1O
REMARK SMILES IDX 4 1 9 2 5 3 8 4 6 5 7 6 2 7 1 8 3 9 10 10
REMARK H PARENT 10 11
REMARK Flexibility Score: inf
ROOT
ATOM      1  C   UNL     1      10.822   9.471  28.906  1.00  0.00     0.039 A 
ATOM      2  C   UNL     1      10.409   8.363  28.121  1.00  0.00     0.124 A 
ATOM      3  C   UNL     1      12.191   9.631  29.189  1.00  0.00     0.014 A 
ATOM      4  C   UNL     1      11.369   7.490  27.594  1.00  0.00     0.047 A 
ATOM      5  C   UNL     1      13.134   8.739  28.672  1.00  0.00     0.001 A 
ATOM      6  C   UNL     1      12.725   7.676  27.869  1.00  0.00     0.004 A 
ENDROOT
BRANCH   1   7
ATOM      7  C   UNL     1       9.877  10.490  29.415  1.00  0.00     0.075 C 
ATOM      8  O   UNL     1       8.656  10.449  29.113  1.00  0.00    -0.545 OA
ATOM      9  O   UNL     1      10.346  11.551  30.181  1.00  0.00    -0.545 OA
ENDBRANCH   1   7
BRANCH   2  10
ATOM     10  O   UNL     1       9.065   8.074  27.872  1.00  0.00    -0.507 OA
ATOM     11  H   UNL     1       8.695   7.136  27.815  1.00  0.00     0.293 HD
ENDBRANCH   2  10
TORSDOF 2
ENDMDL
MODEL 2
REMARK VINA RESULT:    -6.066      1.212      2.408
REMARK INTER + INTRA:          -6.812
REMARK INTER:                  -6.587
REMARK INTRA:                  -0.225
REMARK UNBOUND:                -0.214
REMARK SMILES O=C([O-])c1ccccc1O
REMARK SMILES IDX 4 1 9 2 5 3 8 4 6 5 7 6 2 7 1 8 3 9 10 10
REMARK H PARENT 10 11
REMARK Flexibility Score: inf
ROOT
ATOM      1  C   UNL     1      10.611   9.650  28.913  1.00  0.00     0.039 A 
ATOM      2  C   UNL     1      11.929   9.210  29.204  1.00  0.00     0.124 A 
ATOM      3  C   UNL     1       9.877   8.984  27.915  1.00  0.00     0.014 A 
ATOM      4  C   UNL     1      12.448   8.091  28.542  1.00  0.00     0.047 A 
ATOM      5  C   UNL     1      10.417   7.881  27.249  1.00  0.00     0.001 A 
ATOM      6  C   UNL     1      11.697   7.430  27.569  1.00  0.00     0.004 A 
ENDROOT
BRANCH   1   7
ATOM      7  C   UNL     1       9.959  10.763  29.639  1.00  0.00     0.075 C 
ATOM      8  O   UNL     1      10.642  11.624  30.254  1.00  0.00    -0.545 OA
ATOM      9  O   UNL     1       8.572  10.829  29.709  1.00  0.00    -0.545 OA
ENDBRANCH   1   7
BRANCH   2  10
ATOM     10  O   UNL     1      12.762   9.871  30.110  1.00  0.00    -0.507 OA
ATOM     11  H   UNL     1      13.523  10.476  29.832  1.00  0.00     0.293 HD
ENDBRANCH   2  10
TORSDOF 2
ENDMDL
MODEL 3
REMARK VINA RESULT:    -5.780      1.191      1.901
REMARK INTER + INTRA:          -6.500
REMARK INTER:                  -6.251
REMARK INTRA:                  -0.249
REMARK UNBOUND:                -0.214
REMARK SMILES O=C([O-])c1ccccc1O
REMARK SMILES IDX 4 1 9 2 5 3 8 4 6 5 7 6 2 7 1 8 3 9 10 10
REMARK H PARENT 10 11
REMARK Flexibility Score: inf
ROOT
ATOM      1  C   UNL     1      11.533   9.581  29.561  1.00  0.00     0.039 A 
ATOM      2  C   UNL     1      10.279   9.257  28.980  1.00  0.00     0.124 A 
ATOM      3  C   UNL     1      12.674   8.860  29.162  1.00  0.00     0.014 A 
ATOM      4  C   UNL     1      10.209   8.275  27.984  1.00  0.00     0.047 A 
ATOM      5  C   UNL     1      12.583   7.869  28.181  1.00  0.00     0.001 A 
ATOM      6  C   UNL     1      11.355   7.584  27.586  1.00  0.00     0.004 A 
ENDROOT
BRANCH   1   7
ATOM      7  C   UNL     1      11.702  10.671  30.547  1.00  0.00     0.075 C 
ATOM      8  O   UNL     1      11.029  11.731  30.463  1.00  0.00    -0.545 OA
ATOM      9  O   UNL     1      12.665  10.563  31.544  1.00  0.00    -0.545 OA
ENDBRANCH   1   7
BRANCH   2  10
ATOM     10  O   UNL     1       9.083   9.854  29.386  1.00  0.00    -0.507 OA
ATOM     11  H   UNL     1       8.956  10.854  29.463  1.00  0.00     0.293 HD
ENDBRANCH   2  10
TORSDOF 2
ENDMDL
MODEL 4
REMARK VINA RESULT:    -5.627      1.825      3.390
REMARK INTER + INTRA:          -6.334
REMARK INTER:                  -6.085
REMARK INTRA:                  -0.249
REMARK UNBOUND:                -0.214
REMARK SMILES O=C([O-])c1ccccc1O
REMARK SMILES IDX 4 1 9 2 5 3 8 4 6 5 7 6 2 7 1 8 3 9 10 10
REMARK H PARENT 10 11
REMARK Flexibility Score: inf
ROOT
ATOM      1  C   UNL     1      11.282   8.952  28.798  1.00  0.00     0.039 A 
ATOM      2  C   UNL     1       9.872   9.033  28.654  1.00  0.00     0.124 A 
ATOM      3  C   UNL     1      11.968  10.026  29.394  1.00  0.00     0.014 A 
ATOM      4  C   UNL     1       9.187  10.145  29.161  1.00  0.00     0.047 A 
ATOM      5  C   UNL     1      11.271  11.137  29.876  1.00  0.00     0.001 A 
ATOM      6  C   UNL     1       9.882  11.192  29.767  1.00  0.00     0.004 A 
ENDROOT
BRANCH   1   7
ATOM      7  C   UNL     1      12.063   7.768  28.378  1.00  0.00     0.075 C 
ATOM      8  O   UNL     1      11.856   7.216  27.265  1.00  0.00    -0.545 OA
ATOM      9  O   UNL     1      12.994   7.205  29.244  1.00  0.00    -0.545 OA
ENDBRANCH   1   7
BRANCH   2  10
ATOM     10  O   UNL     1       9.124   8.058  27.990  1.00  0.00    -0.507 OA
ATOM     11  H   UNL     1       8.432   7.479  28.444  1.00  0.00     0.293 HD
ENDBRANCH   2  10
TORSDOF 2
ENDMDL
MODEL 5
REMARK VINA RESULT:    -5.613      2.631      4.228
REMARK INTER + INTRA:          -6.319
REMARK INTER:                  -6.089
REMARK INTRA:                  -0.230
REMARK UNBOUND:                -0.214
REMARK SMILES O=C([O-])c1ccccc1O
REMARK SMILES IDX 4 1 9 2 5 3 8 4 6 5 7 6 2 7 1 8 3 9 10 10
REMARK H PARENT 10 11
REMARK Flexibility Score: inf
ROOT
ATOM      1  C   UNL     1      12.096   7.925  28.325  1.00  0.00     0.039 A 
ATOM      2  C   UNL     1      11.866   9.013  29.208  1.00  0.00     0.124 A 
ATOM      3  C   UNL     1      11.098   7.581  27.395  1.00  0.00     0.014 A 
ATOM      4  C   UNL     1      10.685   9.758  29.096  1.00  0.00     0.047 A 
ATOM      5  C   UNL     1       9.917   8.322  27.310  1.00  0.00     0.001 A 
ATOM      6  C   UNL     1       9.715   9.414  28.153  1.00  0.00     0.004 A 
ENDROOT
BRANCH   1   7
ATOM      7  C   UNL     1      13.358   7.153  28.317  1.00  0.00     0.075 C 
ATOM      8  O   UNL     1      13.768   6.569  29.354  1.00  0.00    -0.545 OA
ATOM      9  O   UNL     1      14.148   7.124  27.173  1.00  0.00    -0.545 OA
ENDBRANCH   1   7
BRANCH   2  10
ATOM     10  O   UNL     1      12.759   9.362  30.223  1.00  0.00    -0.507 OA
ATOM     11  H   UNL     1      12.575   9.214  31.206  1.00  0.00     0.293 HD
ENDBRANCH   2  10
TORSDOF 2
ENDMDL
MODEL 6
REMARK VINA RESULT:    -5.599      1.458      3.339
REMARK INTER + INTRA:          -6.304
REMARK INTER:                  -6.099
REMARK INTRA:                  -0.205
REMARK UNBOUND:                -0.214
REMARK SMILES O=C([O-])c1ccccc1O
REMARK SMILES IDX 4 1 9 2 5 3 8 4 6 5 7 6 2 7 1 8 3 9 10 10
REMARK H PARENT 10 11
REMARK Flexibility Score: inf
ROOT
ATOM      1  C   UNL     1      11.275   9.233  28.883  1.00  0.00     0.039 A 
ATOM      2  C   UNL     1      10.511  10.417  29.052  1.00  0.00     0.124 A 
ATOM      3  C   UNL     1      12.423   9.046  29.674  1.00  0.00     0.014 A 
ATOM      4  C   UNL     1      10.875  11.342  30.038  1.00  0.00     0.047 A 
ATOM      5  C   UNL     1      12.784   9.988  30.640  1.00  0.00     0.001 A 
ATOM      6  C   UNL     1      12.006  11.130  30.828  1.00  0.00     0.004 A 
ENDROOT
BRANCH   1   7
ATOM      7  C   UNL     1      10.898   8.165  27.930  1.00  0.00     0.075 C 
ATOM      8  O   UNL     1      11.684   7.214  27.678  1.00  0.00    -0.545 OA
ATOM      9  O   UNL     1       9.690   8.238  27.246  1.00  0.00    -0.545 OA
ENDBRANCH   1   7
BRANCH   2  10
ATOM     10  O   UNL     1       9.414  10.728  28.245  1.00  0.00    -0.507 OA
ATOM     11  H   UNL     1       8.518  11.023  28.608  1.00  0.00     0.293 HD
ENDBRANCH   2  10
TORSDOF 2
ENDMDL
MODEL 7
REMARK VINA RESULT:    -5.585      2.119      3.305
REMARK INTER + INTRA:          -6.289
REMARK INTER:                  -6.067
REMARK INTRA:                  -0.222
REMARK UNBOUND:                -0.214
REMARK SMILES O=C([O-])c1ccccc1O
REMARK SMILES IDX 4 1 9 2 5 3 8 4 6 5 7 6 2 7 1 8 3 9 10 10
REMARK H PARENT 10 11
REMARK Flexibility Score: inf
ROOT
ATOM      1  C   UNL     1      11.838   8.735  29.023  1.00  0.00     0.039 A 
ATOM      2  C   UNL     1      10.684   9.534  29.238  1.00  0.00     0.124 A 
ATOM      3  C   UNL     1      11.825   7.788  27.983  1.00  0.00     0.014 A 
ATOM      4  C   UNL     1       9.585   9.408  28.380  1.00  0.00     0.047 A 
ATOM      5  C   UNL     1      10.712   7.661  27.148  1.00  0.00     0.001 A 
ATOM      6  C   UNL     1       9.597   8.477  27.341  1.00  0.00     0.004 A 
ENDROOT
BRANCH   1   7
ATOM      7  C   UNL     1      13.073   8.878  29.826  1.00  0.00     0.075 C 
ATOM      8  O   UNL     1      13.936   7.963  29.855  1.00  0.00    -0.545 OA
ATOM      9  O   UNL     1      13.260  10.006  30.617  1.00  0.00    -0.545 OA
ENDBRANCH   1   7
BRANCH   2  10
ATOM     10  O   UNL     1      10.575  10.429  30.305  1.00  0.00    -0.507 OA
ATOM     11  H   UNL     1      10.717  11.426  30.214  1.00  0.00     0.293 HD
ENDBRANCH   2  10
TORSDOF 2
ENDMDL
MODEL 8
REMARK VINA RESULT:    -5.540      1.247      2.515
REMARK INTER + INTRA:          -6.240
REMARK INTER:                  -6.010
REMARK INTRA:                  -0.230
REMARK UNBOUND:                -0.214
REMARK SMILES O=C([O-])c1ccccc1O
REMARK SMILES IDX 4 1 9 2 5 3 8 4 6 5 7 6 2 7 1 8 3 9 10 10
REMARK H PARENT 10 11
REMARK Flexibility Score: inf
ROOT
ATOM      1  C   UNL     1      11.279   8.381  28.426  1.00  0.00     0.039 A 
ATOM      2  C   UNL     1      12.110   8.817  29.491  1.00  0.00     0.124 A 
ATOM      3  C   UNL     1      11.735   7.349  27.585  1.00  0.00     0.014 A 
ATOM      4  C   UNL     1      13.334   8.176  29.722  1.00  0.00     0.047 A 
ATOM      5  C   UNL     1      12.968   6.734  27.818  1.00  0.00     0.001 A 
ATOM      6  C   UNL     1      13.761   7.140  28.890  1.00  0.00     0.004 A 
ENDROOT
BRANCH   1   7
ATOM      7  C   UNL     1       9.932   8.942  28.179  1.00  0.00     0.075 C 
ATOM      8  O   UNL     1       9.074   8.301  27.518  1.00  0.00    -0.545 OA
ATOM      9  O   UNL     1       9.622  10.224  28.619  1.00  0.00    -0.545 OA
ENDBRANCH   1   7
BRANCH   2  10
ATOM     10  O   UNL     1      11.778   9.896  30.313  1.00  0.00    -0.507 OA
ATOM     11  H   UNL     1      11.007  10.523  30.129  1.00  0.00     0.293 HD
ENDBRANCH   2  10
TORSDOF 2
ENDMDL
MODEL 9
REMARK VINA RESULT:    -5.375      1.954      3.645
REMARK INTER + INTRA:          -6.060
REMARK INTER:                  -5.839
REMARK INTRA:                  -0.221
REMARK UNBOUND:                -0.214
REMARK SMILES O=C([O-])c1ccccc1O
REMARK SMILES IDX 4 1 9 2 5 3 8 4 6 5 7 6 2 7 1 8 3 9 10 10
REMARK H PARENT 10 11
REMARK Flexibility Score: inf
ROOT
ATOM      1  C   UNL     1      11.144   9.179  28.905  1.00  0.00     0.039 A 
ATOM      2  C   UNL     1      12.287   9.029  29.733  1.00  0.00     0.124 A 
ATOM      3  C   UNL     1      10.347  10.329  29.048  1.00  0.00     0.014 A 
ATOM      4  C   UNL     1      12.634  10.051  30.627  1.00  0.00     0.047 A 
ATOM      5  C   UNL     1      10.695  11.330  29.959  1.00  0.00     0.001 A 
ATOM      6  C   UNL     1      11.842  11.194  30.740  1.00  0.00     0.004 A 
ENDROOT
BRANCH   1   7
ATOM      7  C   UNL     1      10.769   8.190  27.870  1.00  0.00     0.075 C 
ATOM      8  O   UNL     1      11.563   7.273  27.532  1.00  0.00    -0.545 OA
ATOM      9  O   UNL     1       9.553   8.307  27.205  1.00  0.00    -0.545 OA
ENDBRANCH   1   7
BRANCH   2  10
ATOM     10  O   UNL     1      13.078   7.878  29.726  1.00  0.00    -0.507 OA
ATOM     11  H   UNL     1      14.072   7.882  29.907  1.00  0.00     0.293 HD
ENDBRANCH   2  10
TORSDOF 2
ENDMDL
