MODEL 1
REMARK VINA RESULT:    -5.340      0.000      0.000
REMARK INTER + INTRA:          -5.653
REMARK INTER:                  -5.653
REMARK INTRA:                   0.000
REMARK UNBOUND:                 0.000
REMARK SMILES O=c1ccc2cc(O)c(O)cc2o1
REMARK SMILES IDX 4 1 3 2 2 3 1 4 13 5 12 6 11 7 9 8 7 9 6 10 5 11 8 12 10 14
REMARK H PARENT 8 13 10 15
REMARK Flexibility Score: inf
ROOT
ATOM      1  C   UNL     1       9.110  37.052  24.358  1.00  0.00     0.019 A 
ATOM      2  C   UNL     1       8.533  37.837  25.356  1.00  0.00     0.094 A 
ATOM      3  C   UNL     1       7.199  37.612  25.708  1.00  0.00     0.336 A 
ATOM      4  O   UNL     1       6.660  38.309  26.606  1.00  0.00    -0.246 OA
ATOM      5  O   UNL     1       6.492  36.663  25.098  1.00  0.00    -0.423 OA
ATOM      6  C   UNL     1       7.003  35.893  24.141  1.00  0.00     0.142 A 
ATOM      7  C   UNL     1       6.212  34.912  23.535  1.00  0.00     0.098 A 
ATOM      8  C   UNL     1       6.742  34.098  22.527  1.00  0.00     0.161 A 
ATOM      9  C   UNL     1       8.079  34.265  22.119  1.00  0.00     0.158 A 
ATOM     10  C   UNL     1       8.877  35.248  22.725  1.00  0.00     0.062 A 
ATOM     11  C   UNL     1       8.344  36.062  23.734  1.00  0.00     0.022 A 
ENDROOT
BRANCH   9  12
ATOM     12  O   UNL     1       8.608  33.455  21.116  1.00  0.00    -0.504 OA
ATOM     13  H   UNL     1       9.131  33.844  20.340  1.00  0.00     0.293 HD
ENDBRANCH   9  12
BRANCH   8  14
ATOM     14  O   UNL     1       5.927  33.129  21.942  1.00  0.00    -0.504 OA
ATOM     15  H   UNL     1       5.695  33.145  20.957  1.00  0.00     0.293 HD
ENDBRANCH   8  14
TORSDOF 2
ENDMDL
MODEL 2
REMARK VINA RESULT:    -5.249      1.060      2.237
REMARK INTER + INTRA:          -5.556
REMARK INTER:                  -5.556
REMARK INTRA:                   0.000
REMARK UNBOUND:                 0.000
REMARK SMILES O=c1ccc2cc(O)c(O)cc2o1
REMARK SMILES IDX 4 1 3 2 2 3 1 4 13 5 12 6 11 7 9 8 7 9 6 10 5 11 8 12 10 14
REMARK H PARENT 8 13 10 15
REMARK Flexibility Score: inf
ROOT
ATOM      1  C   UNL     1       6.101  36.736  24.911  1.00  0.00     0.019 A 
ATOM      2  C   UNL     1       6.880  37.672  25.591  1.00  0.00     0.094 A 
ATOM      3  C   UNL     1       8.251  37.737  25.320  1.00  0.00     0.336 A 
ATOM      4  O   UNL     1       8.971  38.574  25.924  1.00  0.00    -0.246 OA
ATOM      5  O   UNL     1       8.801  36.918  24.427  1.00  0.00    -0.423 OA
ATOM      6  C   UNL     1       8.094  36.011  23.757  1.00  0.00     0.142 A 
ATOM      7  C   UNL     1       8.727  35.177  22.830  1.00  0.00     0.098 A 
ATOM      8  C   UNL     1       7.990  34.221  22.121  1.00  0.00     0.161 A 
ATOM      9  C   UNL     1       6.606  34.096  22.340  1.00  0.00     0.158 A 
ATOM     10  C   UNL     1       5.966  34.931  23.269  1.00  0.00     0.062 A 
ATOM     11  C   UNL     1       6.706  35.888  23.978  1.00  0.00     0.022 A 
ENDROOT
BRANCH   9  12
ATOM     12  O   UNL     1       5.871  33.144  21.634  1.00  0.00    -0.504 OA
ATOM     13  H   UNL     1       5.634  33.275  20.657  1.00  0.00     0.293 HD
ENDBRANCH   9  12
BRANCH   8  14
ATOM     14  O   UNL     1       8.651  33.403  21.203  1.00  0.00    -0.504 OA
ATOM     15  H   UNL     1       8.974  32.475  21.446  1.00  0.00     0.293 HD
ENDBRANCH   8  14
TORSDOF 2
ENDMDL
MODEL 3
REMARK VINA RESULT:    -5.218      1.307      1.787
REMARK INTER + INTRA:          -5.523
REMARK INTER:                  -5.523
REMARK INTRA:                   0.000
REMARK UNBOUND:                 0.000
REMARK SMILES O=c1ccc2cc(O)c(O)cc2o1
REMARK SMILES IDX 4 1 3 2 2 3 1 4 13 5 12 6 11 7 9 8 7 9 6 10 5 11 8 12 10 14
REMARK H PARENT 8 13 10 15
REMARK Flexibility Score: inf
ROOT
ATOM      1  C   UNL     1       7.853  37.273  25.030  1.00  0.00     0.019 A 
ATOM      2  C   UNL     1       6.651  37.350  25.733  1.00  0.00     0.094 A 
ATOM      3  C   UNL     1       5.632  36.439  25.434  1.00  0.00     0.336 A 
ATOM      4  O   UNL     1       4.540  36.491  26.057  1.00  0.00    -0.246 OA
ATOM      5  O   UNL     1       5.809  35.516  24.492  1.00  0.00    -0.423 OA
ATOM      6  C   UNL     1       6.939  35.408  23.797  1.00  0.00     0.142 A 
ATOM      7  C   UNL     1       7.068  34.419  22.819  1.00  0.00     0.098 A 
ATOM      8  C   UNL     1       8.253  34.300  22.084  1.00  0.00     0.161 A 
ATOM      9  C   UNL     1       9.324  35.180  22.329  1.00  0.00     0.158 A 
ATOM     10  C   UNL     1       9.199  36.175  23.310  1.00  0.00     0.062 A 
ATOM     11  C   UNL     1       8.011  36.293  24.045  1.00  0.00     0.022 A 
ENDROOT
BRANCH   9  12
ATOM     12  O   UNL     1      10.505  35.062  21.598  1.00  0.00    -0.504 OA
ATOM     13  H   UNL     1      10.800  34.175  21.205  1.00  0.00     0.293 HD
ENDBRANCH   9  12
BRANCH   8  14
ATOM     14  O   UNL     1       8.350  33.301  21.114  1.00  0.00    -0.504 OA
ATOM     15  H   UNL     1       8.776  32.403  21.309  1.00  0.00     0.293 HD
ENDBRANCH   8  14
TORSDOF 2
ENDMDL
MODEL 4
REMARK VINA RESULT:    -5.189      1.953      4.779
REMARK INTER + INTRA:          -5.492
REMARK INTER:                  -5.492
REMARK INTRA:                   0.000
REMARK UNBOUND:                 0.000
REMARK SMILES O=c1ccc2cc(O)c(O)cc2o1
REMARK SMILES IDX 4 1 3 2 2 3 1 4 13 5 12 6 11 7 9 8 7 9 6 10 5 11 8 12 10 14
REMARK H PARENT 8 13 10 15
REMARK Flexibility Score: inf
ROOT
ATOM      1  C   UNL     1       7.747  37.851  23.496  1.00  0.00     0.019 A 
ATOM      2  C   UNL     1       8.351  36.777  22.844  1.00  0.00     0.094 A 
ATOM      3  C   UNL     1       7.970  35.476  23.187  1.00  0.00     0.336 A 
ATOM      4  O   UNL     1       8.504  34.493  22.610  1.00  0.00    -0.246 OA
ATOM      5  O   UNL     1       7.046  35.268  24.121  1.00  0.00    -0.423 OA
ATOM      6  C   UNL     1       6.445  36.264  24.768  1.00  0.00     0.142 A 
ATOM      7  C   UNL     1       5.481  35.986  25.740  1.00  0.00     0.098 A 
ATOM      8  C   UNL     1       4.844  37.028  26.425  1.00  0.00     0.161 A 
ATOM      9  C   UNL     1       5.174  38.365  26.134  1.00  0.00     0.158 A 
ATOM     10  C   UNL     1       6.142  38.649  25.158  1.00  0.00     0.062 A 
ATOM     11  C   UNL     1       6.778  37.604  24.474  1.00  0.00     0.022 A 
ENDROOT
BRANCH   9  12
ATOM     12  O   UNL     1       4.541  39.403  26.815  1.00  0.00    -0.504 OA
ATOM     13  H   UNL     1       4.675  40.372  26.547  1.00  0.00     0.293 HD
ENDBRANCH   9  12
BRANCH   8  14
ATOM     14  O   UNL     1       3.886  36.717  27.390  1.00  0.00    -0.504 OA
ATOM     15  H   UNL     1       4.121  36.218  28.239  1.00  0.00     0.293 HD
ENDBRANCH   8  14
TORSDOF 2
ENDMDL
MODEL 5
REMARK VINA RESULT:    -5.140      2.378      4.932
REMARK INTER + INTRA:          -5.440
REMARK INTER:                  -5.440
REMARK INTRA:                   0.000
REMARK UNBOUND:                 0.000
REMARK SMILES O=c1ccc2cc(O)c(O)cc2o1
REMARK SMILES IDX 4 1 3 2 2 3 1 4 13 5 12 6 11 7 9 8 7 9 6 10 5 11 8 12 10 14
REMARK H PARENT 8 13 10 15
REMARK Flexibility Score: inf
ROOT
ATOM      1  C   UNL     1       7.170  35.281  24.153  1.00  0.00     0.019 A 
ATOM      2  C   UNL     1       8.178  35.594  23.241  1.00  0.00     0.094 A 
ATOM      3  C   UNL     1       8.513  36.936  23.037  1.00  0.00     0.336 A 
ATOM      4  O   UNL     1       9.420  37.240  22.219  1.00  0.00    -0.246 OA
ATOM      5  O   UNL     1       7.879  37.898  23.704  1.00  0.00    -0.423 OA
ATOM      6  C   UNL     1       6.912  37.643  24.582  1.00  0.00     0.142 A 
ATOM      7  C   UNL     1       6.281  38.695  25.252  1.00  0.00     0.098 A 
ATOM      8  C   UNL     1       5.262  38.435  26.176  1.00  0.00     0.161 A 
ATOM      9  C   UNL     1       4.870  37.108  26.435  1.00  0.00     0.158 A 
ATOM     10  C   UNL     1       5.501  36.049  25.765  1.00  0.00     0.062 A 
ATOM     11  C   UNL     1       6.521  36.312  24.839  1.00  0.00     0.022 A 
ENDROOT
BRANCH   9  12
ATOM     12  O   UNL     1       3.856  36.848  27.356  1.00  0.00    -0.504 OA
ATOM     13  H   UNL     1       3.560  37.544  28.030  1.00  0.00     0.293 HD
ENDBRANCH   9  12
BRANCH   8  14
ATOM     14  O   UNL     1       4.652  39.506  26.829  1.00  0.00    -0.504 OA
ATOM     15  H   UNL     1       5.115  40.399  26.945  1.00  0.00     0.293 HD
ENDBRANCH   8  14
TORSDOF 2
ENDMDL
MODEL 6
REMARK VINA RESULT:    -5.073      1.490      2.730
REMARK INTER + INTRA:          -5.369
REMARK INTER:                  -5.369
REMARK INTRA:                   0.000
REMARK UNBOUND:                 0.000
REMARK SMILES O=c1ccc2cc(O)c(O)cc2o1
REMARK SMILES IDX 4 1 3 2 2 3 1 4 13 5 12 6 11 7 9 8 7 9 6 10 5 11 8 12 10 14
REMARK H PARENT 8 13 10 15
REMARK Flexibility Score: inf
ROOT
ATOM      1  C   UNL     1       5.359  36.997  26.323  1.00  0.00     0.019 A 
ATOM      2  C   UNL     1       5.642  38.251  26.863  1.00  0.00     0.094 A 
ATOM      3  C   UNL     1       6.728  38.975  26.363  1.00  0.00     0.336 A 
ATOM      4  O   UNL     1       7.000  40.109  26.837  1.00  0.00    -0.246 OA
ATOM      5  O   UNL     1       7.481  38.472  25.387  1.00  0.00    -0.423 OA
ATOM      6  C   UNL     1       7.247  37.280  24.844  1.00  0.00     0.142 A 
ATOM      7  C   UNL     1       8.071  36.803  23.822  1.00  0.00     0.098 A 
ATOM      8  C   UNL     1       7.832  35.550  23.246  1.00  0.00     0.161 A 
ATOM      9  C   UNL     1       6.755  34.764  23.696  1.00  0.00     0.158 A 
ATOM     10  C   UNL     1       5.924  35.238  24.723  1.00  0.00     0.062 A 
ATOM     11  C   UNL     1       6.166  36.494  25.298  1.00  0.00     0.022 A 
ENDROOT
BRANCH   9  12
ATOM     12  O   UNL     1       6.515  33.516  23.123  1.00  0.00    -0.504 OA
ATOM     13  H   UNL     1       6.322  33.415  22.133  1.00  0.00     0.293 HD
ENDBRANCH   9  12
BRANCH   8  14
ATOM     14  O   UNL     1       8.673  35.102  22.227  1.00  0.00    -0.504 OA
ATOM     15  H   UNL     1       8.804  35.625  21.370  1.00  0.00     0.293 HD
ENDBRANCH   8  14
TORSDOF 2
ENDMDL
MODEL 7
REMARK VINA RESULT:    -4.433      1.148      4.522
REMARK INTER + INTRA:          -4.692
REMARK INTER:                  -4.692
REMARK INTRA:                   0.000
REMARK UNBOUND:                 0.000
REMARK SMILES O=c1ccc2cc(O)c(O)cc2o1
REMARK SMILES IDX 4 1 3 2 2 3 1 4 13 5 12 6 11 7 9 8 7 9 6 10 5 11 8 12 10 14
REMARK H PARENT 8 13 10 15
REMARK Flexibility Score: inf
ROOT
ATOM      1  C   UNL     1       8.623  34.836  22.749  1.00  0.00     0.019 A 
ATOM      2  C   UNL     1       7.798  34.026  21.969  1.00  0.00     0.094 A 
ATOM      3  C   UNL     1       6.411  34.136  22.110  1.00  0.00     0.336 A 
ATOM      4  O   UNL     1       5.650  33.413  21.416  1.00  0.00    -0.246 OA
ATOM      5  O   UNL     1       5.888  35.001  22.977  1.00  0.00    -0.423 OA
ATOM      6  C   UNL     1       6.639  35.792  23.739  1.00  0.00     0.142 A 
ATOM      7  C   UNL     1       6.034  36.681  24.632  1.00  0.00     0.098 A 
ATOM      8  C   UNL     1       6.816  37.517  25.438  1.00  0.00     0.161 A 
ATOM      9  C   UNL     1       8.220  37.463  25.352  1.00  0.00     0.158 A 
ATOM     10  C   UNL     1       8.832  36.572  24.457  1.00  0.00     0.062 A 
ATOM     11  C   UNL     1       8.046  35.737  23.650  1.00  0.00     0.022 A 
ENDROOT
BRANCH   9  12
ATOM     12  O   UNL     1       9.000  38.295  26.153  1.00  0.00    -0.504 OA
ATOM     13  H   UNL     1       8.587  38.881  26.870  1.00  0.00     0.293 HD
ENDBRANCH   9  12
BRANCH   8  14
ATOM     14  O   UNL     1       6.182  38.393  26.319  1.00  0.00    -0.504 OA
ATOM     15  H   UNL     1       6.411  38.423  27.305  1.00  0.00     0.293 HD
ENDBRANCH   8  14
TORSDOF 2
ENDMDL
MODEL 8
REMARK VINA RESULT:    -4.366      1.279      5.006
REMARK INTER + INTRA:          -4.622
REMARK INTER:                  -4.622
REMARK INTRA:                   0.000
REMARK UNBOUND:                 0.000
REMARK SMILES O=c1ccc2cc(O)c(O)cc2o1
REMARK SMILES IDX 4 1 3 2 2 3 1 4 13 5 12 6 11 7 9 8 7 9 6 10 5 11 8 12 10 14
REMARK H PARENT 8 13 10 15
REMARK Flexibility Score: inf
ROOT
ATOM      1  C   UNL     1       5.986  34.841  22.888  1.00  0.00     0.019 A 
ATOM      2  C   UNL     1       6.823  33.995  22.161  1.00  0.00     0.094 A 
ATOM      3  C   UNL     1       8.207  34.125  22.305  1.00  0.00     0.336 A 
ATOM      4  O   UNL     1       8.980  33.371  21.658  1.00  0.00    -0.246 OA
ATOM      5  O   UNL     1       8.717  35.044  23.122  1.00  0.00    -0.423 OA
ATOM      6  C   UNL     1       7.955  35.871  23.833  1.00  0.00     0.142 A 
ATOM      7  C   UNL     1       8.546  36.817  24.675  1.00  0.00     0.098 A 
ATOM      8  C   UNL     1       7.751  37.691  25.426  1.00  0.00     0.161 A 
ATOM      9  C   UNL     1       6.349  37.620  25.335  1.00  0.00     0.158 A 
ATOM     10  C   UNL     1       5.750  36.672  24.491  1.00  0.00     0.062 A 
ATOM     11  C   UNL     1       6.548  35.797  23.740  1.00  0.00     0.022 A 
ENDROOT
BRANCH   9  12
ATOM     12  O   UNL     1       5.556  38.489  26.082  1.00  0.00    -0.504 OA
ATOM     13  H   UNL     1       5.482  39.473  25.849  1.00  0.00     0.293 HD
ENDBRANCH   9  12
BRANCH   8  14
ATOM     14  O   UNL     1       8.372  38.624  26.258  1.00  0.00    -0.504 OA
ATOM     15  H   UNL     1       9.212  39.115  25.981  1.00  0.00     0.293 HD
ENDBRANCH   8  14
TORSDOF 2
ENDMDL
MODEL 9
REMARK VINA RESULT:    -4.210      2.430      3.307
REMARK INTER + INTRA:          -4.456
REMARK INTER:                  -4.456
REMARK INTRA:                   0.000
REMARK UNBOUND:                 0.000
REMARK SMILES O=c1ccc2cc(O)c(O)cc2o1
REMARK SMILES IDX 4 1 3 2 2 3 1 4 13 5 12 6 11 7 9 8 7 9 6 10 5 11 8 12 10 14
REMARK H PARENT 8 13 10 15
REMARK Flexibility Score: inf
ROOT
ATOM      1  C   UNL     1       5.095  38.522  24.651  1.00  0.00     0.019 A 
ATOM      2  C   UNL     1       4.381  38.064  25.758  1.00  0.00     0.094 A 
ATOM      3  C   UNL     1       4.825  36.916  26.422  1.00  0.00     0.336 A 
ATOM      4  O   UNL     1       4.195  36.485  27.423  1.00  0.00    -0.246 OA
ATOM      5  O   UNL     1       5.912  36.272  26.001  1.00  0.00    -0.423 OA
ATOM      6  C   UNL     1       6.621  36.675  24.950  1.00  0.00     0.142 A 
ATOM      7  C   UNL     1       7.753  35.958  24.554  1.00  0.00     0.098 A 
ATOM      8  C   UNL     1       8.505  36.375  23.448  1.00  0.00     0.161 A 
ATOM      9  C   UNL     1       8.120  37.523  22.730  1.00  0.00     0.158 A 
ATOM     10  C   UNL     1       6.984  38.246  23.124  1.00  0.00     0.062 A 
ATOM     11  C   UNL     1       6.233  37.826  24.231  1.00  0.00     0.022 A 
ENDROOT
BRANCH   9  12
ATOM     12  O   UNL     1       8.867  37.940  21.630  1.00  0.00    -0.504 OA
ATOM     13  H   UNL     1       8.450  38.477  20.878  1.00  0.00     0.293 HD
ENDBRANCH   9  12
BRANCH   8  14
ATOM     14  O   UNL     1       9.630  35.638  23.079  1.00  0.00    -0.504 OA
ATOM     15  H   UNL     1      10.569  35.945  23.300  1.00  0.00     0.293 HD
ENDBRANCH   8  14
TORSDOF 2
ENDMDL
