MODEL 1
REMARK VINA RESULT:    -3.282      0.000      0.000
REMARK INTER + INTRA:          -3.282
REMARK INTER:                  -3.282
REMARK INTRA:                   0.000
REMARK UNBOUND:                 0.000
REMARK SMILES CC(=O)[O-]
REMARK SMILES IDX 1 1 2 2 3 3 4 4
REMARK H PARENT
REMARK Flexibility Score: inf
ROOT
ATOM      1  C   UNL     1      93.546 122.244 122.503  1.00  0.00     0.063 C 
ATOM      2  C   UNL     1      94.167 122.690 123.784  1.00  0.00     0.038 C 
ATOM      3  O   UNL     1      93.470 122.771 124.829  1.00  0.00    -0.550 OA
ATOM      4  O   UNL     1      95.527 122.966 123.839  1.00  0.00    -0.550 OA
ENDROOT
TORSDOF 0
ENDMDL
MODEL 2
REMARK VINA RESULT:    -3.232      1.455      1.763
REMARK INTER + INTRA:          -3.232
REMARK INTER:                  -3.232
REMARK INTRA:                   0.000
REMARK UNBOUND:                 0.000
REMARK SMILES CC(=O)[O-]
REMARK SMILES IDX 1 1 2 2 3 3 4 4
REMARK H PARENT
REMARK Flexibility Score: inf
ROOT
ATOM      1  C   UNL     1      95.484 123.131 123.373  1.00  0.00     0.063 C 
ATOM      2  C   UNL     1      94.148 122.499 123.569  1.00  0.00     0.038 C 
ATOM      3  O   UNL     1      93.540 122.633 124.663  1.00  0.00    -0.550 OA
ATOM      4  O   UNL     1      93.546 121.804 122.527  1.00  0.00    -0.550 OA
ENDROOT
TORSDOF 0
ENDMDL
MODEL 3
REMARK VINA RESULT:    -3.083      5.517      6.189
REMARK INTER + INTRA:          -3.083
REMARK INTER:                  -3.083
REMARK INTRA:                   0.000
REMARK UNBOUND:                 0.000
REMARK SMILES CC(=O)[O-]
REMARK SMILES IDX 1 1 2 2 3 3 4 4
REMARK H PARENT
REMARK Flexibility Score: inf
ROOT
ATOM      1  C   UNL     1      99.751 119.771 126.565  1.00  0.00     0.063 C 
ATOM      2  C   UNL     1      99.295 121.141 126.191  1.00  0.00     0.038 C 
ATOM      3  O   UNL     1      99.957 122.148 126.556  1.00  0.00    -0.550 OA
ATOM      4  O   UNL     1      98.170 121.308 125.394  1.00  0.00    -0.550 OA
ENDROOT
TORSDOF 0
ENDMDL
MODEL 4
REMARK VINA RESULT:    -3.022      5.705      6.266
REMARK INTER + INTRA:          -3.022
REMARK INTER:                  -3.022
REMARK INTRA:                   0.000
REMARK UNBOUND:                 0.000
REMARK SMILES CC(=O)[O-]
REMARK SMILES IDX 1 1 2 2 3 3 4 4
REMARK H PARENT
REMARK Flexibility Score: inf
ROOT
ATOM      1  C   UNL     1      99.883 119.719 126.717  1.00  0.00     0.063 C 
ATOM      2  C   UNL     1      99.429 121.055 126.234  1.00  0.00     0.038 C 
ATOM      3  O   UNL     1      98.351 121.162 125.593  1.00  0.00    -0.550 OA
ATOM      4  O   UNL     1     100.167 122.192 126.536  1.00  0.00    -0.550 OA
ENDROOT
TORSDOF 0
ENDMDL
MODEL 5
REMARK VINA RESULT:    -2.926     15.072     15.336
REMARK INTER + INTRA:          -2.926
REMARK INTER:                  -2.926
REMARK INTRA:                   0.000
REMARK UNBOUND:                 0.000
REMARK SMILES CC(=O)[O-]
REMARK SMILES IDX 1 1 2 2 3 3 4 4
REMARK H PARENT
REMARK Flexibility Score: inf
ROOT
ATOM      1  C   UNL     1      97.566 135.765 120.247  1.00  0.00     0.063 C 
ATOM      2  C   UNL     1      97.278 137.226 120.174  1.00  0.00     0.038 C 
ATOM      3  O   UNL     1      96.337 137.649 119.452  1.00  0.00    -0.550 OA
ATOM      4  O   UNL     1      98.011 138.120 120.944  1.00  0.00    -0.550 OA
ENDROOT
TORSDOF 0
ENDMDL
MODEL 6
REMARK VINA RESULT:    -2.917      1.966      2.142
REMARK INTER + INTRA:          -2.917
REMARK INTER:                  -2.917
REMARK INTRA:                   0.000
REMARK UNBOUND:                 0.000
REMARK SMILES CC(=O)[O-]
REMARK SMILES IDX 1 1 2 2 3 3 4 4
REMARK H PARENT
REMARK Flexibility Score: inf
ROOT
ATOM      1  C   UNL     1      94.592 122.671 123.351  1.00  0.00     0.063 C 
ATOM      2  C   UNL     1      95.887 123.232 123.834  1.00  0.00     0.038 C 
ATOM      3  O   UNL     1      96.079 124.476 123.822  1.00  0.00    -0.550 OA
ATOM      4  O   UNL     1      96.863 122.388 124.346  1.00  0.00    -0.550 OA
ENDROOT
TORSDOF 0
ENDMDL
MODEL 7
REMARK VINA RESULT:    -2.895     15.215     15.474
REMARK INTER + INTRA:          -2.895
REMARK INTER:                  -2.895
REMARK INTRA:                   0.000
REMARK UNBOUND:                 0.000
REMARK SMILES CC(=O)[O-]
REMARK SMILES IDX 1 1 2 2 3 3 4 4
REMARK H PARENT
REMARK Flexibility Score: inf
ROOT
ATOM      1  C   UNL     1      96.508 138.411 119.273  1.00  0.00     0.063 C 
ATOM      2  C   UNL     1      97.136 137.269 119.996  1.00  0.00     0.038 C 
ATOM      3  O   UNL     1      96.878 136.085 119.652  1.00  0.00    -0.550 OA
ATOM      4  O   UNL     1      98.047 137.507 121.017  1.00  0.00    -0.550 OA
ENDROOT
TORSDOF 0
ENDMDL
MODEL 8
REMARK VINA RESULT:    -2.700     11.162     11.431
REMARK INTER + INTRA:          -2.700
REMARK INTER:                  -2.700
REMARK INTRA:                   0.000
REMARK UNBOUND:                 0.000
REMARK SMILES CC(=O)[O-]
REMARK SMILES IDX 1 1 2 2 3 3 4 4
REMARK H PARENT
REMARK Flexibility Score: inf
ROOT
ATOM      1  C   UNL     1      89.506 131.720 124.345  1.00  0.00     0.063 C 
ATOM      2  C   UNL     1      89.018 132.664 123.299  1.00  0.00     0.038 C 
ATOM      3  O   UNL     1      88.909 132.282 122.105  1.00  0.00    -0.550 OA
ATOM      4  O   UNL     1      88.633 133.952 123.649  1.00  0.00    -0.550 OA
ENDROOT
TORSDOF 0
ENDMDL
MODEL 9
REMARK VINA RESULT:    -2.685     11.036     11.261
REMARK INTER + INTRA:          -2.685
REMARK INTER:                  -2.685
REMARK INTRA:                   0.000
REMARK UNBOUND:                 0.000
REMARK SMILES CC(=O)[O-]
REMARK SMILES IDX 1 1 2 2 3 3 4 4
REMARK H PARENT
REMARK Flexibility Score: inf
ROOT
ATOM      1  C   UNL     1      88.624 133.844 123.821  1.00  0.00     0.063 C 
ATOM      2  C   UNL     1      89.066 132.481 123.408  1.00  0.00     0.038 C 
ATOM      3  O   UNL     1      89.489 131.666 124.270  1.00  0.00    -0.550 OA
ATOM      4  O   UNL     1      88.965 132.089 122.080  1.00  0.00    -0.550 OA
ENDROOT
TORSDOF 0
ENDMDL
