MODEL 1
REMARK VINA RESULT:    -3.936      0.000      0.000
REMARK INTER + INTRA:          -4.051
REMARK INTER:                  -4.051
REMARK INTRA:                   0.000
REMARK UNBOUND:                 0.000
REMARK SMILES Oc1ccc2[nH]ccc2c1
REMARK SMILES IDX 3 1 4 2 5 3 9 4 8 5 7 6 6 7 10 8 2 9 1 11
REMARK H PARENT 6 10 1 12
REMARK Flexibility Score: inf
ROOT
ATOM      1  C   UNL     1     -11.880   9.181 -37.345  1.00  0.00     0.048 A 
ATOM      2  C   UNL     1     -12.221   9.491 -38.674  1.00  0.00     0.030 A 
ATOM      3  C   UNL     1     -12.684   8.456 -39.484  1.00  0.00     0.046 A 
ATOM      4  C   UNL     1     -12.807   7.175 -39.017  1.00  0.00     0.003 A 
ATOM      5  C   UNL     1     -13.285   6.402 -40.052  1.00  0.00     0.028 A 
ATOM      6  C   UNL     1     -13.429   7.279 -41.123  1.00  0.00     0.083 A 
ATOM      7  N   UNL     1     -13.061   8.532 -40.771  1.00  0.00    -0.361 N 
ATOM      8  C   UNL     1     -12.478   6.834 -37.707  1.00  0.00     0.056 A 
ATOM      9  C   UNL     1     -12.007   7.856 -36.859  1.00  0.00     0.116 A 
ATOM     10  H   UNL     1     -13.069   9.382 -41.379  1.00  0.00     0.166 HD
ENDROOT
BRANCH   9  11
ATOM     11  O   UNL     1     -11.669   7.550 -35.543  1.00  0.00    -0.508 OA
ATOM     12  H   UNL     1     -12.379   7.374 -34.842  1.00  0.00     0.293 HD
ENDBRANCH   9  11
TORSDOF 1
ENDMDL
MODEL 2
REMARK VINA RESULT:    -3.817      2.579      3.571
REMARK INTER + INTRA:          -3.928
REMARK INTER:                  -3.928
REMARK INTRA:                   0.000
REMARK UNBOUND:                 0.000
REMARK SMILES Oc1ccc2[nH]ccc2c1
REMARK SMILES IDX 3 1 4 2 5 3 9 4 8 5 7 6 6 7 10 8 2 9 1 11
REMARK H PARENT 6 10 1 12
REMARK Flexibility Score: inf
ROOT
ATOM      1  C   UNL     1     -12.178   9.400 -39.165  1.00  0.00     0.048 A 
ATOM      2  C   UNL     1     -11.738   9.297 -37.833  1.00  0.00     0.030 A 
ATOM      3  C   UNL     1     -12.019   8.119 -37.144  1.00  0.00     0.046 A 
ATOM      4  C   UNL     1     -12.700   7.086 -37.732  1.00  0.00     0.003 A 
ATOM      5  C   UNL     1     -12.812   6.081 -36.796  1.00  0.00     0.028 A 
ATOM      6  C   UNL     1     -12.177   6.571 -35.659  1.00  0.00     0.083 A 
ATOM      7  N   UNL     1     -11.694   7.815 -35.877  1.00  0.00    -0.361 N 
ATOM      8  C   UNL     1     -13.149   7.155 -39.048  1.00  0.00     0.056 A 
ATOM      9  C   UNL     1     -12.882   8.332 -39.775  1.00  0.00     0.116 A 
ATOM     10  H   UNL     1     -11.175   8.414 -35.196  1.00  0.00     0.166 HD
ENDROOT
BRANCH   9  11
ATOM     11  O   UNL     1     -13.317   8.435 -41.094  1.00  0.00    -0.508 OA
ATOM     12  H   UNL     1     -13.235   7.658 -41.740  1.00  0.00     0.293 HD
ENDBRANCH   9  11
TORSDOF 1
ENDMDL
MODEL 3
REMARK VINA RESULT:    -3.711      3.416      4.460
REMARK INTER + INTRA:          -3.819
REMARK INTER:                  -3.819
REMARK INTRA:                   0.000
REMARK UNBOUND:                 0.000
REMARK SMILES Oc1ccc2[nH]ccc2c1
REMARK SMILES IDX 3 1 4 2 5 3 9 4 8 5 7 6 6 7 10 8 2 9 1 11
REMARK H PARENT 6 10 1 12
REMARK Flexibility Score: inf
ROOT
ATOM      1  C   UNL     1     -11.780   8.956 -38.603  1.00  0.00     0.048 A 
ATOM      2  C   UNL     1     -10.379   8.856 -38.529  1.00  0.00     0.030 A 
ATOM      3  C   UNL     1      -9.626   9.590 -39.443  1.00  0.00     0.046 A 
ATOM      4  C   UNL     1     -10.216  10.387 -40.388  1.00  0.00     0.003 A 
ATOM      5  C   UNL     1      -9.207  10.968 -41.125  1.00  0.00     0.028 A 
ATOM      6  C   UNL     1      -8.026  10.479 -40.574  1.00  0.00     0.083 A 
ATOM      7  N   UNL     1      -8.287   9.639 -39.547  1.00  0.00    -0.361 N 
ATOM      8  C   UNL     1     -11.599  10.508 -40.488  1.00  0.00     0.056 A 
ATOM      9  C   UNL     1     -12.393   9.780 -39.579  1.00  0.00     0.116 A 
ATOM     10  H   UNL     1      -7.588   9.132 -38.959  1.00  0.00     0.166 HD
ENDROOT
BRANCH   9  11
ATOM     11  O   UNL     1     -13.780   9.879 -39.652  1.00  0.00    -0.508 OA
ATOM     12  H   UNL     1     -14.302  10.469 -39.014  1.00  0.00     0.293 HD
ENDBRANCH   9  11
TORSDOF 1
ENDMDL
MODEL 4
REMARK VINA RESULT:    -3.704     10.076     11.402
REMARK INTER + INTRA:          -3.812
REMARK INTER:                  -3.812
REMARK INTRA:                   0.000
REMARK UNBOUND:                 0.000
REMARK SMILES Oc1ccc2[nH]ccc2c1
REMARK SMILES IDX 3 1 4 2 5 3 9 4 8 5 7 6 6 7 10 8 2 9 1 11
REMARK H PARENT 6 10 1 12
REMARK Flexibility Score: inf
ROOT
ATOM      1  C   UNL     1     -13.759  -2.510 -41.101  1.00  0.00     0.048 A 
ATOM      2  C   UNL     1     -13.381  -3.790 -40.655  1.00  0.00     0.030 A 
ATOM      3  C   UNL     1     -12.288  -3.882 -39.795  1.00  0.00     0.046 A 
ATOM      4  C   UNL     1     -11.595  -2.773 -39.390  1.00  0.00     0.003 A 
ATOM      5  C   UNL     1     -10.586  -3.200 -38.554  1.00  0.00     0.028 A 
ATOM      6  C   UNL     1     -10.724  -4.584 -38.496  1.00  0.00     0.083 A 
ATOM      7  N   UNL     1     -11.765  -4.995 -39.255  1.00  0.00    -0.361 N 
ATOM      8  C   UNL     1     -11.942  -1.492 -39.813  1.00  0.00     0.056 A 
ATOM      9  C   UNL     1     -13.043  -1.361 -40.682  1.00  0.00     0.116 A 
ATOM     10  H   UNL     1     -12.091  -5.978 -39.391  1.00  0.00     0.166 HD
ENDROOT
BRANCH   9  11
ATOM     11  O   UNL     1     -13.417  -0.095 -41.125  1.00  0.00    -0.508 OA
ATOM     12  H   UNL     1     -13.624   0.085 -42.101  1.00  0.00     0.293 HD
ENDBRANCH   9  11
TORSDOF 1
ENDMDL
MODEL 5
REMARK VINA RESULT:    -3.655      1.056      2.017
REMARK INTER + INTRA:          -3.762
REMARK INTER:                  -3.762
REMARK INTRA:                   0.000
REMARK UNBOUND:                 0.000
REMARK SMILES Oc1ccc2[nH]ccc2c1
REMARK SMILES IDX 3 1 4 2 5 3 9 4 8 5 7 6 6 7 10 8 2 9 1 11
REMARK H PARENT 6 10 1 12
REMARK Flexibility Score: inf
ROOT
ATOM      1  C   UNL     1     -13.364   6.288 -36.955  1.00  0.00     0.048 A 
ATOM      2  C   UNL     1     -13.867   6.111 -38.257  1.00  0.00     0.030 A 
ATOM      3  C   UNL     1     -13.406   6.967 -39.254  1.00  0.00     0.046 A 
ATOM      4  C   UNL     1     -12.493   7.953 -38.992  1.00  0.00     0.003 A 
ATOM      5  C   UNL     1     -12.247   8.614 -40.176  1.00  0.00     0.028 A 
ATOM      6  C   UNL     1     -13.047   7.977 -41.120  1.00  0.00     0.083 A 
ATOM      7  N   UNL     1     -13.752   6.972 -40.552  1.00  0.00    -0.361 N 
ATOM      8  C   UNL     1     -11.974   8.156 -37.715  1.00  0.00     0.056 A 
ATOM      9  C   UNL     1     -12.419   7.308 -36.681  1.00  0.00     0.116 A 
ATOM     10  H   UNL     1     -14.428   6.333 -41.029  1.00  0.00     0.166 HD
ENDROOT
BRANCH   9  11
ATOM     11  O   UNL     1     -11.921   7.483 -35.393  1.00  0.00    -0.508 OA
ATOM     12  H   UNL     1     -11.592   8.386 -35.070  1.00  0.00     0.293 HD
ENDBRANCH   9  11
TORSDOF 1
ENDMDL
MODEL 6
REMARK VINA RESULT:    -3.633     13.725     15.440
REMARK INTER + INTRA:          -3.740
REMARK INTER:                  -3.740
REMARK INTRA:                   0.000
REMARK UNBOUND:                 0.000
REMARK SMILES Oc1ccc2[nH]ccc2c1
REMARK SMILES IDX 3 1 4 2 5 3 9 4 8 5 7 6 6 7 10 8 2 9 1 11
REMARK H PARENT 6 10 1 12
REMARK Flexibility Score: inf
ROOT
ATOM      1  C   UNL     1     -10.552   5.696 -25.376  1.00  0.00     0.048 A 
ATOM      2  C   UNL     1     -10.140   5.581 -24.036  1.00  0.00     0.030 A 
ATOM      3  C   UNL     1     -11.023   6.008 -23.045  1.00  0.00     0.046 A 
ATOM      4  C   UNL     1     -12.254   6.523 -23.351  1.00  0.00     0.003 A 
ATOM      5  C   UNL     1     -12.873   6.845 -22.163  1.00  0.00     0.028 A 
ATOM      6  C   UNL     1     -11.959   6.498 -21.172  1.00  0.00     0.083 A 
ATOM      7  N   UNL     1     -10.832   5.988 -21.716  1.00  0.00    -0.361 N 
ATOM      8  C   UNL     1     -12.693   6.650 -24.667  1.00  0.00     0.056 A 
ATOM      9  C   UNL     1     -11.826   6.229 -25.694  1.00  0.00     0.116 A 
ATOM     10  H   UNL     1      -9.986   5.648 -21.204  1.00  0.00     0.166 HD
ENDROOT
BRANCH   9  11
ATOM     11  O   UNL     1     -12.233   6.342 -27.021  1.00  0.00    -0.508 OA
ATOM     12  H   UNL     1     -11.919   5.688 -27.728  1.00  0.00     0.293 HD
ENDBRANCH   9  11
TORSDOF 1
ENDMDL
MODEL 7
REMARK VINA RESULT:    -3.576      2.893      3.313
REMARK INTER + INTRA:          -3.680
REMARK INTER:                  -3.680
REMARK INTRA:                   0.000
REMARK UNBOUND:                 0.000
REMARK SMILES Oc1ccc2[nH]ccc2c1
REMARK SMILES IDX 3 1 4 2 5 3 9 4 8 5 7 6 6 7 10 8 2 9 1 11
REMARK H PARENT 6 10 1 12
REMARK Flexibility Score: inf
ROOT
ATOM      1  C   UNL     1     -11.473   9.997 -40.481  1.00  0.00     0.048 A 
ATOM      2  C   UNL     1     -10.341   9.271 -40.894  1.00  0.00     0.030 A 
ATOM      3  C   UNL     1     -10.387   7.882 -40.790  1.00  0.00     0.046 A 
ATOM      4  C   UNL     1     -11.490   7.232 -40.306  1.00  0.00     0.003 A 
ATOM      5  C   UNL     1     -11.218   5.882 -40.334  1.00  0.00     0.028 A 
ATOM      6  C   UNL     1      -9.928   5.782 -40.847  1.00  0.00     0.083 A 
ATOM      7  N   UNL     1      -9.425   7.006 -41.125  1.00  0.00    -0.361 N 
ATOM      8  C   UNL     1     -12.627   7.920 -39.889  1.00  0.00     0.056 A 
ATOM      9  C   UNL     1     -12.616   9.326 -39.980  1.00  0.00     0.116 A 
ATOM     10  H   UNL     1      -8.482   7.222 -41.518  1.00  0.00     0.166 HD
ENDROOT
BRANCH   9  11
ATOM     11  O   UNL     1     -13.736  10.046 -39.572  1.00  0.00    -0.508 OA
ATOM     12  H   UNL     1     -13.663  10.803 -38.902  1.00  0.00     0.293 HD
ENDBRANCH   9  11
TORSDOF 1
ENDMDL
MODEL 8
REMARK VINA RESULT:    -3.518      2.783      3.940
REMARK INTER + INTRA:          -3.621
REMARK INTER:                  -3.621
REMARK INTRA:                   0.000
REMARK UNBOUND:                 0.000
REMARK SMILES Oc1ccc2[nH]ccc2c1
REMARK SMILES IDX 3 1 4 2 5 3 9 4 8 5 7 6 6 7 10 8 2 9 1 11
REMARK H PARENT 6 10 1 12
REMARK Flexibility Score: inf
ROOT
ATOM      1  C   UNL     1     -11.879   6.463 -40.830  1.00  0.00     0.048 A 
ATOM      2  C   UNL     1     -10.663   7.110 -41.115  1.00  0.00     0.030 A 
ATOM      3  C   UNL     1     -10.597   8.487 -40.915  1.00  0.00     0.046 A 
ATOM      4  C   UNL     1     -11.672   9.201 -40.458  1.00  0.00     0.003 A 
ATOM      5  C   UNL     1     -11.284  10.520 -40.369  1.00  0.00     0.028 A 
ATOM      6  C   UNL     1      -9.957  10.537 -40.791  1.00  0.00     0.083 A 
ATOM      7  N   UNL     1      -9.542   9.294 -41.123  1.00  0.00    -0.361 N 
ATOM      8  C   UNL     1     -12.890   8.592 -40.166  1.00  0.00     0.056 A 
ATOM      9  C   UNL     1     -12.993   7.200 -40.356  1.00  0.00     0.116 A 
ATOM     10  H   UNL     1      -8.596   9.020 -41.469  1.00  0.00     0.166 HD
ENDROOT
BRANCH   9  11
ATOM     11  O   UNL     1     -14.196   6.558 -40.075  1.00  0.00    -0.508 OA
ATOM     12  H   UNL     1     -14.412   6.224 -39.143  1.00  0.00     0.293 HD
ENDBRANCH   9  11
TORSDOF 1
ENDMDL
MODEL 9
REMARK VINA RESULT:    -3.480     16.061     17.176
REMARK INTER + INTRA:          -3.582
REMARK INTER:                  -3.582
REMARK INTRA:                   0.000
REMARK UNBOUND:                 0.000
REMARK SMILES Oc1ccc2[nH]ccc2c1
REMARK SMILES IDX 3 1 4 2 5 3 9 4 8 5 7 6 6 7 10 8 2 9 1 11
REMARK H PARENT 6 10 1 12
REMARK Flexibility Score: inf
ROOT
ATOM      1  C   UNL     1     -13.419   8.291 -22.855  1.00  0.00     0.048 A 
ATOM      2  C   UNL     1     -14.803   8.286 -23.106  1.00  0.00     0.030 A 
ATOM      3  C   UNL     1     -15.601   9.155 -22.365  1.00  0.00     0.046 A 
ATOM      4  C   UNL     1     -15.071   9.992 -21.421  1.00  0.00     0.003 A 
ATOM      5  C   UNL     1     -16.112  10.711 -20.875  1.00  0.00     0.028 A 
ATOM      6  C   UNL     1     -17.250  10.259 -21.535  1.00  0.00     0.083 A 
ATOM      7  N   UNL     1     -16.934   9.309 -22.444  1.00  0.00    -0.361 N 
ATOM      8  C   UNL     1     -13.705  10.023 -21.148  1.00  0.00     0.056 A 
ATOM      9  C   UNL     1     -12.867   9.158 -21.879  1.00  0.00     0.116 A 
ATOM     10  H   UNL     1     -17.592   8.801 -23.076  1.00  0.00     0.166 HD
ENDROOT
BRANCH   9  11
ATOM     11  O   UNL     1     -11.497   9.163 -21.631  1.00  0.00    -0.508 OA
ATOM     12  H   UNL     1     -11.118   9.511 -20.758  1.00  0.00     0.293 HD
ENDBRANCH   9  11
TORSDOF 1
ENDMDL
