MODEL 1
REMARK VINA RESULT:    -6.593      0.000      0.000
REMARK INTER + INTRA:         -10.012
REMARK INTER:                  -9.291
REMARK INTRA:                  -0.721
REMARK UNBOUND:                -0.721
REMARK SMILES C=C(CC[C@@H](C(=O)[O-])[C@H]1[C@@H](O)C[C@]2(C)C3=C(CC[C@]12C)[C@]1(C)CC[C@@H](O)C(C)(C)[C@@H]1CC3)C(C)C
REMARK SMILES IDX 4 1 5 2 6 3 7 4 8 5 9 6 10 7 19 8 12 9 13 10 18 11 20 12
REMARK SMILES IDX 14 13 15 14 17 15 16 16 32 17 21 18 31 19 30 20 23 21 22 22
REMARK SMILES IDX 27 23 24 24 25 25 28 26 29 27 11 28 26 30 3 32 2 33 1 34
REMARK SMILES IDX 33 35 34 36 35 37
REMARK H PARENT 11 29 26 31
REMARK Flexibility Score: inf
ROOT
ATOM      1  C   UNL     1     132.420 143.223 105.963  1.00  0.00     0.014 C 
ENDROOT
BRANCH   1   2
ATOM      2  C   UNL     1     133.122 144.587 105.698  1.00  0.00     0.042 C 
BRANCH   2   3
ATOM      3  C   UNL     1     132.781 145.627 106.746  1.00  0.00     0.045 C 
ATOM      4  O   UNL     1     132.761 145.340 107.970  1.00  0.00    -0.550 OA
ATOM      5  O   UNL     1     132.392 146.901 106.348  1.00  0.00    -0.550 OA
ENDBRANCH   2   3
BRANCH   2   6
ATOM      6  C   UNL     1     134.653 144.477 105.312  1.00  0.00     0.033 C 
ATOM      7  C   UNL     1     135.212 145.781 104.721  1.00  0.00     0.119 C 
ATOM      8  C   UNL     1     135.756 144.060 106.373  1.00  0.00    -0.017 C 
ATOM      9  C   UNL     1     135.866 146.506 105.884  1.00  0.00     0.043 C 
ATOM     10  C   UNL     1     136.482 145.420 106.814  1.00  0.00    -0.003 C 
ATOM     11  C   UNL     1     136.764 143.134 105.628  1.00  0.00     0.012 C 
ATOM     12  C   UNL     1     135.187 143.220 107.558  1.00  0.00     0.013 C 
ATOM     13  C   UNL     1     136.179 145.806 108.295  1.00  0.00     0.017 C 
ATOM     14  C   UNL     1     138.041 145.429 106.662  1.00  0.00    -0.064 C 
ATOM     15  C   UNL     1     138.057 142.973 106.406  1.00  0.00     0.032 C 
ATOM     16  C   UNL     1     138.784 144.297 106.482  1.00  0.00    -0.064 C 
ATOM     17  C   UNL     1     138.758 146.757 106.768  1.00  0.00     0.032 C 
ATOM     18  C   UNL     1     140.350 144.285 106.451  1.00  0.00    -0.008 C 
ATOM     19  C   UNL     1     140.082 146.615 107.496  1.00  0.00     0.009 C 
ATOM     20  C   UNL     1     141.021 145.721 106.655  1.00  0.00     0.007 C 
ATOM     21  C   UNL     1     140.791 143.307 107.582  1.00  0.00     0.014 C 
ATOM     22  C   UNL     1     140.755 143.736 105.056  1.00  0.00     0.016 C 
ATOM     23  C   UNL     1     142.544 145.744 107.164  1.00  0.00    -0.006 C 
ATOM     24  C   UNL     1     142.288 143.285 107.854  1.00  0.00     0.033 C 
ATOM     25  C   UNL     1     142.773 144.676 108.273  1.00  0.00     0.120 C 
ATOM     26  C   UNL     1     142.926 147.125 107.770  1.00  0.00     0.014 C 
ATOM     27  C   UNL     1     143.530 145.536 105.972  1.00  0.00     0.014 C 
BRANCH   7  28
ATOM     28  O   UNL     1     134.240 146.577 104.095  1.00  0.00    -0.393 OA
ATOM     29  H   UNL     1     134.610 147.497 104.051  1.00  0.00     0.210 HD
ENDBRANCH   7  28
BRANCH  25  30
ATOM     30  O   UNL     1     144.120 144.629 108.691  1.00  0.00    -0.393 OA
ATOM     31  H   UNL     1     144.676 145.062 107.995  1.00  0.00     0.210 HD
ENDBRANCH  25  30
ENDBRANCH   2   6
ENDBRANCH   1   2
BRANCH   1  32
ATOM     32  C   UNL     1     131.117 143.044 105.155  1.00  0.00     0.031 C 
BRANCH  32  33
ATOM     33  C   UNL     1     129.865 143.323 105.961  1.00  0.00    -0.075 C 
ATOM     34  C   UNL     1     129.305 142.329 106.675  1.00  0.00     0.008 C 
BRANCH  33  35
ATOM     35  C   UNL     1     129.363 144.761 106.074  1.00  0.00     0.008 C 
ATOM     36  C   UNL     1     128.089 145.015 105.256  1.00  0.00     0.012 C 
ATOM     37  C   UNL     1     129.148 145.130 107.546  1.00  0.00     0.012 C 
ENDBRANCH  33  35
ENDBRANCH  32  33
ENDBRANCH   1  32
TORSDOF 8
ENDMDL
MODEL 2
REMARK VINA RESULT:    -6.442      6.226      9.327
REMARK INTER + INTRA:          -9.800
REMARK INTER:                  -8.513
REMARK INTRA:                  -1.287
REMARK UNBOUND:                -0.721
REMARK SMILES C=C(CC[C@@H](C(=O)[O-])[C@H]1[C@@H](O)C[C@]2(C)C3=C(CC[C@]12C)[C@]1(C)CC[C@@H](O)C(C)(C)[C@@H]1CC3)C(C)C
REMARK SMILES IDX 4 1 5 2 6 3 7 4 8 5 9 6 10 7 19 8 12 9 13 10 18 11 20 12
REMARK SMILES IDX 14 13 15 14 17 15 16 16 32 17 21 18 31 19 30 20 23 21 22 22
REMARK SMILES IDX 27 23 24 24 25 25 28 26 29 27 11 28 26 30 3 32 2 33 1 34
REMARK SMILES IDX 33 35 34 36 35 37
REMARK H PARENT 11 29 26 31
REMARK Flexibility Score: inf
ROOT
ATOM      1  C   UNL     1     141.755 142.229 105.297  1.00  0.00     0.014 C 
ENDROOT
BRANCH   1   2
ATOM      2  C   UNL     1     141.893 143.728 105.695  1.00  0.00     0.042 C 
BRANCH   2   3
ATOM      3  C   UNL     1     140.555 144.434 105.763  1.00  0.00     0.045 C 
ATOM      4  O   UNL     1     139.549 143.883 106.279  1.00  0.00    -0.550 OA
ATOM      5  O   UNL     1     140.404 145.680 105.165  1.00  0.00    -0.550 OA
ENDBRANCH   2   3
BRANCH   2   6
ATOM      6  C   UNL     1     142.877 144.002 106.905  1.00  0.00     0.033 C 
ATOM      7  C   UNL     1     143.145 145.499 107.126  1.00  0.00     0.119 C 
ATOM      8  C   UNL     1     142.572 143.470 108.368  1.00  0.00    -0.017 C 
ATOM      9  C   UNL     1     142.173 145.929 108.209  1.00  0.00     0.043 C 
ATOM     10  C   UNL     1     142.017 144.730 109.189  1.00  0.00    -0.003 C 
ATOM     11  C   UNL     1     143.934 143.001 108.965  1.00  0.00     0.012 C 
ATOM     12  C   UNL     1     141.636 142.222 108.390  1.00  0.00     0.013 C 
ATOM     13  C   UNL     1     140.508 144.583 109.558  1.00  0.00     0.017 C 
ATOM     14  C   UNL     1     142.771 145.047 110.525  1.00  0.00    -0.064 C 
ATOM     15  C   UNL     1     143.855 142.829 110.471  1.00  0.00     0.032 C 
ATOM     16  C   UNL     1     143.621 144.168 111.134  1.00  0.00    -0.064 C 
ATOM     17  C   UNL     1     142.507 146.378 111.192  1.00  0.00     0.032 C 
ATOM     18  C   UNL     1     144.285 144.429 112.528  1.00  0.00    -0.008 C 
ATOM     19  C   UNL     1     142.476 146.244 112.703  1.00  0.00     0.009 C 
ATOM     20  C   UNL     1     143.880 145.824 113.196  1.00  0.00     0.007 C 
ATOM     21  C   UNL     1     143.850 143.240 113.437  1.00  0.00     0.014 C 
ATOM     22  C   UNL     1     145.819 144.413 112.292  1.00  0.00     0.016 C 
ATOM     23  C   UNL     1     144.057 145.945 114.787  1.00  0.00    -0.006 C 
ATOM     24  C   UNL     1     144.234 143.387 114.902  1.00  0.00     0.033 C 
ATOM     25  C   UNL     1     143.588 144.642 115.497  1.00  0.00     0.120 C 
ATOM     26  C   UNL     1     143.216 147.116 115.371  1.00  0.00     0.014 C 
ATOM     27  C   UNL     1     145.536 146.283 115.156  1.00  0.00     0.014 C 
BRANCH   7  28
ATOM     28  O   UNL     1     143.001 146.273 105.964  1.00  0.00    -0.393 OA
ATOM     29  H   UNL     1     142.140 146.759 106.049  1.00  0.00     0.210 HD
ENDBRANCH   7  28
BRANCH  25  30
ATOM     30  O   UNL     1     143.795 144.695 116.892  1.00  0.00    -0.393 OA
ATOM     31  H   UNL     1     144.623 144.193 117.102  1.00  0.00     0.210 HD
ENDBRANCH  25  30
ENDBRANCH   2   6
ENDBRANCH   1   2
BRANCH   1  32
ATOM     32  C   UNL     1     142.818 141.772 104.276  1.00  0.00     0.031 C 
BRANCH  32  33
ATOM     33  C   UNL     1     144.142 141.400 104.911  1.00  0.00    -0.075 C 
ATOM     34  C   UNL     1     145.274 141.967 104.457  1.00  0.00     0.008 C 
BRANCH  33  35
ATOM     35  C   UNL     1     144.143 140.514 106.156  1.00  0.00     0.008 C 
ATOM     36  C   UNL     1     143.562 139.117 105.896  1.00  0.00     0.012 C 
ATOM     37  C   UNL     1     145.559 140.417 106.732  1.00  0.00     0.012 C 
ENDBRANCH  33  35
ENDBRANCH  32  33
ENDBRANCH   1  32
TORSDOF 8
ENDMDL
MODEL 3
REMARK VINA RESULT:    -6.400      5.622     10.322
REMARK INTER + INTRA:          -9.741
REMARK INTER:                  -8.414
REMARK INTRA:                  -1.327
REMARK UNBOUND:                -0.721
REMARK SMILES C=C(CC[C@@H](C(=O)[O-])[C@H]1[C@@H](O)C[C@]2(C)C3=C(CC[C@]12C)[C@]1(C)CC[C@@H](O)C(C)(C)[C@@H]1CC3)C(C)C
REMARK SMILES IDX 4 1 5 2 6 3 7 4 8 5 9 6 10 7 19 8 12 9 13 10 18 11 20 12
REMARK SMILES IDX 14 13 15 14 17 15 16 16 32 17 21 18 31 19 30 20 23 21 22 22
REMARK SMILES IDX 27 23 24 24 25 25 28 26 29 27 11 28 26 30 3 32 2 33 1 34
REMARK SMILES IDX 33 35 34 36 35 37
REMARK H PARENT 11 29 26 31
REMARK Flexibility Score: inf
ROOT
ATOM      1  C   UNL     1     130.393 144.562 106.124  1.00  0.00     0.014 C 
ENDROOT
BRANCH   1   2
ATOM      2  C   UNL     1     129.180 144.619 107.098  1.00  0.00     0.042 C 
BRANCH   2   3
ATOM      3  C   UNL     1     128.468 143.287 107.215  1.00  0.00     0.045 C 
ATOM      4  O   UNL     1     129.081 142.201 107.055  1.00  0.00    -0.550 OA
ATOM      5  O   UNL     1     127.092 143.258 107.414  1.00  0.00    -0.550 OA
ENDBRANCH   2   3
BRANCH   2   6
ATOM      6  C   UNL     1     129.463 145.369 108.463  1.00  0.00     0.033 C 
ATOM      7  C   UNL     1     128.207 146.033 109.048  1.00  0.00     0.119 C 
ATOM      8  C   UNL     1     130.093 144.622 109.713  1.00  0.00    -0.017 C 
ATOM      9  C   UNL     1     127.656 145.039 110.055  1.00  0.00     0.043 C 
ATOM     10  C   UNL     1     128.874 144.324 110.710  1.00  0.00    -0.003 C 
ATOM     11  C   UNL     1     131.091 145.621 110.373  1.00  0.00     0.012 C 
ATOM     12  C   UNL     1     130.930 143.364 109.324  1.00  0.00     0.013 C 
ATOM     13  C   UNL     1     128.553 142.802 110.823  1.00  0.00     0.017 C 
ATOM     14  C   UNL     1     129.059 144.849 112.174  1.00  0.00    -0.064 C 
ATOM     15  C   UNL     1     131.473 145.186 111.776  1.00  0.00     0.032 C 
ATOM     16  C   UNL     1     130.264 145.243 112.683  1.00  0.00    -0.064 C 
ATOM     17  C   UNL     1     127.848 144.875 113.079  1.00  0.00     0.032 C 
ATOM     18  C   UNL     1     130.481 145.654 114.178  1.00  0.00    -0.008 C 
ATOM     19  C   UNL     1     128.212 144.495 114.503  1.00  0.00     0.009 C 
ATOM     20  C   UNL     1     129.163 145.570 115.079  1.00  0.00     0.007 C 
ATOM     21  C   UNL     1     131.582 144.698 114.728  1.00  0.00     0.014 C 
ATOM     22  C   UNL     1     130.981 147.124 114.161  1.00  0.00     0.016 C 
ATOM     23  C   UNL     1     129.375 145.444 116.666  1.00  0.00    -0.006 C 
ATOM     24  C   UNL     1     131.820 144.799 116.228  1.00  0.00     0.033 C 
ATOM     25  C   UNL     1     130.536 144.462 116.993  1.00  0.00     0.120 C 
ATOM     26  C   UNL     1     128.100 144.903 117.374  1.00  0.00     0.014 C 
ATOM     27  C   UNL     1     129.629 146.847 117.303  1.00  0.00     0.014 C 
BRANCH   7  28
ATOM     28  O   UNL     1     127.249 146.376 108.082  1.00  0.00    -0.393 OA
ATOM     29  H   UNL     1     126.444 146.682 108.574  1.00  0.00     0.210 HD
ENDBRANCH   7  28
BRANCH  25  30
ATOM     30  O   UNL     1     130.789 144.385 118.379  1.00  0.00    -0.393 OA
ATOM     31  H   UNL     1     131.760 144.519 118.526  1.00  0.00     0.210 HD
ENDBRANCH  25  30
ENDBRANCH   2   6
ENDBRANCH   1   2
BRANCH   1  32
ATOM     32  C   UNL     1     131.487 145.598 106.456  1.00  0.00     0.031 C 
BRANCH  32  33
ATOM     33  C   UNL     1     132.878 145.003 106.530  1.00  0.00    -0.075 C 
ATOM     34  C   UNL     1     133.406 144.423 105.436  1.00  0.00     0.008 C 
BRANCH  33  35
ATOM     35  C   UNL     1     133.709 145.218 107.792  1.00  0.00     0.008 C 
ATOM     36  C   UNL     1     135.157 144.727 107.646  1.00  0.00     0.012 C 
ATOM     37  C   UNL     1     133.674 146.695 108.202  1.00  0.00     0.012 C 
ENDBRANCH  33  35
ENDBRANCH  32  33
ENDBRANCH   1  32
TORSDOF 8
ENDMDL
MODEL 4
REMARK VINA RESULT:    -6.361      6.522     10.943
REMARK INTER + INTRA:          -9.685
REMARK INTER:                  -9.208
REMARK INTRA:                  -0.477
REMARK UNBOUND:                -0.721
REMARK SMILES C=C(CC[C@@H](C(=O)[O-])[C@H]1[C@@H](O)C[C@]2(C)C3=C(CC[C@]12C)[C@]1(C)CC[C@@H](O)C(C)(C)[C@@H]1CC3)C(C)C
REMARK SMILES IDX 4 1 5 2 6 3 7 4 8 5 9 6 10 7 19 8 12 9 13 10 18 11 20 12
REMARK SMILES IDX 14 13 15 14 17 15 16 16 32 17 21 18 31 19 30 20 23 21 22 22
REMARK SMILES IDX 27 23 24 24 25 25 28 26 29 27 11 28 26 30 3 32 2 33 1 34
REMARK SMILES IDX 33 35 34 36 35 37
REMARK H PARENT 11 29 26 31
REMARK Flexibility Score: inf
ROOT
ATOM      1  C   UNL     1     129.955 134.573 105.704  1.00  0.00     0.014 C 
ENDROOT
BRANCH   1   2
ATOM      2  C   UNL     1     128.844 135.659 105.788  1.00  0.00     0.042 C 
BRANCH   2   3
ATOM      3  C   UNL     1     128.026 135.554 107.059  1.00  0.00     0.045 C 
ATOM      4  O   UNL     1     126.876 136.056 107.141  1.00  0.00    -0.550 OA
ATOM      5  O   UNL     1     128.588 134.973 108.191  1.00  0.00    -0.550 OA
ENDBRANCH   2   3
BRANCH   2   6
ATOM      6  C   UNL     1     129.315 137.118 105.393  1.00  0.00     0.033 C 
ATOM      7  C   UNL     1     128.186 137.963 104.783  1.00  0.00     0.119 C 
ATOM      8  C   UNL     1     129.970 138.101 106.453  1.00  0.00    -0.017 C 
ATOM      9  C   UNL     1     127.624 138.780 105.933  1.00  0.00     0.043 C 
ATOM     10  C   UNL     1     128.814 139.131 106.872  1.00  0.00    -0.003 C 
ATOM     11  C   UNL     1     131.115 138.856 105.713  1.00  0.00     0.012 C 
ATOM     12  C   UNL     1     130.640 137.361 107.652  1.00  0.00     0.013 C 
ATOM     13  C   UNL     1     128.353 138.940 108.351  1.00  0.00     0.017 C 
ATOM     14  C   UNL     1     129.175 140.647 106.711  1.00  0.00    -0.064 C 
ATOM     15  C   UNL     1     131.568 140.081 106.485  1.00  0.00     0.032 C 
ATOM     16  C   UNL     1     130.452 141.100 106.541  1.00  0.00    -0.064 C 
ATOM     17  C   UNL     1     128.052 141.657 106.796  1.00  0.00     0.032 C 
ATOM     18  C   UNL     1     130.833 142.619 106.500  1.00  0.00    -0.008 C 
ATOM     19  C   UNL     1     128.495 142.917 107.518  1.00  0.00     0.009 C 
ATOM     20  C   UNL     1     129.594 143.611 106.682  1.00  0.00     0.007 C 
ATOM     21  C   UNL     1     131.875 142.827 107.640  1.00  0.00     0.014 C 
ATOM     22  C   UNL     1     131.476 142.871 105.109  1.00  0.00     0.016 C 
ATOM     23  C   UNL     1     129.925 145.101 107.182  1.00  0.00    -0.006 C 
ATOM     24  C   UNL     1     132.247 144.279 107.902  1.00  0.00     0.033 C 
ATOM     25  C   UNL     1     131.005 145.082 108.302  1.00  0.00     0.120 C 
ATOM     26  C   UNL     1     128.667 145.803 107.767  1.00  0.00     0.014 C 
ATOM     27  C   UNL     1     130.372 146.000 105.986  1.00  0.00     0.014 C 
BRANCH   7  28
ATOM     28  O   UNL     1     127.190 137.201 104.154  1.00  0.00    -0.393 OA
ATOM     29  H   UNL     1     127.355 136.254 104.403  1.00  0.00     0.210 HD
ENDBRANCH   7  28
BRANCH  25  30
ATOM     30  O   UNL     1     131.364 146.384 108.712  1.00  0.00    -0.393 OA
ATOM     31  H   UNL     1     132.306 146.364 109.018  1.00  0.00     0.210 HD
ENDBRANCH  25  30
ENDBRANCH   2   6
ENDBRANCH   1   2
BRANCH   1  32
ATOM     32  C   UNL     1     129.496 133.290 104.977  1.00  0.00     0.031 C 
BRANCH  32  33
ATOM     33  C   UNL     1     129.403 132.083 105.887  1.00  0.00    -0.075 C 
ATOM     34  C   UNL     1     130.476 131.720 106.614  1.00  0.00     0.008 C 
BRANCH  33  35
ATOM     35  C   UNL     1     128.048 131.406 106.081  1.00  0.00     0.008 C 
ATOM     36  C   UNL     1     126.875 132.397 106.060  1.00  0.00     0.012 C 
ATOM     37  C   UNL     1     127.852 130.308 105.031  1.00  0.00     0.012 C 
ENDBRANCH  33  35
ENDBRANCH  32  33
ENDBRANCH   1  32
TORSDOF 8
ENDMDL
MODEL 5
REMARK VINA RESULT:    -6.279      7.644     11.101
REMARK INTER + INTRA:          -9.570
REMARK INTER:                  -8.628
REMARK INTRA:                  -0.942
REMARK UNBOUND:                -0.721
REMARK SMILES C=C(CC[C@@H](C(=O)[O-])[C@H]1[C@@H](O)C[C@]2(C)C3=C(CC[C@]12C)[C@]1(C)CC[C@@H](O)C(C)(C)[C@@H]1CC3)C(C)C
REMARK SMILES IDX 4 1 5 2 6 3 7 4 8 5 9 6 10 7 19 8 12 9 13 10 18 11 20 12
REMARK SMILES IDX 14 13 15 14 17 15 16 16 32 17 21 18 31 19 30 20 23 21 22 22
REMARK SMILES IDX 27 23 24 24 25 25 28 26 29 27 11 28 26 30 3 32 2 33 1 34
REMARK SMILES IDX 33 35 34 36 35 37
REMARK H PARENT 11 29 26 31
REMARK Flexibility Score: inf
ROOT
ATOM      1  C   UNL     1     130.779 145.224 111.958  1.00  0.00     0.014 C 
ENDROOT
BRANCH   1   2
ATOM      2  C   UNL     1     129.593 145.064 110.964  1.00  0.00     0.042 C 
BRANCH   2   3
ATOM      3  C   UNL     1     129.775 145.889 109.706  1.00  0.00     0.045 C 
ATOM      4  O   UNL     1     130.908 146.048 109.187  1.00  0.00    -0.550 OA
ATOM      5  O   UNL     1     128.686 146.562 109.163  1.00  0.00    -0.550 OA
ENDBRANCH   2   3
BRANCH   2   6
ATOM      6  C   UNL     1     129.115 143.570 110.743  1.00  0.00     0.033 C 
ATOM      7  C   UNL     1     127.676 143.480 110.209  1.00  0.00     0.119 C 
ATOM      8  C   UNL     1     129.911 142.567 109.807  1.00  0.00    -0.017 C 
ATOM      9  C   UNL     1     127.811 143.344 108.703  1.00  0.00     0.043 C 
ATOM     10  C   UNL     1     129.092 142.503 108.430  1.00  0.00    -0.003 C 
ATOM     11  C   UNL     1     129.878 141.177 110.513  1.00  0.00     0.012 C 
ATOM     12  C   UNL     1     131.418 142.937 109.644  1.00  0.00     0.013 C 
ATOM     13  C   UNL     1     129.869 143.153 107.243  1.00  0.00     0.017 C 
ATOM     14  C   UNL     1     128.682 141.067 107.958  1.00  0.00    -0.064 C 
ATOM     15  C   UNL     1     130.265 140.058 109.563  1.00  0.00     0.032 C 
ATOM     16  C   UNL     1     129.227 139.924 108.471  1.00  0.00    -0.064 C 
ATOM     17  C   UNL     1     127.663 140.947 106.847  1.00  0.00     0.032 C 
ATOM     18  C   UNL     1     128.911 138.492 107.923  1.00  0.00    -0.008 C 
ATOM     19  C   UNL     1     127.996 139.800 105.911  1.00  0.00     0.009 C 
ATOM     20  C   UNL     1     127.889 138.471 106.694  1.00  0.00     0.007 C 
ATOM     21  C   UNL     1     130.283 137.882 107.506  1.00  0.00     0.014 C 
ATOM     22  C   UNL     1     128.289 137.698 109.104  1.00  0.00     0.016 C 
ATOM     23  C   UNL     1     127.919 137.173 105.748  1.00  0.00    -0.006 C 
ATOM     24  C   UNL     1     130.191 136.554 106.769  1.00  0.00     0.033 C 
ATOM     25  C   UNL     1     129.382 136.718 105.478  1.00  0.00     0.120 C 
ATOM     26  C   UNL     1     127.262 137.455 104.366  1.00  0.00     0.014 C 
ATOM     27  C   UNL     1     127.077 136.015 106.370  1.00  0.00     0.014 C 
BRANCH   7  28
ATOM     28  O   UNL     1     126.876 144.578 110.560  1.00  0.00    -0.393 OA
ATOM     29  H   UNL     1     125.939 144.251 110.588  1.00  0.00     0.210 HD
ENDBRANCH   7  28
BRANCH  25  30
ATOM     30  O   UNL     1     129.435 135.539 104.704  1.00  0.00    -0.393 OA
ATOM     31  H   UNL     1     130.230 135.018 104.987  1.00  0.00     0.210 HD
ENDBRANCH  25  30
ENDBRANCH   2   6
ENDBRANCH   1   2
BRANCH   1  32
ATOM     32  C   UNL     1     130.349 145.777 113.333  1.00  0.00     0.031 C 
BRANCH  32  33
ATOM     33  C   UNL     1     129.593 144.771 114.177  1.00  0.00    -0.075 C 
ATOM     34  C   UNL     1     130.116 143.546 114.369  1.00  0.00     0.008 C 
BRANCH  33  35
ATOM     35  C   UNL     1     128.338 145.223 114.920  1.00  0.00     0.008 C 
ATOM     36  C   UNL     1     127.061 145.081 114.079  1.00  0.00     0.012 C 
ATOM     37  C   UNL     1     128.206 144.461 116.243  1.00  0.00     0.012 C 
ENDBRANCH  33  35
ENDBRANCH  32  33
ENDBRANCH   1  32
TORSDOF 8
ENDMDL
MODEL 6
REMARK VINA RESULT:    -6.273      7.188     11.931
REMARK INTER + INTRA:          -9.561
REMARK INTER:                  -8.396
REMARK INTRA:                  -1.165
REMARK UNBOUND:                -0.721
REMARK SMILES C=C(CC[C@@H](C(=O)[O-])[C@H]1[C@@H](O)C[C@]2(C)C3=C(CC[C@]12C)[C@]1(C)CC[C@@H](O)C(C)(C)[C@@H]1CC3)C(C)C
REMARK SMILES IDX 4 1 5 2 6 3 7 4 8 5 9 6 10 7 19 8 12 9 13 10 18 11 20 12
REMARK SMILES IDX 14 13 15 14 17 15 16 16 32 17 21 18 31 19 30 20 23 21 22 22
REMARK SMILES IDX 27 23 24 24 25 25 28 26 29 27 11 28 26 30 3 32 2 33 1 34
REMARK SMILES IDX 33 35 34 36 35 37
REMARK H PARENT 11 29 26 31
REMARK Flexibility Score: inf
ROOT
ATOM      1  C   UNL     1     143.947 145.666 109.818  1.00  0.00     0.014 C 
ENDROOT
BRANCH   1   2
ATOM      2  C   UNL     1     144.112 144.136 110.054  1.00  0.00     0.042 C 
BRANCH   2   3
ATOM      3  C   UNL     1     144.868 143.454 108.933  1.00  0.00     0.045 C 
ATOM      4  O   UNL     1     144.604 142.274 108.588  1.00  0.00    -0.550 OA
ATOM      5  O   UNL     1     145.938 144.107 108.330  1.00  0.00    -0.550 OA
ENDBRANCH   2   3
BRANCH   2   6
ATOM      6  C   UNL     1     144.553 143.739 111.522  1.00  0.00     0.033 C 
ATOM      7  C   UNL     1     145.825 144.472 111.979  1.00  0.00     0.119 C 
ATOM      8  C   UNL     1     143.577 143.901 112.762  1.00  0.00    -0.017 C 
ATOM      9  C   UNL     1     145.337 145.672 112.772  1.00  0.00     0.043 C 
ATOM     10  C   UNL     1     144.045 145.234 113.521  1.00  0.00    -0.003 C 
ATOM     11  C   UNL     1     143.805 142.658 113.675  1.00  0.00     0.012 C 
ATOM     12  C   UNL     1     142.068 143.881 112.368  1.00  0.00     0.013 C 
ATOM     13  C   UNL     1     142.995 146.383 113.413  1.00  0.00     0.017 C 
ATOM     14  C   UNL     1     144.361 145.063 115.046  1.00  0.00    -0.064 C 
ATOM     15  C   UNL     1     143.226 142.869 115.062  1.00  0.00     0.032 C 
ATOM     16  C   UNL     1     143.977 143.973 115.774  1.00  0.00    -0.064 C 
ATOM     17  C   UNL     1     145.087 146.186 115.752  1.00  0.00     0.032 C 
ATOM     18  C   UNL     1     144.182 143.848 117.322  1.00  0.00    -0.008 C 
ATOM     19  C   UNL     1     144.564 146.383 117.163  1.00  0.00     0.009 C 
ATOM     20  C   UNL     1     144.881 145.119 117.994  1.00  0.00     0.007 C 
ATOM     21  C   UNL     1     142.762 143.621 117.923  1.00  0.00     0.014 C 
ATOM     22  C   UNL     1     145.083 142.604 117.545  1.00  0.00     0.016 C 
ATOM     23  C   UNL     1     144.653 145.322 119.571  1.00  0.00    -0.006 C 
ATOM     24  C   UNL     1     142.703 143.658 119.443  1.00  0.00     0.033 C 
ATOM     25  C   UNL     1     143.177 145.020 119.960  1.00  0.00     0.120 C 
ATOM     26  C   UNL     1     144.956 146.783 120.011  1.00  0.00     0.014 C 
ATOM     27  C   UNL     1     145.642 144.437 120.392  1.00  0.00     0.014 C 
BRANCH   7  28
ATOM     28  O   UNL     1     146.663 144.856 110.922  1.00  0.00    -0.393 OA
ATOM     29  H   UNL     1     147.587 144.883 111.285  1.00  0.00     0.210 HD
ENDBRANCH   7  28
BRANCH  25  30
ATOM     30  O   UNL     1     142.965 145.126 121.351  1.00  0.00    -0.393 OA
ATOM     31  H   UNL     1     143.594 144.513 121.809  1.00  0.00     0.210 HD
ENDBRANCH  25  30
ENDBRANCH   2   6
ENDBRANCH   1   2
BRANCH   1  32
ATOM     32  C   UNL     1     142.525 146.061 109.367  1.00  0.00     0.031 C 
BRANCH  32  33
ATOM     33  C   UNL     1     142.258 145.781 107.902  1.00  0.00    -0.075 C 
ATOM     34  C   UNL     1     143.013 146.386 106.967  1.00  0.00     0.008 C 
BRANCH  33  35
ATOM     35  C   UNL     1     141.249 144.697 107.528  1.00  0.00     0.008 C 
ATOM     36  C   UNL     1     141.865 143.572 106.684  1.00  0.00     0.012 C 
ATOM     37  C   UNL     1     140.590 144.133 108.790  1.00  0.00     0.012 C 
ENDBRANCH  33  35
ENDBRANCH  32  33
ENDBRANCH   1  32
TORSDOF 8
ENDMDL
MODEL 7
REMARK VINA RESULT:    -6.203      1.836      3.470
REMARK INTER + INTRA:          -9.462
REMARK INTER:                  -8.904
REMARK INTRA:                  -0.558
REMARK UNBOUND:                -0.721
REMARK SMILES C=C(CC[C@@H](C(=O)[O-])[C@H]1[C@@H](O)C[C@]2(C)C3=C(CC[C@]12C)[C@]1(C)CC[C@@H](O)C(C)(C)[C@@H]1CC3)C(C)C
REMARK SMILES IDX 4 1 5 2 6 3 7 4 8 5 9 6 10 7 19 8 12 9 13 10 18 11 20 12
REMARK SMILES IDX 14 13 15 14 17 15 16 16 32 17 21 18 31 19 30 20 23 21 22 22
REMARK SMILES IDX 27 23 24 24 25 25 28 26 29 27 11 28 26 30 3 32 2 33 1 34
REMARK SMILES IDX 33 35 34 36 35 37
REMARK H PARENT 11 29 26 31
REMARK Flexibility Score: inf
ROOT
ATOM      1  C   UNL     1     130.933 144.657 105.971  1.00  0.00     0.014 C 
ENDROOT
BRANCH   1   2
ATOM      2  C   UNL     1     131.927 143.591 106.518  1.00  0.00     0.042 C 
BRANCH   2   3
ATOM      3  C   UNL     1     132.128 142.439 105.555  1.00  0.00     0.045 C 
ATOM      4  O   UNL     1     132.217 142.629 104.316  1.00  0.00    -0.550 OA
ATOM      5  O   UNL     1     132.123 141.134 106.036  1.00  0.00    -0.550 OA
ENDBRANCH   2   3
BRANCH   2   6
ATOM      6  C   UNL     1     133.245 144.187 107.161  1.00  0.00     0.033 C 
ATOM      7  C   UNL     1     133.948 143.196 108.102  1.00  0.00     0.119 C 
ATOM      8  C   UNL     1     134.434 144.744 106.269  1.00  0.00    -0.017 C 
ATOM      9  C   UNL     1     135.020 142.528 107.259  1.00  0.00     0.043 C 
ATOM     10  C   UNL     1     135.555 143.598 106.263  1.00  0.00    -0.003 C 
ATOM     11  C   UNL     1     134.974 146.016 106.990  1.00  0.00     0.012 C 
ATOM     12  C   UNL     1     133.978 145.207 104.851  1.00  0.00     0.013 C 
ATOM     13  C   UNL     1     135.721 142.933 104.862  1.00  0.00     0.017 C 
ATOM     14  C   UNL     1     136.985 144.055 106.710  1.00  0.00    -0.064 C 
ATOM     15  C   UNL     1     136.336 146.424 106.459  1.00  0.00     0.032 C 
ATOM     16  C   UNL     1     137.362 145.365 106.796  1.00  0.00    -0.064 C 
ATOM     17  C   UNL     1     138.010 142.986 107.018  1.00  0.00     0.032 C 
ATOM     18  C   UNL     1     138.821 145.827 107.125  1.00  0.00    -0.008 C 
ATOM     19  C   UNL     1     139.393 143.392 106.544  1.00  0.00     0.009 C 
ATOM     20  C   UNL     1     139.854 144.628 107.351  1.00  0.00     0.007 C 
ATOM     21  C   UNL     1     139.268 146.716 105.925  1.00  0.00     0.014 C 
ATOM     22  C   UNL     1     138.732 146.664 108.430  1.00  0.00     0.016 C 
ATOM     23  C   UNL     1     141.412 144.966 107.159  1.00  0.00    -0.006 C 
ATOM     24  C   UNL     1     140.734 147.125 105.947  1.00  0.00     0.033 C 
ATOM     25  C   UNL     1     141.631 145.884 105.922  1.00  0.00     0.120 C 
ATOM     26  C   UNL     1     142.255 143.679 106.933  1.00  0.00     0.014 C 
ATOM     27  C   UNL     1     142.000 145.616 108.451  1.00  0.00     0.014 C 
BRANCH   7  28
ATOM     28  O   UNL     1     133.081 142.255 108.677  1.00  0.00    -0.393 OA
ATOM     29  H   UNL     1     133.564 141.853 109.445  1.00  0.00     0.210 HD
ENDBRANCH   7  28
BRANCH  25  30
ATOM     30  O   UNL     1     142.985 146.252 105.769  1.00  0.00    -0.393 OA
ATOM     31  H   UNL     1     143.019 147.118 105.289  1.00  0.00     0.210 HD
ENDBRANCH  25  30
ENDBRANCH   2   6
ENDBRANCH   1   2
BRANCH   1  32
ATOM     32  C   UNL     1     130.247 145.475 107.085  1.00  0.00     0.031 C 
BRANCH  32  33
ATOM     33  C   UNL     1     128.734 145.435 107.017  1.00  0.00    -0.075 C 
ATOM     34  C   UNL     1     128.014 145.894 108.057  1.00  0.00     0.008 C 
BRANCH  33  35
ATOM     35  C   UNL     1     128.063 145.026 105.707  1.00  0.00     0.008 C 
ATOM     36  C   UNL     1     127.624 143.554 105.694  1.00  0.00     0.012 C 
ATOM     37  C   UNL     1     126.877 145.950 105.412  1.00  0.00     0.012 C 
ENDBRANCH  33  35
ENDBRANCH  32  33
ENDBRANCH   1  32
TORSDOF 8
ENDMDL
MODEL 8
REMARK VINA RESULT:    -6.182      4.724     10.574
REMARK INTER + INTRA:          -9.433
REMARK INTER:                  -8.511
REMARK INTRA:                  -0.923
REMARK UNBOUND:                -0.721
REMARK SMILES C=C(CC[C@@H](C(=O)[O-])[C@H]1[C@@H](O)C[C@]2(C)C3=C(CC[C@]12C)[C@]1(C)CC[C@@H](O)C(C)(C)[C@@H]1CC3)C(C)C
REMARK SMILES IDX 4 1 5 2 6 3 7 4 8 5 9 6 10 7 19 8 12 9 13 10 18 11 20 12
REMARK SMILES IDX 14 13 15 14 17 15 16 16 32 17 21 18 31 19 30 20 23 21 22 22
REMARK SMILES IDX 27 23 24 24 25 25 28 26 29 27 11 28 26 30 3 32 2 33 1 34
REMARK SMILES IDX 33 35 34 36 35 37
REMARK H PARENT 11 29 26 31
REMARK Flexibility Score: inf
ROOT
ATOM      1  C   UNL     1     131.144 145.942 106.122  1.00  0.00     0.014 C 
ENDROOT
BRANCH   1   2
ATOM      2  C   UNL     1     130.138 145.291 107.116  1.00  0.00     0.042 C 
BRANCH   2   3
ATOM      3  C   UNL     1     128.695 145.570 106.746  1.00  0.00     0.045 C 
ATOM      4  O   UNL     1     128.311 145.550 105.549  1.00  0.00    -0.550 OA
ATOM      5  O   UNL     1     127.793 145.946 107.735  1.00  0.00    -0.550 OA
ENDBRANCH   2   3
BRANCH   2   6
ATOM      6  C   UNL     1     130.470 143.793 107.505  1.00  0.00     0.033 C 
ATOM      7  C   UNL     1     129.735 143.331 108.773  1.00  0.00     0.119 C 
ATOM      8  C   UNL     1     130.233 142.594 106.493  1.00  0.00    -0.017 C 
ATOM      9  C   UNL     1     128.492 142.612 108.282  1.00  0.00     0.043 C 
ATOM     10  C   UNL     1     128.873 141.884 106.960  1.00  0.00    -0.003 C 
ATOM     11  C   UNL     1     131.434 141.616 106.672  1.00  0.00     0.012 C 
ATOM     12  C   UNL     1     130.250 143.034 104.997  1.00  0.00     0.013 C 
ATOM     13  C   UNL     1     127.715 142.081 105.933  1.00  0.00     0.017 C 
ATOM     14  C   UNL     1     128.975 140.344 107.225  1.00  0.00    -0.064 C 
ATOM     15  C   UNL     1     131.148 140.260 106.054  1.00  0.00     0.032 C 
ATOM     16  C   UNL     1     130.023 139.578 106.800  1.00  0.00    -0.064 C 
ATOM     17  C   UNL     1     127.831 139.669 107.948  1.00  0.00     0.032 C 
ATOM     18  C   UNL     1     130.076 138.020 106.955  1.00  0.00    -0.008 C 
ATOM     19  C   UNL     1     127.558 138.287 107.384  1.00  0.00     0.009 C 
ATOM     20  C   UNL     1     128.785 137.387 107.654  1.00  0.00     0.007 C 
ATOM     21  C   UNL     1     130.252 137.454 105.514  1.00  0.00     0.014 C 
ATOM     22  C   UNL     1     131.321 137.708 107.828  1.00  0.00     0.016 C 
ATOM     23  C   UNL     1     128.502 135.830 107.380  1.00  0.00    -0.006 C 
ATOM     24  C   UNL     1     130.141 135.940 105.407  1.00  0.00     0.033 C 
ATOM     25  C   UNL     1     128.763 135.474 105.888  1.00  0.00     0.120 C 
ATOM     26  C   UNL     1     127.027 135.451 107.693  1.00  0.00     0.014 C 
ATOM     27  C   UNL     1     129.362 134.936 108.329  1.00  0.00     0.014 C 
BRANCH   7  28
ATOM     28  O   UNL     1     129.415 144.378 109.651  1.00  0.00    -0.393 OA
ATOM     29  H   UNL     1     130.083 144.350 110.385  1.00  0.00     0.210 HD
ENDBRANCH   7  28
BRANCH  25  30
ATOM     30  O   UNL     1     128.587 134.097 105.634  1.00  0.00    -0.393 OA
ATOM     31  H   UNL     1     129.392 133.616 105.956  1.00  0.00     0.210 HD
ENDBRANCH  25  30
ENDBRANCH   2   6
ENDBRANCH   1   2
BRANCH   1  32
ATOM     32  C   UNL     1     132.425 146.461 106.808  1.00  0.00     0.031 C 
BRANCH  32  33
ATOM     33  C   UNL     1     133.645 145.608 106.529  1.00  0.00    -0.075 C 
ATOM     34  C   UNL     1     133.856 144.498 107.261  1.00  0.00     0.008 C 
BRANCH  33  35
ATOM     35  C   UNL     1     134.518 145.938 105.320  1.00  0.00     0.008 C 
ATOM     36  C   UNL     1     135.956 146.313 105.705  1.00  0.00     0.012 C 
ATOM     37  C   UNL     1     134.507 144.770 104.328  1.00  0.00     0.012 C 
ENDBRANCH  33  35
ENDBRANCH  32  33
ENDBRANCH   1  32
TORSDOF 8
ENDMDL
MODEL 9
REMARK VINA RESULT:    -6.165      7.403     10.888
REMARK INTER + INTRA:          -9.409
REMARK INTER:                  -8.203
REMARK INTRA:                  -1.206
REMARK UNBOUND:                -0.721
REMARK SMILES C=C(CC[C@@H](C(=O)[O-])[C@H]1[C@@H](O)C[C@]2(C)C3=C(CC[C@]12C)[C@]1(C)CC[C@@H](O)C(C)(C)[C@@H]1CC3)C(C)C
REMARK SMILES IDX 4 1 5 2 6 3 7 4 8 5 9 6 10 7 19 8 12 9 13 10 18 11 20 12
REMARK SMILES IDX 14 13 15 14 17 15 16 16 32 17 21 18 31 19 30 20 23 21 22 22
REMARK SMILES IDX 27 23 24 24 25 25 28 26 29 27 11 28 26 30 3 32 2 33 1 34
REMARK SMILES IDX 33 35 34 36 35 37
REMARK H PARENT 11 29 26 31
REMARK Flexibility Score: inf
ROOT
ATOM      1  C   UNL     1     130.585 144.226 108.886  1.00  0.00     0.014 C 
ENDROOT
BRANCH   1   2
ATOM      2  C   UNL     1     129.778 144.339 107.560  1.00  0.00     0.042 C 
BRANCH   2   3
ATOM      3  C   UNL     1     130.120 145.590 106.778  1.00  0.00     0.045 C 
ATOM      4  O   UNL     1     129.474 145.916 105.750  1.00  0.00    -0.550 OA
ATOM      5  O   UNL     1     131.227 146.348 107.145  1.00  0.00    -0.550 OA
ENDBRANCH   2   3
BRANCH   2   6
ATOM      6  C   UNL     1     129.703 143.001 106.718  1.00  0.00     0.033 C 
ATOM      7  C   UNL     1     131.084 142.365 106.487  1.00  0.00     0.119 C 
ATOM      8  C   UNL     1     128.812 141.771 107.178  1.00  0.00    -0.017 C 
ATOM      9  C   UNL     1     131.235 141.318 107.576  1.00  0.00     0.043 C 
ATOM     10  C   UNL     1     129.824 140.712 107.830  1.00  0.00    -0.003 C 
ATOM     11  C   UNL     1     128.174 141.175 105.886  1.00  0.00     0.012 C 
ATOM     12  C   UNL     1     127.623 142.180 108.101  1.00  0.00     0.013 C 
ATOM     13  C   UNL     1     129.618 140.561 109.369  1.00  0.00     0.017 C 
ATOM     14  C   UNL     1     129.763 139.267 107.229  1.00  0.00    -0.064 C 
ATOM     15  C   UNL     1     127.614 139.786 106.129  1.00  0.00     0.032 C 
ATOM     16  C   UNL     1     128.736 138.823 106.446  1.00  0.00    -0.064 C 
ATOM     17  C   UNL     1     130.878 138.305 107.576  1.00  0.00     0.032 C 
ATOM     18  C   UNL     1     128.608 137.345 105.941  1.00  0.00    -0.008 C 
ATOM     19  C   UNL     1     130.352 136.895 107.772  1.00  0.00     0.009 C 
ATOM     20  C   UNL     1     129.787 136.382 106.427  1.00  0.00     0.007 C 
ATOM     21  C   UNL     1     127.231 136.835 106.464  1.00  0.00     0.014 C 
ATOM     22  C   UNL     1     128.622 137.409 104.390  1.00  0.00     0.016 C 
ATOM     23  C   UNL     1     129.481 134.805 106.428  1.00  0.00    -0.006 C 
ATOM     24  C   UNL     1     126.980 135.350 106.245  1.00  0.00     0.033 C 
ATOM     25  C   UNL     1     128.048 134.519 106.963  1.00  0.00     0.120 C 
ATOM     26  C   UNL     1     130.476 134.028 107.337  1.00  0.00     0.014 C 
ATOM     27  C   UNL     1     129.679 134.202 105.002  1.00  0.00     0.014 C 
BRANCH   7  28
ATOM     28  O   UNL     1     132.139 143.290 106.508  1.00  0.00    -0.393 OA
ATOM     29  H   UNL     1     131.732 144.190 106.410  1.00  0.00     0.210 HD
ENDBRANCH   7  28
BRANCH  25  30
ATOM     30  O   UNL     1     127.729 133.145 106.911  1.00  0.00    -0.393 OA
ATOM     31  H   UNL     1     128.541 132.629 107.148  1.00  0.00     0.210 HD
ENDBRANCH  25  30
ENDBRANCH   2   6
ENDBRANCH   1   2
BRANCH   1  32
ATOM     32  C   UNL     1     129.921 144.968 110.066  1.00  0.00     0.031 C 
BRANCH  32  33
ATOM     33  C   UNL     1     129.138 144.056 110.987  1.00  0.00    -0.075 C 
ATOM     34  C   UNL     1     129.801 143.241 111.829  1.00  0.00     0.008 C 
BRANCH  33  35
ATOM     35  C   UNL     1     127.619 144.198 111.054  1.00  0.00     0.008 C 
ATOM     36  C   UNL     1     127.109 144.508 112.468  1.00  0.00     0.012 C 
ATOM     37  C   UNL     1     127.145 145.262 110.058  1.00  0.00     0.012 C 
ENDBRANCH  33  35
ENDBRANCH  32  33
ENDBRANCH   1  32
TORSDOF 8
ENDMDL
