MODEL 1
REMARK VINA RESULT:    -4.009      0.000      0.000
REMARK INTER + INTRA:          -9.626
REMARK INTER:                  -7.290
REMARK INTRA:                  -2.337
REMARK UNBOUND:                -2.337
REMARK SMILES CCCCCCCCCCCCCC[C@H](C)C(=O)[O-]
REMARK SMILES IDX 9 1 10 2 11 3 12 4 13 5 14 6 15 7 16 8 17 9 18 10 19 11 8 12
REMARK SMILES IDX 7 13 6 14 5 15 4 16 3 17 2 18 1 19
REMARK H PARENT
REMARK Flexibility Score: inf
ROOT
ATOM      1  C   UNL     1       3.478   8.232  -5.282  1.00  0.00     0.000 C 
ENDROOT
BRANCH   1   2
ATOM      2  C   UNL     1       2.419   9.327  -5.483  1.00  0.00     0.000 C 
BRANCH   2   3
ATOM      3  C   UNL     1       1.138   8.799  -6.145  1.00  0.00     0.000 C 
BRANCH   3   4
ATOM      4  C   UNL     1       1.108   9.147  -7.638  1.00  0.00     0.000 C 
BRANCH   4   5
ATOM      5  C   UNL     1       0.556   7.976  -8.466  1.00  0.00     0.001 C 
BRANCH   5   6
ATOM      6  C   UNL     1       0.094   6.790  -7.599  1.00  0.00     0.009 C 
BRANCH   6   7
ATOM      7  C   UNL     1       0.857   5.466  -7.840  1.00  0.00     0.032 C 
ATOM      8  C   UNL     1       0.761   4.989  -9.296  1.00  0.00     0.014 C 
BRANCH   7   9
ATOM      9  C   UNL     1       0.328   4.403  -6.918  1.00  0.00     0.044 C 
ATOM     10  O   UNL     1      -0.255   3.386  -7.380  1.00  0.00    -0.550 OA
ATOM     11  O   UNL     1       0.470   4.543  -5.543  1.00  0.00    -0.550 OA
ENDBRANCH   7   9
ENDBRANCH   6   7
ENDBRANCH   5   6
ENDBRANCH   4   5
ENDBRANCH   3   4
ENDBRANCH   2   3
ENDBRANCH   1   2
BRANCH   1  12
ATOM     12  C   UNL     1       4.486   8.160  -6.442  1.00  0.00     0.000 C 
BRANCH  12  13
ATOM     13  C   UNL     1       4.139   7.038  -7.443  1.00  0.00    -0.000 C 
BRANCH  13  14
ATOM     14  C   UNL     1       4.232   7.473  -8.916  1.00  0.00    -0.000 C 
BRANCH  14  15
ATOM     15  C   UNL     1       4.430   8.990  -9.078  1.00  0.00    -0.000 C 
BRANCH  15  16
ATOM     16  C   UNL     1       5.742   9.348  -9.797  1.00  0.00    -0.000 C 
BRANCH  16  17
ATOM     17  C   UNL     1       6.964   9.528  -8.875  1.00  0.00    -0.000 C 
BRANCH  17  18
ATOM     18  C   UNL     1       7.884   8.292  -8.811  1.00  0.00    -0.003 C 
ATOM     19  C   UNL     1       7.782   7.421 -10.064  1.00  0.00     0.004 C 
ENDBRANCH  17  18
ENDBRANCH  16  17
ENDBRANCH  15  16
ENDBRANCH  14  15
ENDBRANCH  13  14
ENDBRANCH  12  13
ENDBRANCH   1  12
TORSDOF 14
ENDMDL
MODEL 2
REMARK VINA RESULT:    -3.861     18.592     22.108
REMARK INTER + INTRA:          -9.357
REMARK INTER:                  -6.867
REMARK INTRA:                  -2.490
REMARK UNBOUND:                -2.337
REMARK SMILES CCCCCCCCCCCCCC[C@H](C)C(=O)[O-]
REMARK SMILES IDX 9 1 10 2 11 3 12 4 13 5 14 6 15 7 16 8 17 9 18 10 19 11 8 12
REMARK SMILES IDX 7 13 6 14 5 15 4 16 3 17 2 18 1 19
REMARK H PARENT
REMARK Flexibility Score: inf
ROOT
ATOM      1  C   UNL     1      -6.969  -2.635   8.006  1.00  0.00     0.000 C 
ENDROOT
BRANCH   1   2
ATOM      2  C   UNL     1      -5.745  -2.609   8.933  1.00  0.00     0.000 C 
BRANCH   2   3
ATOM      3  C   UNL     1      -5.544  -3.933   9.686  1.00  0.00     0.000 C 
BRANCH   3   4
ATOM      4  C   UNL     1      -4.190  -4.564   9.338  1.00  0.00     0.000 C 
BRANCH   4   5
ATOM      5  C   UNL     1      -4.351  -5.663   8.276  1.00  0.00     0.001 C 
BRANCH   5   6
ATOM      6  C   UNL     1      -3.773  -5.265   6.905  1.00  0.00     0.009 C 
BRANCH   6   7
ATOM      7  C   UNL     1      -4.798  -4.666   5.912  1.00  0.00     0.032 C 
ATOM      8  C   UNL     1      -5.334  -5.708   4.919  1.00  0.00     0.014 C 
BRANCH   7   9
ATOM      9  C   UNL     1      -4.168  -3.524   5.164  1.00  0.00     0.044 C 
ATOM     10  O   UNL     1      -3.146  -3.711   4.451  1.00  0.00    -0.550 OA
ATOM     11  O   UNL     1      -4.707  -2.247   5.265  1.00  0.00    -0.550 OA
ENDBRANCH   7   9
ENDBRANCH   6   7
ENDBRANCH   5   6
ENDBRANCH   4   5
ENDBRANCH   3   4
ENDBRANCH   2   3
ENDBRANCH   1   2
BRANCH   1  12
ATOM     12  C   UNL     1      -8.057  -3.613   8.484  1.00  0.00     0.000 C 
BRANCH  12  13
ATOM     13  C   UNL     1      -9.044  -3.980   7.356  1.00  0.00    -0.000 C 
BRANCH  13  14
ATOM     14  C   UNL     1      -8.809  -5.379   6.760  1.00  0.00    -0.000 C 
BRANCH  14  15
ATOM     15  C   UNL     1      -7.776  -6.198   7.551  1.00  0.00    -0.000 C 
BRANCH  15  16
ATOM     16  C   UNL     1      -8.063  -7.709   7.523  1.00  0.00    -0.000 C 
BRANCH  16  17
ATOM     17  C   UNL     1      -7.373  -8.484   6.383  1.00  0.00    -0.000 C 
BRANCH  17  18
ATOM     18  C   UNL     1      -5.942  -8.950   6.723  1.00  0.00    -0.003 C 
ATOM     19  C   UNL     1      -5.840  -9.545   8.128  1.00  0.00     0.004 C 
ENDBRANCH  17  18
ENDBRANCH  16  17
ENDBRANCH  15  16
ENDBRANCH  14  15
ENDBRANCH  13  14
ENDBRANCH  12  13
ENDBRANCH   1  12
TORSDOF 14
ENDMDL
MODEL 3
REMARK VINA RESULT:    -3.853      1.790      5.288
REMARK INTER + INTRA:          -9.343
REMARK INTER:                  -7.406
REMARK INTRA:                  -1.937
REMARK UNBOUND:                -2.337
REMARK SMILES CCCCCCCCCCCCCC[C@H](C)C(=O)[O-]
REMARK SMILES IDX 9 1 10 2 11 3 12 4 13 5 14 6 15 7 16 8 17 9 18 10 19 11 8 12
REMARK SMILES IDX 7 13 6 14 5 15 4 16 3 17 2 18 1 19
REMARK H PARENT
REMARK Flexibility Score: inf
ROOT
ATOM      1  C   UNL     1       3.237   9.762  -9.721  1.00  0.00     0.000 C 
ENDROOT
BRANCH   1   2
ATOM      2  C   UNL     1       4.509   9.941  -8.879  1.00  0.00     0.000 C 
BRANCH   2   3
ATOM      3  C   UNL     1       5.495   8.775  -9.037  1.00  0.00     0.000 C 
BRANCH   3   4
ATOM      4  C   UNL     1       5.776   8.104  -7.687  1.00  0.00     0.000 C 
BRANCH   4   5
ATOM      5  C   UNL     1       4.493   7.500  -7.094  1.00  0.00     0.001 C 
BRANCH   5   6
ATOM      6  C   UNL     1       3.894   8.353  -5.960  1.00  0.00     0.009 C 
BRANCH   6   7
ATOM      7  C   UNL     1       2.423   8.032  -5.607  1.00  0.00     0.032 C 
ATOM      8  C   UNL     1       1.626   9.283  -5.209  1.00  0.00     0.014 C 
BRANCH   7   9
ATOM      9  C   UNL     1       2.379   7.023  -4.492  1.00  0.00     0.044 C 
ATOM     10  O   UNL     1       2.332   5.790  -4.746  1.00  0.00    -0.550 OA
ATOM     11  O   UNL     1       2.379   7.450  -3.170  1.00  0.00    -0.550 OA
ENDBRANCH   7   9
ENDBRANCH   6   7
ENDBRANCH   5   6
ENDBRANCH   4   5
ENDBRANCH   3   4
ENDBRANCH   2   3
ENDBRANCH   1   2
BRANCH   1  12
ATOM     12  C   UNL     1       1.955   9.768  -8.870  1.00  0.00     0.000 C 
BRANCH  12  13
ATOM     13  C   UNL     1       0.744   9.204  -9.642  1.00  0.00    -0.000 C 
BRANCH  13  14
ATOM     14  C   UNL     1       0.017   8.066  -8.905  1.00  0.00    -0.000 C 
BRANCH  14  15
ATOM     15  C   UNL     1       0.287   6.685  -9.526  1.00  0.00    -0.000 C 
BRANCH  15  16
ATOM     16  C   UNL     1       1.724   6.191  -9.284  1.00  0.00    -0.000 C 
BRANCH  16  17
ATOM     17  C   UNL     1       1.846   4.967  -8.356  1.00  0.00    -0.000 C 
BRANCH  17  18
ATOM     18  C   UNL     1       0.498   4.284  -8.043  1.00  0.00    -0.003 C 
ATOM     19  C   UNL     1       0.207   4.227  -6.543  1.00  0.00     0.004 C 
ENDBRANCH  17  18
ENDBRANCH  16  17
ENDBRANCH  15  16
ENDBRANCH  14  15
ENDBRANCH  13  14
ENDBRANCH  12  13
ENDBRANCH   1  12
TORSDOF 14
ENDMDL
MODEL 4
REMARK VINA RESULT:    -3.816     19.218     21.504
REMARK INTER + INTRA:          -9.276
REMARK INTER:                  -7.257
REMARK INTRA:                  -2.019
REMARK UNBOUND:                -2.337
REMARK SMILES CCCCCCCCCCCCCC[C@H](C)C(=O)[O-]
REMARK SMILES IDX 9 1 10 2 11 3 12 4 13 5 14 6 15 7 16 8 17 9 18 10 19 11 8 12
REMARK SMILES IDX 7 13 6 14 5 15 4 16 3 17 2 18 1 19
REMARK H PARENT
REMARK Flexibility Score: inf
ROOT
ATOM      1  C   UNL     1      -4.833  -2.826   5.956  1.00  0.00     0.000 C 
ENDROOT
BRANCH   1   2
ATOM      2  C   UNL     1      -6.102  -3.042   6.794  1.00  0.00     0.000 C 
BRANCH   2   3
ATOM      3  C   UNL     1      -5.871  -2.803   8.294  1.00  0.00     0.000 C 
BRANCH   3   4
ATOM      4  C   UNL     1      -7.194  -2.530   9.018  1.00  0.00     0.000 C 
BRANCH   4   5
ATOM      5  C   UNL     1      -8.207  -1.854   8.081  1.00  0.00     0.001 C 
BRANCH   5   6
ATOM      6  C   UNL     1      -8.899  -0.635   8.719  1.00  0.00     0.009 C 
BRANCH   6   7
ATOM      7  C   UNL     1      -9.701   0.251   7.737  1.00  0.00     0.032 C 
ATOM      8  C   UNL     1      -9.603  -0.241   6.286  1.00  0.00     0.014 C 
BRANCH   7   9
ATOM      9  C   UNL     1      -9.217   1.672   7.829  1.00  0.00     0.044 C 
ATOM     10  O   UNL     1      -9.616   2.539   7.006  1.00  0.00    -0.550 OA
ATOM     11  O   UNL     1      -8.314   2.034   8.820  1.00  0.00    -0.550 OA
ENDBRANCH   7   9
ENDBRANCH   6   7
ENDBRANCH   5   6
ENDBRANCH   4   5
ENDBRANCH   3   4
ENDBRANCH   2   3
ENDBRANCH   1   2
BRANCH   1  12
ATOM     12  C   UNL     1      -4.325  -4.123   5.303  1.00  0.00     0.000 C 
BRANCH  12  13
ATOM     13  C   UNL     1      -3.989  -5.207   6.349  1.00  0.00    -0.000 C 
BRANCH  13  14
ATOM     14  C   UNL     1      -4.800  -6.503   6.179  1.00  0.00    -0.000 C 
BRANCH  14  15
ATOM     15  C   UNL     1      -5.936  -6.365   5.151  1.00  0.00    -0.000 C 
BRANCH  15  16
ATOM     16  C   UNL     1      -7.328  -6.315   5.801  1.00  0.00    -0.000 C 
BRANCH  16  17
ATOM     17  C   UNL     1      -7.341  -6.483   7.333  1.00  0.00    -0.000 C 
BRANCH  17  18
ATOM     18  C   UNL     1      -8.582  -5.875   8.017  1.00  0.00    -0.003 C 
ATOM     19  C   UNL     1      -9.462  -5.092   7.042  1.00  0.00     0.004 C 
ENDBRANCH  17  18
ENDBRANCH  16  17
ENDBRANCH  15  16
ENDBRANCH  14  15
ENDBRANCH  13  14
ENDBRANCH  12  13
ENDBRANCH   1  12
TORSDOF 14
ENDMDL
MODEL 5
REMARK VINA RESULT:    -3.796     19.774     22.857
REMARK INTER + INTRA:          -9.240
REMARK INTER:                  -6.620
REMARK INTRA:                  -2.621
REMARK UNBOUND:                -2.337
REMARK SMILES CCCCCCCCCCCCCC[C@H](C)C(=O)[O-]
REMARK SMILES IDX 9 1 10 2 11 3 12 4 13 5 14 6 15 7 16 8 17 9 18 10 19 11 8 12
REMARK SMILES IDX 7 13 6 14 5 15 4 16 3 17 2 18 1 19
REMARK H PARENT
REMARK Flexibility Score: inf
ROOT
ATOM      1  C   UNL     1      -4.878  -3.051   5.865  1.00  0.00     0.000 C 
ENDROOT
BRANCH   1   2
ATOM      2  C   UNL     1      -4.191  -4.398   5.591  1.00  0.00     0.000 C 
BRANCH   2   3
ATOM      3  C   UNL     1      -5.181  -5.492   5.166  1.00  0.00     0.000 C 
BRANCH   3   4
ATOM      4  C   UNL     1      -4.990  -6.763   6.002  1.00  0.00     0.000 C 
BRANCH   4   5
ATOM      5  C   UNL     1      -6.076  -7.802   5.683  1.00  0.00     0.001 C 
BRANCH   5   6
ATOM      6  C   UNL     1      -5.693  -9.229   6.121  1.00  0.00     0.009 C 
BRANCH   6   7
ATOM      7  C   UNL     1      -6.819 -10.022   6.825  1.00  0.00     0.032 C 
ATOM      8  C   UNL     1      -8.219  -9.527   6.437  1.00  0.00     0.014 C 
BRANCH   7   9
ATOM      9  C   UNL     1      -6.641  -9.935   8.316  1.00  0.00     0.044 C 
ATOM     10  O   UNL     1      -7.637 -10.000   9.085  1.00  0.00    -0.550 OA
ATOM     11  O   UNL     1      -5.371  -9.769   8.856  1.00  0.00    -0.550 OA
ENDBRANCH   7   9
ENDBRANCH   6   7
ENDBRANCH   5   6
ENDBRANCH   4   5
ENDBRANCH   3   4
ENDBRANCH   2   3
ENDBRANCH   1   2
BRANCH   1  12
ATOM     12  C   UNL     1      -5.468  -2.963   7.284  1.00  0.00     0.000 C 
BRANCH  12  13
ATOM     13  C   UNL     1      -7.008  -3.058   7.279  1.00  0.00    -0.000 C 
BRANCH  13  14
ATOM     14  C   UNL     1      -7.577  -3.923   8.417  1.00  0.00    -0.000 C 
BRANCH  14  15
ATOM     15  C   UNL     1      -7.729  -5.402   8.023  1.00  0.00    -0.000 C 
BRANCH  15  16
ATOM     16  C   UNL     1      -7.030  -6.357   9.005  1.00  0.00    -0.000 C 
BRANCH  16  17
ATOM     17  C   UNL     1      -5.864  -5.738   9.801  1.00  0.00    -0.000 C 
BRANCH  17  18
ATOM     18  C   UNL     1      -4.492  -6.368   9.489  1.00  0.00    -0.003 C 
ATOM     19  C   UNL     1      -3.434  -5.321   9.137  1.00  0.00     0.004 C 
ENDBRANCH  17  18
ENDBRANCH  16  17
ENDBRANCH  15  16
ENDBRANCH  14  15
ENDBRANCH  13  14
ENDBRANCH  12  13
ENDBRANCH   1  12
TORSDOF 14
ENDMDL
MODEL 6
REMARK VINA RESULT:    -3.764      2.629      5.490
REMARK INTER + INTRA:          -9.181
REMARK INTER:                  -6.622
REMARK INTRA:                  -2.559
REMARK UNBOUND:                -2.337
REMARK SMILES CCCCCCCCCCCCCC[C@H](C)C(=O)[O-]
REMARK SMILES IDX 9 1 10 2 11 3 12 4 13 5 14 6 15 7 16 8 17 9 18 10 19 11 8 12
REMARK SMILES IDX 7 13 6 14 5 15 4 16 3 17 2 18 1 19
REMARK H PARENT
REMARK Flexibility Score: inf
ROOT
ATOM      1  C   UNL     1       0.002   6.651  -9.367  1.00  0.00     0.000 C 
ENDROOT
BRANCH   1   2
ATOM      2  C   UNL     1       0.642   8.032  -9.572  1.00  0.00     0.000 C 
BRANCH   2   3
ATOM      3  C   UNL     1       0.586   8.905  -8.309  1.00  0.00     0.000 C 
BRANCH   3   4
ATOM      4  C   UNL     1       1.579  10.069  -8.401  1.00  0.00     0.000 C 
BRANCH   4   5
ATOM      5  C   UNL     1       2.829   9.667  -9.199  1.00  0.00     0.001 C 
BRANCH   5   6
ATOM      6  C   UNL     1       4.043   9.359  -8.303  1.00  0.00     0.009 C 
BRANCH   6   7
ATOM      7  C   UNL     1       5.067   8.368  -8.906  1.00  0.00     0.032 C 
ATOM      8  C   UNL     1       4.399   7.116  -9.493  1.00  0.00     0.014 C 
BRANCH   7   9
ATOM      9  C   UNL     1       6.064   7.969  -7.854  1.00  0.00     0.044 C 
ATOM     10  O   UNL     1       7.296   7.940  -8.116  1.00  0.00    -0.550 OA
ATOM     11  O   UNL     1       5.627   7.618  -6.582  1.00  0.00    -0.550 OA
ENDBRANCH   7   9
ENDBRANCH   6   7
ENDBRANCH   5   6
ENDBRANCH   4   5
ENDBRANCH   3   4
ENDBRANCH   2   3
ENDBRANCH   1   2
BRANCH   1  12
ATOM     12  C   UNL     1       0.949   5.497  -9.739  1.00  0.00     0.000 C 
BRANCH  12  13
ATOM     13  C   UNL     1       1.624   4.876  -8.497  1.00  0.00    -0.000 C 
BRANCH  13  14
ATOM     14  C   UNL     1       0.676   4.712  -7.297  1.00  0.00    -0.000 C 
BRANCH  14  15
ATOM     15  C   UNL     1       1.254   5.296  -5.997  1.00  0.00    -0.000 C 
BRANCH  15  16
ATOM     16  C   UNL     1       2.273   6.421  -6.248  1.00  0.00    -0.000 C 
BRANCH  16  17
ATOM     17  C   UNL     1       2.623   7.273  -5.012  1.00  0.00    -0.000 C 
BRANCH  17  18
ATOM     18  C   UNL     1       1.956   8.664  -5.004  1.00  0.00    -0.003 C 
ATOM     19  C   UNL     1       2.978   9.802  -5.002  1.00  0.00     0.004 C 
ENDBRANCH  17  18
ENDBRANCH  16  17
ENDBRANCH  15  16
ENDBRANCH  14  15
ENDBRANCH  13  14
ENDBRANCH  12  13
ENDBRANCH   1  12
TORSDOF 14
ENDMDL
MODEL 7
REMARK VINA RESULT:    -3.756      1.704      3.670
REMARK INTER + INTRA:          -9.167
REMARK INTER:                  -6.655
REMARK INTRA:                  -2.512
REMARK UNBOUND:                -2.337
REMARK SMILES CCCCCCCCCCCCCC[C@H](C)C(=O)[O-]
REMARK SMILES IDX 9 1 10 2 11 3 12 4 13 5 14 6 15 7 16 8 17 9 18 10 19 11 8 12
REMARK SMILES IDX 7 13 6 14 5 15 4 16 3 17 2 18 1 19
REMARK H PARENT
REMARK Flexibility Score: inf
ROOT
ATOM      1  C   UNL     1       0.718   5.255  -8.945  1.00  0.00     0.000 C 
ENDROOT
BRANCH   1   2
ATOM      2  C   UNL     1       0.133   6.390  -9.799  1.00  0.00     0.000 C 
BRANCH   2   3
ATOM      3  C   UNL     1      -0.260   7.617  -8.964  1.00  0.00     0.000 C 
BRANCH   3   4
ATOM      4  C   UNL     1       0.753   8.754  -9.144  1.00  0.00     0.000 C 
BRANCH   4   5
ATOM      5  C   UNL     1       1.248   9.272  -7.785  1.00  0.00     0.001 C 
BRANCH   5   6
ATOM      6  C   UNL     1       1.124   8.227  -6.660  1.00  0.00     0.009 C 
BRANCH   6   7
ATOM      7  C   UNL     1       1.727   8.654  -5.301  1.00  0.00     0.032 C 
ATOM      8  C   UNL     1       2.794   9.748  -5.447  1.00  0.00     0.014 C 
BRANCH   7   9
ATOM      9  C   UNL     1       2.316   7.455  -4.611  1.00  0.00     0.044 C 
ATOM     10  O   UNL     1       2.542   6.394  -5.252  1.00  0.00    -0.550 OA
ATOM     11  O   UNL     1       2.605   7.508  -3.252  1.00  0.00    -0.550 OA
ENDBRANCH   7   9
ENDBRANCH   6   7
ENDBRANCH   5   6
ENDBRANCH   4   5
ENDBRANCH   3   4
ENDBRANCH   2   3
ENDBRANCH   1   2
BRANCH   1  12
ATOM     12  C   UNL     1       2.256   5.280  -8.897  1.00  0.00     0.000 C 
BRANCH  12  13
ATOM     13  C   UNL     1       2.860   6.079 -10.071  1.00  0.00    -0.000 C 
BRANCH  13  14
ATOM     14  C   UNL     1       4.113   6.886  -9.690  1.00  0.00    -0.000 C 
BRANCH  14  15
ATOM     15  C   UNL     1       4.222   7.137  -8.177  1.00  0.00    -0.000 C 
BRANCH  15  16
ATOM     16  C   UNL     1       5.219   8.255  -7.826  1.00  0.00    -0.000 C 
BRANCH  16  17
ATOM     17  C   UNL     1       4.941   9.613  -8.500  1.00  0.00    -0.000 C 
BRANCH  17  18
ATOM     18  C   UNL     1       6.100  10.120  -9.382  1.00  0.00    -0.003 C 
ATOM     19  C   UNL     1       7.420   9.411  -9.076  1.00  0.00     0.004 C 
ENDBRANCH  17  18
ENDBRANCH  16  17
ENDBRANCH  15  16
ENDBRANCH  14  15
ENDBRANCH  13  14
ENDBRANCH  12  13
ENDBRANCH   1  12
TORSDOF 14
ENDMDL
MODEL 8
REMARK VINA RESULT:    -3.755     19.394     21.515
REMARK INTER + INTRA:          -9.166
REMARK INTER:                  -7.451
REMARK INTRA:                  -1.715
REMARK UNBOUND:                -2.337
REMARK SMILES CCCCCCCCCCCCCC[C@H](C)C(=O)[O-]
REMARK SMILES IDX 9 1 10 2 11 3 12 4 13 5 14 6 15 7 16 8 17 9 18 10 19 11 8 12
REMARK SMILES IDX 7 13 6 14 5 15 4 16 3 17 2 18 1 19
REMARK H PARENT
REMARK Flexibility Score: inf
ROOT
ATOM      1  C   UNL     1      -5.885  -2.980   6.582  1.00  0.00     0.000 C 
ENDROOT
BRANCH   1   2
ATOM      2  C   UNL     1      -4.569  -3.134   5.805  1.00  0.00     0.000 C 
BRANCH   2   3
ATOM      3  C   UNL     1      -4.427  -4.513   5.146  1.00  0.00     0.000 C 
BRANCH   3   4
ATOM      4  C   UNL     1      -4.101  -5.590   6.188  1.00  0.00     0.000 C 
BRANCH   4   5
ATOM      5  C   UNL     1      -5.114  -6.743   6.125  1.00  0.00     0.001 C 
BRANCH   5   6
ATOM      6  C   UNL     1      -6.364  -6.403   5.291  1.00  0.00     0.009 C 
BRANCH   6   7
ATOM      7  C   UNL     1      -7.684  -6.324   6.092  1.00  0.00     0.032 C 
ATOM      8  C   UNL     1      -7.453  -6.317   7.610  1.00  0.00     0.014 C 
BRANCH   7   9
ATOM      9  C   UNL     1      -8.573  -7.478   5.717  1.00  0.00     0.044 C 
ATOM     10  O   UNL     1      -9.614  -7.288   5.033  1.00  0.00    -0.550 OA
ATOM     11  O   UNL     1      -8.254  -8.764   6.135  1.00  0.00    -0.550 OA
ENDBRANCH   7   9
ENDBRANCH   6   7
ENDBRANCH   5   6
ENDBRANCH   4   5
ENDBRANCH   3   4
ENDBRANCH   2   3
ENDBRANCH   1   2
BRANCH   1  12
ATOM     12  C   UNL     1      -5.674  -2.947   8.106  1.00  0.00     0.000 C 
BRANCH  12  13
ATOM     13  C   UNL     1      -6.969  -2.583   8.863  1.00  0.00    -0.000 C 
BRANCH  13  14
ATOM     14  C   UNL     1      -8.215  -2.524   7.964  1.00  0.00    -0.000 C 
BRANCH  14  15
ATOM     15  C   UNL     1      -8.944  -1.172   8.042  1.00  0.00    -0.000 C 
BRANCH  15  16
ATOM     16  C   UNL     1      -9.204  -0.551   6.660  1.00  0.00    -0.000 C 
BRANCH  16  17
ATOM     17  C   UNL     1      -9.792   0.873   6.683  1.00  0.00    -0.000 C 
BRANCH  17  18
ATOM     18  C   UNL     1      -9.605   1.604   8.029  1.00  0.00    -0.003 C 
ATOM     19  C   UNL     1      -9.032   3.011   7.855  1.00  0.00     0.004 C 
ENDBRANCH  17  18
ENDBRANCH  16  17
ENDBRANCH  15  16
ENDBRANCH  14  15
ENDBRANCH  13  14
ENDBRANCH  12  13
ENDBRANCH   1  12
TORSDOF 14
ENDMDL
MODEL 9
REMARK VINA RESULT:    -3.739      3.097      5.925
REMARK INTER + INTRA:          -9.136
REMARK INTER:                  -6.678
REMARK INTRA:                  -2.458
REMARK UNBOUND:                -2.337
REMARK SMILES CCCCCCCCCCCCCC[C@H](C)C(=O)[O-]
REMARK SMILES IDX 9 1 10 2 11 3 12 4 13 5 14 6 15 7 16 8 17 9 18 10 19 11 8 12
REMARK SMILES IDX 7 13 6 14 5 15 4 16 3 17 2 18 1 19
REMARK H PARENT
REMARK Flexibility Score: inf
ROOT
ATOM      1  C   UNL     1       1.103   9.121  -6.598  1.00  0.00     0.000 C 
ENDROOT
BRANCH   1   2
ATOM      2  C   UNL     1       1.921   9.324  -5.314  1.00  0.00     0.000 C 
BRANCH   2   3
ATOM      3  C   UNL     1       3.041   8.286  -5.154  1.00  0.00     0.000 C 
BRANCH   3   4
ATOM      4  C   UNL     1       2.881   7.143  -6.164  1.00  0.00     0.000 C 
BRANCH   4   5
ATOM      5  C   UNL     1       4.051   7.119  -7.159  1.00  0.00     0.001 C 
BRANCH   5   6
ATOM      6  C   UNL     1       4.992   8.330  -7.013  1.00  0.00     0.009 C 
BRANCH   6   7
ATOM      7  C   UNL     1       5.796   8.691  -8.284  1.00  0.00     0.032 C 
ATOM      8  C   UNL     1       5.239   8.016  -9.545  1.00  0.00     0.014 C 
BRANCH   7   9
ATOM      9  C   UNL     1       7.238   8.310  -8.096  1.00  0.00     0.044 C 
ATOM     10  O   UNL     1       7.840   8.588  -7.024  1.00  0.00    -0.550 OA
ATOM     11  O   UNL     1       7.922   7.655  -9.113  1.00  0.00    -0.550 OA
ENDBRANCH   7   9
ENDBRANCH   6   7
ENDBRANCH   5   6
ENDBRANCH   4   5
ENDBRANCH   3   4
ENDBRANCH   2   3
ENDBRANCH   1   2
BRANCH   1  12
ATOM     12  C   UNL     1       1.474  10.125  -7.704  1.00  0.00     0.000 C 
BRANCH  12  13
ATOM     13  C   UNL     1       1.712   9.431  -9.062  1.00  0.00    -0.000 C 
BRANCH  13  14
ATOM     14  C   UNL     1       0.837   8.185  -9.280  1.00  0.00    -0.000 C 
BRANCH  14  15
ATOM     15  C   UNL     1       1.642   6.972  -9.779  1.00  0.00    -0.000 C 
BRANCH  15  16
ATOM     16  C   UNL     1       0.859   5.653  -9.678  1.00  0.00    -0.000 C 
BRANCH  16  17
ATOM     17  C   UNL     1       0.112   5.436  -8.347  1.00  0.00    -0.000 C 
BRANCH  17  18
ATOM     18  C   UNL     1       0.656   4.261  -7.510  1.00  0.00    -0.003 C 
ATOM     19  C   UNL     1       0.464   4.475  -6.008  1.00  0.00     0.004 C 
ENDBRANCH  17  18
ENDBRANCH  16  17
ENDBRANCH  15  16
ENDBRANCH  14  15
ENDBRANCH  13  14
ENDBRANCH  12  13
ENDBRANCH   1  12
TORSDOF 14
ENDMDL
