MODEL 1
REMARK VINA RESULT:    -5.579      0.000      0.000
REMARK INTER + INTRA:         -11.814
REMARK INTER:                  -9.820
REMARK INTRA:                  -1.995
REMARK UNBOUND:                -1.995
REMARK SMILES COc1cc(-c2[o+]c3cc(O)cc(O[C@@H]4O[C@H](CO)[C@H](O)[C@@H](O)[C@H]4O)c3cc2O[C@H]2O[C@@H](CO)[C@H](O)[C@@H](O)[C@@H]2O)ccc1O
REMARK SMILES IDX 6 1 28 2 27 3 26 4 13 5 12 6 10 7 9 8 8 9 7 10 5 11 3 12
REMARK SMILES IDX 43 13 4 14 42 15 41 16 2 17 1 18 44 19 29 21 30 22 39 23
REMARK SMILES IDX 31 24 37 25 32 26 35 27 40 28 38 30 33 32 34 33 36 35 14 37
REMARK SMILES IDX 15 38 24 39 16 40 22 41 17 42 20 43 25 44 23 46 18 48 19 49
REMARK SMILES IDX 21 51 11 53
REMARK H PARENT 44 20 40 29 38 31 34 34 36 36 25 45 23 47 19 50 21 52 11 54
REMARK Flexibility Score: inf
ROOT
ATOM      1  C   UNL     1      -7.826  31.750   5.643  1.00  0.00     0.402 A 
ATOM      2  C   UNL     1      -8.865  31.693   6.597  1.00  0.00     0.229 A 
ATOM      3  C   UNL     1      -9.514  32.871   6.952  1.00  0.00     0.079 A 
ATOM      4  C   UNL     1      -9.071  34.095   6.439  1.00  0.00     0.126 A 
ATOM      5  C   UNL     1      -9.676  35.313   6.806  1.00  0.00     0.143 A 
ATOM      6  C   UNL     1      -9.198  36.510   6.246  1.00  0.00     0.094 A 
ATOM      7  C   UNL     1      -8.113  36.497   5.361  1.00  0.00     0.128 A 
ATOM      8  C   UNL     1      -7.510  35.282   5.007  1.00  0.00     0.162 A 
ATOM      9  C   UNL     1      -7.990  34.084   5.534  1.00  0.00     0.368 A 
ATOM     10  O   UNL     1      -7.426  32.933   5.178  1.00  0.00    -0.202 OA
ENDROOT
BRANCH   1  11
ATOM     11  C   UNL     1      -7.162  30.530   5.139  1.00  0.00     0.087 A 
ATOM     12  C   UNL     1      -5.250  29.003   5.101  1.00  0.00     0.161 A 
ATOM     13  C   UNL     1      -5.928  28.186   4.175  1.00  0.00     0.157 A 
ATOM     14  C   UNL     1      -5.876  30.170   5.580  1.00  0.00     0.068 A 
ATOM     15  C   UNL     1      -7.211  28.537   3.742  1.00  0.00     0.051 A 
ATOM     16  C   UNL     1      -7.830  29.693   4.232  1.00  0.00     0.022 A 
BRANCH  12  17
ATOM     17  O   UNL     1      -3.965  28.619   5.525  1.00  0.00    -0.493 OA
ATOM     18  C   UNL     1      -3.453  28.810   6.840  1.00  0.00     0.278 C 
ENDBRANCH  12  17
BRANCH  13  19
ATOM     19  O   UNL     1      -5.346  27.018   3.683  1.00  0.00    -0.504 OA
ATOM     20  H   UNL     1      -5.776  26.466   2.953  1.00  0.00     0.293 HD
ENDBRANCH  13  19
ENDBRANCH   1  11
BRANCH   2  21
ATOM     21  O   UNL     1      -9.247  30.497   7.222  1.00  0.00    -0.452 OA
BRANCH  21  22
ATOM     22  C   UNL     1     -10.558  29.939   7.107  1.00  0.00     0.339 C 
ATOM     23  C   UNL     1     -11.048  29.379   8.481  1.00  0.00     0.214 C 
ATOM     24  O   UNL     1     -10.575  28.980   6.064  1.00  0.00    -0.332 OA
ATOM     25  C   UNL     1     -11.045  27.832   8.490  1.00  0.00     0.180 C 
ATOM     26  C   UNL     1     -11.786  28.255   6.065  1.00  0.00     0.179 C 
ATOM     27  C   UNL     1     -11.799  27.259   7.256  1.00  0.00     0.177 C 
BRANCH  23  28
ATOM     28  O   UNL     1     -12.346  29.852   8.735  1.00  0.00    -0.384 OA
ATOM     29  H   UNL     1     -12.937  29.468   8.036  1.00  0.00     0.211 HD
ENDBRANCH  23  28
BRANCH  25  30
ATOM     30  O   UNL     1      -9.716  27.375   8.467  1.00  0.00    -0.387 OA
ATOM     31  H   UNL     1      -9.704  26.465   8.863  1.00  0.00     0.211 HD
ENDBRANCH  25  30
BRANCH  26  32
ATOM     32  C   UNL     1     -11.934  27.519   4.717  1.00  0.00     0.191 C 
BRANCH  32  33
ATOM     33  O   UNL     1     -11.059  27.999   3.722  1.00  0.00    -0.394 OA
ATOM     34  H   UNL     1     -11.578  28.512   3.050  1.00  0.00     0.210 HD
ENDBRANCH  32  33
ENDBRANCH  26  32
BRANCH  27  35
ATOM     35  O   UNL     1     -13.121  26.901   7.587  1.00  0.00    -0.387 OA
ATOM     36  H   UNL     1     -13.635  26.831   6.737  1.00  0.00     0.211 HD
ENDBRANCH  27  35
ENDBRANCH  21  22
ENDBRANCH   2  21
BRANCH   5  37
ATOM     37  O   UNL     1     -10.709  35.305   7.759  1.00  0.00    -0.461 OA
BRANCH  37  38
ATOM     38  C   UNL     1     -11.980  34.669   7.588  1.00  0.00     0.339 C 
ATOM     39  C   UNL     1     -11.994  33.291   8.288  1.00  0.00     0.214 C 
ATOM     40  O   UNL     1     -13.030  35.520   8.026  1.00  0.00    -0.332 OA
ATOM     41  C   UNL     1     -12.017  33.450   9.820  1.00  0.00     0.180 C 
ATOM     42  C   UNL     1     -13.061  35.759   9.432  1.00  0.00     0.179 C 
ATOM     43  C   UNL     1     -13.125  34.442  10.249  1.00  0.00     0.177 C 
BRANCH  39  44
ATOM     44  O   UNL     1     -13.067  32.503   7.836  1.00  0.00    -0.384 OA
ATOM     45  H   UNL     1     -13.505  32.987   7.085  1.00  0.00     0.211 HD
ENDBRANCH  39  44
BRANCH  41  46
ATOM     46  O   UNL     1     -12.151  32.206  10.459  1.00  0.00    -0.387 OA
ATOM     47  H   UNL     1     -11.682  32.256  11.337  1.00  0.00     0.211 HD
ENDBRANCH  41  46
BRANCH  42  48
ATOM     48  C   UNL     1     -11.971  36.758   9.876  1.00  0.00     0.191 C 
BRANCH  48  49
ATOM     49  O   UNL     1     -12.428  37.525  10.955  1.00  0.00    -0.394 OA
ATOM     50  H   UNL     1     -12.457  36.914  11.736  1.00  0.00     0.210 HD
ENDBRANCH  48  49
ENDBRANCH  42  48
BRANCH  43  51
ATOM     51  O   UNL     1     -13.104  34.690  11.636  1.00  0.00    -0.387 OA
ATOM     52  H   UNL     1     -13.087  33.818  12.109  1.00  0.00     0.211 HD
ENDBRANCH  43  51
ENDBRANCH  37  38
ENDBRANCH   5  37
BRANCH   7  53
ATOM     53  O   UNL     1      -7.630  37.696   4.849  1.00  0.00    -0.507 OA
ATOM     54  H   UNL     1      -8.182  38.260   4.220  1.00  0.00     0.293 HD
ENDBRANCH   7  53
TORSDOF 18
ENDMDL
MODEL 2
REMARK VINA RESULT:    -5.340      1.244      2.127
REMARK INTER + INTRA:         -11.394
REMARK INTER:                 -10.602
REMARK INTRA:                  -0.792
REMARK UNBOUND:                -1.995
REMARK SMILES COc1cc(-c2[o+]c3cc(O)cc(O[C@@H]4O[C@H](CO)[C@H](O)[C@@H](O)[C@H]4O)c3cc2O[C@H]2O[C@@H](CO)[C@H](O)[C@@H](O)[C@@H]2O)ccc1O
REMARK SMILES IDX 6 1 28 2 27 3 26 4 13 5 12 6 10 7 9 8 8 9 7 10 5 11 3 12
REMARK SMILES IDX 43 13 4 14 42 15 41 16 2 17 1 18 44 19 29 21 30 22 39 23
REMARK SMILES IDX 31 24 37 25 32 26 35 27 40 28 38 30 33 32 34 33 36 35 14 37
REMARK SMILES IDX 15 38 24 39 16 40 22 41 17 42 20 43 25 44 23 46 18 48 19 49
REMARK SMILES IDX 21 51 11 53
REMARK H PARENT 44 20 40 29 38 31 34 34 36 36 25 45 23 47 19 50 21 52 11 54
REMARK Flexibility Score: inf
ROOT
ATOM      1  C   UNL     1      -7.391  32.304   6.285  1.00  0.00     0.402 A 
ATOM      2  C   UNL     1      -8.706  32.032   6.718  1.00  0.00     0.229 A 
ATOM      3  C   UNL     1      -9.647  33.055   6.684  1.00  0.00     0.079 A 
ATOM      4  C   UNL     1      -9.260  34.349   6.318  1.00  0.00     0.126 A 
ATOM      5  C   UNL     1     -10.175  35.421   6.311  1.00  0.00     0.143 A 
ATOM      6  C   UNL     1      -9.732  36.695   5.920  1.00  0.00     0.094 A 
ATOM      7  C   UNL     1      -8.392  36.906   5.573  1.00  0.00     0.128 A 
ATOM      8  C   UNL     1      -7.485  35.838   5.591  1.00  0.00     0.162 A 
ATOM      9  C   UNL     1      -7.915  34.562   5.952  1.00  0.00     0.368 A 
ATOM     10  O   UNL     1      -7.054  33.548   5.948  1.00  0.00    -0.202 OA
ENDROOT
BRANCH   1  11
ATOM     11  C   UNL     1      -6.365  31.243   6.193  1.00  0.00     0.087 A 
ATOM     12  C   UNL     1      -5.600  29.084   5.333  1.00  0.00     0.161 A 
ATOM     13  C   UNL     1      -4.382  29.247   6.022  1.00  0.00     0.157 A 
ATOM     14  C   UNL     1      -6.584  30.088   5.422  1.00  0.00     0.068 A 
ATOM     15  C   UNL     1      -4.159  30.399   6.782  1.00  0.00     0.051 A 
ATOM     16  C   UNL     1      -5.138  31.398   6.855  1.00  0.00     0.022 A 
BRANCH  12  17
ATOM     17  O   UNL     1      -5.792  27.919   4.568  1.00  0.00    -0.493 OA
ATOM     18  C   UNL     1      -6.865  26.999   4.742  1.00  0.00     0.278 C 
ENDBRANCH  12  17
BRANCH  13  19
ATOM     19  O   UNL     1      -3.380  28.280   5.953  1.00  0.00    -0.504 OA
ATOM     20  H   UNL     1      -3.095  27.858   5.079  1.00  0.00     0.293 HD
ENDBRANCH  13  19
ENDBRANCH   1  11
BRANCH   2  21
ATOM     21  O   UNL     1      -9.092  30.777   7.209  1.00  0.00    -0.452 OA
BRANCH  21  22
ATOM     22  C   UNL     1     -10.287  30.109   6.796  1.00  0.00     0.339 C 
ATOM     23  C   UNL     1     -11.056  29.531   8.028  1.00  0.00     0.214 C 
ATOM     24  O   UNL     1      -9.972  29.136   5.815  1.00  0.00    -0.332 OA
ATOM     25  C   UNL     1     -10.936  27.990   8.092  1.00  0.00     0.180 C 
ATOM     26  C   UNL     1     -11.087  28.312   5.546  1.00  0.00     0.179 C 
ATOM     27  C   UNL     1     -11.316  27.338   6.732  1.00  0.00     0.177 C 
BRANCH  23  28
ATOM     28  O   UNL     1     -12.409  29.898   7.940  1.00  0.00    -0.384 OA
ATOM     29  H   UNL     1     -12.568  30.202   7.009  1.00  0.00     0.211 HD
ENDBRANCH  23  28
BRANCH  25  30
ATOM     30  O   UNL     1      -9.611  27.645   8.411  1.00  0.00    -0.387 OA
ATOM     31  H   UNL     1      -9.440  26.738   8.047  1.00  0.00     0.211 HD
ENDBRANCH  25  30
BRANCH  26  32
ATOM     32  C   UNL     1     -10.840  27.547   4.229  1.00  0.00     0.191 C 
BRANCH  32  33
ATOM     33  O   UNL     1      -9.950  28.208   3.359  1.00  0.00    -0.394 OA
ATOM     34  H   UNL     1      -9.678  27.586   2.635  1.00  0.00     0.210 HD
ENDBRANCH  32  33
ENDBRANCH  26  32
BRANCH  27  35
ATOM     35  O   UNL     1     -12.647  26.875   6.742  1.00  0.00    -0.387 OA
ATOM     36  H   UNL     1     -13.210  27.589   7.149  1.00  0.00     0.211 HD
ENDBRANCH  27  35
ENDBRANCH  21  22
ENDBRANCH   2  21
BRANCH   5  37
ATOM     37  O   UNL     1     -11.494  35.198   6.743  1.00  0.00    -0.461 OA
BRANCH  37  38
ATOM     38  C   UNL     1     -11.863  34.674   8.022  1.00  0.00     0.339 C 
ATOM     39  C   UNL     1     -10.742  34.930   9.056  1.00  0.00     0.214 C 
ATOM     40  O   UNL     1     -13.121  35.194   8.433  1.00  0.00    -0.332 OA
ATOM     41  C   UNL     1     -10.665  36.424   9.428  1.00  0.00     0.180 C 
ATOM     42  C   UNL     1     -13.125  36.590   8.727  1.00  0.00     0.179 C 
ATOM     43  C   UNL     1     -12.066  36.968   9.796  1.00  0.00     0.177 C 
BRANCH  39  44
ATOM     44  O   UNL     1     -10.908  34.124  10.196  1.00  0.00    -0.384 OA
ATOM     45  H   UNL     1     -11.652  34.508  10.734  1.00  0.00     0.211 HD
ENDBRANCH  39  44
BRANCH  41  46
ATOM     46  O   UNL     1      -9.731  36.644  10.453  1.00  0.00    -0.387 OA
ATOM     47  H   UNL     1      -9.654  35.806  10.988  1.00  0.00     0.211 HD
ENDBRANCH  41  46
BRANCH  42  48
ATOM     48  C   UNL     1     -13.107  37.453   7.447  1.00  0.00     0.191 C 
BRANCH  48  49
ATOM     49  O   UNL     1     -11.933  38.214   7.392  1.00  0.00    -0.394 OA
ATOM     50  H   UNL     1     -11.928  38.653   6.503  1.00  0.00     0.210 HD
ENDBRANCH  48  49
ENDBRANCH  42  48
BRANCH  43  51
ATOM     51  O   UNL     1     -12.047  38.355  10.039  1.00  0.00    -0.387 OA
ATOM     52  H   UNL     1     -12.983  38.683  10.049  1.00  0.00     0.211 HD
ENDBRANCH  43  51
ENDBRANCH  37  38
ENDBRANCH   5  37
BRANCH   7  53
ATOM     53  O   UNL     1      -7.965  38.184   5.226  1.00  0.00    -0.507 OA
ATOM     54  H   UNL     1      -7.261  38.330   4.518  1.00  0.00     0.293 HD
ENDBRANCH   7  53
TORSDOF 18
ENDMDL
MODEL 3
REMARK VINA RESULT:    -5.235     14.603     19.633
REMARK INTER + INTRA:         -11.208
REMARK INTER:                  -9.211
REMARK INTRA:                  -1.997
REMARK UNBOUND:                -1.995
REMARK SMILES COc1cc(-c2[o+]c3cc(O)cc(O[C@@H]4O[C@H](CO)[C@H](O)[C@@H](O)[C@H]4O)c3cc2O[C@H]2O[C@@H](CO)[C@H](O)[C@@H](O)[C@@H]2O)ccc1O
REMARK SMILES IDX 6 1 28 2 27 3 26 4 13 5 12 6 10 7 9 8 8 9 7 10 5 11 3 12
REMARK SMILES IDX 43 13 4 14 42 15 41 16 2 17 1 18 44 19 29 21 30 22 39 23
REMARK SMILES IDX 31 24 37 25 32 26 35 27 40 28 38 30 33 32 34 33 36 35 14 37
REMARK SMILES IDX 15 38 24 39 16 40 22 41 17 42 20 43 25 44 23 46 18 48 19 49
REMARK SMILES IDX 21 51 11 53
REMARK H PARENT 44 20 40 29 38 31 34 34 36 36 25 45 23 47 19 50 21 52 11 54
REMARK Flexibility Score: inf
ROOT
ATOM      1  C   UNL     1       4.751  45.906   3.951  1.00  0.00     0.402 A 
ATOM      2  C   UNL     1       3.443  45.446   3.686  1.00  0.00     0.229 A 
ATOM      3  C   UNL     1       3.118  45.061   2.390  1.00  0.00     0.079 A 
ATOM      4  C   UNL     1       4.048  45.225   1.358  1.00  0.00     0.126 A 
ATOM      5  C   UNL     1       3.742  44.887   0.025  1.00  0.00     0.143 A 
ATOM      6  C   UNL     1       4.722  45.058  -0.967  1.00  0.00     0.094 A 
ATOM      7  C   UNL     1       5.975  45.591  -0.642  1.00  0.00     0.128 A 
ATOM      8  C   UNL     1       6.271  45.935   0.684  1.00  0.00     0.162 A 
ATOM      9  C   UNL     1       5.318  45.745   1.684  1.00  0.00     0.368 A 
ATOM     10  O   UNL     1       5.611  46.055   2.944  1.00  0.00    -0.202 OA
ENDROOT
BRANCH   1  11
ATOM     11  C   UNL     1       5.201  46.233   5.320  1.00  0.00     0.087 A 
ATOM     12  C   UNL     1       4.709  46.789   7.652  1.00  0.00     0.161 A 
ATOM     13  C   UNL     1       6.090  46.833   7.927  1.00  0.00     0.157 A 
ATOM     14  C   UNL     1       4.274  46.484   6.348  1.00  0.00     0.068 A 
ATOM     15  C   UNL     1       7.013  46.575   6.909  1.00  0.00     0.051 A 
ATOM     16  C   UNL     1       6.572  46.262   5.618  1.00  0.00     0.022 A 
BRANCH  12  17
ATOM     17  O   UNL     1       3.803  47.043   8.698  1.00  0.00    -0.493 OA
ATOM     18  C   UNL     1       2.688  46.220   9.026  1.00  0.00     0.278 C 
ENDBRANCH  12  17
BRANCH  13  19
ATOM     19  O   UNL     1       6.560  47.123   9.208  1.00  0.00    -0.504 OA
ATOM     20  H   UNL     1       7.422  47.628   9.365  1.00  0.00     0.293 HD
ENDBRANCH  13  19
ENDBRANCH   1  11
BRANCH   2  21
ATOM     21  O   UNL     1       2.452  45.389   4.676  1.00  0.00    -0.452 OA
BRANCH  21  22
ATOM     22  C   UNL     1       1.056  45.300   4.381  1.00  0.00     0.339 C 
ATOM     23  C   UNL     1       0.391  46.714   4.396  1.00  0.00     0.214 C 
ATOM     24  O   UNL     1       0.443  44.374   5.262  1.00  0.00    -0.332 OA
ATOM     25  C   UNL     1      -0.501  46.901   5.647  1.00  0.00     0.180 C 
ATOM     26  C   UNL     1      -0.963  44.422   5.146  1.00  0.00     0.179 C 
ATOM     27  C   UNL     1      -1.499  45.719   5.810  1.00  0.00     0.177 C 
BRANCH  23  28
ATOM     28  O   UNL     1      -0.383  46.872   3.234  1.00  0.00    -0.384 OA
ATOM     29  H   UNL     1      -1.238  46.391   3.387  1.00  0.00     0.211 HD
ENDBRANCH  23  28
BRANCH  25  30
ATOM     30  O   UNL     1       0.317  46.972   6.788  1.00  0.00    -0.387 OA
ATOM     31  H   UNL     1       0.333  46.071   7.202  1.00  0.00     0.211 HD
ENDBRANCH  25  30
BRANCH  26  32
ATOM     32  C   UNL     1      -1.566  43.164   5.805  1.00  0.00     0.191 C 
BRANCH  32  33
ATOM     33  O   UNL     1      -2.778  43.415   6.479  1.00  0.00    -0.394 OA
ATOM     34  H   UNL     1      -3.520  43.435   5.820  1.00  0.00     0.210 HD
ENDBRANCH  32  33
ENDBRANCH  26  32
BRANCH  27  35
ATOM     35  O   UNL     1      -2.769  46.049   5.297  1.00  0.00    -0.387 OA
ATOM     36  H   UNL     1      -3.444  45.516   5.799  1.00  0.00     0.211 HD
ENDBRANCH  27  35
ENDBRANCH  21  22
ENDBRANCH   2  21
BRANCH   5  37
ATOM     37  O   UNL     1       2.449  44.431  -0.286  1.00  0.00    -0.461 OA
BRANCH  37  38
ATOM     38  C   UNL     1       2.101  43.684  -1.456  1.00  0.00     0.339 C 
ATOM     39  C   UNL     1       1.284  42.429  -1.074  1.00  0.00     0.214 C 
ATOM     40  O   UNL     1       1.433  44.511  -2.399  1.00  0.00    -0.332 OA
ATOM     41  C   UNL     1      -0.135  42.813  -0.612  1.00  0.00     0.180 C 
ATOM     42  C   UNL     1       0.139  44.954  -1.996  1.00  0.00     0.179 C 
ATOM     43  C   UNL     1      -0.798  43.773  -1.629  1.00  0.00     0.177 C 
BRANCH  39  44
ATOM     44  O   UNL     1       1.247  41.504  -2.133  1.00  0.00    -0.384 OA
ATOM     45  H   UNL     1       0.963  41.992  -2.953  1.00  0.00     0.211 HD
ENDBRANCH  39  44
BRANCH  41  46
ATOM     46  O   UNL     1      -0.920  41.673  -0.379  1.00  0.00    -0.387 OA
ATOM     47  H   UNL     1      -1.085  41.225  -1.255  1.00  0.00     0.211 HD
ENDBRANCH  41  46
BRANCH  42  48
ATOM     48  C   UNL     1       0.213  46.087  -0.949  1.00  0.00     0.191 C 
BRANCH  48  49
ATOM     49  O   UNL     1       0.091  45.560   0.343  1.00  0.00    -0.394 OA
ATOM     50  H   UNL     1       0.582  44.699   0.339  1.00  0.00     0.210 HD
ENDBRANCH  48  49
ENDBRANCH  42  48
BRANCH  43  51
ATOM     51  O   UNL     1      -2.056  44.227  -1.185  1.00  0.00    -0.387 OA
ATOM     52  H   UNL     1      -2.715  43.497  -1.313  1.00  0.00     0.211 HD
ENDBRANCH  43  51
ENDBRANCH  37  38
ENDBRANCH   5  37
BRANCH   7  53
ATOM     53  O   UNL     1       6.918  45.790  -1.645  1.00  0.00    -0.507 OA
ATOM     54  H   UNL     1       7.697  45.160  -1.769  1.00  0.00     0.293 HD
ENDBRANCH   7  53
TORSDOF 18
ENDMDL
MODEL 4
REMARK VINA RESULT:    -5.209     14.117     19.418
REMARK INTER + INTRA:         -11.163
REMARK INTER:                  -8.829
REMARK INTRA:                  -2.334
REMARK UNBOUND:                -1.995
REMARK SMILES COc1cc(-c2[o+]c3cc(O)cc(O[C@@H]4O[C@H](CO)[C@H](O)[C@@H](O)[C@H]4O)c3cc2O[C@H]2O[C@@H](CO)[C@H](O)[C@@H](O)[C@@H]2O)ccc1O
REMARK SMILES IDX 6 1 28 2 27 3 26 4 13 5 12 6 10 7 9 8 8 9 7 10 5 11 3 12
REMARK SMILES IDX 43 13 4 14 42 15 41 16 2 17 1 18 44 19 29 21 30 22 39 23
REMARK SMILES IDX 31 24 37 25 32 26 35 27 40 28 38 30 33 32 34 33 36 35 14 37
REMARK SMILES IDX 15 38 24 39 16 40 22 41 17 42 20 43 25 44 23 46 18 48 19 49
REMARK SMILES IDX 21 51 11 53
REMARK H PARENT 44 20 40 29 38 31 34 34 36 36 25 45 23 47 19 50 21 52 11 54
REMARK Flexibility Score: inf
ROOT
ATOM      1  C   UNL     1       1.628  45.848   4.087  1.00  0.00     0.402 A 
ATOM      2  C   UNL     1       1.995  45.629   2.742  1.00  0.00     0.229 A 
ATOM      3  C   UNL     1       3.343  45.501   2.427  1.00  0.00     0.079 A 
ATOM      4  C   UNL     1       4.313  45.685   3.418  1.00  0.00     0.126 A 
ATOM      5  C   UNL     1       5.689  45.604   3.130  1.00  0.00     0.143 A 
ATOM      6  C   UNL     1       6.617  45.783   4.170  1.00  0.00     0.094 A 
ATOM      7  C   UNL     1       6.181  46.072   5.469  1.00  0.00     0.128 A 
ATOM      8  C   UNL     1       4.811  46.160   5.747  1.00  0.00     0.162 A 
ATOM      9  C   UNL     1       3.877  45.958   4.731  1.00  0.00     0.368 A 
ATOM     10  O   UNL     1       2.577  46.025   5.006  1.00  0.00    -0.202 OA
ENDROOT
BRANCH   1  11
ATOM     11  C   UNL     1       0.214  45.890   4.514  1.00  0.00     0.087 A 
ATOM     12  C   UNL     1      -1.745  44.818   5.514  1.00  0.00     0.161 A 
ATOM     13  C   UNL     1      -2.480  46.007   5.335  1.00  0.00     0.157 A 
ATOM     14  C   UNL     1      -0.399  44.770   5.104  1.00  0.00     0.068 A 
ATOM     15  C   UNL     1      -1.871  47.124   4.757  1.00  0.00     0.051 A 
ATOM     16  C   UNL     1      -0.528  47.071   4.363  1.00  0.00     0.022 A 
BRANCH  12  17
ATOM     17  O   UNL     1      -2.383  43.713   6.107  1.00  0.00    -0.493 OA
ATOM     18  C   UNL     1      -2.043  42.352   5.866  1.00  0.00     0.278 C 
ENDBRANCH  12  17
BRANCH  13  19
ATOM     19  O   UNL     1      -3.813  46.097   5.736  1.00  0.00    -0.504 OA
ATOM     20  H   UNL     1      -4.575  45.777   5.153  1.00  0.00     0.293 HD
ENDBRANCH  13  19
ENDBRANCH   1  11
BRANCH   2  21
ATOM     21  O   UNL     1       1.050  45.565   1.707  1.00  0.00    -0.452 OA
BRANCH  21  22
ATOM     22  C   UNL     1       0.083  44.518   1.594  1.00  0.00     0.339 C 
ATOM     23  C   UNL     1       0.714  43.135   1.959  1.00  0.00     0.214 C 
ATOM     24  O   UNL     1      -0.505  44.553   0.305  1.00  0.00    -0.332 OA
ATOM     25  C   UNL     1       0.918  42.262   0.698  1.00  0.00     0.180 C 
ATOM     26  C   UNL     1      -1.300  43.407   0.083  1.00  0.00     0.179 C 
ATOM     27  C   UNL     1      -0.387  42.172  -0.143  1.00  0.00     0.177 C 
BRANCH  23  28
ATOM     28  O   UNL     1      -0.128  42.470   2.865  1.00  0.00    -0.384 OA
ATOM     29  H   UNL     1      -0.542  43.165   3.441  1.00  0.00     0.211 HD
ENDBRANCH  23  28
BRANCH  25  30
ATOM     30  O   UNL     1       1.935  42.826  -0.092  1.00  0.00    -0.387 OA
ATOM     31  H   UNL     1       1.639  42.784  -1.037  1.00  0.00     0.211 HD
ENDBRANCH  25  30
BRANCH  26  32
ATOM     32  C   UNL     1      -2.216  43.659  -1.133  1.00  0.00     0.191 C 
BRANCH  32  33
ATOM     33  O   UNL     1      -3.557  43.288  -0.906  1.00  0.00    -0.394 OA
ATOM     34  H   UNL     1      -3.939  42.915  -1.742  1.00  0.00     0.210 HD
ENDBRANCH  32  33
ENDBRANCH  26  32
BRANCH  27  35
ATOM     35  O   UNL     1      -1.089  40.982   0.129  1.00  0.00    -0.387 OA
ATOM     36  H   UNL     1      -0.445  40.337   0.529  1.00  0.00     0.211 HD
ENDBRANCH  27  35
ENDBRANCH  21  22
ENDBRANCH   2  21
BRANCH   5  37
ATOM     37  O   UNL     1       6.100  45.395   1.802  1.00  0.00    -0.461 OA
BRANCH  37  38
ATOM     38  C   UNL     1       6.884  44.286   1.350  1.00  0.00     0.339 C 
ATOM     39  C   UNL     1       6.219  42.951   1.757  1.00  0.00     0.214 C 
ATOM     40  O   UNL     1       7.125  44.378  -0.047  1.00  0.00    -0.332 OA
ATOM     41  C   UNL     1       4.947  42.693   0.926  1.00  0.00     0.180 C 
ATOM     42  C   UNL     1       5.969  44.214  -0.866  1.00  0.00     0.179 C 
ATOM     43  C   UNL     1       5.234  42.877  -0.584  1.00  0.00     0.177 C 
BRANCH  39  44
ATOM     44  O   UNL     1       7.125  41.881   1.657  1.00  0.00    -0.384 OA
ATOM     45  H   UNL     1       6.667  41.138   1.177  1.00  0.00     0.211 HD
ENDBRANCH  39  44
BRANCH  41  46
ATOM     46  O   UNL     1       4.405  41.428   1.206  1.00  0.00    -0.387 OA
ATOM     47  H   UNL     1       3.466  41.412   0.873  1.00  0.00     0.211 HD
ENDBRANCH  41  46
BRANCH  42  48
ATOM     48  C   UNL     1       5.073  45.472  -0.866  1.00  0.00     0.191 C 
BRANCH  48  49
ATOM     49  O   UNL     1       5.675  46.495  -1.610  1.00  0.00    -0.394 OA
ATOM     50  H   UNL     1       6.522  46.119  -1.962  1.00  0.00     0.210 HD
ENDBRANCH  48  49
ENDBRANCH  42  48
BRANCH  43  51
ATOM     51  O   UNL     1       4.067  42.751  -1.363  1.00  0.00    -0.387 OA
ATOM     52  H   UNL     1       3.281  42.882  -0.772  1.00  0.00     0.211 HD
ENDBRANCH  43  51
ENDBRANCH  37  38
ENDBRANCH   5  37
BRANCH   7  53
ATOM     53  O   UNL     1       7.117  46.283   6.476  1.00  0.00    -0.507 OA
ATOM     54  H   UNL     1       6.906  46.082   7.442  1.00  0.00     0.293 HD
ENDBRANCH   7  53
TORSDOF 18
ENDMDL
MODEL 5
REMARK VINA RESULT:    -4.778      1.997      7.730
REMARK INTER + INTRA:         -10.404
REMARK INTER:                  -9.987
REMARK INTRA:                  -0.418
REMARK UNBOUND:                -1.995
REMARK SMILES COc1cc(-c2[o+]c3cc(O)cc(O[C@@H]4O[C@H](CO)[C@H](O)[C@@H](O)[C@H]4O)c3cc2O[C@H]2O[C@@H](CO)[C@H](O)[C@@H](O)[C@@H]2O)ccc1O
REMARK SMILES IDX 6 1 28 2 27 3 26 4 13 5 12 6 10 7 9 8 8 9 7 10 5 11 3 12
REMARK SMILES IDX 43 13 4 14 42 15 41 16 2 17 1 18 44 19 29 21 30 22 39 23
REMARK SMILES IDX 31 24 37 25 32 26 35 27 40 28 38 30 33 32 34 33 36 35 14 37
REMARK SMILES IDX 15 38 24 39 16 40 22 41 17 42 20 43 25 44 23 46 18 48 19 49
REMARK SMILES IDX 21 51 11 53
REMARK H PARENT 44 20 40 29 38 31 34 34 36 36 25 45 23 47 19 50 21 52 11 54
REMARK Flexibility Score: inf
ROOT
ATOM      1  C   UNL     1      -9.674  34.821   6.800  1.00  0.00     0.402 A 
ATOM      2  C   UNL     1     -10.514  33.738   7.139  1.00  0.00     0.229 A 
ATOM      3  C   UNL     1      -9.969  32.461   7.201  1.00  0.00     0.079 A 
ATOM      4  C   UNL     1      -8.635  32.252   6.835  1.00  0.00     0.126 A 
ATOM      5  C   UNL     1      -8.058  30.967   6.844  1.00  0.00     0.143 A 
ATOM      6  C   UNL     1      -6.709  30.820   6.481  1.00  0.00     0.094 A 
ATOM      7  C   UNL     1      -5.955  31.931   6.083  1.00  0.00     0.128 A 
ATOM      8  C   UNL     1      -6.538  33.205   6.068  1.00  0.00     0.162 A 
ATOM      9  C   UNL     1      -7.868  33.371   6.450  1.00  0.00     0.368 A 
ATOM     10  O   UNL     1      -8.409  34.586   6.452  1.00  0.00    -0.202 OA
ENDROOT
BRANCH   1  11
ATOM     11  C   UNL     1     -10.156  36.218   6.817  1.00  0.00     0.087 A 
ATOM     12  C   UNL     1     -11.332  38.055   7.925  1.00  0.00     0.161 A 
ATOM     13  C   UNL     1     -11.045  38.893   6.829  1.00  0.00     0.157 A 
ATOM     14  C   UNL     1     -10.881  36.722   7.911  1.00  0.00     0.068 A 
ATOM     15  C   UNL     1     -10.317  38.397   5.743  1.00  0.00     0.051 A 
ATOM     16  C   UNL     1      -9.862  37.073   5.744  1.00  0.00     0.022 A 
BRANCH  12  17
ATOM     17  O   UNL     1     -12.058  38.585   9.007  1.00  0.00    -0.493 OA
ATOM     18  C   UNL     1     -12.039  38.064  10.332  1.00  0.00     0.278 C 
ENDBRANCH  12  17
BRANCH  13  19
ATOM     19  O   UNL     1     -11.467  40.222   6.808  1.00  0.00    -0.504 OA
ATOM     20  H   UNL     1     -11.515  40.787   7.645  1.00  0.00     0.293 HD
ENDBRANCH  13  19
ENDBRANCH   1  11
BRANCH   2  21
ATOM     21  O   UNL     1     -11.884  33.901   7.389  1.00  0.00    -0.452 OA
BRANCH  21  22
ATOM     22  C   UNL     1     -12.535  33.381   8.551  1.00  0.00     0.339 C 
ATOM     23  C   UNL     1     -12.022  34.095   9.844  1.00  0.00     0.214 C 
ATOM     24  O   UNL     1     -12.388  31.971   8.585  1.00  0.00    -0.332 OA
ATOM     25  C   UNL     1     -11.110  33.163  10.675  1.00  0.00     0.180 C 
ATOM     26  C   UNL     1     -12.825  31.449   9.822  1.00  0.00     0.179 C 
ATOM     27  C   UNL     1     -11.789  31.787  10.928  1.00  0.00     0.177 C 
BRANCH  23  28
ATOM     28  O   UNL     1     -13.125  34.493  10.618  1.00  0.00    -0.384 OA
ATOM     29  H   UNL     1     -13.615  33.668  10.870  1.00  0.00     0.211 HD
ENDBRANCH  23  28
BRANCH  25  30
ATOM     30  O   UNL     1      -9.905  32.959   9.981  1.00  0.00    -0.387 OA
ATOM     31  H   UNL     1      -9.230  32.645  10.636  1.00  0.00     0.211 HD
ENDBRANCH  25  30
BRANCH  26  32
ATOM     32  C   UNL     1     -13.021  29.924   9.683  1.00  0.00     0.191 C 
BRANCH  32  33
ATOM     33  O   UNL     1     -12.056  29.173  10.384  1.00  0.00    -0.394 OA
ATOM     34  H   UNL     1     -12.275  29.181  11.351  1.00  0.00     0.210 HD
ENDBRANCH  32  33
ENDBRANCH  26  32
BRANCH  27  35
ATOM     35  O   UNL     1     -12.391  31.740  12.200  1.00  0.00    -0.387 OA
ATOM     36  H   UNL     1     -11.673  31.560  12.867  1.00  0.00     0.211 HD
ENDBRANCH  27  35
ENDBRANCH  21  22
ENDBRANCH   2  21
BRANCH   5  37
ATOM     37  O   UNL     1      -8.860  29.858   7.168  1.00  0.00    -0.461 OA
BRANCH  37  38
ATOM     38  C   UNL     1      -9.754  29.199   6.266  1.00  0.00     0.339 C 
ATOM     39  C   UNL     1      -9.450  29.607   4.807  1.00  0.00     0.214 C 
ATOM     40  O   UNL     1      -9.719  27.792   6.464  1.00  0.00    -0.332 OA
ATOM     41  C   UNL     1      -8.127  28.982   4.323  1.00  0.00     0.180 C 
ATOM     42  C   UNL     1      -8.492  27.166   6.096  1.00  0.00     0.179 C 
ATOM     43  C   UNL     1      -8.099  27.464   4.625  1.00  0.00     0.177 C 
BRANCH  39  44
ATOM     44  O   UNL     1     -10.517  29.277   3.953  1.00  0.00    -0.384 OA
ATOM     45  H   UNL     1     -10.133  28.877   3.127  1.00  0.00     0.211 HD
ENDBRANCH  39  44
BRANCH  41  46
ATOM     46  O   UNL     1      -7.905  29.250   2.963  1.00  0.00    -0.387 OA
ATOM     47  H   UNL     1      -7.887  28.381   2.474  1.00  0.00     0.211 HD
ENDBRANCH  41  46
BRANCH  42  48
ATOM     48  C   UNL     1      -7.379  27.411   7.139  1.00  0.00     0.191 C 
BRANCH  48  49
ATOM     49  O   UNL     1      -7.881  27.229   8.433  1.00  0.00    -0.394 OA
ATOM     50  H   UNL     1      -7.700  28.073   8.922  1.00  0.00     0.210 HD
ENDBRANCH  48  49
ENDBRANCH  42  48
BRANCH  43  51
ATOM     51  O   UNL     1      -6.860  26.881   4.291  1.00  0.00    -0.387 OA
ATOM     52  H   UNL     1      -6.977  26.356   3.457  1.00  0.00     0.211 HD
ENDBRANCH  43  51
ENDBRANCH  37  38
ENDBRANCH   5  37
BRANCH   7  53
ATOM     53  O   UNL     1      -4.632  31.759   5.691  1.00  0.00    -0.507 OA
ATOM     54  H   UNL     1      -4.161  30.873   5.799  1.00  0.00     0.293 HD
ENDBRANCH   7  53
TORSDOF 18
ENDMDL
MODEL 6
REMARK VINA RESULT:    -4.611     14.739     19.564
REMARK INTER + INTRA:         -10.109
REMARK INTER:                  -8.114
REMARK INTRA:                  -1.995
REMARK UNBOUND:                -1.995
REMARK SMILES COc1cc(-c2[o+]c3cc(O)cc(O[C@@H]4O[C@H](CO)[C@H](O)[C@@H](O)[C@H]4O)c3cc2O[C@H]2O[C@@H](CO)[C@H](O)[C@@H](O)[C@@H]2O)ccc1O
REMARK SMILES IDX 6 1 28 2 27 3 26 4 13 5 12 6 10 7 9 8 8 9 7 10 5 11 3 12
REMARK SMILES IDX 43 13 4 14 42 15 41 16 2 17 1 18 44 19 29 21 30 22 39 23
REMARK SMILES IDX 31 24 37 25 32 26 35 27 40 28 38 30 33 32 34 33 36 35 14 37
REMARK SMILES IDX 15 38 24 39 16 40 22 41 17 42 20 43 25 44 23 46 18 48 19 49
REMARK SMILES IDX 21 51 11 53
REMARK H PARENT 44 20 40 29 38 31 34 34 36 36 25 45 23 47 19 50 21 52 11 54
REMARK Flexibility Score: inf
ROOT
ATOM      1  C   UNL     1       0.936  45.587   4.790  1.00  0.00     0.402 A 
ATOM      2  C   UNL     1       1.381  45.468   3.456  1.00  0.00     0.229 A 
ATOM      3  C   UNL     1       2.736  45.620   3.185  1.00  0.00     0.079 A 
ATOM      4  C   UNL     1       3.617  45.981   4.210  1.00  0.00     0.126 A 
ATOM      5  C   UNL     1       4.990  46.186   3.968  1.00  0.00     0.143 A 
ATOM      6  C   UNL     1       5.829  46.532   5.040  1.00  0.00     0.094 A 
ATOM      7  C   UNL     1       5.305  46.707   6.326  1.00  0.00     0.128 A 
ATOM      8  C   UNL     1       3.937  46.511   6.558  1.00  0.00     0.162 A 
ATOM      9  C   UNL     1       3.095  46.141   5.510  1.00  0.00     0.368 A 
ATOM     10  O   UNL     1       1.801  45.938   5.742  1.00  0.00    -0.202 OA
ENDROOT
BRANCH   1  11
ATOM     11  C   UNL     1      -0.470  45.335   5.170  1.00  0.00     0.087 A 
ATOM     12  C   UNL     1      -2.770  46.113   5.474  1.00  0.00     0.161 A 
ATOM     13  C   UNL     1      -3.148  44.819   5.882  1.00  0.00     0.157 A 
ATOM     14  C   UNL     1      -1.430  46.361   5.117  1.00  0.00     0.068 A 
ATOM     15  C   UNL     1      -2.197  43.795   5.927  1.00  0.00     0.051 A 
ATOM     16  C   UNL     1      -0.870  44.048   5.559  1.00  0.00     0.022 A 
BRANCH  12  17
ATOM     17  O   UNL     1      -3.751  47.121   5.429  1.00  0.00    -0.493 OA
ATOM     18  C   UNL     1      -5.140  46.893   5.219  1.00  0.00     0.278 C 
ENDBRANCH  12  17
BRANCH  13  19
ATOM     19  O   UNL     1      -4.466  44.532   6.236  1.00  0.00    -0.504 OA
ATOM     20  H   UNL     1      -4.709  43.743   6.820  1.00  0.00     0.293 HD
ENDBRANCH  13  19
ENDBRANCH   1  11
BRANCH   2  21
ATOM     21  O   UNL     1       0.502  45.229   2.390  1.00  0.00    -0.452 OA
BRANCH  21  22
ATOM     22  C   UNL     1       0.345  43.947   1.777  1.00  0.00     0.339 C 
ATOM     23  C   UNL     1       1.703  43.438   1.194  1.00  0.00     0.214 C 
ATOM     24  O   UNL     1      -0.698  44.004   0.820  1.00  0.00    -0.332 OA
ATOM     25  C   UNL     1       1.711  43.506  -0.351  1.00  0.00     0.180 C 
ATOM     26  C   UNL     1      -0.736  42.825   0.044  1.00  0.00     0.179 C 
ATOM     27  C   UNL     1       0.454  42.816  -0.953  1.00  0.00     0.177 C 
BRANCH  23  28
ATOM     28  O   UNL     1       1.916  42.113   1.612  1.00  0.00    -0.384 OA
ATOM     29  H   UNL     1       2.857  42.054   1.919  1.00  0.00     0.211 HD
ENDBRANCH  23  28
BRANCH  25  30
ATOM     30  O   UNL     1       1.731  44.853  -0.752  1.00  0.00    -0.387 OA
ATOM     31  H   UNL     1       2.137  45.380  -0.017  1.00  0.00     0.211 HD
ENDBRANCH  25  30
BRANCH  26  32
ATOM     32  C   UNL     1      -2.089  42.751  -0.695  1.00  0.00     0.191 C 
BRANCH  32  33
ATOM     33  O   UNL     1      -2.392  43.922  -1.418  1.00  0.00    -0.394 OA
ATOM     34  H   UNL     1      -1.786  44.652  -1.128  1.00  0.00     0.210 HD
ENDBRANCH  32  33
ENDBRANCH  26  32
BRANCH  27  35
ATOM     35  O   UNL     1       0.742  41.500  -1.367  1.00  0.00    -0.387 OA
ATOM     36  H   UNL     1       0.038  41.228  -2.016  1.00  0.00     0.211 HD
ENDBRANCH  27  35
ENDBRANCH  21  22
ENDBRANCH   2  21
BRANCH   5  37
ATOM     37  O   UNL     1       5.476  46.085   2.652  1.00  0.00    -0.461 OA
BRANCH  37  38
ATOM     38  C   UNL     1       6.540  45.224   2.234  1.00  0.00     0.339 C 
ATOM     39  C   UNL     1       6.045  43.764   2.126  1.00  0.00     0.214 C 
ATOM     40  O   UNL     1       7.124  45.699   1.028  1.00  0.00    -0.332 OA
ATOM     41  C   UNL     1       5.111  43.586   0.913  1.00  0.00     0.180 C 
ATOM     42  C   UNL     1       6.279  45.622  -0.118  1.00  0.00     0.179 C 
ATOM     43  C   UNL     1       5.752  44.183  -0.362  1.00  0.00     0.177 C 
BRANCH  39  44
ATOM     44  O   UNL     1       7.125  42.864   2.080  1.00  0.00    -0.384 OA
ATOM     45  H   UNL     1       6.986  42.187   2.796  1.00  0.00     0.211 HD
ENDBRANCH  39  44
BRANCH  41  46
ATOM     46  O   UNL     1       4.754  42.239   0.740  1.00  0.00    -0.387 OA
ATOM     47  H   UNL     1       3.805  42.206   0.438  1.00  0.00     0.211 HD
ENDBRANCH  41  46
BRANCH  42  48
ATOM     48  C   UNL     1       5.202  46.728  -0.121  1.00  0.00     0.191 C 
BRANCH  48  49
ATOM     49  O   UNL     1       3.944  46.180   0.158  1.00  0.00    -0.394 OA
ATOM     50  H   UNL     1       4.046  45.667   1.001  1.00  0.00     0.210 HD
ENDBRANCH  48  49
ENDBRANCH  42  48
BRANCH  43  51
ATOM     51  O   UNL     1       4.879  44.131  -1.467  1.00  0.00    -0.387 OA
ATOM     52  H   UNL     1       4.883  43.205  -1.824  1.00  0.00     0.211 HD
ENDBRANCH  43  51
ENDBRANCH  37  38
ENDBRANCH   5  37
BRANCH   7  53
ATOM     53  O   UNL     1       6.146  47.088   7.365  1.00  0.00    -0.507 OA
ATOM     54  H   UNL     1       6.995  46.583   7.568  1.00  0.00     0.293 HD
ENDBRANCH   7  53
TORSDOF 18
ENDMDL
MODEL 7
REMARK VINA RESULT:    -4.507      2.393      9.256
REMARK INTER + INTRA:          -9.927
REMARK INTER:                  -9.076
REMARK INTRA:                  -0.851
REMARK UNBOUND:                -1.995
REMARK SMILES COc1cc(-c2[o+]c3cc(O)cc(O[C@@H]4O[C@H](CO)[C@H](O)[C@@H](O)[C@H]4O)c3cc2O[C@H]2O[C@@H](CO)[C@H](O)[C@@H](O)[C@@H]2O)ccc1O
REMARK SMILES IDX 6 1 28 2 27 3 26 4 13 5 12 6 10 7 9 8 8 9 7 10 5 11 3 12
REMARK SMILES IDX 43 13 4 14 42 15 41 16 2 17 1 18 44 19 29 21 30 22 39 23
REMARK SMILES IDX 31 24 37 25 32 26 35 27 40 28 38 30 33 32 34 33 36 35 14 37
REMARK SMILES IDX 15 38 24 39 16 40 22 41 17 42 20 43 25 44 23 46 18 48 19 49
REMARK SMILES IDX 21 51 11 53
REMARK H PARENT 44 20 40 29 38 31 34 34 36 36 25 45 23 47 19 50 21 52 11 54
REMARK Flexibility Score: inf
ROOT
ATOM      1  C   UNL     1     -12.389  34.942   9.432  1.00  0.00     0.402 A 
ATOM      2  C   UNL     1     -11.921  34.356   8.236  1.00  0.00     0.229 A 
ATOM      3  C   UNL     1     -11.867  32.969   8.146  1.00  0.00     0.079 A 
ATOM      4  C   UNL     1     -12.181  32.184   9.260  1.00  0.00     0.126 A 
ATOM      5  C   UNL     1     -12.099  30.778   9.221  1.00  0.00     0.143 A 
ATOM      6  C   UNL     1     -12.442  30.041  10.367  1.00  0.00     0.094 A 
ATOM      7  C   UNL     1     -12.827  30.694  11.543  1.00  0.00     0.128 A 
ATOM      8  C   UNL     1     -12.898  32.093  11.578  1.00  0.00     0.162 A 
ATOM      9  C   UNL     1     -12.587  32.838  10.441  1.00  0.00     0.368 A 
ATOM     10  O   UNL     1     -12.674  34.165  10.476  1.00  0.00    -0.202 OA
ENDROOT
BRANCH   1  11
ATOM     11  C   UNL     1     -12.573  36.402   9.565  1.00  0.00     0.087 A 
ATOM     12  C   UNL     1     -12.937  38.606   8.567  1.00  0.00     0.161 A 
ATOM     13  C   UNL     1     -12.941  39.182   9.852  1.00  0.00     0.157 A 
ATOM     14  C   UNL     1     -12.757  37.216   8.433  1.00  0.00     0.068 A 
ATOM     15  C   UNL     1     -12.766  38.374  10.980  1.00  0.00     0.051 A 
ATOM     16  C   UNL     1     -12.599  36.991  10.838  1.00  0.00     0.022 A 
BRANCH  12  17
ATOM     17  O   UNL     1     -13.125  39.443   7.452  1.00  0.00    -0.493 OA
ATOM     18  C   UNL     1     -12.093  40.183   6.807  1.00  0.00     0.278 C 
ENDBRANCH  12  17
BRANCH  13  19
ATOM     19  O   UNL     1     -13.125  40.554  10.027  1.00  0.00    -0.504 OA
ATOM     20  H   UNL     1     -13.812  40.930  10.667  1.00  0.00     0.293 HD
ENDBRANCH  13  19
ENDBRANCH   1  11
BRANCH   2  21
ATOM     21  O   UNL     1     -11.481  35.121   7.147  1.00  0.00    -0.452 OA
BRANCH  21  22
ATOM     22  C   UNL     1     -10.156  35.649   7.046  1.00  0.00     0.339 C 
ATOM     23  C   UNL     1     -10.187  37.196   6.824  1.00  0.00     0.214 C 
ATOM     24  O   UNL     1      -9.440  34.946   6.045  1.00  0.00    -0.332 OA
ATOM     25  C   UNL     1      -9.796  37.562   5.373  1.00  0.00     0.180 C 
ATOM     26  C   UNL     1      -8.209  35.579   5.767  1.00  0.00     0.179 C 
ATOM     27  C   UNL     1      -8.460  36.881   4.960  1.00  0.00     0.177 C 
BRANCH  23  28
ATOM     28  O   UNL     1      -9.300  37.809   7.724  1.00  0.00    -0.384 OA
ATOM     29  H   UNL     1      -9.418  38.790   7.625  1.00  0.00     0.211 HD
ENDBRANCH  23  28
BRANCH  25  30
ATOM     30  O   UNL     1     -10.814  37.141   4.501  1.00  0.00    -0.387 OA
ATOM     31  H   UNL     1     -10.397  36.951   3.621  1.00  0.00     0.211 HD
ENDBRANCH  25  30
BRANCH  26  32
ATOM     32  C   UNL     1      -7.305  34.600   4.989  1.00  0.00     0.191 C 
BRANCH  32  33
ATOM     33  O   UNL     1      -6.168  34.194   5.716  1.00  0.00    -0.394 OA
ATOM     34  H   UNL     1      -6.028  33.220   5.587  1.00  0.00     0.210 HD
ENDBRANCH  32  33
ENDBRANCH  26  32
BRANCH  27  35
ATOM     35  O   UNL     1      -7.372  37.765   5.096  1.00  0.00    -0.387 OA
ATOM     36  H   UNL     1      -7.489  38.256   5.954  1.00  0.00     0.211 HD
ENDBRANCH  27  35
ENDBRANCH  21  22
ENDBRANCH   2  21
BRANCH   5  37
ATOM     37  O   UNL     1     -11.631  30.151   8.053  1.00  0.00    -0.461 OA
BRANCH  37  38
ATOM     38  C   UNL     1     -11.537  28.736   7.861  1.00  0.00     0.339 C 
ATOM     39  C   UNL     1     -12.540  28.268   6.782  1.00  0.00     0.214 C 
ATOM     40  O   UNL     1     -10.198  28.357   7.571  1.00  0.00    -0.332 OA
ATOM     41  C   UNL     1     -12.094  28.723   5.379  1.00  0.00     0.180 C 
ATOM     42  C   UNL     1      -9.707  28.810   6.311  1.00  0.00     0.179 C 
ATOM     43  C   UNL     1     -10.610  28.358   5.133  1.00  0.00     0.177 C 
BRANCH  39  44
ATOM     44  O   UNL     1     -12.729  26.875   6.835  1.00  0.00    -0.384 OA
ATOM     45  H   UNL     1     -11.953  26.446   6.383  1.00  0.00     0.211 HD
ENDBRANCH  39  44
BRANCH  41  46
ATOM     46  O   UNL     1     -12.935  28.200   4.384  1.00  0.00    -0.387 OA
ATOM     47  H   UNL     1     -12.691  27.244   4.243  1.00  0.00     0.211 HD
ENDBRANCH  41  46
BRANCH  42  48
ATOM     48  C   UNL     1      -9.352  30.313   6.331  1.00  0.00     0.191 C 
BRANCH  48  49
ATOM     49  O   UNL     1      -8.972  30.737   5.052  1.00  0.00    -0.394 OA
ATOM     50  H   UNL     1      -7.990  30.869   5.085  1.00  0.00     0.210 HD
ENDBRANCH  48  49
ENDBRANCH  42  48
BRANCH  43  51
ATOM     51  O   UNL     1     -10.142  28.855   3.900  1.00  0.00    -0.387 OA
ATOM     52  H   UNL     1      -9.877  28.084   3.334  1.00  0.00     0.211 HD
ENDBRANCH  43  51
ENDBRANCH  37  38
ENDBRANCH   5  37
BRANCH   7  53
ATOM     53  O   UNL     1     -13.125  29.948  12.678  1.00  0.00    -0.507 OA
ATOM     54  H   UNL     1     -13.531  29.027  12.612  1.00  0.00     0.293 HD
ENDBRANCH   7  53
TORSDOF 18
ENDMDL
