MODEL 1
REMARK VINA RESULT:    -4.833      0.000      0.000
REMARK INTER + INTRA:          -5.429
REMARK INTER:                  -5.257
REMARK INTRA:                  -0.172
REMARK UNBOUND:                -0.172
REMARK SMILES C=C(C)[C@@H]1CC[C@@H](C)C[C@H]1O
REMARK SMILES IDX 8 1 7 2 6 3 5 4 4 5 10 6 9 7 11 8 2 10 1 11 3 12
REMARK H PARENT 11 9
REMARK Flexibility Score: inf
ROOT
ATOM      1  C   UNL     1     120.887 116.629 117.118  1.00  0.00     0.008 C 
ATOM      2  C   UNL     1     122.010 117.610 116.765  1.00  0.00    -0.012 C 
ATOM      3  C   UNL     1     122.287 117.590 115.250  1.00  0.00     0.004 C 
ATOM      4  C   UNL     1     123.421 118.556 114.888  1.00  0.00     0.011 C 
ATOM      5  C   UNL     1     124.704 118.224 115.678  1.00  0.00     0.043 C 
ATOM      6  C   UNL     1     124.435 118.239 117.200  1.00  0.00     0.121 C 
ATOM      7  C   UNL     1     123.289 117.271 117.553  1.00  0.00     0.035 C 
ENDROOT
BRANCH   6   8
ATOM      8  O   UNL     1     125.601 117.855 117.883  1.00  0.00    -0.392 OA
ATOM      9  H   UNL     1     126.347 118.386 117.497  1.00  0.00     0.210 HD
ENDBRANCH   6   8
BRANCH   5  10
ATOM     10  C   UNL     1     125.840 119.166 115.296  1.00  0.00    -0.075 C 
ATOM     11  C   UNL     1     125.669 120.499 115.287  1.00  0.00     0.008 C 
ATOM     12  C   UNL     1     127.190 118.611 114.922  1.00  0.00     0.039 C 
ENDBRANCH   5  10
TORSDOF 2
ENDMDL
MODEL 2
REMARK VINA RESULT:    -4.781     14.812     15.477
REMARK INTER + INTRA:          -5.372
REMARK INTER:                  -5.208
REMARK INTRA:                  -0.164
REMARK UNBOUND:                -0.172
REMARK SMILES C=C(C)[C@@H]1CC[C@@H](C)C[C@H]1O
REMARK SMILES IDX 8 1 7 2 6 3 5 4 4 5 10 6 9 7 11 8 2 10 1 11 3 12
REMARK H PARENT 11 9
REMARK Flexibility Score: inf
ROOT
ATOM      1  C   UNL     1     118.739 125.093 126.806  1.00  0.00     0.008 C 
ATOM      2  C   UNL     1     118.711 126.623 126.738  1.00  0.00    -0.012 C 
ATOM      3  C   UNL     1     117.265 127.129 126.577  1.00  0.00     0.004 C 
ATOM      4  C   UNL     1     117.225 128.659 126.491  1.00  0.00     0.011 C 
ATOM      5  C   UNL     1     118.110 129.171 125.336  1.00  0.00     0.043 C 
ATOM      6  C   UNL     1     119.563 128.666 125.487  1.00  0.00     0.121 C 
ATOM      7  C   UNL     1     119.591 127.129 125.580  1.00  0.00     0.035 C 
ENDROOT
BRANCH   6   8
ATOM      8  O   UNL     1     120.318 129.083 124.379  1.00  0.00    -0.392 OA
ATOM      9  H   UNL     1     121.238 128.731 124.509  1.00  0.00     0.210 HD
ENDBRANCH   6   8
BRANCH   5  10
ATOM     10  C   UNL     1     118.047 130.690 125.232  1.00  0.00    -0.075 C 
ATOM     11  C   UNL     1     117.328 131.297 124.271  1.00  0.00     0.008 C 
ATOM     12  C   UNL     1     118.796 131.547 126.219  1.00  0.00     0.039 C 
ENDBRANCH   5  10
TORSDOF 2
ENDMDL
MODEL 3
REMARK VINA RESULT:    -4.554     14.738     16.208
REMARK INTER + INTRA:          -5.125
REMARK INTER:                  -4.965
REMARK INTRA:                  -0.159
REMARK UNBOUND:                -0.172
REMARK SMILES C=C(C)[C@@H]1CC[C@@H](C)C[C@H]1O
REMARK SMILES IDX 8 1 7 2 6 3 5 4 4 5 10 6 9 7 11 8 2 10 1 11 3 12
REMARK H PARENT 11 9
REMARK Flexibility Score: inf
ROOT
ATOM      1  C   UNL     1     111.429 119.196 122.621  1.00  0.00     0.008 C 
ATOM      2  C   UNL     1     111.990 118.855 124.005  1.00  0.00    -0.012 C 
ATOM      3  C   UNL     1     112.017 117.329 124.216  1.00  0.00     0.004 C 
ATOM      4  C   UNL     1     112.561 116.977 125.605  1.00  0.00     0.011 C 
ATOM      5  C   UNL     1     111.734 117.661 126.713  1.00  0.00     0.043 C 
ATOM      6  C   UNL     1     111.700 119.193 126.509  1.00  0.00     0.121 C 
ATOM      7  C   UNL     1     111.158 119.537 125.108  1.00  0.00     0.035 C 
ENDROOT
BRANCH   6   8
ATOM      8  O   UNL     1     110.875 119.774 127.486  1.00  0.00    -0.392 OA
ATOM      9  H   UNL     1     110.072 120.121 127.015  1.00  0.00     0.210 HD
ENDBRANCH   6   8
BRANCH   5  10
ATOM     10  C   UNL     1     112.258 117.287 128.095  1.00  0.00    -0.075 C 
ATOM     11  C   UNL     1     111.622 116.386 128.863  1.00  0.00     0.008 C 
ATOM     12  C   UNL     1     113.514 117.927 128.626  1.00  0.00     0.039 C 
ENDBRANCH   5  10
TORSDOF 2
ENDMDL
MODEL 4
REMARK VINA RESULT:    -4.357     13.857     15.573
REMARK INTER + INTRA:          -4.911
REMARK INTER:                  -4.715
REMARK INTRA:                  -0.196
REMARK UNBOUND:                -0.172
REMARK SMILES C=C(C)[C@@H]1CC[C@@H](C)C[C@H]1O
REMARK SMILES IDX 8 1 7 2 6 3 5 4 4 5 10 6 9 7 11 8 2 10 1 11 3 12
REMARK H PARENT 11 9
REMARK Flexibility Score: inf
ROOT
ATOM      1  C   UNL     1     111.994 116.020 128.798  1.00  0.00     0.008 C 
ATOM      2  C   UNL     1     112.323 116.977 127.648  1.00  0.00    -0.012 C 
ATOM      3  C   UNL     1     111.293 118.121 127.587  1.00  0.00     0.004 C 
ATOM      4  C   UNL     1     111.602 119.077 126.429  1.00  0.00     0.011 C 
ATOM      5  C   UNL     1     111.652 118.320 125.086  1.00  0.00     0.043 C 
ATOM      6  C   UNL     1     112.682 117.169 125.138  1.00  0.00     0.121 C 
ATOM      7  C   UNL     1     112.366 116.218 126.309  1.00  0.00     0.035 C 
ENDROOT
BRANCH   6   8
ATOM      8  O   UNL     1     112.642 116.454 123.930  1.00  0.00    -0.392 OA
ATOM      9  H   UNL     1     112.238 117.058 123.252  1.00  0.00     0.210 HD
ENDBRANCH   6   8
BRANCH   5  10
ATOM     10  C   UNL     1     111.931 119.276 123.931  1.00  0.00    -0.075 C 
ATOM     11  C   UNL     1     113.045 120.027 123.899  1.00  0.00     0.008 C 
ATOM     12  C   UNL     1     110.952 119.391 122.792  1.00  0.00     0.039 C 
ENDBRANCH   5  10
TORSDOF 2
ENDMDL
MODEL 5
REMARK VINA RESULT:    -4.349     14.970     16.006
REMARK INTER + INTRA:          -4.902
REMARK INTER:                  -4.735
REMARK INTRA:                  -0.168
REMARK UNBOUND:                -0.172
REMARK SMILES C=C(C)[C@@H]1CC[C@@H](C)C[C@H]1O
REMARK SMILES IDX 8 1 7 2 6 3 5 4 4 5 10 6 9 7 11 8 2 10 1 11 3 12
REMARK H PARENT 11 9
REMARK Flexibility Score: inf
ROOT
ATOM      1  C   UNL     1     120.627 131.748 124.755  1.00  0.00     0.008 C 
ATOM      2  C   UNL     1     120.075 130.579 125.578  1.00  0.00    -0.012 C 
ATOM      3  C   UNL     1     120.617 129.240 125.044  1.00  0.00     0.004 C 
ATOM      4  C   UNL     1     120.058 128.061 125.849  1.00  0.00     0.011 C 
ATOM      5  C   UNL     1     118.515 128.065 125.835  1.00  0.00     0.043 C 
ATOM      6  C   UNL     1     117.961 129.406 126.368  1.00  0.00     0.121 C 
ATOM      7  C   UNL     1     118.534 130.584 125.557  1.00  0.00     0.035 C 
ENDROOT
BRANCH   6   8
ATOM      8  O   UNL     1     116.560 129.404 126.266  1.00  0.00    -0.392 OA
ATOM      9  H   UNL     1     116.209 129.129 127.154  1.00  0.00     0.210 HD
ENDBRANCH   6   8
BRANCH   5  10
ATOM     10  C   UNL     1     117.960 126.876 126.612  1.00  0.00    -0.075 C 
ATOM     11  C   UNL     1     117.446 125.806 125.980  1.00  0.00     0.008 C 
ATOM     12  C   UNL     1     117.981 126.880 128.118  1.00  0.00     0.039 C 
ENDBRANCH   5  10
TORSDOF 2
ENDMDL
MODEL 6
REMARK VINA RESULT:    -4.324     15.380     16.594
REMARK INTER + INTRA:          -4.875
REMARK INTER:                  -4.685
REMARK INTRA:                  -0.190
REMARK UNBOUND:                -0.172
REMARK SMILES C=C(C)[C@@H]1CC[C@@H](C)C[C@H]1O
REMARK SMILES IDX 8 1 7 2 6 3 5 4 4 5 10 6 9 7 11 8 2 10 1 11 3 12
REMARK H PARENT 11 9
REMARK Flexibility Score: inf
ROOT
ATOM      1  C   UNL     1     115.613 116.048 131.112  1.00  0.00     0.008 C 
ATOM      2  C   UNL     1     114.896 115.993 129.759  1.00  0.00    -0.012 C 
ATOM      3  C   UNL     1     115.289 117.203 128.890  1.00  0.00     0.004 C 
ATOM      4  C   UNL     1     114.565 117.168 127.540  1.00  0.00     0.011 C 
ATOM      5  C   UNL     1     113.035 117.115 127.735  1.00  0.00     0.043 C 
ATOM      6  C   UNL     1     112.631 115.904 128.607  1.00  0.00     0.121 C 
ATOM      7  C   UNL     1     113.370 115.945 129.958  1.00  0.00     0.035 C 
ENDROOT
BRANCH   6   8
ATOM      8  O   UNL     1     111.245 115.933 128.829  1.00  0.00    -0.392 OA
ATOM      9  H   UNL     1     111.016 115.103 129.324  1.00  0.00     0.210 HD
ENDBRANCH   6   8
BRANCH   5  10
ATOM     10  C   UNL     1     112.314 117.109 126.392  1.00  0.00    -0.075 C 
ATOM     11  C   UNL     1     111.594 118.167 125.980  1.00  0.00     0.008 C 
ATOM     12  C   UNL     1     112.402 115.904 125.491  1.00  0.00     0.039 C 
ENDBRANCH   5  10
TORSDOF 2
ENDMDL
MODEL 7
REMARK VINA RESULT:    -4.243     14.334     15.827
REMARK INTER + INTRA:          -4.787
REMARK INTER:                  -5.036
REMARK INTRA:                   0.249
REMARK UNBOUND:                -0.172
REMARK SMILES C=C(C)[C@@H]1CC[C@@H](C)C[C@H]1O
REMARK SMILES IDX 8 1 7 2 6 3 5 4 4 5 10 6 9 7 11 8 2 10 1 11 3 12
REMARK H PARENT 11 9
REMARK Flexibility Score: inf
ROOT
ATOM      1  C   UNL     1     112.012 116.458 129.239  1.00  0.00     0.008 C 
ATOM      2  C   UNL     1     111.658 116.766 127.780  1.00  0.00    -0.012 C 
ATOM      3  C   UNL     1     112.689 116.130 126.829  1.00  0.00     0.004 C 
ATOM      4  C   UNL     1     112.354 116.446 125.367  1.00  0.00     0.011 C 
ATOM      5  C   UNL     1     112.272 117.969 125.135  1.00  0.00     0.043 C 
ATOM      6  C   UNL     1     111.241 118.617 126.087  1.00  0.00     0.121 C 
ATOM      7  C   UNL     1     111.581 118.288 127.553  1.00  0.00     0.035 C 
ENDROOT
BRANCH   6   8
ATOM      8  O   UNL     1     111.250 120.010 125.904  1.00  0.00    -0.392 OA
ATOM      9  H   UNL     1     111.924 120.377 126.534  1.00  0.00     0.210 HD
ENDBRANCH   6   8
BRANCH   5  10
ATOM     10  C   UNL     1     111.967 118.283 123.674  1.00  0.00    -0.075 C 
ATOM     11  C   UNL     1     111.536 117.331 122.829  1.00  0.00     0.008 C 
ATOM     12  C   UNL     1     112.145 119.685 123.150  1.00  0.00     0.039 C 
ENDBRANCH   5  10
TORSDOF 2
ENDMDL
MODEL 8
REMARK VINA RESULT:    -4.238     14.683     16.126
REMARK INTER + INTRA:          -4.782
REMARK INTER:                  -4.601
REMARK INTRA:                  -0.181
REMARK UNBOUND:                -0.172
REMARK SMILES C=C(C)[C@@H]1CC[C@@H](C)C[C@H]1O
REMARK SMILES IDX 8 1 7 2 6 3 5 4 4 5 10 6 9 7 11 8 2 10 1 11 3 12
REMARK H PARENT 11 9
REMARK Flexibility Score: inf
ROOT
ATOM      1  C   UNL     1     113.852 116.095 130.925  1.00  0.00     0.008 C 
ATOM      2  C   UNL     1     113.458 116.761 129.603  1.00  0.00    -0.012 C 
ATOM      3  C   UNL     1     112.017 116.379 129.216  1.00  0.00     0.004 C 
ATOM      4  C   UNL     1     111.617 117.026 127.885  1.00  0.00     0.011 C 
ATOM      5  C   UNL     1     112.600 116.635 126.763  1.00  0.00     0.043 C 
ATOM      6  C   UNL     1     114.050 117.012 127.143  1.00  0.00     0.121 C 
ATOM      7  C   UNL     1     114.440 116.364 128.485  1.00  0.00     0.035 C 
ENDROOT
BRANCH   6   8
ATOM      8  O   UNL     1     114.925 116.571 126.137  1.00  0.00    -0.392 OA
ATOM      9  H   UNL     1     115.385 117.377 125.782  1.00  0.00     0.210 HD
ENDBRANCH   6   8
BRANCH   5  10
ATOM     10  C   UNL     1     112.186 117.255 125.433  1.00  0.00    -0.075 C 
ATOM     11  C   UNL     1     111.948 118.573 125.320  1.00  0.00     0.008 C 
ATOM     12  C   UNL     1     112.038 116.390 124.208  1.00  0.00     0.039 C 
ENDBRANCH   5  10
TORSDOF 2
ENDMDL
MODEL 9
REMARK VINA RESULT:    -4.191     14.332     15.572
REMARK INTER + INTRA:          -4.731
REMARK INTER:                  -4.540
REMARK INTRA:                  -0.190
REMARK UNBOUND:                -0.172
REMARK SMILES C=C(C)[C@@H]1CC[C@@H](C)C[C@H]1O
REMARK SMILES IDX 8 1 7 2 6 3 5 4 4 5 10 6 9 7 11 8 2 10 1 11 3 12
REMARK H PARENT 11 9
REMARK Flexibility Score: inf
ROOT
ATOM      1  C   UNL     1     111.604 119.220 122.583  1.00  0.00     0.008 C 
ATOM      2  C   UNL     1     111.589 118.573 123.972  1.00  0.00    -0.012 C 
ATOM      3  C   UNL     1     112.487 119.362 124.944  1.00  0.00     0.004 C 
ATOM      4  C   UNL     1     112.494 118.714 126.333  1.00  0.00     0.011 C 
ATOM      5  C   UNL     1     112.945 117.241 126.254  1.00  0.00     0.043 C 
ATOM      6  C   UNL     1     112.051 116.441 125.279  1.00  0.00     0.121 C 
ATOM      7  C   UNL     1     112.045 117.104 123.888  1.00  0.00     0.035 C 
ENDROOT
BRANCH   6   8
ATOM      8  O   UNL     1     112.538 115.128 125.171  1.00  0.00    -0.392 OA
ATOM      9  H   UNL     1     113.445 115.125 125.575  1.00  0.00     0.210 HD
ENDBRANCH   6   8
BRANCH   5  10
ATOM     10  C   UNL     1     112.979 116.605 127.639  1.00  0.00    -0.075 C 
ATOM     11  C   UNL     1     114.141 116.269 128.226  1.00  0.00     0.008 C 
ATOM     12  C   UNL     1     111.695 116.344 128.383  1.00  0.00     0.039 C 
ENDBRANCH   5  10
TORSDOF 2
ENDMDL
