MODEL 1
REMARK VINA RESULT:    -6.697      0.000      0.000
REMARK INTER + INTRA:          -7.088
REMARK INTER:                  -7.088
REMARK INTRA:                   0.000
REMARK UNBOUND:                 0.000
REMARK SMILES O=c1ccc2cc(O)c(O)cc2o1
REMARK SMILES IDX 4 1 3 2 2 3 1 4 13 5 12 6 11 7 9 8 7 9 6 10 5 11 8 12 10 14
REMARK H PARENT 8 13 10 15
REMARK Flexibility Score: inf
ROOT
ATOM      1  C   UNL     1       6.024   5.646   9.343  1.00  0.00     0.019 A 
ATOM      2  C   UNL     1       6.231   6.959   9.760  1.00  0.00     0.094 A 
ATOM      3  C   UNL     1       7.146   7.209  10.789  1.00  0.00     0.336 A 
ATOM      4  O   UNL     1       7.346   8.389  11.179  1.00  0.00    -0.246 OA
ATOM      5  O   UNL     1       7.807   6.205  11.361  1.00  0.00    -0.423 OA
ATOM      6  C   UNL     1       7.639   4.937  10.993  1.00  0.00     0.142 A 
ATOM      7  C   UNL     1       8.362   3.923  11.629  1.00  0.00     0.098 A 
ATOM      8  C   UNL     1       8.189   2.585  11.247  1.00  0.00     0.161 A 
ATOM      9  C   UNL     1       7.288   2.260  10.222  1.00  0.00     0.158 A 
ATOM     10  C   UNL     1       6.560   3.272   9.579  1.00  0.00     0.062 A 
ATOM     11  C   UNL     1       6.733   4.610   9.961  1.00  0.00     0.022 A 
ENDROOT
BRANCH   9  12
ATOM     12  O   UNL     1       7.123   0.927   9.847  1.00  0.00    -0.504 OA
ATOM     13  H   UNL     1       6.672   0.674   8.976  1.00  0.00     0.293 HD
ENDBRANCH   9  12
BRANCH   8  14
ATOM     14  O   UNL     1       8.908   1.573  11.880  1.00  0.00    -0.504 OA
ATOM     15  H   UNL     1       9.715   1.778  12.458  1.00  0.00     0.293 HD
ENDBRANCH   8  14
TORSDOF 2
ENDMDL
MODEL 2
REMARK VINA RESULT:    -6.605      1.077      2.233
REMARK INTER + INTRA:          -6.991
REMARK INTER:                  -6.991
REMARK INTRA:                   0.000
REMARK UNBOUND:                 0.000
REMARK SMILES O=c1ccc2cc(O)c(O)cc2o1
REMARK SMILES IDX 4 1 3 2 2 3 1 4 13 5 12 6 11 7 9 8 7 9 6 10 5 11 8 12 10 14
REMARK H PARENT 8 13 10 15
REMARK Flexibility Score: inf
ROOT
ATOM      1  C   UNL     1       8.028   6.047  11.500  1.00  0.00     0.019 A 
ATOM      2  C   UNL     1       7.374   7.117  10.891  1.00  0.00     0.094 A 
ATOM      3  C   UNL     1       6.475   6.859   9.850  1.00  0.00     0.336 A 
ATOM      4  O   UNL     1       5.875   7.812   9.288  1.00  0.00    -0.246 OA
ATOM      5  O   UNL     1       6.250   5.610   9.449  1.00  0.00    -0.423 OA
ATOM      6  C   UNL     1       6.853   4.561  10.002  1.00  0.00     0.142 A 
ATOM      7  C   UNL     1       6.576   3.270   9.540  1.00  0.00     0.098 A 
ATOM      8  C   UNL     1       7.209   2.161  10.119  1.00  0.00     0.161 A 
ATOM      9  C   UNL     1       8.123   2.344  11.168  1.00  0.00     0.158 A 
ATOM     10  C   UNL     1       8.404   3.636  11.638  1.00  0.00     0.062 A 
ATOM     11  C   UNL     1       7.772   4.745  11.058  1.00  0.00     0.022 A 
ENDROOT
BRANCH   9  12
ATOM     12  O   UNL     1       8.747   1.236  11.739  1.00  0.00    -0.504 OA
ATOM     13  H   UNL     1       8.520   0.292  11.449  1.00  0.00     0.293 HD
ENDBRANCH   9  12
BRANCH   8  14
ATOM     14  O   UNL     1       6.935   0.875   9.659  1.00  0.00    -0.504 OA
ATOM     15  H   UNL     1       6.421   0.208  10.224  1.00  0.00     0.293 HD
ENDBRANCH   8  14
TORSDOF 2
ENDMDL
MODEL 3
REMARK VINA RESULT:    -6.569      1.073      4.503
REMARK INTER + INTRA:          -6.953
REMARK INTER:                  -6.953
REMARK INTRA:                   0.000
REMARK UNBOUND:                 0.000
REMARK SMILES O=c1ccc2cc(O)c(O)cc2o1
REMARK SMILES IDX 4 1 3 2 2 3 1 4 13 5 12 6 11 7 9 8 7 9 6 10 5 11 8 12 10 14
REMARK H PARENT 8 13 10 15
REMARK Flexibility Score: inf
ROOT
ATOM      1  C   UNL     1       6.662   2.665   9.625  1.00  0.00     0.019 A 
ATOM      2  C   UNL     1       7.349   1.625  10.249  1.00  0.00     0.094 A 
ATOM      3  C   UNL     1       8.279   1.930  11.249  1.00  0.00     0.336 A 
ATOM      4  O   UNL     1       8.909   1.004  11.824  1.00  0.00    -0.246 OA
ATOM      5  O   UNL     1       8.502   3.194  11.599  1.00  0.00    -0.423 OA
ATOM      6  C   UNL     1       7.867   4.216  11.029  1.00  0.00     0.142 A 
ATOM      7  C   UNL     1       8.142   5.525  11.438  1.00  0.00     0.098 A 
ATOM      8  C   UNL     1       7.477   6.606  10.840  1.00  0.00     0.161 A 
ATOM      9  C   UNL     1       6.532   6.376   9.830  1.00  0.00     0.158 A 
ATOM     10  C   UNL     1       6.251   5.065   9.416  1.00  0.00     0.062 A 
ATOM     11  C   UNL     1       6.916   3.985  10.012  1.00  0.00     0.022 A 
ENDROOT
BRANCH   9  12
ATOM     12  O   UNL     1       5.875   7.456   9.242  1.00  0.00    -0.504 OA
ATOM     13  H   UNL     1       5.161   7.975   9.738  1.00  0.00     0.293 HD
ENDBRANCH   9  12
BRANCH   8  14
ATOM     14  O   UNL     1       7.749   7.911  11.246  1.00  0.00    -0.504 OA
ATOM     15  H   UNL     1       8.565   8.133  11.805  1.00  0.00     0.293 HD
ENDBRANCH   8  14
TORSDOF 2
ENDMDL
MODEL 4
REMARK VINA RESULT:    -5.965      1.161      5.054
REMARK INTER + INTRA:          -6.313
REMARK INTER:                  -6.313
REMARK INTRA:                   0.000
REMARK UNBOUND:                 0.000
REMARK SMILES O=c1ccc2cc(O)c(O)cc2o1
REMARK SMILES IDX 4 1 3 2 2 3 1 4 13 5 12 6 11 7 9 8 7 9 6 10 5 11 8 12 10 14
REMARK H PARENT 8 13 10 15
REMARK Flexibility Score: inf
ROOT
ATOM      1  C   UNL     1       8.455   3.747  11.568  1.00  0.00     0.019 A 
ATOM      2  C   UNL     1       8.121   2.486  11.078  1.00  0.00     0.094 A 
ATOM      3  C   UNL     1       7.159   2.383  10.067  1.00  0.00     0.336 A 
ATOM      4  O   UNL     1       6.844   1.252   9.612  1.00  0.00    -0.246 OA
ATOM      5  O   UNL     1       6.574   3.475   9.581  1.00  0.00    -0.423 OA
ATOM      6  C   UNL     1       6.864   4.698  10.020  1.00  0.00     0.142 A 
ATOM      7  C   UNL     1       6.217   5.809   9.470  1.00  0.00     0.098 A 
ATOM      8  C   UNL     1       6.518   7.100   9.929  1.00  0.00     0.161 A 
ATOM      9  C   UNL     1       7.472   7.279  10.942  1.00  0.00     0.158 A 
ATOM     10  C   UNL     1       8.125   6.168  11.496  1.00  0.00     0.062 A 
ATOM     11  C   UNL     1       7.824   4.878  11.039  1.00  0.00     0.022 A 
ENDROOT
BRANCH   9  12
ATOM     12  O   UNL     1       7.766   8.565  11.392  1.00  0.00    -0.504 OA
ATOM     13  H   UNL     1       8.644   9.018  11.166  1.00  0.00     0.293 HD
ENDBRANCH   9  12
BRANCH   8  14
ATOM     14  O   UNL     1       5.875   8.209   9.384  1.00  0.00    -0.504 OA
ATOM     15  H   UNL     1       5.139   8.695   9.884  1.00  0.00     0.293 HD
ENDBRANCH   8  14
TORSDOF 2
ENDMDL
MODEL 5
REMARK VINA RESULT:    -5.323     12.426     14.066
REMARK INTER + INTRA:          -5.635
REMARK INTER:                  -5.635
REMARK INTRA:                   0.000
REMARK UNBOUND:                 0.000
REMARK SMILES O=c1ccc2cc(O)c(O)cc2o1
REMARK SMILES IDX 4 1 3 2 2 3 1 4 13 5 12 6 11 7 9 8 7 9 6 10 5 11 8 12 10 14
REMARK H PARENT 8 13 10 15
REMARK Flexibility Score: inf
ROOT
ATOM      1  C   UNL     1      12.411  -4.873  20.125  1.00  0.00     0.019 A 
ATOM      2  C   UNL     1      12.468  -3.484  20.024  1.00  0.00     0.094 A 
ATOM      3  C   UNL     1      11.282  -2.770  19.823  1.00  0.00     0.336 A 
ATOM      4  O   UNL     1      11.313  -1.515  19.729  1.00  0.00    -0.246 OA
ATOM      5  O   UNL     1      10.118  -3.409  19.730  1.00  0.00    -0.423 OA
ATOM      6  C   UNL     1      10.020  -4.733  19.821  1.00  0.00     0.142 A 
ATOM      7  C   UNL     1       8.769  -5.350  19.718  1.00  0.00     0.098 A 
ATOM      8  C   UNL     1       8.660  -6.745  19.812  1.00  0.00     0.161 A 
ATOM      9  C   UNL     1       9.808  -7.526  20.013  1.00  0.00     0.158 A 
ATOM     10  C   UNL     1      11.065  -6.913  20.120  1.00  0.00     0.062 A 
ATOM     11  C   UNL     1      11.175  -5.519  20.024  1.00  0.00     0.022 A 
ENDROOT
BRANCH   9  12
ATOM     12  O   UNL     1       9.690  -8.913  20.107  1.00  0.00    -0.504 OA
ATOM     13  H   UNL     1       9.701  -9.386  21.003  1.00  0.00     0.293 HD
ENDBRANCH   9  12
BRANCH   8  14
ATOM     14  O   UNL     1       7.415  -7.362  19.709  1.00  0.00    -0.504 OA
ATOM     15  H   UNL     1       6.776  -7.402  20.495  1.00  0.00     0.293 HD
ENDBRANCH   8  14
TORSDOF 2
ENDMDL
MODEL 6
REMARK VINA RESULT:    -4.848      9.531     12.425
REMARK INTER + INTRA:          -5.132
REMARK INTER:                  -5.132
REMARK INTRA:                   0.000
REMARK UNBOUND:                 0.000
REMARK SMILES O=c1ccc2cc(O)c(O)cc2o1
REMARK SMILES IDX 4 1 3 2 2 3 1 4 13 5 12 6 11 7 9 8 7 9 6 10 5 11 8 12 10 14
REMARK H PARENT 8 13 10 15
REMARK Flexibility Score: inf
ROOT
ATOM      1  C   UNL     1      11.016  -4.615  19.666  1.00  0.00     0.019 A 
ATOM      2  C   UNL     1      10.314  -5.773  19.995  1.00  0.00     0.094 A 
ATOM      3  C   UNL     1       9.032  -5.963  19.468  1.00  0.00     0.336 A 
ATOM      4  O   UNL     1       8.383  -7.003  19.755  1.00  0.00    -0.246 OA
ATOM      5  O   UNL     1       8.492  -5.050  18.665  1.00  0.00    -0.423 OA
ATOM      6  C   UNL     1       9.127  -3.930  18.325  1.00  0.00     0.142 A 
ATOM      7  C   UNL     1       8.510  -3.007  17.476  1.00  0.00     0.098 A 
ATOM      8  C   UNL     1       9.174  -1.825  17.116  1.00  0.00     0.161 A 
ATOM      9  C   UNL     1      10.463  -1.568  17.607  1.00  0.00     0.158 A 
ATOM     10  C   UNL     1      11.088  -2.491  18.458  1.00  0.00     0.062 A 
ATOM     11  C   UNL     1      10.425  -3.672  18.819  1.00  0.00     0.022 A 
ENDROOT
BRANCH   9  12
ATOM     12  O   UNL     1      11.117  -0.391  17.243  1.00  0.00    -0.504 OA
ATOM     13  H   UNL     1      11.480  -0.255  16.307  1.00  0.00     0.293 HD
ENDBRANCH   9  12
BRANCH   8  14
ATOM     14  O   UNL     1       8.562  -0.903  16.270  1.00  0.00    -0.504 OA
ATOM     15  H   UNL     1       8.650  -0.968  15.262  1.00  0.00     0.293 HD
ENDBRANCH   8  14
TORSDOF 2
ENDMDL
MODEL 7
REMARK VINA RESULT:    -4.676      8.492     11.099
REMARK INTER + INTRA:          -4.950
REMARK INTER:                  -4.950
REMARK INTRA:                   0.000
REMARK UNBOUND:                 0.000
REMARK SMILES O=c1ccc2cc(O)c(O)cc2o1
REMARK SMILES IDX 4 1 3 2 2 3 1 4 13 5 12 6 11 7 9 8 7 9 6 10 5 11 8 12 10 14
REMARK H PARENT 8 13 10 15
REMARK Flexibility Score: inf
ROOT
ATOM      1  C   UNL     1      10.019  -3.917  19.321  1.00  0.00     0.019 A 
ATOM      2  C   UNL     1      11.334  -3.788  19.766  1.00  0.00     0.094 A 
ATOM      3  C   UNL     1      12.237  -3.035  19.008  1.00  0.00     0.336 A 
ATOM      4  O   UNL     1      13.428  -2.908  19.395  1.00  0.00    -0.246 OA
ATOM      5  O   UNL     1      11.844  -2.451  17.878  1.00  0.00    -0.423 OA
ATOM      6  C   UNL     1      10.599  -2.549  17.417  1.00  0.00     0.142 A 
ATOM      7  C   UNL     1      10.244  -1.913  16.224  1.00  0.00     0.098 A 
ATOM      8  C   UNL     1       8.934  -2.013  15.733  1.00  0.00     0.161 A 
ATOM      9  C   UNL     1       7.975  -2.752  16.440  1.00  0.00     0.158 A 
ATOM     10  C   UNL     1       8.325  -3.391  17.639  1.00  0.00     0.062 A 
ATOM     11  C   UNL     1       9.634  -3.292  18.130  1.00  0.00     0.022 A 
ENDROOT
BRANCH   9  12
ATOM     12  O   UNL     1       6.675  -2.845  15.946  1.00  0.00    -0.504 OA
ATOM     13  H   UNL     1       6.298  -2.152  15.310  1.00  0.00     0.293 HD
ENDBRANCH   9  12
BRANCH   8  14
ATOM     14  O   UNL     1       8.578  -1.380  14.544  1.00  0.00    -0.504 OA
ATOM     15  H   UNL     1       8.591  -1.870  13.657  1.00  0.00     0.293 HD
ENDBRANCH   8  14
TORSDOF 2
ENDMDL
MODEL 8
REMARK VINA RESULT:    -4.595      9.435     12.197
REMARK INTER + INTRA:          -4.863
REMARK INTER:                  -4.863
REMARK INTRA:                   0.000
REMARK UNBOUND:                 0.000
REMARK SMILES O=c1ccc2cc(O)c(O)cc2o1
REMARK SMILES IDX 4 1 3 2 2 3 1 4 13 5 12 6 11 7 9 8 7 9 6 10 5 11 8 12 10 14
REMARK H PARENT 8 13 10 15
REMARK Flexibility Score: inf
ROOT
ATOM      1  C   UNL     1       8.317  -4.752  19.135  1.00  0.00     0.019 A 
ATOM      2  C   UNL     1       9.116  -5.766  19.659  1.00  0.00     0.094 A 
ATOM      3  C   UNL     1      10.506  -5.605  19.656  1.00  0.00     0.336 A 
ATOM      4  O   UNL     1      11.245  -6.510  20.125  1.00  0.00    -0.246 OA
ATOM      5  O   UNL     1      11.055  -4.499  19.158  1.00  0.00    -0.423 OA
ATOM      6  C   UNL     1      10.328  -3.507  18.648  1.00  0.00     0.142 A 
ATOM      7  C   UNL     1      10.960  -2.367  18.141  1.00  0.00     0.098 A 
ATOM      8  C   UNL     1      10.200  -1.319  17.601  1.00  0.00     0.161 A 
ATOM      9  C   UNL     1       8.801  -1.412  17.571  1.00  0.00     0.158 A 
ATOM     10  C   UNL     1       8.161  -2.552  18.081  1.00  0.00     0.062 A 
ATOM     11  C   UNL     1       8.920  -3.600  18.619  1.00  0.00     0.022 A 
ENDROOT
BRANCH   9  12
ATOM     12  O   UNL     1       8.052  -0.365  17.035  1.00  0.00    -0.504 OA
ATOM     13  H   UNL     1       7.831   0.461  17.578  1.00  0.00     0.293 HD
ENDBRANCH   9  12
BRANCH   8  14
ATOM     14  O   UNL     1      10.827  -0.183  17.095  1.00  0.00    -0.504 OA
ATOM     15  H   UNL     1      11.174   0.548  17.705  1.00  0.00     0.293 HD
ENDBRANCH   8  14
TORSDOF 2
ENDMDL
