MODEL 1
REMARK VINA RESULT:    -3.712      0.000      0.000
REMARK INTER + INTRA:          -5.046
REMARK INTER:                  -4.580
REMARK INTRA:                  -0.467
REMARK UNBOUND:                -0.467
REMARK SMILES C=CC[C@@H](C)C(=O)CC
REMARK SMILES IDX 4 1 5 2 6 3 7 4 8 5 9 6 3 7 2 8 1 9
REMARK H PARENT
REMARK Flexibility Score: inf
ROOT
ATOM      1  C   UNL     1     -17.990  -1.241  11.420  1.00  0.00     0.057 C 
ATOM      2  C   UNL     1     -16.882  -0.637  12.298  1.00  0.00     0.016 C 
ENDROOT
BRANCH   1   3
ATOM      3  C   UNL     1     -19.202  -0.339  11.257  1.00  0.00     0.135 C 
ATOM      4  O   UNL     1     -19.011   0.852  11.050  1.00  0.00    -0.299 OA
BRANCH   3   5
ATOM      5  C   UNL     1     -20.618  -0.876  11.295  1.00  0.00     0.072 C 
ATOM      6  C   UNL     1     -20.723  -2.231  11.995  1.00  0.00     0.012 C 
ENDBRANCH   3   5
ENDBRANCH   1   3
BRANCH   1   7
ATOM      7  C   UNL     1     -17.445  -1.708  10.053  1.00  0.00     0.038 C 
BRANCH   7   8
ATOM      8  C   UNL     1     -17.800  -3.136   9.724  1.00  0.00    -0.034 C 
ATOM      9  C   UNL     1     -18.881  -3.448   9.002  1.00  0.00     0.004 C 
ENDBRANCH   7   8
ENDBRANCH   1   7
TORSDOF 4
ENDMDL
MODEL 2
REMARK VINA RESULT:    -3.530      1.259      1.984
REMARK INTER + INTRA:          -4.823
REMARK INTER:                  -4.516
REMARK INTRA:                  -0.307
REMARK UNBOUND:                -0.467
REMARK SMILES C=CC[C@@H](C)C(=O)CC
REMARK SMILES IDX 4 1 5 2 6 3 7 4 8 5 9 6 3 7 2 8 1 9
REMARK H PARENT
REMARK Flexibility Score: inf
ROOT
ATOM      1  C   UNL     1     -17.982  -1.182  11.387  1.00  0.00     0.057 C 
ATOM      2  C   UNL     1     -16.880  -0.698  12.344  1.00  0.00     0.016 C 
ENDROOT
BRANCH   1   3
ATOM      3  C   UNL     1     -19.174  -0.242  11.300  1.00  0.00     0.135 C 
ATOM      4  O   UNL     1     -20.296  -0.728  11.340  1.00  0.00    -0.299 OA
BRANCH   3   5
ATOM      5  C   UNL     1     -19.010   1.262  11.215  1.00  0.00     0.072 C 
ATOM      6  C   UNL     1     -19.226   1.805   9.802  1.00  0.00     0.012 C 
ENDBRANCH   3   5
ENDBRANCH   1   3
BRANCH   1   7
ATOM      7  C   UNL     1     -17.420  -1.511   9.987  1.00  0.00     0.038 C 
BRANCH   7   8
ATOM      8  C   UNL     1     -17.602  -2.956   9.594  1.00  0.00    -0.034 C 
ATOM      9  C   UNL     1     -18.773  -3.583   9.731  1.00  0.00     0.004 C 
ENDBRANCH   7   8
ENDBRANCH   1   7
TORSDOF 4
ENDMDL
MODEL 3
REMARK VINA RESULT:    -3.519     17.091     18.155
REMARK INTER + INTRA:          -4.809
REMARK INTER:                  -4.617
REMARK INTRA:                  -0.191
REMARK UNBOUND:                -0.467
REMARK SMILES C=CC[C@@H](C)C(=O)CC
REMARK SMILES IDX 4 1 5 2 6 3 7 4 8 5 9 6 3 7 2 8 1 9
REMARK H PARENT
REMARK Flexibility Score: inf
ROOT
ATOM      1  C   UNL     1      -4.489 -11.360  17.063  1.00  0.00     0.057 C 
ATOM      2  C   UNL     1      -4.415 -10.246  18.121  1.00  0.00     0.016 C 
ENDROOT
BRANCH   1   3
ATOM      3  C   UNL     1      -5.360 -12.536  17.472  1.00  0.00     0.135 C 
ATOM      4  O   UNL     1      -5.490 -13.460  16.681  1.00  0.00    -0.299 OA
BRANCH   3   5
ATOM      5  C   UNL     1      -6.024 -12.614  18.832  1.00  0.00     0.072 C 
ATOM      6  C   UNL     1      -5.186 -13.376  19.860  1.00  0.00     0.012 C 
ENDBRANCH   3   5
ENDBRANCH   1   3
BRANCH   1   7
ATOM      7  C   UNL     1      -4.899 -10.809  15.680  1.00  0.00     0.038 C 
BRANCH   7   8
ATOM      8  C   UNL     1      -5.314  -9.359  15.713  1.00  0.00    -0.034 C 
ATOM      9  C   UNL     1      -5.718  -8.714  14.615  1.00  0.00     0.004 C 
ENDBRANCH   7   8
ENDBRANCH   1   7
TORSDOF 4
ENDMDL
MODEL 4
REMARK VINA RESULT:    -3.513      1.263      2.831
REMARK INTER + INTRA:          -4.801
REMARK INTER:                  -4.595
REMARK INTRA:                  -0.206
REMARK UNBOUND:                -0.467
REMARK SMILES C=CC[C@@H](C)C(=O)CC
REMARK SMILES IDX 4 1 5 2 6 3 7 4 8 5 9 6 3 7 2 8 1 9
REMARK H PARENT
REMARK Flexibility Score: inf
ROOT
ATOM      1  C   UNL     1     -19.044  -2.316   9.779  1.00  0.00     0.057 C 
ATOM      2  C   UNL     1     -20.286  -2.674  10.612  1.00  0.00     0.016 C 
ENDROOT
BRANCH   1   3
ATOM      3  C   UNL     1     -18.230  -1.169  10.355  1.00  0.00     0.135 C 
ATOM      4  O   UNL     1     -18.662  -0.032  10.222  1.00  0.00    -0.299 OA
BRANCH   3   5
ATOM      5  C   UNL     1     -16.943  -1.397  11.120  1.00  0.00     0.072 C 
ATOM      6  C   UNL     1     -16.869  -0.590  12.417  1.00  0.00     0.012 C 
ENDBRANCH   3   5
ENDBRANCH   1   3
BRANCH   1   7
ATOM      7  C   UNL     1     -18.161  -3.553   9.507  1.00  0.00     0.038 C 
BRANCH   7   8
ATOM      8  C   UNL     1     -18.907  -4.687   8.850  1.00  0.00    -0.034 C 
ATOM      9  C   UNL     1     -18.772  -4.962   7.549  1.00  0.00     0.004 C 
ENDBRANCH   7   8
ENDBRANCH   1   7
TORSDOF 4
ENDMDL
MODEL 5
REMARK VINA RESULT:    -3.490     16.852     18.016
REMARK INTER + INTRA:          -4.773
REMARK INTER:                  -4.584
REMARK INTRA:                  -0.190
REMARK UNBOUND:                -0.467
REMARK SMILES C=CC[C@@H](C)C(=O)CC
REMARK SMILES IDX 4 1 5 2 6 3 7 4 8 5 9 6 3 7 2 8 1 9
REMARK H PARENT
REMARK Flexibility Score: inf
ROOT
ATOM      1  C   UNL     1      -4.577 -11.863  16.502  1.00  0.00     0.057 C 
ATOM      2  C   UNL     1      -4.981 -13.296  16.118  1.00  0.00     0.016 C 
ENDROOT
BRANCH   1   3
ATOM      3  C   UNL     1      -4.907 -10.828  15.439  1.00  0.00     0.135 C 
ATOM      4  O   UNL     1      -4.940 -11.191  14.271  1.00  0.00    -0.299 OA
BRANCH   3   5
ATOM      5  C   UNL     1      -5.236  -9.391  15.787  1.00  0.00     0.072 C 
ATOM      6  C   UNL     1      -5.826  -8.614  14.610  1.00  0.00     0.012 C 
ENDBRANCH   3   5
ENDBRANCH   1   3
BRANCH   1   7
ATOM      7  C   UNL     1      -5.146 -11.458  17.880  1.00  0.00     0.038 C 
BRANCH   7   8
ATOM      8  C   UNL     1      -5.895 -12.571  18.568  1.00  0.00    -0.034 C 
ATOM      9  C   UNL     1      -5.538 -13.023  19.774  1.00  0.00     0.004 C 
ENDBRANCH   7   8
ENDBRANCH   1   7
TORSDOF 4
ENDMDL
MODEL 6
REMARK VINA RESULT:    -3.470     16.984     18.145
REMARK INTER + INTRA:          -4.748
REMARK INTER:                  -4.591
REMARK INTRA:                  -0.157
REMARK UNBOUND:                -0.467
REMARK SMILES C=CC[C@@H](C)C(=O)CC
REMARK SMILES IDX 4 1 5 2 6 3 7 4 8 5 9 6 3 7 2 8 1 9
REMARK H PARENT
REMARK Flexibility Score: inf
ROOT
ATOM      1  C   UNL     1      -5.068 -10.840  17.669  1.00  0.00     0.057 C 
ATOM      2  C   UNL     1      -4.023 -10.166  18.576  1.00  0.00     0.016 C 
ENDROOT
BRANCH   1   3
ATOM      3  C   UNL     1      -4.899 -10.514  16.195  1.00  0.00     0.135 C 
ATOM      4  O   UNL     1      -4.916 -11.439  15.394  1.00  0.00    -0.299 OA
BRANCH   3   5
ATOM      5  C   UNL     1      -4.761  -9.091  15.694  1.00  0.00     0.072 C 
ATOM      6  C   UNL     1      -5.792  -8.734  14.623  1.00  0.00     0.012 C 
ENDBRANCH   3   5
ENDBRANCH   1   3
BRANCH   1   7
ATOM      7  C   UNL     1      -5.133 -12.364  17.907  1.00  0.00     0.038 C 
BRANCH   7   8
ATOM      8  C   UNL     1      -5.883 -12.742  19.159  1.00  0.00    -0.034 C 
ATOM      9  C   UNL     1      -5.274 -13.313  20.203  1.00  0.00     0.004 C 
ENDBRANCH   7   8
ENDBRANCH   1   7
TORSDOF 4
ENDMDL
MODEL 7
REMARK VINA RESULT:    -3.442      1.938      3.122
REMARK INTER + INTRA:          -4.713
REMARK INTER:                  -4.395
REMARK INTRA:                  -0.318
REMARK UNBOUND:                -0.467
REMARK SMILES C=CC[C@@H](C)C(=O)CC
REMARK SMILES IDX 4 1 5 2 6 3 7 4 8 5 9 6 3 7 2 8 1 9
REMARK H PARENT
REMARK Flexibility Score: inf
ROOT
ATOM      1  C   UNL     1     -19.140  -2.354   9.780  1.00  0.00     0.057 C 
ATOM      2  C   UNL     1     -18.118  -3.479   9.546  1.00  0.00     0.016 C 
ENDROOT
BRANCH   1   3
ATOM      3  C   UNL     1     -20.339  -2.779  10.611  1.00  0.00     0.135 C 
ATOM      4  O   UNL     1     -21.108  -3.604  10.135  1.00  0.00    -0.299 OA
BRANCH   3   5
ATOM      5  C   UNL     1     -20.578  -2.253  12.012  1.00  0.00     0.072 C 
ATOM      6  C   UNL     1     -21.897  -1.491  12.144  1.00  0.00     0.012 C 
ENDBRANCH   3   5
ENDBRANCH   1   3
BRANCH   1   7
ATOM      7  C   UNL     1     -18.473  -1.087  10.359  1.00  0.00     0.038 C 
BRANCH   7   8
ATOM      8  C   UNL     1     -17.158  -1.363  11.043  1.00  0.00    -0.034 C 
ATOM      9  C   UNL     1     -16.856  -0.834  12.232  1.00  0.00     0.004 C 
ENDBRANCH   7   8
ENDBRANCH   1   7
TORSDOF 4
ENDMDL
MODEL 8
REMARK VINA RESULT:    -3.396      1.128      3.359
REMARK INTER + INTRA:          -4.657
REMARK INTER:                  -4.370
REMARK INTRA:                  -0.287
REMARK UNBOUND:                -0.467
REMARK SMILES C=CC[C@@H](C)C(=O)CC
REMARK SMILES IDX 4 1 5 2 6 3 7 4 8 5 9 6 3 7 2 8 1 9
REMARK H PARENT
REMARK Flexibility Score: inf
ROOT
ATOM      1  C   UNL     1     -18.472  -2.713  10.220  1.00  0.00     0.057 C 
ATOM      2  C   UNL     1     -17.832  -3.427   9.017  1.00  0.00     0.016 C 
ENDROOT
BRANCH   1   3
ATOM      3  C   UNL     1     -17.833  -1.374  10.549  1.00  0.00     0.135 C 
ATOM      4  O   UNL     1     -18.285  -0.372  10.013  1.00  0.00    -0.299 OA
BRANCH   3   5
ATOM      5  C   UNL     1     -16.698  -1.245  11.544  1.00  0.00     0.072 C 
ATOM      6  C   UNL     1     -16.927  -0.131  12.566  1.00  0.00     0.012 C 
ENDBRANCH   3   5
ENDBRANCH   1   3
BRANCH   1   7
ATOM      7  C   UNL     1     -20.002  -2.585  10.061  1.00  0.00     0.038 C 
BRANCH   7   8
ATOM      8  C   UNL     1     -20.740  -2.563  11.375  1.00  0.00    -0.034 C 
ATOM      9  C   UNL     1     -21.286  -1.445  11.862  1.00  0.00     0.004 C 
ENDBRANCH   7   8
ENDBRANCH   1   7
TORSDOF 4
ENDMDL
MODEL 9
REMARK VINA RESULT:    -3.374      1.966      3.674
REMARK INTER + INTRA:          -4.630
REMARK INTER:                  -4.323
REMARK INTRA:                  -0.307
REMARK UNBOUND:                -0.467
REMARK SMILES C=CC[C@@H](C)C(=O)CC
REMARK SMILES IDX 4 1 5 2 6 3 7 4 8 5 9 6 3 7 2 8 1 9
REMARK H PARENT
REMARK Flexibility Score: inf
ROOT
ATOM      1  C   UNL     1     -19.047  -1.564  10.548  1.00  0.00     0.057 C 
ATOM      2  C   UNL     1     -19.845  -0.497   9.781  1.00  0.00     0.016 C 
ENDROOT
BRANCH   1   3
ATOM      3  C   UNL     1     -19.447  -2.990  10.209  1.00  0.00     0.135 C 
ATOM      4  O   UNL     1     -20.630  -3.291  10.286  1.00  0.00    -0.299 OA
BRANCH   3   5
ATOM      5  C   UNL     1     -18.441  -4.020   9.739  1.00  0.00     0.072 C 
ATOM      6  C   UNL     1     -18.502  -4.268   8.232  1.00  0.00     0.012 C 
ENDBRANCH   3   5
ENDBRANCH   1   3
BRANCH   1   7
ATOM      7  C   UNL     1     -17.524  -1.354  10.401  1.00  0.00     0.038 C 
BRANCH   7   8
ATOM      8  C   UNL     1     -16.805  -1.249  11.722  1.00  0.00    -0.034 C 
ATOM      9  C   UNL     1     -16.959  -0.195  12.528  1.00  0.00     0.004 C 
ENDBRANCH   7   8
ENDBRANCH   1   7
TORSDOF 4
ENDMDL
