MODEL 1
REMARK VINA RESULT:    -6.450      0.000      0.000
REMARK INTER + INTRA:          -6.923
REMARK INTER:                  -6.827
REMARK INTRA:                  -0.096
REMARK UNBOUND:                -0.096
REMARK SMILES C=C(C)[C@@H]1CC=C(C)C(=O)C1
REMARK SMILES IDX 8 1 7 2 6 3 5 4 4 5 11 6 9 7 10 8 2 9 1 10 3 11
REMARK H PARENT
REMARK Flexibility Score: inf
ROOT
ATOM      1  C   UNL     1     -11.361 -34.593  25.809  1.00  0.00     0.048 C 
ATOM      2  C   UNL     1     -12.294 -33.966  26.808  1.00  0.00    -0.012 C 
ATOM      3  C   UNL     1     -13.503 -33.532  26.412  1.00  0.00    -0.019 C 
ATOM      4  C   UNL     1     -14.483 -32.912  27.374  1.00  0.00     0.036 C 
ATOM      5  C   UNL     1     -13.753 -32.138  28.488  1.00  0.00     0.025 C 
ATOM      6  C   UNL     1     -12.739 -33.054  29.198  1.00  0.00     0.089 C 
ATOM      7  C   UNL     1     -11.832 -33.715  28.197  1.00  0.00     0.158 C 
ATOM      8  O   UNL     1     -10.685 -34.089  28.560  1.00  0.00    -0.295 OA
ENDROOT
BRANCH   5   9
ATOM      9  C   UNL     1     -14.733 -31.514  29.474  1.00  0.00    -0.077 C 
ATOM     10  C   UNL     1     -14.748 -31.876  30.768  1.00  0.00     0.008 C 
ATOM     11  C   UNL     1     -15.712 -30.469  29.006  1.00  0.00     0.039 C 
ENDBRANCH   5   9
TORSDOF 1
ENDMDL
MODEL 2
REMARK VINA RESULT:    -5.866      1.799      2.631
REMARK INTER + INTRA:          -6.306
REMARK INTER:                  -6.212
REMARK INTRA:                  -0.094
REMARK UNBOUND:                -0.096
REMARK SMILES C=C(C)[C@@H]1CC=C(C)C(=O)C1
REMARK SMILES IDX 8 1 7 2 6 3 5 4 4 5 11 6 9 7 10 8 2 9 1 10 3 11
REMARK H PARENT
REMARK Flexibility Score: inf
ROOT
ATOM      1  C   UNL     1     -11.729 -34.275  25.918  1.00  0.00     0.048 C 
ATOM      2  C   UNL     1     -12.159 -33.789  27.274  1.00  0.00    -0.012 C 
ATOM      3  C   UNL     1     -11.325 -33.907  28.322  1.00  0.00    -0.019 C 
ATOM      4  C   UNL     1     -11.698 -33.421  29.698  1.00  0.00     0.036 C 
ATOM      5  C   UNL     1     -13.211 -33.565  29.945  1.00  0.00     0.025 C 
ATOM      6  C   UNL     1     -14.003 -32.844  28.838  1.00  0.00     0.089 C 
ATOM      7  C   UNL     1     -13.545 -33.297  27.480  1.00  0.00     0.158 C 
ATOM      8  O   UNL     1     -14.340 -33.220  26.505  1.00  0.00    -0.295 OA
ENDROOT
BRANCH   5   9
ATOM      9  C   UNL     1     -13.604 -33.067  31.331  1.00  0.00    -0.077 C 
ATOM     10  C   UNL     1     -12.926 -33.445  32.427  1.00  0.00     0.008 C 
ATOM     11  C   UNL     1     -14.774 -32.132  31.494  1.00  0.00     0.039 C 
ENDBRANCH   5   9
TORSDOF 1
ENDMDL
MODEL 3
REMARK VINA RESULT:    -5.860      2.538      4.298
REMARK INTER + INTRA:          -6.299
REMARK INTER:                  -6.205
REMARK INTRA:                  -0.094
REMARK UNBOUND:                -0.096
REMARK SMILES C=C(C)[C@@H]1CC=C(C)C(=O)C1
REMARK SMILES IDX 8 1 7 2 6 3 5 4 4 5 11 6 9 7 10 8 2 9 1 10 3 11
REMARK H PARENT
REMARK Flexibility Score: inf
ROOT
ATOM      1  C   UNL     1     -15.152 -30.358  28.626  1.00  0.00     0.048 C 
ATOM      2  C   UNL     1     -14.522 -31.718  28.749  1.00  0.00    -0.012 C 
ATOM      3  C   UNL     1     -14.173 -32.396  27.642  1.00  0.00    -0.019 C 
ATOM      4  C   UNL     1     -13.524 -33.753  27.708  1.00  0.00     0.036 C 
ATOM      5  C   UNL     1     -14.024 -34.549  28.929  1.00  0.00     0.025 C 
ATOM      6  C   UNL     1     -13.809 -33.736  30.219  1.00  0.00     0.089 C 
ATOM      7  C   UNL     1     -14.401 -32.360  30.082  1.00  0.00     0.158 C 
ATOM      8  O   UNL     1     -14.761 -31.740  31.119  1.00  0.00    -0.295 OA
ENDROOT
BRANCH   5   9
ATOM      9  C   UNL     1     -13.366 -35.921  29.013  1.00  0.00    -0.077 C 
ATOM     10  C   UNL     1     -12.147 -36.079  29.555  1.00  0.00     0.008 C 
ATOM     11  C   UNL     1     -14.083 -37.135  28.484  1.00  0.00     0.039 C 
ENDBRANCH   5   9
TORSDOF 1
ENDMDL
MODEL 4
REMARK VINA RESULT:    -5.819      1.732      4.457
REMARK INTER + INTRA:          -6.256
REMARK INTER:                  -6.163
REMARK INTRA:                  -0.093
REMARK UNBOUND:                -0.096
REMARK SMILES C=C(C)[C@@H]1CC=C(C)C(=O)C1
REMARK SMILES IDX 8 1 7 2 6 3 5 4 4 5 11 6 9 7 10 8 2 9 1 10 3 11
REMARK H PARENT
REMARK Flexibility Score: inf
ROOT
ATOM      1  C   UNL     1     -15.037 -32.051  32.738  1.00  0.00     0.048 C 
ATOM      2  C   UNL     1     -14.457 -32.332  31.380  1.00  0.00    -0.012 C 
ATOM      3  C   UNL     1     -14.892 -31.643  30.311  1.00  0.00    -0.019 C 
ATOM      4  C   UNL     1     -14.333 -31.871  28.932  1.00  0.00     0.036 C 
ATOM      5  C   UNL     1     -13.919 -33.342  28.738  1.00  0.00     0.025 C 
ATOM      6  C   UNL     1     -12.936 -33.770  29.843  1.00  0.00     0.089 C 
ATOM      7  C   UNL     1     -13.497 -33.451  31.201  1.00  0.00     0.158 C 
ATOM      8  O   UNL     1     -13.114 -34.122  32.198  1.00  0.00    -0.295 OA
ENDROOT
BRANCH   5   9
ATOM      9  C   UNL     1     -13.342 -33.585  27.348  1.00  0.00    -0.077 C 
ATOM     10  C   UNL     1     -14.071 -33.367  26.241  1.00  0.00     0.008 C 
ATOM     11  C   UNL     1     -11.928 -34.080  27.195  1.00  0.00     0.039 C 
ENDBRANCH   5   9
TORSDOF 1
ENDMDL
MODEL 5
REMARK VINA RESULT:    -5.714      2.129      4.812
REMARK INTER + INTRA:          -6.145
REMARK INTER:                  -6.053
REMARK INTRA:                  -0.091
REMARK UNBOUND:                -0.096
REMARK SMILES C=C(C)[C@@H]1CC=C(C)C(=O)C1
REMARK SMILES IDX 8 1 7 2 6 3 5 4 4 5 11 6 9 7 10 8 2 9 1 10 3 11
REMARK H PARENT
REMARK Flexibility Score: inf
ROOT
ATOM      1  C   UNL     1     -14.946 -32.001  32.693  1.00  0.00     0.048 C 
ATOM      2  C   UNL     1     -14.386 -32.566  31.417  1.00  0.00    -0.012 C 
ATOM      3  C   UNL     1     -13.547 -33.616  31.462  1.00  0.00    -0.019 C 
ATOM      4  C   UNL     1     -12.971 -34.232  30.215  1.00  0.00     0.036 C 
ATOM      5  C   UNL     1     -12.760 -33.171  29.118  1.00  0.00     0.025 C 
ATOM      6  C   UNL     1     -14.076 -32.419  28.843  1.00  0.00     0.089 C 
ATOM      7  C   UNL     1     -14.659 -31.890  30.124  1.00  0.00     0.158 C 
ATOM      8  O   UNL     1     -15.417 -30.883  30.084  1.00  0.00    -0.295 OA
ENDROOT
BRANCH   5   9
ATOM      9  C   UNL     1     -12.187 -33.783  27.846  1.00  0.00    -0.077 C 
ATOM     10  C   UNL     1     -10.932 -34.262  27.805  1.00  0.00     0.008 C 
ATOM     11  C   UNL     1     -13.029 -33.861  26.600  1.00  0.00     0.039 C 
ENDBRANCH   5   9
TORSDOF 1
ENDMDL
MODEL 6
REMARK VINA RESULT:    -5.675      3.109      3.861
REMARK INTER + INTRA:          -6.104
REMARK INTER:                  -6.009
REMARK INTRA:                  -0.094
REMARK UNBOUND:                -0.096
REMARK SMILES C=C(C)[C@@H]1CC=C(C)C(=O)C1
REMARK SMILES IDX 8 1 7 2 6 3 5 4 4 5 11 6 9 7 10 8 2 9 1 10 3 11
REMARK H PARENT
REMARK Flexibility Score: inf
ROOT
ATOM      1  C   UNL     1     -14.165 -37.553  28.335  1.00  0.00     0.048 C 
ATOM      2  C   UNL     1     -13.871 -36.431  29.291  1.00  0.00    -0.012 C 
ATOM      3  C   UNL     1     -13.654 -36.699  30.591  1.00  0.00    -0.019 C 
ATOM      4  C   UNL     1     -13.338 -35.615  31.587  1.00  0.00     0.036 C 
ATOM      5  C   UNL     1     -14.046 -34.298  31.218  1.00  0.00     0.025 C 
ATOM      6  C   UNL     1     -13.689 -33.887  29.777  1.00  0.00     0.089 C 
ATOM      7  C   UNL     1     -13.942 -35.023  28.825  1.00  0.00     0.158 C 
ATOM      8  O   UNL     1     -14.180 -34.768  27.614  1.00  0.00    -0.295 OA
ENDROOT
BRANCH   5   9
ATOM      9  C   UNL     1     -13.726 -33.189  32.213  1.00  0.00    -0.077 C 
ATOM     10  C   UNL     1     -12.533 -33.124  32.827  1.00  0.00     0.008 C 
ATOM     11  C   UNL     1     -14.757 -32.136  32.527  1.00  0.00     0.039 C 
ENDBRANCH   5   9
TORSDOF 1
ENDMDL
MODEL 7
REMARK VINA RESULT:    -5.666      2.612      3.581
REMARK INTER + INTRA:          -6.093
REMARK INTER:                  -5.998
REMARK INTRA:                  -0.095
REMARK UNBOUND:                -0.096
REMARK SMILES C=C(C)[C@@H]1CC=C(C)C(=O)C1
REMARK SMILES IDX 8 1 7 2 6 3 5 4 4 5 11 6 9 7 10 8 2 9 1 10 3 11
REMARK H PARENT
REMARK Flexibility Score: inf
ROOT
ATOM      1  C   UNL     1     -12.518 -36.595  31.718  1.00  0.00     0.048 C 
ATOM      2  C   UNL     1     -13.149 -35.571  30.815  1.00  0.00    -0.012 C 
ATOM      3  C   UNL     1     -13.426 -35.887  29.538  1.00  0.00    -0.019 C 
ATOM      4  C   UNL     1     -14.074 -34.906  28.596  1.00  0.00     0.036 C 
ATOM      5  C   UNL     1     -13.647 -33.462  28.919  1.00  0.00     0.025 C 
ATOM      6  C   UNL     1     -13.944 -33.136  30.395  1.00  0.00     0.089 C 
ATOM      7  C   UNL     1     -13.350 -34.181  31.297  1.00  0.00     0.158 C 
ATOM      8  O   UNL     1     -13.057 -33.874  32.485  1.00  0.00    -0.295 OA
ENDROOT
BRANCH   5   9
ATOM      9  C   UNL     1     -14.304 -32.458  27.979  1.00  0.00    -0.077 C 
ATOM     10  C   UNL     1     -14.511 -32.747  26.684  1.00  0.00     0.008 C 
ATOM     11  C   UNL     1     -14.735 -31.110  28.496  1.00  0.00     0.039 C 
ENDBRANCH   5   9
TORSDOF 1
ENDMDL
MODEL 8
REMARK VINA RESULT:    -5.636      2.474      4.379
REMARK INTER + INTRA:          -6.062
REMARK INTER:                  -5.968
REMARK INTRA:                  -0.094
REMARK UNBOUND:                -0.096
REMARK SMILES C=C(C)[C@@H]1CC=C(C)C(=O)C1
REMARK SMILES IDX 8 1 7 2 6 3 5 4 4 5 11 6 9 7 10 8 2 9 1 10 3 11
REMARK H PARENT
REMARK Flexibility Score: inf
ROOT
ATOM      1  C   UNL     1     -14.826 -30.772  28.362  1.00  0.00     0.048 C 
ATOM      2  C   UNL     1     -14.454 -32.104  28.950  1.00  0.00    -0.012 C 
ATOM      3  C   UNL     1     -14.313 -32.232  30.281  1.00  0.00    -0.019 C 
ATOM      4  C   UNL     1     -13.959 -33.547  30.924  1.00  0.00     0.036 C 
ATOM      5  C   UNL     1     -13.051 -34.387  30.006  1.00  0.00     0.025 C 
ATOM      6  C   UNL     1     -13.712 -34.571  28.627  1.00  0.00     0.089 C 
ATOM      7  C   UNL     1     -14.123 -33.242  28.056  1.00  0.00     0.158 C 
ATOM      8  O   UNL     1     -14.220 -33.115  26.806  1.00  0.00    -0.295 OA
ENDROOT
BRANCH   5   9
ATOM      9  C   UNL     1     -12.694 -35.725  30.641  1.00  0.00    -0.077 C 
ATOM     10  C   UNL     1     -13.585 -36.410  31.377  1.00  0.00     0.008 C 
ATOM     11  C   UNL     1     -11.318 -36.308  30.450  1.00  0.00     0.039 C 
ENDBRANCH   5   9
TORSDOF 1
ENDMDL
MODEL 9
REMARK VINA RESULT:    -5.613      2.741      3.809
REMARK INTER + INTRA:          -6.038
REMARK INTER:                  -5.943
REMARK INTRA:                  -0.095
REMARK UNBOUND:                -0.096
REMARK SMILES C=C(C)[C@@H]1CC=C(C)C(=O)C1
REMARK SMILES IDX 8 1 7 2 6 3 5 4 4 5 11 6 9 7 10 8 2 9 1 10 3 11
REMARK H PARENT
REMARK Flexibility Score: inf
ROOT
ATOM      1  C   UNL     1     -12.515 -37.281  31.657  1.00  0.00     0.048 C 
ATOM      2  C   UNL     1     -12.777 -36.127  30.729  1.00  0.00    -0.012 C 
ATOM      3  C   UNL     1     -12.790 -34.872  31.210  1.00  0.00    -0.019 C 
ATOM      4  C   UNL     1     -13.031 -33.680  30.323  1.00  0.00     0.036 C 
ATOM      5  C   UNL     1     -13.985 -34.032  29.166  1.00  0.00     0.025 C 
ATOM      6  C   UNL     1     -13.448 -35.244  28.382  1.00  0.00     0.089 C 
ATOM      7  C   UNL     1     -13.144 -36.384  29.313  1.00  0.00     0.158 C 
ATOM      8  O   UNL     1     -13.167 -37.564  28.869  1.00  0.00    -0.295 OA
ENDROOT
BRANCH   5   9
ATOM      9  C   UNL     1     -14.229 -32.836  28.254  1.00  0.00    -0.077 C 
ATOM     10  C   UNL     1     -14.411 -31.602  28.753  1.00  0.00     0.008 C 
ATOM     11  C   UNL     1     -14.269 -33.022  26.760  1.00  0.00     0.039 C 
ENDBRANCH   5   9
TORSDOF 1
ENDMDL
