MODEL 1
REMARK VINA RESULT:    -3.228      0.000      0.000
REMARK INTER + INTRA:          -4.968
REMARK INTER:                  -4.926
REMARK INTRA:                  -0.042
REMARK UNBOUND:                -0.042
REMARK SMILES CC1=CCC[C@H](C)C(=O)C[C@@H](C(C)C)C(=O)C1
REMARK SMILES IDX 8 1 9 2 6 3 7 4 5 5 4 6 3 7 2 8 1 9 10 11 11 12 15 13 16 14
REMARK SMILES IDX 17 15 12 17 13 18 14 19
REMARK H PARENT
REMARK Flexibility Score: 70.00
ROOT
ATOM      1  C   UNL     1       1.605   5.338  62.170  1.00  0.00     0.136 C 
ATOM      2  O   UNL     1       1.439   5.844  61.069  1.00  0.00    -0.299 OA
ENDROOT
BRANCH   1   3
ATOM      3  C   UNL     1       3.003   5.188  62.724  1.00  0.00     0.053 C 
ATOM      4  C   UNL     1       3.796   4.172  61.892  1.00  0.00     0.016 C 
BRANCH   3   5
ATOM      5  C   UNL     1       3.734   6.544  62.771  1.00  0.00     0.015 C 
BRANCH   5   6
ATOM      6  C   UNL     1       2.997   7.592  63.632  1.00  0.00     0.028 C 
BRANCH   6   7
ATOM      7  C   UNL     1       3.274   7.398  65.105  1.00  0.00    -0.028 C 
ATOM      8  C   UNL     1       2.368   7.196  66.092  1.00  0.00    -0.070 CG0
ATOM      9  C   UNL     1       2.900   6.981  67.488  1.00  0.00     0.039 C 
ATOM     10  G   UNL     1       0.861   7.193  65.896  1.00  0.00     0.000 G0
ENDBRANCH   6   7
ENDBRANCH   5   6
ENDBRANCH   3   5
ENDBRANCH   1   3
BRANCH   1  11
ATOM     11  C   UNL     1       0.424   4.800  62.948  1.00  0.00     0.087 C 
BRANCH  11  12
ATOM     12  C   UNL     1      -0.244   5.852  63.865  1.00  0.00     0.066 C 
BRANCH  12  13
ATOM     13  C   UNL     1       0.352   5.908  65.265  1.00  0.00     0.140 C 
ATOM     14  O   UNL     1       0.501   4.857  65.871  1.00  0.00    -0.299 OA
BRANCH  13  15
ATOM     15  C   UNL     1       0.837   7.188  65.910  1.00  0.00     0.106 CG0
ATOM     16  G   UNL     1       2.348   7.179  66.078  1.00  0.00     0.000 G0
ENDBRANCH  13  15
ENDBRANCH  12  13
BRANCH  12  17
ATOM     17  C   UNL     1      -1.799   5.728  63.869  1.00  0.00    -0.006 C 
ATOM     18  C   UNL     1      -2.442   6.776  64.791  1.00  0.00     0.008 C 
ATOM     19  C   UNL     1      -2.317   4.326  64.232  1.00  0.00     0.008 C 
ENDBRANCH  12  17
ENDBRANCH  11  12
ENDBRANCH   1  11
TORSDOF 1
ENDMDL
MODEL 2
REMARK VINA RESULT:    -3.178      2.206      2.835
REMARK INTER + INTRA:          -4.892
REMARK INTER:                  -4.820
REMARK INTRA:                  -0.072
REMARK UNBOUND:                -0.042
REMARK SMILES CC1=CCC[C@H](C)C(=O)C[C@@H](C(C)C)C(=O)C1
REMARK SMILES IDX 8 1 9 2 6 3 7 4 5 5 4 6 3 7 2 8 1 9 10 11 11 12 15 13 16 14
REMARK SMILES IDX 17 15 12 17 13 18 14 19
REMARK H PARENT
REMARK Flexibility Score: 70.00
ROOT
ATOM      1  C   UNL     1       2.531   5.053  62.922  1.00  0.00     0.136 C 
ATOM      2  O   UNL     1       2.782   4.070  62.239  1.00  0.00    -0.299 OA
ENDROOT
BRANCH   1   3
ATOM      3  C   UNL     1       3.232   6.362  62.639  1.00  0.00     0.053 C 
ATOM      4  C   UNL     1       4.735   6.227  62.916  1.00  0.00     0.016 C 
BRANCH   3   5
ATOM      5  C   UNL     1       2.983   6.829  61.192  1.00  0.00     0.015 C 
BRANCH   5   6
ATOM      6  C   UNL     1       1.652   7.594  61.031  1.00  0.00     0.028 C 
BRANCH   6   7
ATOM      7  C   UNL     1       1.662   8.897  61.795  1.00  0.00    -0.028 C 
ATOM      8  C   UNL     1       0.904   9.226  62.868  1.00  0.00    -0.070 CG0
ATOM      9  C   UNL     1       1.133  10.582  63.490  1.00  0.00     0.039 C 
ATOM     10  G   UNL     1      -0.171   8.339  63.472  1.00  0.00     0.000 G0
ENDBRANCH   6   7
ENDBRANCH   5   6
ENDBRANCH   3   5
ENDBRANCH   1   3
BRANCH   1  11
ATOM     11  C   UNL     1       1.575   4.948  64.089  1.00  0.00     0.087 C 
BRANCH  11  12
ATOM     12  C   UNL     1       0.269   5.755  63.896  1.00  0.00     0.066 C 
BRANCH  12  13
ATOM     13  C   UNL     1       0.391   7.218  64.299  1.00  0.00     0.140 C 
ATOM     14  O   UNL     1       1.050   7.490  65.293  1.00  0.00    -0.299 OA
BRANCH  13  15
ATOM     15  C   UNL     1      -0.197   8.355  63.491  1.00  0.00     0.106 CG0
ATOM     16  G   UNL     1       0.896   9.205  62.864  1.00  0.00     0.000 G0
ENDBRANCH  13  15
ENDBRANCH  12  13
BRANCH  12  17
ATOM     17  C   UNL     1      -0.963   5.046  64.537  1.00  0.00    -0.006 C 
ATOM     18  C   UNL     1      -0.532   3.868  65.425  1.00  0.00     0.008 C 
ATOM     19  C   UNL     1      -2.016   4.574  63.521  1.00  0.00     0.008 C 
ENDBRANCH  12  17
ENDBRANCH  11  12
ENDBRANCH   1  11
TORSDOF 1
ENDMDL
MODEL 3
REMARK VINA RESULT:    -3.157      2.432      4.762
REMARK INTER + INTRA:          -4.861
REMARK INTER:                  -4.552
REMARK INTRA:                  -0.309
REMARK UNBOUND:                -0.042
REMARK SMILES CC1=CCC[C@H](C)C(=O)C[C@@H](C(C)C)C(=O)C1
REMARK SMILES IDX 8 1 9 2 6 3 7 4 5 5 4 6 3 7 2 8 1 9 10 11 11 12 15 13 16 14
REMARK SMILES IDX 17 15 12 17 13 18 14 19
REMARK H PARENT
REMARK Flexibility Score: 70.00
ROOT
ATOM      1  C   UNL     1       1.020   6.530  63.853  1.00  0.00     0.136 C 
ATOM      2  O   UNL     1       0.274   7.490  63.719  1.00  0.00    -0.299 OA
ENDROOT
BRANCH   1   3
ATOM      3  C   UNL     1       0.715   5.236  63.133  1.00  0.00     0.053 C 
ATOM      4  C   UNL     1      -0.695   4.750  63.492  1.00  0.00     0.016 C 
BRANCH   3   5
ATOM      5  C   UNL     1       0.865   5.397  61.608  1.00  0.00     0.015 C 
BRANCH   5   6
ATOM      6  C   UNL     1       2.290   5.815  61.187  1.00  0.00     0.028 C 
BRANCH   6   7
ATOM      7  C   UNL     1       3.327   4.833  61.681  1.00  0.00    -0.028 C 
ATOM      8  C   UNL     1       4.482   5.116  62.329  1.00  0.00    -0.070 CG0
ATOM      9  C   UNL     1       5.336   3.951  62.766  1.00  0.00     0.039 C 
ATOM     10  G   UNL     1       4.987   6.518  62.627  1.00  0.00     0.000 G0
ENDBRANCH   6   7
ENDBRANCH   5   6
ENDBRANCH   3   5
ENDBRANCH   1   3
BRANCH   1  11
ATOM     11  C   UNL     1       2.205   6.609  64.790  1.00  0.00     0.087 C 
BRANCH  11  12
ATOM     12  C   UNL     1       3.282   7.624  64.340  1.00  0.00     0.066 C 
BRANCH  12  13
ATOM     13  C   UNL     1       4.626   6.984  64.016  1.00  0.00     0.140 C 
ATOM     14  O   UNL     1       5.409   6.791  64.935  1.00  0.00    -0.299 OA
BRANCH  13  15
ATOM     15  C   UNL     1       5.007   6.508  62.631  1.00  0.00     0.106 CG0
ATOM     16  G   UNL     1       4.473   5.110  62.366  1.00  0.00     0.000 G0
ENDBRANCH  13  15
ENDBRANCH  12  13
BRANCH  12  17
ATOM     17  C   UNL     1       3.402   8.831  65.321  1.00  0.00    -0.006 C 
ATOM     18  C   UNL     1       3.028   8.425  66.756  1.00  0.00     0.008 C 
ATOM     19  C   UNL     1       2.589  10.066  64.900  1.00  0.00     0.008 C 
ENDBRANCH  12  17
ENDBRANCH  11  12
ENDBRANCH   1  11
TORSDOF 1
ENDMDL
MODEL 4
REMARK VINA RESULT:    -3.154      2.743      4.950
REMARK INTER + INTRA:          -4.856
REMARK INTER:                  -4.630
REMARK INTRA:                  -0.226
REMARK UNBOUND:                -0.042
REMARK SMILES CC1=CCC[C@H](C)C(=O)C[C@@H](C(C)C)C(=O)C1
REMARK SMILES IDX 8 1 9 2 6 3 7 4 5 5 4 6 3 7 2 8 1 9 10 11 11 12 15 13 16 14
REMARK SMILES IDX 17 15 12 17 13 18 14 19
REMARK H PARENT
REMARK Flexibility Score: 70.00
ROOT
ATOM      1  C   UNL     1       0.584   4.939  65.113  1.00  0.00     0.136 C 
ATOM      2  O   UNL     1       1.273   3.945  64.929  1.00  0.00    -0.299 OA
ENDROOT
BRANCH   1   3
ATOM      3  C   UNL     1      -0.324   5.437  64.011  1.00  0.00     0.053 C 
ATOM      4  C   UNL     1       0.505   5.834  62.783  1.00  0.00     0.016 C 
BRANCH   3   5
ATOM      5  C   UNL     1      -1.382   4.381  63.638  1.00  0.00     0.015 C 
BRANCH   5   6
ATOM      6  C   UNL     1      -2.670   4.500  64.481  1.00  0.00     0.028 C 
BRANCH   6   7
ATOM      7  C   UNL     1      -3.276   5.880  64.380  1.00  0.00    -0.028 C 
ATOM      8  C   UNL     1      -3.420   6.789  65.374  1.00  0.00    -0.070 CG0
ATOM      9  C   UNL     1      -4.018   8.126  65.010  1.00  0.00     0.039 C 
ATOM     10  G   UNL     1      -3.044   6.549  66.827  1.00  0.00     0.000 G0
ENDBRANCH   6   7
ENDBRANCH   5   6
ENDBRANCH   3   5
ENDBRANCH   1   3
BRANCH   1  11
ATOM     11  C   UNL     1       0.688   5.710  66.410  1.00  0.00     0.087 C 
BRANCH  11  12
ATOM     12  C   UNL     1      -0.581   5.616  67.290  1.00  0.00     0.066 C 
BRANCH  12  13
ATOM     13  C   UNL     1      -1.556   6.768  67.079  1.00  0.00     0.140 C 
ATOM     14  O   UNL     1      -1.105   7.903  67.034  1.00  0.00    -0.299 OA
BRANCH  13  15
ATOM     15  C   UNL     1      -3.038   6.570  66.850  1.00  0.00     0.106 CG0
ATOM     16  G   UNL     1      -3.400   6.785  65.390  1.00  0.00     0.000 G0
ENDBRANCH  13  15
ENDBRANCH  12  13
BRANCH  12  17
ATOM     17  C   UNL     1      -0.241   5.372  68.792  1.00  0.00    -0.006 C 
ATOM     18  C   UNL     1       1.192   5.818  69.121  1.00  0.00     0.008 C 
ATOM     19  C   UNL     1      -0.454   3.921  69.257  1.00  0.00     0.008 C 
ENDBRANCH  12  17
ENDBRANCH  11  12
ENDBRANCH   1  11
TORSDOF 1
ENDMDL
MODEL 5
REMARK VINA RESULT:    -3.044      1.969      4.451
REMARK INTER + INTRA:          -4.687
REMARK INTER:                  -4.601
REMARK INTRA:                  -0.087
REMARK UNBOUND:                -0.042
REMARK SMILES CC1=CCC[C@H](C)C(=O)C[C@@H](C(C)C)C(=O)C1
REMARK SMILES IDX 8 1 9 2 6 3 7 4 5 5 4 6 3 7 2 8 1 9 10 11 11 12 15 13 16 14
REMARK SMILES IDX 17 15 12 17 13 18 14 19
REMARK H PARENT
REMARK Flexibility Score: 70.00
ROOT
ATOM      1  C   UNL     1      -0.073   5.394  65.100  1.00  0.00     0.136 C 
ATOM      2  O   UNL     1      -0.988   5.646  65.871  1.00  0.00    -0.299 OA
ENDROOT
BRANCH   1   3
ATOM      3  C   UNL     1      -0.376   4.788  63.748  1.00  0.00     0.053 C 
ATOM      4  C   UNL     1      -1.888   4.584  63.587  1.00  0.00     0.016 C 
BRANCH   3   5
ATOM      5  C   UNL     1       0.183   5.659  62.607  1.00  0.00     0.015 C 
BRANCH   5   6
ATOM      6  C   UNL     1       1.311   4.961  61.817  1.00  0.00     0.028 C 
BRANCH   6   7
ATOM      7  C   UNL     1       2.375   5.941  61.382  1.00  0.00    -0.028 C 
ATOM      8  C   UNL     1       3.394   6.432  62.127  1.00  0.00    -0.070 CG0
ATOM      9  C   UNL     1       4.362   7.369  61.448  1.00  0.00     0.039 C 
ATOM     10  G   UNL     1       3.617   6.123  63.599  1.00  0.00     0.000 G0
ENDBRANCH   6   7
ENDBRANCH   5   6
ENDBRANCH   3   5
ENDBRANCH   1   3
BRANCH   1  11
ATOM     11  C   UNL     1       1.362   5.621  65.519  1.00  0.00     0.087 C 
BRANCH  11  12
ATOM     12  C   UNL     1       1.833   7.085  65.347  1.00  0.00     0.066 C 
BRANCH  12  13
ATOM     13  C   UNL     1       3.084   7.226  64.489  1.00  0.00     0.140 C 
ATOM     14  O   UNL     1       3.722   8.266  64.567  1.00  0.00    -0.299 OA
BRANCH  13  15
ATOM     15  C   UNL     1       3.614   6.119  63.604  1.00  0.00     0.106 CG0
ATOM     16  G   UNL     1       3.389   6.438  62.135  1.00  0.00     0.000 G0
ENDBRANCH  13  15
ENDBRANCH  12  13
BRANCH  12  17
ATOM     17  C   UNL     1       1.941   7.834  66.711  1.00  0.00    -0.006 C 
ATOM     18  C   UNL     1       1.651   6.894  67.891  1.00  0.00     0.008 C 
ATOM     19  C   UNL     1       1.053   9.086  66.812  1.00  0.00     0.008 C 
ENDBRANCH  12  17
ENDBRANCH  11  12
ENDBRANCH   1  11
TORSDOF 1
ENDMDL
MODEL 6
REMARK VINA RESULT:    -2.984     12.855     15.296
REMARK INTER + INTRA:          -4.597
REMARK INTER:                  -4.308
REMARK INTRA:                  -0.289
REMARK UNBOUND:                -0.042
REMARK SMILES CC1=CCC[C@H](C)C(=O)C[C@@H](C(C)C)C(=O)C1
REMARK SMILES IDX 8 1 9 2 6 3 7 4 5 5 4 6 3 7 2 8 1 9 10 11 11 12 15 13 16 14
REMARK SMILES IDX 17 15 12 17 13 18 14 19
REMARK H PARENT
REMARK Flexibility Score: 70.00
ROOT
ATOM      1  C   UNL     1       2.250  15.827  73.020  1.00  0.00     0.136 C 
ATOM      2  O   UNL     1       3.277  15.164  73.066  1.00  0.00    -0.299 OA
ENDROOT
BRANCH   1   3
ATOM      3  C   UNL     1       0.911  15.151  73.216  1.00  0.00     0.053 C 
ATOM      4  C   UNL     1       0.886  13.806  72.479  1.00  0.00     0.016 C 
BRANCH   3   5
ATOM      5  C   UNL     1       0.595  14.960  74.712  1.00  0.00     0.015 C 
BRANCH   5   6
ATOM      6  C   UNL     1      -0.667  15.728  75.160  1.00  0.00     0.028 C 
BRANCH   6   7
ATOM      7  C   UNL     1      -1.373  16.370  73.988  1.00  0.00    -0.028 C 
ATOM      8  C   UNL     1      -1.337  17.673  73.621  1.00  0.00    -0.070 CG0
ATOM      9  C   UNL     1      -2.094  18.065  72.376  1.00  0.00     0.039 C 
ATOM     10  G   UNL     1      -0.608  18.767  74.384  1.00  0.00     0.000 G0
ENDBRANCH   6   7
ENDBRANCH   5   6
ENDBRANCH   3   5
ENDBRANCH   1   3
BRANCH   1  11
ATOM     11  C   UNL     1       2.308  17.304  72.700  1.00  0.00     0.087 C 
BRANCH  11  12
ATOM     12  C   UNL     1       1.992  18.213  73.912  1.00  0.00     0.066 C 
BRANCH  12  13
ATOM     13  C   UNL     1       0.750  19.074  73.721  1.00  0.00     0.140 C 
ATOM     14  O   UNL     1       0.820  20.025  72.957  1.00  0.00    -0.299 OA
BRANCH  13  15
ATOM     15  C   UNL     1      -0.581  18.767  74.372  1.00  0.00     0.106 CG0
ATOM     16  G   UNL     1      -1.318  17.670  73.621  1.00  0.00     0.000 G0
ENDBRANCH  13  15
ENDBRANCH  12  13
BRANCH  12  17
ATOM     17  C   UNL     1       3.237  19.031  74.376  1.00  0.00    -0.006 C 
ATOM     18  C   UNL     1       4.271  19.165  73.247  1.00  0.00     0.008 C 
ATOM     19  C   UNL     1       3.915  18.479  75.641  1.00  0.00     0.008 C 
ENDBRANCH  12  17
ENDBRANCH  11  12
ENDBRANCH   1  11
TORSDOF 1
ENDMDL
MODEL 7
REMARK VINA RESULT:    -2.960     12.770     15.172
REMARK INTER + INTRA:          -4.560
REMARK INTER:                  -4.541
REMARK INTRA:                  -0.019
REMARK UNBOUND:                -0.042
REMARK SMILES CC1=CCC[C@H](C)C(=O)C[C@@H](C(C)C)C(=O)C1
REMARK SMILES IDX 8 1 9 2 6 3 7 4 5 5 4 6 3 7 2 8 1 9 10 11 11 12 15 13 16 14
REMARK SMILES IDX 17 15 12 17 13 18 14 19
REMARK H PARENT
REMARK Flexibility Score: 70.00
ROOT
ATOM      1  C   UNL     1       4.146  19.031  74.800  1.00  0.00     0.136 C 
ATOM      2  O   UNL     1       4.175  18.620  75.952  1.00  0.00    -0.299 OA
ENDROOT
BRANCH   1   3
ATOM      3  C   UNL     1       5.372  19.686  74.205  1.00  0.00     0.053 C 
ATOM      4  C   UNL     1       6.130  20.468  75.286  1.00  0.00     0.016 C 
BRANCH   3   5
ATOM      5  C   UNL     1       6.292  18.648  73.535  1.00  0.00     0.015 C 
BRANCH   5   6
ATOM      6  C   UNL     1       5.992  18.464  72.032  1.00  0.00     0.028 C 
BRANCH   6   7
ATOM      7  C   UNL     1       6.010  17.007  71.635  1.00  0.00    -0.028 C 
ATOM      8  C   UNL     1       4.944  16.183  71.486  1.00  0.00    -0.070 CG0
ATOM      9  C   UNL     1       5.218  14.770  71.032  1.00  0.00     0.039 C 
ATOM     10  G   UNL     1       3.502  16.574  71.763  1.00  0.00     0.000 G0
ENDBRANCH   6   7
ENDBRANCH   5   6
ENDBRANCH   3   5
ENDBRANCH   1   3
BRANCH   1  11
ATOM     11  C   UNL     1       2.870  18.947  73.992  1.00  0.00     0.087 C 
BRANCH  11  12
ATOM     12  C   UNL     1       2.270  17.523  73.928  1.00  0.00     0.066 C 
BRANCH  12  13
ATOM     13  C   UNL     1       3.174  16.511  73.237  1.00  0.00     0.140 C 
ATOM     14  O   UNL     1       3.623  15.589  73.904  1.00  0.00    -0.299 OA
BRANCH  13  15
ATOM     15  C   UNL     1       3.484  16.547  71.756  1.00  0.00     0.106 CG0
ATOM     16  G   UNL     1       4.932  16.172  71.490  1.00  0.00     0.000 G0
ENDBRANCH  13  15
ENDBRANCH  12  13
BRANCH  12  17
ATOM     17  C   UNL     1       0.813  17.521  73.368  1.00  0.00    -0.006 C 
ATOM     18  C   UNL     1       0.037  18.766  73.826  1.00  0.00     0.008 C 
ATOM     19  C   UNL     1       0.012  16.253  73.707  1.00  0.00     0.008 C 
ENDBRANCH  12  17
ENDBRANCH  11  12
ENDBRANCH   1  11
TORSDOF 1
ENDMDL
MODEL 8
REMARK VINA RESULT:    -2.906      1.892      4.288
REMARK INTER + INTRA:          -4.477
REMARK INTER:                  -4.750
REMARK INTRA:                   0.273
REMARK UNBOUND:                -0.042
REMARK SMILES CC1=CCC[C@H](C)C(=O)C[C@@H](C(C)C)C(=O)C1
REMARK SMILES IDX 8 1 9 2 6 3 7 4 5 5 4 6 3 7 2 8 1 9 10 11 11 12 15 13 16 14
REMARK SMILES IDX 17 15 12 17 13 18 14 19
REMARK H PARENT
REMARK Flexibility Score: 70.00
ROOT
ATOM      1  C   UNL     1       0.352   5.132  64.736  1.00  0.00     0.136 C 
ATOM      2  O   UNL     1       0.334   3.965  65.101  1.00  0.00    -0.299 OA
ENDROOT
BRANCH   1   3
ATOM      3  C   UNL     1      -0.838   5.708  64.003  1.00  0.00     0.053 C 
ATOM      4  C   UNL     1      -1.836   4.595  63.659  1.00  0.00     0.016 C 
BRANCH   3   5
ATOM      5  C   UNL     1      -1.520   6.816  64.828  1.00  0.00     0.015 C 
BRANCH   5   6
ATOM      6  C   UNL     1      -1.402   8.209  64.172  1.00  0.00     0.028 C 
BRANCH   6   7
ATOM      7  C   UNL     1      -0.227   8.985  64.721  1.00  0.00    -0.028 C 
ATOM      8  C   UNL     1       1.008   9.099  64.178  1.00  0.00    -0.070 CG0
ATOM      9  C   UNL     1       2.004   9.976  64.897  1.00  0.00     0.039 C 
ATOM     10  G   UNL     1       1.466   8.391  62.913  1.00  0.00     0.000 G0
ENDBRANCH   6   7
ENDBRANCH   5   6
ENDBRANCH   3   5
ENDBRANCH   1   3
BRANCH   1  11
ATOM     11  C   UNL     1       1.585   5.981  64.953  1.00  0.00     0.087 C 
BRANCH  11  12
ATOM     12  C   UNL     1       2.501   6.073  63.709  1.00  0.00     0.066 C 
BRANCH  12  13
ATOM     13  C   UNL     1       2.644   7.486  63.161  1.00  0.00     0.140 C 
ATOM     14  O   UNL     1       3.764   7.879  62.865  1.00  0.00    -0.299 OA
BRANCH  13  15
ATOM     15  C   UNL     1       1.466   8.398  62.895  1.00  0.00     0.106 CG0
ATOM     16  G   UNL     1       1.017   9.098  64.167  1.00  0.00     0.000 G0
ENDBRANCH  13  15
ENDBRANCH  12  13
BRANCH  12  17
ATOM     17  C   UNL     1       2.116   5.030  62.615  1.00  0.00    -0.006 C 
ATOM     18  C   UNL     1       3.240   4.004  62.400  1.00  0.00     0.008 C 
ATOM     19  C   UNL     1       1.714   5.653  61.267  1.00  0.00     0.008 C 
ENDBRANCH  12  17
ENDBRANCH  11  12
ENDBRANCH   1  11
TORSDOF 1
ENDMDL
MODEL 9
REMARK VINA RESULT:    -2.875     12.547     14.882
REMARK INTER + INTRA:          -4.431
REMARK INTER:                  -4.332
REMARK INTRA:                  -0.099
REMARK UNBOUND:                -0.042
REMARK SMILES CC1=CCC[C@H](C)C(=O)C[C@@H](C(C)C)C(=O)C1
REMARK SMILES IDX 8 1 9 2 6 3 7 4 5 5 4 6 3 7 2 8 1 9 10 11 11 12 15 13 16 14
REMARK SMILES IDX 17 15 12 17 13 18 14 19
REMARK H PARENT
REMARK Flexibility Score: 70.00
ROOT
ATOM      1  C   UNL     1       3.323  17.096  74.906  1.00  0.00     0.136 C 
ATOM      2  O   UNL     1       4.109  16.179  75.099  1.00  0.00    -0.299 OA
ENDROOT
BRANCH   1   3
ATOM      3  C   UNL     1       3.832  18.519  74.839  1.00  0.00     0.053 C 
ATOM      4  C   UNL     1       4.205  19.013  76.242  1.00  0.00     0.016 C 
BRANCH   3   5
ATOM      5  C   UNL     1       5.031  18.640  73.880  1.00  0.00     0.015 C 
BRANCH   5   6
ATOM      6  C   UNL     1       4.705  18.160  72.449  1.00  0.00     0.028 C 
BRANCH   6   7
ATOM      7  C   UNL     1       3.778  19.118  71.738  1.00  0.00    -0.028 C 
ATOM      8  C   UNL     1       2.568  18.841  71.197  1.00  0.00    -0.070 CG0
ATOM      9  C   UNL     1       1.806  19.987  70.577  1.00  0.00     0.039 C 
ATOM     10  G   UNL     1       1.937  17.460  71.150  1.00  0.00     0.000 G0
ENDBRANCH   6   7
ENDBRANCH   5   6
ENDBRANCH   3   5
ENDBRANCH   1   3
BRANCH   1  11
ATOM     11  C   UNL     1       1.840  16.821  74.802  1.00  0.00     0.087 C 
BRANCH  11  12
ATOM     12  C   UNL     1       1.420  16.184  73.456  1.00  0.00     0.066 C 
BRANCH  12  13
ATOM     13  C   UNL     1       1.069  17.205  72.382  1.00  0.00     0.140 C 
ATOM     14  O   UNL     1       0.081  17.904  72.552  1.00  0.00    -0.299 OA
BRANCH  13  15
ATOM     15  C   UNL     1       1.922  17.448  71.155  1.00  0.00     0.106 CG0
ATOM     16  G   UNL     1       2.556  18.828  71.193  1.00  0.00     0.000 G0
ENDBRANCH  13  15
ENDBRANCH  12  13
BRANCH  12  17
ATOM     17  C   UNL     1       0.325  15.088  73.637  1.00  0.00    -0.006 C 
ATOM     18  C   UNL     1      -0.131  14.990  75.102  1.00  0.00     0.008 C 
ATOM     19  C   UNL     1       0.738  13.697  73.125  1.00  0.00     0.008 C 
ENDBRANCH  12  17
ENDBRANCH  11  12
ENDBRANCH   1  11
TORSDOF 1
ENDMDL
