MODEL 1
REMARK VINA RESULT:    -7.855      0.000      0.000
REMARK INTER + INTRA:         -15.657
REMARK INTER:                 -13.365
REMARK INTRA:                  -2.293
REMARK UNBOUND:                -2.293
REMARK SMILES OC[C@@H]1O[C@@H](Oc2cc(O)cc3[o+]c(-c4ccc(O)cc4)c(O[C@H]4O[C@H](CO)[C@H](O)[C@@H](O)[C@@H]4O)cc23)[C@H](O)[C@@H](O)[C@@H]1O.[Cl-]
REMARK SMILES IDX 14 1 22 2 35 3 36 4 7 5 8 6 9 7 11 8 12 9 13 10 15 11 16 12
REMARK SMILES IDX 17 13 18 14 21 15 20 16 19 17 23 19 24 20 33 21 25 22 31 23
REMARK SMILES IDX 26 24 29 25 34 26 32 28 27 30 28 31 30 33 6 35 5 36 37 37
REMARK SMILES IDX 4 38 39 39 3 40 41 41 38 42 40 44 2 46 1 47 42 49 10 51
REMARK H PARENT 19 18 34 27 32 29 28 32 30 34 38 43 40 45 1 48 42 50 10 52
REMARK Flexibility Score: inf
ROOT
ATOM      1  C   UNL     1      -0.127 -18.342  31.180  1.00  0.00     0.402 A 
ATOM      2  C   UNL     1      -0.553 -17.742  29.963  1.00  0.00     0.229 A 
ATOM      3  C   UNL     1      -1.215 -16.534  30.115  1.00  0.00     0.079 A 
ATOM      4  C   UNL     1      -0.767 -15.656  31.081  1.00  0.00     0.126 A 
ATOM      5  C   UNL     1      -1.062 -14.280  31.044  1.00  0.00     0.143 A 
ATOM      6  C   UNL     1      -0.428 -13.432  31.951  1.00  0.00     0.094 A 
ATOM      7  C   UNL     1       0.387 -13.945  32.971  1.00  0.00     0.128 A 
ATOM      8  C   UNL     1       0.596 -15.337  33.086  1.00  0.00     0.162 A 
ATOM      9  C   UNL     1       0.027 -16.208  32.114  1.00  0.00     0.368 A 
ATOM     10  O   UNL     1       0.185 -17.521  32.200  1.00  0.00    -0.202 OA
ENDROOT
BRANCH   1  11
ATOM     11  C   UNL     1      -0.174 -19.820  31.376  1.00  0.00     0.084 A 
ATOM     12  C   UNL     1       0.977 -20.582  31.684  1.00  0.00     0.022 A 
ATOM     13  C   UNL     1       0.980 -21.959  31.459  1.00  0.00     0.047 A 
ATOM     14  C   UNL     1      -0.150 -22.599  30.919  1.00  0.00     0.115 A 
ATOM     15  C   UNL     1      -1.347 -20.502  30.957  1.00  0.00     0.022 A 
ATOM     16  C   UNL     1      -1.321 -21.869  30.729  1.00  0.00     0.047 A 
BRANCH  14  17
ATOM     17  O   UNL     1      -0.113 -23.939  30.558  1.00  0.00    -0.508 OA
ATOM     18  H   UNL     1      -0.164 -24.203  29.571  1.00  0.00     0.293 HD
ENDBRANCH  14  17
ENDBRANCH   1  11
BRANCH   2  19
ATOM     19  O   UNL     1      -0.149 -18.224  28.708  1.00  0.00    -0.452 OA
BRANCH  19  20
ATOM     20  C   UNL     1      -0.442 -17.605  27.451  1.00  0.00     0.339 C 
ATOM     21  C   UNL     1      -1.220 -18.681  26.650  1.00  0.00     0.214 C 
ATOM     22  O   UNL     1       0.756 -17.166  26.797  1.00  0.00    -0.332 OA
ATOM     23  C   UNL     1      -1.044 -18.516  25.116  1.00  0.00     0.180 C 
ATOM     24  C   UNL     1       0.533 -16.577  25.511  1.00  0.00     0.179 C 
ATOM     25  C   UNL     1      -0.737 -17.038  24.766  1.00  0.00     0.177 C 
BRANCH  21  26
ATOM     26  O   UNL     1      -2.602 -18.631  26.974  1.00  0.00    -0.384 OA
ATOM     27  H   UNL     1      -3.018 -19.432  26.560  1.00  0.00     0.211 HD
ENDBRANCH  21  26
BRANCH  23  28
ATOM     28  O   UNL     1      -0.023 -19.323  24.589  1.00  0.00    -0.387 OA
ATOM     29  H   UNL     1       0.052 -19.184  23.607  1.00  0.00     0.211 HD
ENDBRANCH  23  28
BRANCH  24  30
ATOM     30  C   UNL     1       0.640 -15.033  25.554  1.00  0.00     0.191 C 
BRANCH  30  31
ATOM     31  O   UNL     1       0.435 -14.521  24.250  1.00  0.00    -0.394 OA
ATOM     32  H   UNL     1       0.580 -13.530  24.310  1.00  0.00     0.210 HD
ENDBRANCH  30  31
ENDBRANCH  24  30
BRANCH  25  33
ATOM     33  O   UNL     1      -1.849 -16.235  25.089  1.00  0.00    -0.387 OA
ATOM     34  H   UNL     1      -2.096 -16.478  26.020  1.00  0.00     0.211 HD
ENDBRANCH  25  33
ENDBRANCH  19  20
ENDBRANCH   2  19
BRANCH   5  35
ATOM     35  O   UNL     1      -1.897 -13.685  30.050  1.00  0.00    -0.461 OA
BRANCH  35  36
ATOM     36  C   UNL     1      -3.290 -13.364  30.231  1.00  0.00     0.339 C 
ATOM     37  C   UNL     1      -3.878 -13.145  28.808  1.00  0.00     0.214 C 
ATOM     38  O   UNL     1      -3.949 -14.429  30.899  1.00  0.00    -0.332 OA
ATOM     39  C   UNL     1      -5.330 -13.612  28.721  1.00  0.00     0.180 C 
ATOM     40  C   UNL     1      -5.308 -14.157  31.189  1.00  0.00     0.179 C 
ATOM     41  C   UNL     1      -6.075 -13.397  30.071  1.00  0.00     0.177 C 
BRANCH  37  42
ATOM     42  O   UNL     1      -3.785 -11.800  28.444  1.00  0.00    -0.384 OA
ATOM     43  H   UNL     1      -3.706 -11.759  27.477  1.00  0.00     0.211 HD
ENDBRANCH  37  42
BRANCH  39  44
ATOM     44  O   UNL     1      -5.395 -14.976  28.366  1.00  0.00    -0.387 OA
ATOM     45  H   UNL     1      -5.892 -15.453  29.083  1.00  0.00     0.211 HD
ENDBRANCH  39  44
BRANCH  40  46
ATOM     46  C   UNL     1      -5.553 -13.622  32.630  1.00  0.00     0.191 C 
BRANCH  46  47
ATOM     47  O   UNL     1      -6.270 -14.510  33.456  1.00  0.00    -0.394 OA
ATOM     48  H   UNL     1      -6.866 -15.064  32.860  1.00  0.00     0.210 HD
ENDBRANCH  46  47
ENDBRANCH  40  46
BRANCH  41  49
ATOM     49  O   UNL     1      -6.231 -12.037  30.348  1.00  0.00    -0.387 OA
ATOM     50  H   UNL     1      -6.030 -11.554  29.527  1.00  0.00     0.211 HD
ENDBRANCH  41  49
ENDBRANCH  35  36
ENDBRANCH   5  35
BRANCH   7  51
ATOM     51  O   UNL     1       1.050 -13.073  33.819  1.00  0.00    -0.507 OA
ATOM     52  H   UNL     1       1.937 -12.655  33.563  1.00  0.00     0.293 HD
ENDBRANCH   7  51
TORSDOF 17
ENDMDL
MODEL 2
REMARK VINA RESULT:    -7.817      2.175      5.090
REMARK INTER + INTRA:         -15.593
REMARK INTER:                 -13.678
REMARK INTRA:                  -1.915
REMARK UNBOUND:                -2.293
REMARK SMILES OC[C@@H]1O[C@@H](Oc2cc(O)cc3[o+]c(-c4ccc(O)cc4)c(O[C@H]4O[C@H](CO)[C@H](O)[C@@H](O)[C@@H]4O)cc23)[C@H](O)[C@@H](O)[C@@H]1O.[Cl-]
REMARK SMILES IDX 14 1 22 2 35 3 36 4 7 5 8 6 9 7 11 8 12 9 13 10 15 11 16 12
REMARK SMILES IDX 17 13 18 14 21 15 20 16 19 17 23 19 24 20 33 21 25 22 31 23
REMARK SMILES IDX 26 24 29 25 34 26 32 28 27 30 28 31 30 33 6 35 5 36 37 37
REMARK SMILES IDX 4 38 39 39 3 40 41 41 38 42 40 44 2 46 1 47 42 49 10 51
REMARK H PARENT 19 18 34 27 32 29 28 32 30 34 38 43 40 45 1 48 42 50 10 52
REMARK Flexibility Score: inf
ROOT
ATOM      1  C   UNL     1       0.043 -14.902  31.338  1.00  0.00     0.402 A 
ATOM      2  C   UNL     1      -0.704 -15.998  30.823  1.00  0.00     0.229 A 
ATOM      3  C   UNL     1      -1.767 -15.641  30.009  1.00  0.00     0.079 A 
ATOM      4  C   UNL     1      -1.604 -14.579  29.143  1.00  0.00     0.126 A 
ATOM      5  C   UNL     1      -2.417 -14.401  28.007  1.00  0.00     0.143 A 
ATOM      6  C   UNL     1      -2.078 -13.410  27.088  1.00  0.00     0.094 A 
ATOM      7  C   UNL     1      -1.030 -12.514  27.344  1.00  0.00     0.128 A 
ATOM      8  C   UNL     1      -0.281 -12.613  28.538  1.00  0.00     0.162 A 
ATOM      9  C   UNL     1      -0.558 -13.675  29.446  1.00  0.00     0.368 A 
ATOM     10  O   UNL     1       0.109 -13.788  30.585  1.00  0.00    -0.202 OA
ENDROOT
BRANCH   1  11
ATOM     11  C   UNL     1       0.598 -14.923  32.723  1.00  0.00     0.084 A 
ATOM     12  C   UNL     1       1.414 -15.976  33.197  1.00  0.00     0.022 A 
ATOM     13  C   UNL     1       1.570 -16.171  34.570  1.00  0.00     0.047 A 
ATOM     14  C   UNL     1       0.916 -15.333  35.491  1.00  0.00     0.115 A 
ATOM     15  C   UNL     1       0.053 -14.009  33.663  1.00  0.00     0.022 A 
ATOM     16  C   UNL     1       0.211 -14.225  35.024  1.00  0.00     0.047 A 
BRANCH  14  17
ATOM     17  O   UNL     1       0.946 -15.599  36.853  1.00  0.00    -0.508 OA
ATOM     18  H   UNL     1       0.086 -15.541  37.404  1.00  0.00     0.293 HD
ENDBRANCH  14  17
ENDBRANCH   1  11
BRANCH   2  19
ATOM     19  O   UNL     1      -0.272 -17.327  30.954  1.00  0.00    -0.452 OA
BRANCH  19  20
ATOM     20  C   UNL     1      -0.719 -18.425  30.152  1.00  0.00     0.339 C 
ATOM     21  C   UNL     1      -0.156 -19.687  30.856  1.00  0.00     0.214 C 
ATOM     22  O   UNL     1      -0.281 -18.289  28.794  1.00  0.00    -0.332 OA
ATOM     23  C   UNL     1       0.076 -20.860  29.866  1.00  0.00     0.180 C 
ATOM     24  C   UNL     1      -0.660 -19.381  27.949  1.00  0.00     0.179 C 
ATOM     25  C   UNL     1      -0.880 -20.737  28.653  1.00  0.00     0.177 C 
BRANCH  21  26
ATOM     26  O   UNL     1      -1.036 -20.108  31.889  1.00  0.00    -0.384 OA
ATOM     27  H   UNL     1      -1.239 -19.302  32.433  1.00  0.00     0.211 HD
ENDBRANCH  21  26
BRANCH  23  28
ATOM     28  O   UNL     1       1.396 -20.929  29.392  1.00  0.00    -0.387 OA
ATOM     29  H   UNL     1       1.750 -20.015  29.228  1.00  0.00     0.211 HD
ENDBRANCH  23  28
BRANCH  24  30
ATOM     30  C   UNL     1      -1.850 -19.017  27.028  1.00  0.00     0.191 C 
BRANCH  30  31
ATOM     31  O   UNL     1      -2.795 -18.269  27.770  1.00  0.00    -0.394 OA
ATOM     32  H   UNL     1      -3.622 -18.221  27.206  1.00  0.00     0.210 HD
ENDBRANCH  30  31
ENDBRANCH  24  30
BRANCH  25  33
ATOM     33  O   UNL     1      -2.213 -20.888  29.084  1.00  0.00    -0.387 OA
ATOM     34  H   UNL     1      -2.419 -21.856  28.992  1.00  0.00     0.211 HD
ENDBRANCH  25  33
ENDBRANCH  19  20
ENDBRANCH   2  19
BRANCH   5  35
ATOM     35  O   UNL     1      -3.513 -15.258  27.688  1.00  0.00    -0.461 OA
BRANCH  35  36
ATOM     36  C   UNL     1      -4.885 -15.007  28.047  1.00  0.00     0.339 C 
ATOM     37  C   UNL     1      -4.850 -14.128  29.329  1.00  0.00     0.214 C 
ATOM     38  O   UNL     1      -5.548 -14.339  26.985  1.00  0.00    -0.332 OA
ATOM     39  C   UNL     1      -6.013 -13.139  29.364  1.00  0.00     0.180 C 
ATOM     40  C   UNL     1      -6.928 -14.128  27.226  1.00  0.00     0.179 C 
ATOM     41  C   UNL     1      -7.283 -13.732  28.687  1.00  0.00     0.177 C 
BRANCH  37  42
ATOM     42  O   UNL     1      -4.871 -14.933  30.472  1.00  0.00    -0.384 OA
ATOM     43  H   UNL     1      -3.950 -15.106  30.727  1.00  0.00     0.211 HD
ENDBRANCH  37  42
BRANCH  39  44
ATOM     44  O   UNL     1      -5.662 -11.934  28.720  1.00  0.00    -0.387 OA
ATOM     45  H   UNL     1      -5.812 -12.056  27.744  1.00  0.00     0.211 HD
ENDBRANCH  39  44
BRANCH  40  46
ATOM     46  C   UNL     1      -7.852 -15.211  26.599  1.00  0.00     0.191 C 
BRANCH  46  47
ATOM     47  O   UNL     1      -9.211 -15.075  26.947  1.00  0.00    -0.394 OA
ATOM     48  H   UNL     1      -9.749 -15.609  26.282  1.00  0.00     0.210 HD
ENDBRANCH  46  47
ENDBRANCH  40  46
BRANCH  41  49
ATOM     49  O   UNL     1      -7.796 -14.798  29.428  1.00  0.00    -0.387 OA
ATOM     50  H   UNL     1      -8.721 -14.577  29.642  1.00  0.00     0.211 HD
ENDBRANCH  41  49
ENDBRANCH  35  36
ENDBRANCH   5  35
BRANCH   7  51
ATOM     51  O   UNL     1      -0.679 -11.579  26.384  1.00  0.00    -0.507 OA
ATOM     52  H   UNL     1      -1.377 -11.026  25.900  1.00  0.00     0.293 HD
ENDBRANCH   7  51
TORSDOF 17
ENDMDL
MODEL 3
REMARK VINA RESULT:    -7.773      1.461      1.976
REMARK INTER + INTRA:         -15.518
REMARK INTER:                 -13.374
REMARK INTRA:                  -2.144
REMARK UNBOUND:                -2.293
REMARK SMILES OC[C@@H]1O[C@@H](Oc2cc(O)cc3[o+]c(-c4ccc(O)cc4)c(O[C@H]4O[C@H](CO)[C@H](O)[C@@H](O)[C@@H]4O)cc23)[C@H](O)[C@@H](O)[C@@H]1O.[Cl-]
REMARK SMILES IDX 14 1 22 2 35 3 36 4 7 5 8 6 9 7 11 8 12 9 13 10 15 11 16 12
REMARK SMILES IDX 17 13 18 14 21 15 20 16 19 17 23 19 24 20 33 21 25 22 31 23
REMARK SMILES IDX 26 24 29 25 34 26 32 28 27 30 28 31 30 33 6 35 5 36 37 37
REMARK SMILES IDX 4 38 39 39 3 40 41 41 38 42 40 44 2 46 1 47 42 49 10 51
REMARK H PARENT 19 18 34 27 32 29 28 32 30 34 38 43 40 45 1 48 42 50 10 52
REMARK Flexibility Score: inf
ROOT
ATOM      1  C   UNL     1      -0.710 -20.057  30.048  1.00  0.00     0.402 A 
ATOM      2  C   UNL     1      -1.170 -19.352  28.902  1.00  0.00     0.229 A 
ATOM      3  C   UNL     1      -1.742 -18.119  29.173  1.00  0.00     0.079 A 
ATOM      4  C   UNL     1      -1.182 -17.337  30.162  1.00  0.00     0.126 A 
ATOM      5  C   UNL     1      -1.390 -15.946  30.232  1.00  0.00     0.143 A 
ATOM      6  C   UNL     1      -0.649 -15.202  31.149  1.00  0.00     0.094 A 
ATOM      7  C   UNL     1       0.192 -15.831  32.080  1.00  0.00     0.128 A 
ATOM      8  C   UNL     1       0.318 -17.238  32.092  1.00  0.00     0.162 A 
ATOM      9  C   UNL     1      -0.363 -18.005  31.105  1.00  0.00     0.368 A 
ATOM     10  O   UNL     1      -0.286 -19.327  31.097  1.00  0.00    -0.202 OA
ENDROOT
BRANCH   1  11
ATOM     11  C   UNL     1      -0.841 -21.540  30.151  1.00  0.00     0.084 A 
ATOM     12  C   UNL     1      -1.729 -22.281  29.338  1.00  0.00     0.022 A 
ATOM     13  C   UNL     1      -2.120 -23.563  29.725  1.00  0.00     0.047 A 
ATOM     14  C   UNL     1      -1.645 -24.126  30.925  1.00  0.00     0.115 A 
ATOM     15  C   UNL     1      -0.270 -22.173  31.287  1.00  0.00     0.022 A 
ATOM     16  C   UNL     1      -0.679 -23.444  31.661  1.00  0.00     0.047 A 
BRANCH  14  17
ATOM     17  O   UNL     1      -2.134 -25.337  31.394  1.00  0.00    -0.508 OA
ATOM     18  H   UNL     1      -3.084 -25.394  31.769  1.00  0.00     0.293 HD
ENDBRANCH  14  17
ENDBRANCH   1  11
BRANCH   2  19
ATOM     19  O   UNL     1      -0.874 -19.770  27.595  1.00  0.00    -0.452 OA
BRANCH  19  20
ATOM     20  C   UNL     1      -0.884 -18.932  26.435  1.00  0.00     0.339 C 
ATOM     21  C   UNL     1      -0.416 -19.850  25.277  1.00  0.00     0.214 C 
ATOM     22  O   UNL     1      -0.050 -17.780  26.620  1.00  0.00    -0.332 OA
ATOM     23  C   UNL     1       0.282 -19.056  24.140  1.00  0.00     0.180 C 
ATOM     24  C   UNL     1       0.018 -16.922  25.476  1.00  0.00     0.179 C 
ATOM     25  C   UNL     1      -0.234 -17.595  24.110  1.00  0.00     0.177 C 
BRANCH  21  26
ATOM     26  O   UNL     1      -1.518 -20.569  24.743  1.00  0.00    -0.384 OA
ATOM     27  H   UNL     1      -1.187 -21.481  24.536  1.00  0.00     0.211 HD
ENDBRANCH  21  26
BRANCH  23  28
ATOM     28  O   UNL     1       1.681 -19.034  24.260  1.00  0.00    -0.387 OA
ATOM     29  H   UNL     1       1.997 -18.106  24.424  1.00  0.00     0.211 HD
ENDBRANCH  23  28
BRANCH  24  30
ATOM     30  C   UNL     1      -0.845 -15.649  25.652  1.00  0.00     0.191 C 
BRANCH  30  31
ATOM     31  O   UNL     1      -1.990 -15.972  26.420  1.00  0.00    -0.394 OA
ATOM     32  H   UNL     1      -2.547 -15.139  26.458  1.00  0.00     0.210 HD
ENDBRANCH  30  31
ENDBRANCH  24  30
BRANCH  25  33
ATOM     33  O   UNL     1      -1.602 -17.584  23.770  1.00  0.00    -0.387 OA
ATOM     34  H   UNL     1      -1.776 -16.685  23.383  1.00  0.00     0.211 HD
ENDBRANCH  25  33
ENDBRANCH  19  20
ENDBRANCH   2  19
BRANCH   5  35
ATOM     35  O   UNL     1      -2.243 -15.237  29.335  1.00  0.00    -0.461 OA
BRANCH  35  36
ATOM     36  C   UNL     1      -3.287 -14.330  29.736  1.00  0.00     0.339 C 
ATOM     37  C   UNL     1      -4.079 -13.973  28.447  1.00  0.00     0.214 C 
ATOM     38  O   UNL     1      -4.126 -14.954  30.696  1.00  0.00    -0.332 OA
ATOM     39  C   UNL     1      -5.565 -13.766  28.738  1.00  0.00     0.180 C 
ATOM     40  C   UNL     1      -5.133 -14.098  31.206  1.00  0.00     0.179 C 
ATOM     41  C   UNL     1      -5.784 -13.157  30.154  1.00  0.00     0.177 C 
BRANCH  37  42
ATOM     42  O   UNL     1      -3.545 -12.830  27.847  1.00  0.00    -0.384 OA
ATOM     43  H   UNL     1      -2.954 -12.408  28.491  1.00  0.00     0.211 HD
ENDBRANCH  37  42
BRANCH  39  44
ATOM     44  O   UNL     1      -6.266 -14.986  28.642  1.00  0.00    -0.387 OA
ATOM     45  H   UNL     1      -7.164 -14.791  28.259  1.00  0.00     0.211 HD
ENDBRANCH  39  44
BRANCH  40  46
ATOM     46  C   UNL     1      -4.761 -13.414  32.553  1.00  0.00     0.191 C 
BRANCH  46  47
ATOM     47  O   UNL     1      -5.726 -12.496  33.014  1.00  0.00    -0.394 OA
ATOM     48  H   UNL     1      -5.366 -11.569  32.846  1.00  0.00     0.210 HD
ENDBRANCH  46  47
ENDBRANCH  40  46
BRANCH  41  49
ATOM     49  O   UNL     1      -5.298 -11.850  30.220  1.00  0.00    -0.387 OA
ATOM     50  H   UNL     1      -4.536 -11.798  29.616  1.00  0.00     0.211 HD
ENDBRANCH  41  49
ENDBRANCH  35  36
ENDBRANCH   5  35
BRANCH   7  51
ATOM     51  O   UNL     1       0.960 -15.060  32.938  1.00  0.00    -0.507 OA
ATOM     52  H   UNL     1       0.677 -14.126  33.210  1.00  0.00     0.293 HD
ENDBRANCH   7  51
TORSDOF 17
ENDMDL
MODEL 4
REMARK VINA RESULT:    -7.716      1.074      2.329
REMARK INTER + INTRA:         -15.422
REMARK INTER:                 -13.301
REMARK INTRA:                  -2.122
REMARK UNBOUND:                -2.293
REMARK SMILES OC[C@@H]1O[C@@H](Oc2cc(O)cc3[o+]c(-c4ccc(O)cc4)c(O[C@H]4O[C@H](CO)[C@H](O)[C@@H](O)[C@@H]4O)cc23)[C@H](O)[C@@H](O)[C@@H]1O.[Cl-]
REMARK SMILES IDX 14 1 22 2 35 3 36 4 7 5 8 6 9 7 11 8 12 9 13 10 15 11 16 12
REMARK SMILES IDX 17 13 18 14 21 15 20 16 19 17 23 19 24 20 33 21 25 22 31 23
REMARK SMILES IDX 26 24 29 25 34 26 32 28 27 30 28 31 30 33 6 35 5 36 37 37
REMARK SMILES IDX 4 38 39 39 3 40 41 41 38 42 40 44 2 46 1 47 42 49 10 51
REMARK H PARENT 19 18 34 27 32 29 28 32 30 34 38 43 40 45 1 48 42 50 10 52
REMARK Flexibility Score: inf
ROOT
ATOM      1  C   UNL     1       0.764 -18.129  30.814  1.00  0.00     0.402 A 
ATOM      2  C   UNL     1       0.385 -17.405  29.650  1.00  0.00     0.229 A 
ATOM      3  C   UNL     1      -0.539 -16.396  29.873  1.00  0.00     0.079 A 
ATOM      4  C   UNL     1      -0.429 -15.646  31.026  1.00  0.00     0.126 A 
ATOM      5  C   UNL     1      -1.010 -14.369  31.153  1.00  0.00     0.143 A 
ATOM      6  C   UNL     1      -0.704 -13.602  32.276  1.00  0.00     0.094 A 
ATOM      7  C   UNL     1       0.058 -14.131  33.328  1.00  0.00     0.128 A 
ATOM      8  C   UNL     1       0.549 -15.454  33.259  1.00  0.00     0.162 A 
ATOM      9  C   UNL     1       0.321 -16.220  32.081  1.00  0.00     0.368 A 
ATOM     10  O   UNL     1       0.748 -17.470  31.988  1.00  0.00    -0.202 OA
ENDROOT
BRANCH   1  11
ATOM     11  C   UNL     1       1.014 -19.599  30.766  1.00  0.00     0.084 A 
ATOM     12  C   UNL     1       0.070 -20.545  31.227  1.00  0.00     0.022 A 
ATOM     13  C   UNL     1       0.481 -21.841  31.543  1.00  0.00     0.047 A 
ATOM     14  C   UNL     1       1.831 -22.215  31.417  1.00  0.00     0.115 A 
ATOM     15  C   UNL     1       2.344 -20.032  30.519  1.00  0.00     0.022 A 
ATOM     16  C   UNL     1       2.736 -21.320  30.850  1.00  0.00     0.047 A 
BRANCH  14  17
ATOM     17  O   UNL     1       2.279 -23.451  31.861  1.00  0.00    -0.508 OA
ATOM     18  H   UNL     1       2.215 -24.268  31.248  1.00  0.00     0.293 HD
ENDBRANCH  14  17
ENDBRANCH   1  11
BRANCH   2  19
ATOM     19  O   UNL     1       1.049 -17.556  28.423  1.00  0.00    -0.452 OA
BRANCH  19  20
ATOM     20  C   UNL     1       0.529 -18.242  27.280  1.00  0.00     0.339 C 
ATOM     21  C   UNL     1       0.642 -17.221  26.118  1.00  0.00     0.214 C 
ATOM     22  O   UNL     1      -0.813 -18.694  27.510  1.00  0.00    -0.332 OA
ATOM     23  C   UNL     1      -0.427 -17.459  25.017  1.00  0.00     0.180 C 
ATOM     24  C   UNL     1      -1.406 -19.350  26.385  1.00  0.00     0.179 C 
ATOM     25  C   UNL     1      -0.857 -18.947  24.999  1.00  0.00     0.177 C 
BRANCH  21  26
ATOM     26  O   UNL     1       1.937 -17.277  25.538  1.00  0.00    -0.384 OA
ATOM     27  H   UNL     1       2.311 -18.168  25.767  1.00  0.00     0.211 HD
ENDBRANCH  21  26
BRANCH  23  28
ATOM     28  O   UNL     1      -1.573 -16.663  25.179  1.00  0.00    -0.387 OA
ATOM     29  H   UNL     1      -1.523 -16.161  26.035  1.00  0.00     0.211 HD
ENDBRANCH  23  28
BRANCH  24  30
ATOM     30  C   UNL     1      -1.439 -20.888  26.560  1.00  0.00     0.191 C 
BRANCH  30  31
ATOM     31  O   UNL     1      -1.716 -21.489  25.308  1.00  0.00    -0.394 OA
ATOM     32  H   UNL     1      -1.514 -22.465  25.414  1.00  0.00     0.210 HD
ENDBRANCH  30  31
ENDBRANCH  24  30
BRANCH  25  33
ATOM     33  O   UNL     1       0.236 -19.752  24.620  1.00  0.00    -0.387 OA
ATOM     34  H   UNL     1       1.032 -19.348  25.056  1.00  0.00     0.211 HD
ENDBRANCH  25  33
ENDBRANCH  19  20
ENDBRANCH   2  19
BRANCH   5  35
ATOM     35  O   UNL     1      -1.812 -13.771  30.137  1.00  0.00    -0.461 OA
BRANCH  35  36
ATOM     36  C   UNL     1      -3.210 -13.451  30.273  1.00  0.00     0.339 C 
ATOM     37  C   UNL     1      -3.760 -13.260  28.832  1.00  0.00     0.214 C 
ATOM     38  O   UNL     1      -3.883 -14.506  30.943  1.00  0.00    -0.332 OA
ATOM     39  C   UNL     1      -5.208 -13.734  28.715  1.00  0.00     0.180 C 
ATOM     40  C   UNL     1      -5.251 -14.234  31.192  1.00  0.00     0.179 C 
ATOM     41  C   UNL     1      -5.990 -13.497  30.040  1.00  0.00     0.177 C 
BRANCH  37  42
ATOM     42  O   UNL     1      -3.662 -11.921  28.446  1.00  0.00    -0.384 OA
ATOM     43  H   UNL     1      -3.940 -11.375  29.200  1.00  0.00     0.211 HD
ENDBRANCH  37  42
BRANCH  39  44
ATOM     44  O   UNL     1      -5.259 -15.104  28.383  1.00  0.00    -0.387 OA
ATOM     45  H   UNL     1      -5.870 -15.206  27.604  1.00  0.00     0.211 HD
ENDBRANCH  39  44
BRANCH  40  46
ATOM     46  C   UNL     1      -5.536 -13.674  32.615  1.00  0.00     0.191 C 
BRANCH  46  47
ATOM     47  O   UNL     1      -6.202 -14.581  33.464  1.00  0.00    -0.394 OA
ATOM     48  H   UNL     1      -6.465 -14.077  34.297  1.00  0.00     0.210 HD
ENDBRANCH  46  47
ENDBRANCH  40  46
BRANCH  41  49
ATOM     49  O   UNL     1      -6.158 -12.133  30.288  1.00  0.00    -0.387 OA
ATOM     50  H   UNL     1      -5.708 -11.939  31.130  1.00  0.00     0.211 HD
ENDBRANCH  41  49
ENDBRANCH  35  36
ENDBRANCH   5  35
BRANCH   7  51
ATOM     51  O   UNL     1       0.395 -13.323  34.402  1.00  0.00    -0.507 OA
ATOM     52  H   UNL     1      -0.258 -13.141  35.155  1.00  0.00     0.293 HD
ENDBRANCH   7  51
TORSDOF 17
ENDMDL
MODEL 5
REMARK VINA RESULT:    -7.714      2.286      8.478
REMARK INTER + INTRA:         -15.419
REMARK INTER:                 -13.720
REMARK INTRA:                  -1.699
REMARK UNBOUND:                -2.293
REMARK SMILES OC[C@@H]1O[C@@H](Oc2cc(O)cc3[o+]c(-c4ccc(O)cc4)c(O[C@H]4O[C@H](CO)[C@H](O)[C@@H](O)[C@@H]4O)cc23)[C@H](O)[C@@H](O)[C@@H]1O.[Cl-]
REMARK SMILES IDX 14 1 22 2 35 3 36 4 7 5 8 6 9 7 11 8 12 9 13 10 15 11 16 12
REMARK SMILES IDX 17 13 18 14 21 15 20 16 19 17 23 19 24 20 33 21 25 22 31 23
REMARK SMILES IDX 26 24 29 25 34 26 32 28 27 30 28 31 30 33 6 35 5 36 37 37
REMARK SMILES IDX 4 38 39 39 3 40 41 41 38 42 40 44 2 46 1 47 42 49 10 51
REMARK H PARENT 19 18 34 27 32 29 28 32 30 34 38 43 40 45 1 48 42 50 10 52
REMARK Flexibility Score: inf
ROOT
ATOM      1  C   UNL     1      -4.204 -14.647  27.727  1.00  0.00     0.402 A 
ATOM      2  C   UNL     1      -3.438 -15.075  28.846  1.00  0.00     0.229 A 
ATOM      3  C   UNL     1      -2.402 -15.943  28.539  1.00  0.00     0.079 A 
ATOM      4  C   UNL     1      -1.685 -15.728  27.380  1.00  0.00     0.126 A 
ATOM      5  C   UNL     1      -0.392 -16.250  27.186  1.00  0.00     0.143 A 
ATOM      6  C   UNL     1       0.336 -15.841  26.069  1.00  0.00     0.094 A 
ATOM      7  C   UNL     1      -0.246 -15.032  25.082  1.00  0.00     0.128 A 
ATOM      8  C   UNL     1      -1.584 -14.597  25.214  1.00  0.00     0.162 A 
ATOM      9  C   UNL     1      -2.312 -14.933  26.391  1.00  0.00     0.368 A 
ATOM     10  O   UNL     1      -3.574 -14.560  26.540  1.00  0.00    -0.202 OA
ENDROOT
BRANCH   1  11
ATOM     11  C   UNL     1      -5.681 -14.456  27.824  1.00  0.00     0.084 A 
ATOM     12  C   UNL     1      -6.396 -14.672  29.025  1.00  0.00     0.022 A 
ATOM     13  C   UNL     1      -7.775 -14.882  28.985  1.00  0.00     0.047 A 
ATOM     14  C   UNL     1      -8.463 -14.891  27.759  1.00  0.00     0.115 A 
ATOM     15  C   UNL     1      -6.410 -14.337  26.612  1.00  0.00     0.022 A 
ATOM     16  C   UNL     1      -7.778 -14.560  26.591  1.00  0.00     0.047 A 
BRANCH  14  17
ATOM     17  O   UNL     1      -9.805 -15.238  27.689  1.00  0.00    -0.508 OA
ATOM     18  H   UNL     1     -10.277 -15.274  26.782  1.00  0.00     0.293 HD
ENDBRANCH  14  17
ENDBRANCH   1  11
BRANCH   2  19
ATOM     19  O   UNL     1      -3.583 -14.500  30.118  1.00  0.00    -0.452 OA
BRANCH  19  20
ATOM     20  C   UNL     1      -3.582 -13.095  30.396  1.00  0.00     0.339 C 
ATOM     21  C   UNL     1      -2.192 -12.815  31.022  1.00  0.00     0.214 C 
ATOM     22  O   UNL     1      -4.674 -12.735  31.252  1.00  0.00    -0.332 OA
ATOM     23  C   UNL     1      -2.213 -11.596  31.984  1.00  0.00     0.180 C 
ATOM     24  C   UNL     1      -4.703 -11.347  31.604  1.00  0.00     0.179 C 
ATOM     25  C   UNL     1      -3.344 -10.615  31.584  1.00  0.00     0.177 C 
BRANCH  21  26
ATOM     26  O   UNL     1      -1.229 -12.594  30.002  1.00  0.00    -0.384 OA
ATOM     27  H   UNL     1      -0.355 -12.889  30.370  1.00  0.00     0.211 HD
ENDBRANCH  21  26
BRANCH  23  28
ATOM     28  O   UNL     1      -2.390 -11.959  33.329  1.00  0.00    -0.387 OA
ATOM     29  H   UNL     1      -2.049 -12.879  33.484  1.00  0.00     0.211 HD
ENDBRANCH  23  28
BRANCH  24  30
ATOM     30  C   UNL     1      -5.781 -10.569  30.811  1.00  0.00     0.191 C 
BRANCH  30  31
ATOM     31  O   UNL     1      -5.544 -10.736  29.425  1.00  0.00    -0.394 OA
ATOM     32  H   UNL     1      -5.156  -9.871  29.100  1.00  0.00     0.210 HD
ENDBRANCH  30  31
ENDBRANCH  24  30
BRANCH  25  33
ATOM     33  O   UNL     1      -3.068 -10.068  30.315  1.00  0.00    -0.387 OA
ATOM     34  H   UNL     1      -2.094 -10.199  30.170  1.00  0.00     0.211 HD
ENDBRANCH  25  33
ENDBRANCH  19  20
ENDBRANCH   2  19
BRANCH   5  35
ATOM     35  O   UNL     1       0.261 -17.095  28.133  1.00  0.00    -0.461 OA
BRANCH  35  36
ATOM     36  C   UNL     1       0.027 -18.509  28.272  1.00  0.00     0.339 C 
ATOM     37  C   UNL     1      -0.343 -18.749  29.763  1.00  0.00     0.214 C 
ATOM     38  O   UNL     1      -1.028 -18.912  27.412  1.00  0.00    -0.332 OA
ATOM     39  C   UNL     1      -1.360 -19.878  29.916  1.00  0.00     0.180 C 
ATOM     40  C   UNL     1      -1.267 -20.307  27.427  1.00  0.00     0.179 C 
ATOM     41  C   UNL     1      -1.158 -20.973  28.828  1.00  0.00     0.177 C 
BRANCH  37  42
ATOM     42  O   UNL     1       0.804 -19.033  30.509  1.00  0.00    -0.384 OA
ATOM     43  H   UNL     1       1.142 -19.894  30.216  1.00  0.00     0.211 HD
ENDBRANCH  37  42
BRANCH  39  44
ATOM     44  O   UNL     1      -2.676 -19.377  29.834  1.00  0.00    -0.387 OA
ATOM     45  H   UNL     1      -2.688 -18.665  29.139  1.00  0.00     0.211 HD
ENDBRANCH  39  44
BRANCH  40  46
ATOM     46  C   UNL     1      -0.560 -21.083  26.278  1.00  0.00     0.191 C 
BRANCH  46  47
ATOM     47  O   UNL     1      -1.429 -21.502  25.251  1.00  0.00    -0.394 OA
ATOM     48  H   UNL     1      -2.372 -21.359  25.575  1.00  0.00     0.210 HD
ENDBRANCH  46  47
ENDBRANCH  40  46
BRANCH  41  49
ATOM     49  O   UNL     1       0.047 -21.652  29.014  1.00  0.00    -0.387 OA
ATOM     50  H   UNL     1       0.314 -22.002  28.146  1.00  0.00     0.211 HD
ENDBRANCH  41  49
ENDBRANCH  35  36
ENDBRANCH   5  35
BRANCH   7  51
ATOM     51  O   UNL     1       0.522 -14.594  24.016  1.00  0.00    -0.507 OA
ATOM     52  H   UNL     1       0.827 -13.631  23.941  1.00  0.00     0.293 HD
ENDBRANCH   7  51
TORSDOF 17
ENDMDL
MODEL 6
REMARK VINA RESULT:    -7.697      1.685      2.884
REMARK INTER + INTRA:         -15.389
REMARK INTER:                 -13.741
REMARK INTRA:                  -1.649
REMARK UNBOUND:                -2.293
REMARK SMILES OC[C@@H]1O[C@@H](Oc2cc(O)cc3[o+]c(-c4ccc(O)cc4)c(O[C@H]4O[C@H](CO)[C@H](O)[C@@H](O)[C@@H]4O)cc23)[C@H](O)[C@@H](O)[C@@H]1O.[Cl-]
REMARK SMILES IDX 14 1 22 2 35 3 36 4 7 5 8 6 9 7 11 8 12 9 13 10 15 11 16 12
REMARK SMILES IDX 17 13 18 14 21 15 20 16 19 17 23 19 24 20 33 21 25 22 31 23
REMARK SMILES IDX 26 24 29 25 34 26 32 28 27 30 28 31 30 33 6 35 5 36 37 37
REMARK SMILES IDX 4 38 39 39 3 40 41 41 38 42 40 44 2 46 1 47 42 49 10 51
REMARK H PARENT 19 18 34 27 32 29 28 32 30 34 38 43 40 45 1 48 42 50 10 52
REMARK Flexibility Score: inf
ROOT
ATOM      1  C   UNL     1      -0.928 -18.340  29.702  1.00  0.00     0.402 A 
ATOM      2  C   UNL     1      -1.905 -17.612  28.968  1.00  0.00     0.229 A 
ATOM      3  C   UNL     1      -2.311 -16.428  29.562  1.00  0.00     0.079 A 
ATOM      4  C   UNL     1      -1.365 -15.659  30.210  1.00  0.00     0.126 A 
ATOM      5  C   UNL     1      -1.554 -14.287  30.464  1.00  0.00     0.143 A 
ATOM      6  C   UNL     1      -0.484 -13.543  30.958  1.00  0.00     0.094 A 
ATOM      7  C   UNL     1       0.719 -14.162  31.327  1.00  0.00     0.128 A 
ATOM      8  C   UNL     1       0.877 -15.559  31.183  1.00  0.00     0.162 A 
ATOM      9  C   UNL     1      -0.174 -16.320  30.596  1.00  0.00     0.368 A 
ATOM     10  O   UNL     1      -0.071 -17.634  30.463  1.00  0.00    -0.202 OA
ENDROOT
BRANCH   1  11
ATOM     11  C   UNL     1      -0.949 -19.831  29.756  1.00  0.00     0.084 A 
ATOM     12  C   UNL     1      -0.675 -20.635  28.625  1.00  0.00     0.022 A 
ATOM     13  C   UNL     1      -1.092 -21.966  28.601  1.00  0.00     0.047 A 
ATOM     14  C   UNL     1      -1.793 -22.517  29.689  1.00  0.00     0.115 A 
ATOM     15  C   UNL     1      -1.538 -20.440  30.896  1.00  0.00     0.022 A 
ATOM     16  C   UNL     1      -1.956 -21.761  30.848  1.00  0.00     0.047 A 
BRANCH  14  17
ATOM     17  O   UNL     1      -2.338 -23.792  29.622  1.00  0.00    -0.508 OA
ATOM     18  H   UNL     1      -2.996 -24.104  30.340  1.00  0.00     0.293 HD
ENDBRANCH  14  17
ENDBRANCH   1  11
BRANCH   2  19
ATOM     19  O   UNL     1      -2.265 -17.956  27.656  1.00  0.00    -0.452 OA
BRANCH  19  20
ATOM     20  C   UNL     1      -1.350 -18.191  26.581  1.00  0.00     0.339 C 
ATOM     21  C   UNL     1      -1.103 -16.794  25.956  1.00  0.00     0.214 C 
ATOM     22  O   UNL     1      -1.878 -19.145  25.649  1.00  0.00    -0.332 OA
ATOM     23  C   UNL     1      -0.731 -16.878  24.450  1.00  0.00     0.180 C 
ATOM     24  C   UNL     1      -1.026 -19.390  24.525  1.00  0.00     0.179 C 
ATOM     25  C   UNL     1      -0.069 -18.243  24.136  1.00  0.00     0.177 C 
BRANCH  21  26
ATOM     26  O   UNL     1      -0.072 -16.115  26.659  1.00  0.00    -0.384 OA
ATOM     27  H   UNL     1      -0.252 -15.144  26.556  1.00  0.00     0.211 HD
ENDBRANCH  21  26
BRANCH  23  28
ATOM     28  O   UNL     1      -1.836 -16.709  23.599  1.00  0.00    -0.387 OA
ATOM     29  H   UNL     1      -1.869 -17.443  22.930  1.00  0.00     0.211 HD
ENDBRANCH  23  28
BRANCH  24  30
ATOM     30  C   UNL     1      -0.278 -20.740  24.647  1.00  0.00     0.191 C 
BRANCH  30  31
ATOM     31  O   UNL     1      -1.196 -21.741  25.046  1.00  0.00    -0.394 OA
ATOM     32  H   UNL     1      -1.808 -21.311  25.713  1.00  0.00     0.210 HD
ENDBRANCH  30  31
ENDBRANCH  24  30
BRANCH  25  33
ATOM     33  O   UNL     1       1.161 -18.340  24.817  1.00  0.00    -0.387 OA
ATOM     34  H   UNL     1       1.190 -19.260  25.192  1.00  0.00     0.211 HD
ENDBRANCH  25  33
ENDBRANCH  19  20
ENDBRANCH   2  19
BRANCH   5  35
ATOM     35  O   UNL     1      -2.755 -13.590  30.137  1.00  0.00    -0.461 OA
BRANCH  35  36
ATOM     36  C   UNL     1      -3.943 -13.569  30.951  1.00  0.00     0.339 C 
ATOM     37  C   UNL     1      -3.810 -12.337  31.891  1.00  0.00     0.214 C 
ATOM     38  O   UNL     1      -5.093 -13.463  30.127  1.00  0.00    -0.332 OA
ATOM     39  C   UNL     1      -5.167 -11.697  32.174  1.00  0.00     0.180 C 
ATOM     40  C   UNL     1      -6.311 -13.519  30.847  1.00  0.00     0.179 C 
ATOM     41  C   UNL     1      -6.301 -12.763  32.206  1.00  0.00     0.177 C 
BRANCH  37  42
ATOM     42  O   UNL     1      -3.193 -12.704  33.090  1.00  0.00    -0.384 OA
ATOM     43  H   UNL     1      -2.842 -13.602  32.979  1.00  0.00     0.211 HD
ENDBRANCH  37  42
BRANCH  39  44
ATOM     44  O   UNL     1      -5.472 -10.723  31.201  1.00  0.00    -0.387 OA
ATOM     45  H   UNL     1      -5.380 -11.148  30.306  1.00  0.00     0.211 HD
ENDBRANCH  39  44
BRANCH  40  46
ATOM     46  C   UNL     1      -6.955 -14.934  30.891  1.00  0.00     0.191 C 
BRANCH  46  47
ATOM     47  O   UNL     1      -8.329 -14.948  30.576  1.00  0.00    -0.394 OA
ATOM     48  H   UNL     1      -8.685 -15.861  30.812  1.00  0.00     0.210 HD
ENDBRANCH  46  47
ENDBRANCH  40  46
BRANCH  41  49
ATOM     49  O   UNL     1      -6.157 -13.618  33.301  1.00  0.00    -0.387 OA
ATOM     50  H   UNL     1      -5.293 -14.057  33.208  1.00  0.00     0.211 HD
ENDBRANCH  41  49
ENDBRANCH  35  36
ENDBRANCH   5  35
BRANCH   7  51
ATOM     51  O   UNL     1       1.783 -13.387  31.758  1.00  0.00    -0.507 OA
ATOM     52  H   UNL     1       1.916 -13.165  32.738  1.00  0.00     0.293 HD
ENDBRANCH   7  51
TORSDOF 17
ENDMDL
MODEL 7
REMARK VINA RESULT:    -7.665      1.394      2.176
REMARK INTER + INTRA:         -15.335
REMARK INTER:                 -13.112
REMARK INTRA:                  -2.223
REMARK UNBOUND:                -2.293
REMARK SMILES OC[C@@H]1O[C@@H](Oc2cc(O)cc3[o+]c(-c4ccc(O)cc4)c(O[C@H]4O[C@H](CO)[C@H](O)[C@@H](O)[C@@H]4O)cc23)[C@H](O)[C@@H](O)[C@@H]1O.[Cl-]
REMARK SMILES IDX 14 1 22 2 35 3 36 4 7 5 8 6 9 7 11 8 12 9 13 10 15 11 16 12
REMARK SMILES IDX 17 13 18 14 21 15 20 16 19 17 23 19 24 20 33 21 25 22 31 23
REMARK SMILES IDX 26 24 29 25 34 26 32 28 27 30 28 31 30 33 6 35 5 36 37 37
REMARK SMILES IDX 4 38 39 39 3 40 41 41 38 42 40 44 2 46 1 47 42 49 10 51
REMARK H PARENT 19 18 34 27 32 29 28 32 30 34 38 43 40 45 1 48 42 50 10 52
REMARK Flexibility Score: inf
ROOT
ATOM      1  C   UNL     1      -0.312 -17.972  30.728  1.00  0.00     0.402 A 
ATOM      2  C   UNL     1      -0.838 -17.166  29.680  1.00  0.00     0.229 A 
ATOM      3  C   UNL     1      -1.494 -16.022  30.105  1.00  0.00     0.079 A 
ATOM      4  C   UNL     1      -0.977 -15.328  31.180  1.00  0.00     0.126 A 
ATOM      5  C   UNL     1      -1.284 -13.976  31.423  1.00  0.00     0.143 A 
ATOM      6  C   UNL     1      -0.586 -13.298  32.421  1.00  0.00     0.094 A 
ATOM      7  C   UNL     1       0.311 -13.973  33.263  1.00  0.00     0.128 A 
ATOM      8  C   UNL     1       0.539 -15.357  33.100  1.00  0.00     0.162 A 
ATOM      9  C   UNL     1      -0.100 -16.045  32.029  1.00  0.00     0.368 A 
ATOM     10  O   UNL     1       0.073 -17.347  31.856  1.00  0.00    -0.202 OA
ENDROOT
BRANCH   1  11
ATOM     11  C   UNL     1      -0.334 -19.462  30.647  1.00  0.00     0.084 A 
ATOM     12  C   UNL     1      -1.492 -20.184  30.277  1.00  0.00     0.022 A 
ATOM     13  C   UNL     1      -1.600 -21.537  30.600  1.00  0.00     0.047 A 
ATOM     14  C   UNL     1      -0.570 -22.191  31.300  1.00  0.00     0.115 A 
ATOM     15  C   UNL     1       0.749 -20.167  31.235  1.00  0.00     0.022 A 
ATOM     16  C   UNL     1       0.618 -21.510  31.558  1.00  0.00     0.047 A 
BRANCH  14  17
ATOM     17  O   UNL     1      -0.722 -23.495  31.753  1.00  0.00    -0.508 OA
ATOM     18  H   UNL     1      -1.644 -23.828  32.046  1.00  0.00     0.293 HD
ENDBRANCH  14  17
ENDBRANCH   1  11
BRANCH   2  19
ATOM     19  O   UNL     1      -0.532 -17.398  28.330  1.00  0.00    -0.452 OA
BRANCH  19  20
ATOM     20  C   UNL     1      -0.979 -16.598  27.231  1.00  0.00     0.339 C 
ATOM     21  C   UNL     1       0.015 -16.910  26.083  1.00  0.00     0.214 C 
ATOM     22  O   UNL     1      -1.023 -15.209  27.583  1.00  0.00    -0.332 OA
ATOM     23  C   UNL     1       0.156 -15.726  25.087  1.00  0.00     0.180 C 
ATOM     24  C   UNL     1      -1.421 -14.350  26.510  1.00  0.00     0.179 C 
ATOM     25  C   UNL     1      -1.135 -14.870  25.085  1.00  0.00     0.177 C 
BRANCH  21  26
ATOM     26  O   UNL     1      -0.396 -18.073  25.378  1.00  0.00    -0.384 OA
ATOM     27  H   UNL     1      -0.507 -17.803  24.429  1.00  0.00     0.211 HD
ENDBRANCH  21  26
BRANCH  23  28
ATOM     28  O   UNL     1       1.247 -14.891  25.374  1.00  0.00    -0.387 OA
ATOM     29  H   UNL     1       1.184 -14.551  26.306  1.00  0.00     0.211 HD
ENDBRANCH  23  28
BRANCH  24  30
ATOM     30  C   UNL     1      -2.886 -13.874  26.660  1.00  0.00     0.191 C 
BRANCH  30  31
ATOM     31  O   UNL     1      -2.965 -12.959  27.738  1.00  0.00    -0.394 OA
ATOM     32  H   UNL     1      -2.254 -13.231  28.390  1.00  0.00     0.210 HD
ENDBRANCH  30  31
ENDBRANCH  24  30
BRANCH  25  33
ATOM     33  O   UNL     1      -2.210 -15.634  24.586  1.00  0.00    -0.387 OA
ATOM     34  H   UNL     1      -2.869 -15.689  25.328  1.00  0.00     0.211 HD
ENDBRANCH  25  33
ENDBRANCH  19  20
ENDBRANCH   2  19
BRANCH   5  35
ATOM     35  O   UNL     1      -2.199 -13.226  30.625  1.00  0.00    -0.461 OA
BRANCH  35  36
ATOM     36  C   UNL     1      -3.525 -12.842  31.035  1.00  0.00     0.339 C 
ATOM     37  C   UNL     1      -3.671 -11.332  30.691  1.00  0.00     0.214 C 
ATOM     38  O   UNL     1      -4.489 -13.620  30.343  1.00  0.00    -0.332 OA
ATOM     39  C   UNL     1      -5.099 -10.986  30.274  1.00  0.00     0.180 C 
ATOM     40  C   UNL     1      -5.821 -13.361  30.750  1.00  0.00     0.179 C 
ATOM     41  C   UNL     1      -6.139 -11.865  31.029  1.00  0.00     0.177 C 
BRANCH  37  42
ATOM     42  O   UNL     1      -3.285 -10.545  31.779  1.00  0.00    -0.384 OA
ATOM     43  H   UNL     1      -4.011 -10.557  32.424  1.00  0.00     0.211 HD
ENDBRANCH  37  42
BRANCH  39  44
ATOM     44  O   UNL     1      -5.268 -11.157  28.884  1.00  0.00    -0.387 OA
ATOM     45  H   UNL     1      -5.873 -11.934  28.744  1.00  0.00     0.211 HD
ENDBRANCH  39  44
BRANCH  40  46
ATOM     46  C   UNL     1      -6.361 -14.354  31.819  1.00  0.00     0.191 C 
BRANCH  46  47
ATOM     47  O   UNL     1      -5.805 -14.173  33.102  1.00  0.00    -0.394 OA
ATOM     48  H   UNL     1      -5.820 -15.067  33.567  1.00  0.00     0.210 HD
ENDBRANCH  46  47
ENDBRANCH  40  46
BRANCH  41  49
ATOM     49  O   UNL     1      -6.160 -11.560  32.392  1.00  0.00    -0.387 OA
ATOM     50  H   UNL     1      -5.247 -11.338  32.648  1.00  0.00     0.211 HD
ENDBRANCH  41  49
ENDBRANCH  35  36
ENDBRANCH   5  35
BRANCH   7  51
ATOM     51  O   UNL     1       1.034 -13.259  34.205  1.00  0.00    -0.507 OA
ATOM     52  H   UNL     1       2.039 -13.149  34.132  1.00  0.00     0.293 HD
ENDBRANCH   7  51
TORSDOF 17
ENDMDL
MODEL 8
REMARK VINA RESULT:    -7.479      2.132      2.618
REMARK INTER + INTRA:         -15.018
REMARK INTER:                 -12.814
REMARK INTRA:                  -2.204
REMARK UNBOUND:                -2.293
REMARK SMILES OC[C@@H]1O[C@@H](Oc2cc(O)cc3[o+]c(-c4ccc(O)cc4)c(O[C@H]4O[C@H](CO)[C@H](O)[C@@H](O)[C@@H]4O)cc23)[C@H](O)[C@@H](O)[C@@H]1O.[Cl-]
REMARK SMILES IDX 14 1 22 2 35 3 36 4 7 5 8 6 9 7 11 8 12 9 13 10 15 11 16 12
REMARK SMILES IDX 17 13 18 14 21 15 20 16 19 17 23 19 24 20 33 21 25 22 31 23
REMARK SMILES IDX 26 24 29 25 34 26 32 28 27 30 28 31 30 33 6 35 5 36 37 37
REMARK SMILES IDX 4 38 39 39 3 40 41 41 38 42 40 44 2 46 1 47 42 49 10 51
REMARK H PARENT 19 18 34 27 32 29 28 32 30 34 38 43 40 45 1 48 42 50 10 52
REMARK Flexibility Score: inf
ROOT
ATOM      1  C   UNL     1      -0.431 -18.690  28.960  1.00  0.00     0.402 A 
ATOM      2  C   UNL     1      -1.649 -18.475  28.257  1.00  0.00     0.229 A 
ATOM      3  C   UNL     1      -2.280 -17.276  28.549  1.00  0.00     0.079 A 
ATOM      4  C   UNL     1      -1.501 -16.153  28.739  1.00  0.00     0.126 A 
ATOM      5  C   UNL     1      -2.017 -14.848  28.614  1.00  0.00     0.143 A 
ATOM      6  C   UNL     1      -1.132 -13.771  28.644  1.00  0.00     0.094 A 
ATOM      7  C   UNL     1       0.229 -13.961  28.927  1.00  0.00     0.128 A 
ATOM      8  C   UNL     1       0.734 -15.258  29.168  1.00  0.00     0.162 A 
ATOM      9  C   UNL     1      -0.139 -16.376  29.054  1.00  0.00     0.368 A 
ATOM     10  O   UNL     1       0.293 -17.605  29.293  1.00  0.00    -0.202 OA
ENDROOT
BRANCH   1  11
ATOM     11  C   UNL     1      -0.047 -20.046  29.450  1.00  0.00     0.084 A 
ATOM     12  C   UNL     1      -0.965 -20.908  30.094  1.00  0.00     0.022 A 
ATOM     13  C   UNL     1      -0.496 -21.959  30.882  1.00  0.00     0.047 A 
ATOM     14  C   UNL     1       0.885 -22.167  31.052  1.00  0.00     0.115 A 
ATOM     15  C   UNL     1       1.338 -20.350  29.525  1.00  0.00     0.022 A 
ATOM     16  C   UNL     1       1.785 -21.393  30.323  1.00  0.00     0.047 A 
BRANCH  14  17
ATOM     17  O   UNL     1       1.365 -23.116  31.944  1.00  0.00    -0.508 OA
ATOM     18  H   UNL     1       0.710 -23.657  32.515  1.00  0.00     0.293 HD
ENDBRANCH  14  17
ENDBRANCH   1  11
BRANCH   2  19
ATOM     19  O   UNL     1      -2.063 -19.304  27.203  1.00  0.00    -0.452 OA
BRANCH  19  20
ATOM     20  C   UNL     1      -1.561 -19.253  25.864  1.00  0.00     0.339 C 
ATOM     21  C   UNL     1      -0.685 -20.523  25.719  1.00  0.00     0.214 C 
ATOM     22  O   UNL     1      -0.842 -18.036  25.625  1.00  0.00    -0.332 OA
ATOM     23  C   UNL     1       0.449 -20.342  24.673  1.00  0.00     0.180 C 
ATOM     24  C   UNL     1      -0.276 -17.944  24.313  1.00  0.00     0.179 C 
ATOM     25  C   UNL     1       0.041 -19.285  23.617  1.00  0.00     0.177 C 
BRANCH  21  26
ATOM     26  O   UNL     1      -1.488 -21.636  25.355  1.00  0.00    -0.384 OA
ATOM     27  H   UNL     1      -2.432 -21.331  25.403  1.00  0.00     0.211 HD
ENDBRANCH  21  26
BRANCH  23  28
ATOM     28  O   UNL     1       1.671 -19.954  25.247  1.00  0.00    -0.387 OA
ATOM     29  H   UNL     1       1.619 -20.010  26.238  1.00  0.00     0.211 HD
ENDBRANCH  23  28
BRANCH  24  30
ATOM     30  C   UNL     1      -1.091 -17.002  23.393  1.00  0.00     0.191 C 
BRANCH  30  31
ATOM     31  O   UNL     1      -1.788 -16.065  24.194  1.00  0.00    -0.394 OA
ATOM     32  H   UNL     1      -1.167 -15.818  24.941  1.00  0.00     0.210 HD
ENDBRANCH  30  31
ENDBRANCH  24  30
BRANCH  25  33
ATOM     33  O   UNL     1      -1.060 -19.757  22.875  1.00  0.00    -0.387 OA
ATOM     34  H   UNL     1      -1.741 -20.030  23.546  1.00  0.00     0.211 HD
ENDBRANCH  25  33
ENDBRANCH  19  20
ENDBRANCH   2  19
BRANCH   5  35
ATOM     35  O   UNL     1      -3.391 -14.572  28.346  1.00  0.00    -0.461 OA
BRANCH  35  36
ATOM     36  C   UNL     1      -4.264 -13.823  29.212  1.00  0.00     0.339 C 
ATOM     37  C   UNL     1      -5.702 -14.003  28.649  1.00  0.00     0.214 C 
ATOM     38  O   UNL     1      -4.168 -14.316  30.539  1.00  0.00    -0.332 OA
ATOM     39  C   UNL     1      -6.744 -14.030  29.766  1.00  0.00     0.180 C 
ATOM     40  C   UNL     1      -4.936 -13.577  31.472  1.00  0.00     0.179 C 
ATOM     41  C   UNL     1      -6.326 -13.114  30.953  1.00  0.00     0.177 C 
BRANCH  37  42
ATOM     42  O   UNL     1      -6.001 -12.984  27.740  1.00  0.00    -0.384 OA
ATOM     43  H   UNL     1      -6.773 -12.503  28.079  1.00  0.00     0.211 HD
ENDBRANCH  37  42
BRANCH  39  44
ATOM     44  O   UNL     1      -6.934 -15.345  30.237  1.00  0.00    -0.387 OA
ATOM     45  H   UNL     1      -7.912 -15.533  30.230  1.00  0.00     0.211 HD
ENDBRANCH  39  44
BRANCH  40  46
ATOM     46  C   UNL     1      -4.128 -12.489  32.236  1.00  0.00     0.191 C 
BRANCH  46  47
ATOM     47  O   UNL     1      -4.925 -11.619  33.007  1.00  0.00    -0.394 OA
ATOM     48  H   UNL     1      -5.854 -12.011  33.041  1.00  0.00     0.210 HD
ENDBRANCH  46  47
ENDBRANCH  40  46
BRANCH  41  49
ATOM     49  O   UNL     1      -6.346 -11.768  30.581  1.00  0.00    -0.387 OA
ATOM     50  H   UNL     1      -5.807 -11.285  31.233  1.00  0.00     0.211 HD
ENDBRANCH  41  49
ENDBRANCH  35  36
ENDBRANCH   5  35
BRANCH   7  51
ATOM     51  O   UNL     1       1.092 -12.878  28.889  1.00  0.00    -0.507 OA
ATOM     52  H   UNL     1       1.929 -12.846  29.461  1.00  0.00     0.293 HD
ENDBRANCH   7  51
TORSDOF 17
ENDMDL
MODEL 9
REMARK VINA RESULT:    -7.401      2.857      8.805
REMARK INTER + INTRA:         -14.886
REMARK INTER:                 -11.443
REMARK INTRA:                  -3.443
REMARK UNBOUND:                -2.293
REMARK SMILES OC[C@@H]1O[C@@H](Oc2cc(O)cc3[o+]c(-c4ccc(O)cc4)c(O[C@H]4O[C@H](CO)[C@H](O)[C@@H](O)[C@@H]4O)cc23)[C@H](O)[C@@H](O)[C@@H]1O.[Cl-]
REMARK SMILES IDX 14 1 22 2 35 3 36 4 7 5 8 6 9 7 11 8 12 9 13 10 15 11 16 12
REMARK SMILES IDX 17 13 18 14 21 15 20 16 19 17 23 19 24 20 33 21 25 22 31 23
REMARK SMILES IDX 26 24 29 25 34 26 32 28 27 30 28 31 30 33 6 35 5 36 37 37
REMARK SMILES IDX 4 38 39 39 3 40 41 41 38 42 40 44 2 46 1 47 42 49 10 51
REMARK H PARENT 19 18 34 27 32 29 28 32 30 34 38 43 40 45 1 48 42 50 10 52
REMARK Flexibility Score: inf
ROOT
ATOM      1  C   UNL     1      -0.392 -16.653  25.768  1.00  0.00     0.402 A 
ATOM      2  C   UNL     1      -0.495 -17.075  27.123  1.00  0.00     0.229 A 
ATOM      3  C   UNL     1      -1.125 -18.297  27.300  1.00  0.00     0.079 A 
ATOM      4  C   UNL     1      -0.883 -19.301  26.385  1.00  0.00     0.126 A 
ATOM      5  C   UNL     1      -1.106 -20.660  26.680  1.00  0.00     0.143 A 
ATOM      6  C   UNL     1      -0.670 -21.624  25.773  1.00  0.00     0.094 A 
ATOM      7  C   UNL     1      -0.141 -21.257  24.527  1.00  0.00     0.128 A 
ATOM      8  C   UNL     1      -0.019 -19.894  24.175  1.00  0.00     0.162 A 
ATOM      9  C   UNL     1      -0.378 -18.897  25.126  1.00  0.00     0.368 A 
ATOM     10  O   UNL     1      -0.297 -17.609  24.826  1.00  0.00    -0.202 OA
ENDROOT
BRANCH   1  11
ATOM     11  C   UNL     1      -0.543 -15.218  25.389  1.00  0.00     0.084 A 
ATOM     12  C   UNL     1       0.559 -14.411  25.021  1.00  0.00     0.022 A 
ATOM     13  C   UNL     1       0.450 -13.021  25.073  1.00  0.00     0.047 A 
ATOM     14  C   UNL     1      -0.745 -12.411  25.497  1.00  0.00     0.115 A 
ATOM     15  C   UNL     1      -1.779 -14.586  25.686  1.00  0.00     0.022 A 
ATOM     16  C   UNL     1      -1.865 -13.203  25.743  1.00  0.00     0.047 A 
BRANCH  14  17
ATOM     17  O   UNL     1      -0.823 -11.038  25.689  1.00  0.00    -0.508 OA
ATOM     18  H   UNL     1      -1.737 -10.580  25.731  1.00  0.00     0.293 HD
ENDBRANCH  14  17
ENDBRANCH   1  11
BRANCH   2  19
ATOM     19  O   UNL     1       0.174 -16.417  28.166  1.00  0.00    -0.452 OA
BRANCH  19  20
ATOM     20  C   UNL     1       0.230 -16.864  29.525  1.00  0.00     0.339 C 
ATOM     21  C   UNL     1      -0.696 -15.893  30.302  1.00  0.00     0.214 C 
ATOM     22  O   UNL     1       1.578 -16.876  30.013  1.00  0.00    -0.332 OA
ATOM     23  C   UNL     1      -0.278 -15.743  31.790  1.00  0.00     0.180 C 
ATOM     24  C   UNL     1       1.697 -17.273  31.383  1.00  0.00     0.179 C 
ATOM     25  C   UNL     1       0.460 -17.017  32.271  1.00  0.00     0.177 C 
BRANCH  21  26
ATOM     26  O   UNL     1      -2.043 -16.336  30.232  1.00  0.00    -0.384 OA
ATOM     27  H   UNL     1      -2.345 -16.176  29.300  1.00  0.00     0.211 HD
ENDBRANCH  21  26
BRANCH  23  28
ATOM     28  O   UNL     1       0.548 -14.632  32.022  1.00  0.00    -0.387 OA
ATOM     29  H   UNL     1       0.010 -13.870  32.367  1.00  0.00     0.211 HD
ENDBRANCH  23  28
BRANCH  24  30
ATOM     30  C   UNL     1       2.210 -18.726  31.525  1.00  0.00     0.191 C 
BRANCH  30  31
ATOM     31  O   UNL     1       1.455 -19.567  30.672  1.00  0.00    -0.394 OA
ATOM     32  H   UNL     1       1.997 -19.679  29.836  1.00  0.00     0.210 HD
ENDBRANCH  30  31
ENDBRANCH  24  30
BRANCH  25  33
ATOM     33  O   UNL     1      -0.427 -18.113  32.254  1.00  0.00    -0.387 OA
ATOM     34  H   UNL     1      -0.829 -18.120  31.346  1.00  0.00     0.211 HD
ENDBRANCH  25  33
ENDBRANCH  19  20
ENDBRANCH   2  19
BRANCH   5  35
ATOM     35  O   UNL     1      -1.659 -21.111  27.916  1.00  0.00    -0.461 OA
BRANCH  35  36
ATOM     36  C   UNL     1      -0.888 -21.573  29.042  1.00  0.00     0.339 C 
ATOM     37  C   UNL     1      -1.789 -21.387  30.296  1.00  0.00     0.214 C 
ATOM     38  O   UNL     1      -0.537 -22.936  28.862  1.00  0.00    -0.332 OA
ATOM     39  C   UNL     1      -1.548 -22.486  31.330  1.00  0.00     0.180 C 
ATOM     40  C   UNL     1       0.294 -23.445  29.889  1.00  0.00     0.179 C 
ATOM     41  C   UNL     1      -0.064 -22.956  31.321  1.00  0.00     0.177 C 
BRANCH  37  42
ATOM     42  O   UNL     1      -1.570 -20.132  30.871  1.00  0.00    -0.384 OA
ATOM     43  H   UNL     1      -1.921 -20.157  31.777  1.00  0.00     0.211 HD
ENDBRANCH  37  42
BRANCH  39  44
ATOM     44  O   UNL     1      -2.388 -23.592  31.086  1.00  0.00    -0.387 OA
ATOM     45  H   UNL     1      -2.104 -24.329  31.690  1.00  0.00     0.211 HD
ENDBRANCH  39  44
BRANCH  40  46
ATOM     46  C   UNL     1       1.812 -23.415  29.549  1.00  0.00     0.191 C 
BRANCH  46  47
ATOM     47  O   UNL     1       2.360 -22.118  29.487  1.00  0.00    -0.394 OA
ATOM     48  H   UNL     1       2.640 -21.954  28.533  1.00  0.00     0.210 HD
ENDBRANCH  46  47
ENDBRANCH  40  46
BRANCH  41  49
ATOM     49  O   UNL     1       0.786 -21.947  31.778  1.00  0.00    -0.387 OA
ATOM     50  H   UNL     1       1.212 -22.279  32.589  1.00  0.00     0.211 HD
ENDBRANCH  41  49
ENDBRANCH  35  36
ENDBRANCH   5  35
BRANCH   7  51
ATOM     51  O   UNL     1       0.339 -22.237  23.672  1.00  0.00    -0.507 OA
ATOM     52  H   UNL     1       0.130 -22.226  22.681  1.00  0.00     0.293 HD
ENDBRANCH   7  51
TORSDOF 17
ENDMDL
