MODEL 1
REMARK VINA RESULT:    -3.441      0.000      0.000
REMARK INTER + INTRA:          -7.964
REMARK INTER:                  -6.056
REMARK INTRA:                  -1.908
REMARK UNBOUND:                -1.908
REMARK SMILES CCCCCCCCCCCCCCC(=O)[O-]
REMARK SMILES IDX 9 1 10 2 11 3 12 4 13 5 14 6 15 7 16 8 17 9 8 10 7 11 6 12
REMARK SMILES IDX 5 13 4 14 3 15 2 16 1 17
REMARK H PARENT
REMARK Flexibility Score: inf
ROOT
ATOM      1  C   UNL     1      29.817  46.780   8.405  1.00  0.00     0.000 C 
ENDROOT
BRANCH   1   2
ATOM      2  C   UNL     1      31.344  46.658   8.263  1.00  0.00     0.000 C 
BRANCH   2   3
ATOM      3  C   UNL     1      32.022  47.954   7.772  1.00  0.00     0.000 C 
BRANCH   3   4
ATOM      4  C   UNL     1      31.580  48.336   6.347  1.00  0.00     0.000 C 
BRANCH   4   5
ATOM      5  C   UNL     1      31.336  49.845   6.187  1.00  0.00     0.006 C 
BRANCH   5   6
ATOM      6  C   UNL     1      31.942  50.666   7.332  1.00  0.00     0.053 C 
BRANCH   6   7
ATOM      7  C   UNL     1      32.073  52.102   6.931  1.00  0.00     0.041 C 
ATOM      8  O   UNL     1      31.056  52.759   6.586  1.00  0.00    -0.550 OA
ATOM      9  O   UNL     1      33.312  52.729   6.986  1.00  0.00    -0.550 OA
ENDBRANCH   6   7
ENDBRANCH   5   6
ENDBRANCH   4   5
ENDBRANCH   3   4
ENDBRANCH   2   3
ENDBRANCH   1   2
BRANCH   1  10
ATOM     10  C   UNL     1      29.396  47.624   9.618  1.00  0.00     0.000 C 
BRANCH  10  11
ATOM     11  C   UNL     1      28.716  48.942   9.215  1.00  0.00    -0.000 C 
BRANCH  11  12
ATOM     12  C   UNL     1      28.077  48.873   7.816  1.00  0.00    -0.000 C 
BRANCH  12  13
ATOM     13  C   UNL     1      26.561  49.164   7.857  1.00  0.00    -0.000 C 
BRANCH  13  14
ATOM     14  C   UNL     1      25.737  48.050   8.525  1.00  0.00    -0.000 C 
BRANCH  14  15
ATOM     15  C   UNL     1      26.096  46.648   8.006  1.00  0.00    -0.000 C 
BRANCH  15  16
ATOM     16  C   UNL     1      26.199  45.611   9.135  1.00  0.00    -0.003 C 
ATOM     17  C   UNL     1      25.485  46.052  10.412  1.00  0.00     0.004 C 
ENDBRANCH  15  16
ENDBRANCH  14  15
ENDBRANCH  13  14
ENDBRANCH  12  13
ENDBRANCH  11  12
ENDBRANCH  10  11
ENDBRANCH   1  10
TORSDOF 13
ENDMDL
MODEL 2
REMARK VINA RESULT:    -3.365      1.582      2.325
REMARK INTER + INTRA:          -7.830
REMARK INTER:                  -6.296
REMARK INTRA:                  -1.535
REMARK UNBOUND:                -1.908
REMARK SMILES CCCCCCCCCCCCCCC(=O)[O-]
REMARK SMILES IDX 9 1 10 2 11 3 12 4 13 5 14 6 15 7 16 8 17 9 8 10 7 11 6 12
REMARK SMILES IDX 5 13 4 14 3 15 2 16 1 17
REMARK H PARENT
REMARK Flexibility Score: inf
ROOT
ATOM      1  C   UNL     1      29.414  46.671   8.197  1.00  0.00     0.000 C 
ENDROOT
BRANCH   1   2
ATOM      2  C   UNL     1      30.881  46.216   8.104  1.00  0.00     0.000 C 
BRANCH   2   3
ATOM      3  C   UNL     1      31.894  47.347   8.377  1.00  0.00     0.000 C 
BRANCH   3   4
ATOM      4  C   UNL     1      31.924  48.386   7.242  1.00  0.00     0.000 C 
BRANCH   4   5
ATOM      5  C   UNL     1      32.329  49.786   7.731  1.00  0.00     0.006 C 
BRANCH   5   6
ATOM      6  C   UNL     1      31.509  50.902   7.071  1.00  0.00     0.053 C 
BRANCH   6   7
ATOM      7  C   UNL     1      30.135  50.957   7.659  1.00  0.00     0.041 C 
ATOM      8  O   UNL     1      29.982  51.116   8.899  1.00  0.00    -0.550 OA
ATOM      9  O   UNL     1      29.020  50.884   6.833  1.00  0.00    -0.550 OA
ENDBRANCH   6   7
ENDBRANCH   5   6
ENDBRANCH   4   5
ENDBRANCH   3   4
ENDBRANCH   2   3
ENDBRANCH   1   2
BRANCH   1  10
ATOM     10  C   UNL     1      29.168  47.656   9.351  1.00  0.00     0.000 C 
BRANCH  10  11
ATOM     11  C   UNL     1      27.845  48.424   9.201  1.00  0.00    -0.000 C 
BRANCH  11  12
ATOM     12  C   UNL     1      26.728  47.563   8.585  1.00  0.00    -0.000 C 
BRANCH  12  13
ATOM     13  C   UNL     1      25.686  47.126   9.637  1.00  0.00    -0.000 C 
BRANCH  13  14
ATOM     14  C   UNL     1      25.713  45.619   9.944  1.00  0.00    -0.000 C 
BRANCH  14  15
ATOM     15  C   UNL     1      25.661  44.751   8.676  1.00  0.00    -0.000 C 
BRANCH  15  16
ATOM     16  C   UNL     1      26.830  43.759   8.592  1.00  0.00    -0.003 C 
ATOM     17  C   UNL     1      27.490  43.736   7.213  1.00  0.00     0.004 C 
ENDBRANCH  15  16
ENDBRANCH  14  15
ENDBRANCH  13  14
ENDBRANCH  12  13
ENDBRANCH  11  12
ENDBRANCH  10  11
ENDBRANCH   1  10
TORSDOF 13
ENDMDL
MODEL 3
REMARK VINA RESULT:    -3.318      3.599      6.059
REMARK INTER + INTRA:          -7.747
REMARK INTER:                  -5.992
REMARK INTRA:                  -1.755
REMARK UNBOUND:                -1.908
REMARK SMILES CCCCCCCCCCCCCCC(=O)[O-]
REMARK SMILES IDX 9 1 10 2 11 3 12 4 13 5 14 6 15 7 16 8 17 9 8 10 7 11 6 12
REMARK SMILES IDX 5 13 4 14 3 15 2 16 1 17
REMARK H PARENT
REMARK Flexibility Score: inf
ROOT
ATOM      1  C   UNL     1      31.646  47.239   8.430  1.00  0.00     0.000 C 
ENDROOT
BRANCH   1   2
ATOM      2  C   UNL     1      30.198  46.768   8.653  1.00  0.00     0.000 C 
BRANCH   2   3
ATOM      3  C   UNL     1      29.249  47.892   9.117  1.00  0.00     0.000 C 
BRANCH   3   4
ATOM      4  C   UNL     1      27.997  47.999   8.227  1.00  0.00     0.000 C 
BRANCH   4   5
ATOM      5  C   UNL     1      26.721  48.286   9.034  1.00  0.00     0.006 C 
BRANCH   5   6
ATOM      6  C   UNL     1      25.604  47.272   8.752  1.00  0.00     0.053 C 
BRANCH   6   7
ATOM      7  C   UNL     1      25.810  46.031   9.561  1.00  0.00     0.041 C 
ATOM      8  O   UNL     1      25.368  45.961  10.737  1.00  0.00    -0.550 OA
ATOM      9  O   UNL     1      26.448  44.932   8.998  1.00  0.00    -0.550 OA
ENDBRANCH   6   7
ENDBRANCH   5   6
ENDBRANCH   4   5
ENDBRANCH   3   4
ENDBRANCH   2   3
ENDBRANCH   1   2
BRANCH   1  10
ATOM     10  C   UNL     1      31.768  48.274   7.299  1.00  0.00     0.000 C 
BRANCH  10  11
ATOM     11  C   UNL     1      32.313  49.624   7.790  1.00  0.00    -0.000 C 
BRANCH  11  12
ATOM     12  C   UNL     1      31.800  50.808   6.951  1.00  0.00    -0.000 C 
BRANCH  12  13
ATOM     13  C   UNL     1      30.740  50.371   5.917  1.00  0.00    -0.000 C 
BRANCH  13  14
ATOM     14  C   UNL     1      29.315  50.838   6.259  1.00  0.00    -0.000 C 
BRANCH  14  15
ATOM     15  C   UNL     1      29.293  51.990   7.277  1.00  0.00    -0.000 C 
BRANCH  15  16
ATOM     16  C   UNL     1      28.346  51.716   8.456  1.00  0.00    -0.003 C 
ATOM     17  C   UNL     1      26.874  51.898   8.088  1.00  0.00     0.004 C 
ENDBRANCH  15  16
ENDBRANCH  14  15
ENDBRANCH  13  14
ENDBRANCH  12  13
ENDBRANCH  11  12
ENDBRANCH  10  11
ENDBRANCH   1  10
TORSDOF 13
ENDMDL
MODEL 4
REMARK VINA RESULT:    -3.296      1.568      2.862
REMARK INTER + INTRA:          -7.710
REMARK INTER:                  -5.956
REMARK INTRA:                  -1.754
REMARK UNBOUND:                -1.908
REMARK SMILES CCCCCCCCCCCCCCC(=O)[O-]
REMARK SMILES IDX 9 1 10 2 11 3 12 4 13 5 14 6 15 7 16 8 17 9 8 10 7 11 6 12
REMARK SMILES IDX 5 13 4 14 3 15 2 16 1 17
REMARK H PARENT
REMARK Flexibility Score: inf
ROOT
ATOM      1  C   UNL     1      28.995  47.748   9.190  1.00  0.00     0.000 C 
ENDROOT
BRANCH   1   2
ATOM      2  C   UNL     1      29.262  46.643   8.153  1.00  0.00     0.000 C 
BRANCH   2   3
ATOM      3  C   UNL     1      30.722  46.145   8.146  1.00  0.00     0.000 C 
BRANCH   3   4
ATOM      4  C   UNL     1      31.721  47.269   8.476  1.00  0.00     0.000 C 
BRANCH   4   5
ATOM      5  C   UNL     1      31.973  48.206   7.284  1.00  0.00     0.006 C 
BRANCH   5   6
ATOM      6  C   UNL     1      32.092  49.677   7.705  1.00  0.00     0.053 C 
BRANCH   6   7
ATOM      7  C   UNL     1      30.948  50.470   7.156  1.00  0.00     0.041 C 
ATOM      8  O   UNL     1      30.912  51.719   7.310  1.00  0.00    -0.550 OA
ATOM      9  O   UNL     1      29.947  49.836   6.431  1.00  0.00    -0.550 OA
ENDBRANCH   6   7
ENDBRANCH   5   6
ENDBRANCH   4   5
ENDBRANCH   3   4
ENDBRANCH   2   3
ENDBRANCH   1   2
BRANCH   1  10
ATOM     10  C   UNL     1      27.711  48.540   8.898  1.00  0.00     0.000 C 
BRANCH  10  11
ATOM     11  C   UNL     1      26.489  47.632   8.692  1.00  0.00    -0.000 C 
BRANCH  11  12
ATOM     12  C   UNL     1      25.876  47.155  10.021  1.00  0.00    -0.000 C 
BRANCH  12  13
ATOM     13  C   UNL     1      25.494  45.660   9.980  1.00  0.00    -0.000 C 
BRANCH  13  14
ATOM     14  C   UNL     1      25.735  44.999   8.612  1.00  0.00    -0.000 C 
BRANCH  14  15
ATOM     15  C   UNL     1      26.781  43.874   8.668  1.00  0.00    -0.000 C 
BRANCH  15  16
ATOM     16  C   UNL     1      27.345  43.523   7.283  1.00  0.00    -0.003 C 
ATOM     17  C   UNL     1      26.941  44.530   6.207  1.00  0.00     0.004 C 
ENDBRANCH  15  16
ENDBRANCH  14  15
ENDBRANCH  13  14
ENDBRANCH  12  13
ENDBRANCH  11  12
ENDBRANCH  10  11
ENDBRANCH   1  10
TORSDOF 13
ENDMDL
MODEL 5
REMARK VINA RESULT:    -3.272     17.297     18.817
REMARK INTER + INTRA:          -7.666
REMARK INTER:                  -6.983
REMARK INTRA:                  -0.683
REMARK UNBOUND:                -1.908
REMARK SMILES CCCCCCCCCCCCCCC(=O)[O-]
REMARK SMILES IDX 9 1 10 2 11 3 12 4 13 5 14 6 15 7 16 8 17 9 8 10 7 11 6 12
REMARK SMILES IDX 5 13 4 14 3 15 2 16 1 17
REMARK H PARENT
REMARK Flexibility Score: inf
ROOT
ATOM      1  C   UNL     1      33.852  47.245  25.001  1.00  0.00     0.000 C 
ENDROOT
BRANCH   1   2
ATOM      2  C   UNL     1      33.572  46.187  26.082  1.00  0.00     0.000 C 
BRANCH   2   3
ATOM      3  C   UNL     1      34.563  45.005  26.058  1.00  0.00     0.000 C 
BRANCH   3   4
ATOM      4  C   UNL     1      36.028  45.473  26.125  1.00  0.00     0.000 C 
BRANCH   4   5
ATOM      5  C   UNL     1      36.960  44.632  25.238  1.00  0.00     0.006 C 
BRANCH   5   6
ATOM      6  C   UNL     1      36.362  43.264  24.884  1.00  0.00     0.053 C 
BRANCH   6   7
ATOM      7  C   UNL     1      37.434  42.333  24.413  1.00  0.00     0.041 C 
ATOM      8  O   UNL     1      37.534  42.049  23.190  1.00  0.00    -0.550 OA
ATOM      9  O   UNL     1      38.355  41.818  25.317  1.00  0.00    -0.550 OA
ENDBRANCH   6   7
ENDBRANCH   5   6
ENDBRANCH   4   5
ENDBRANCH   3   4
ENDBRANCH   2   3
ENDBRANCH   1   2
BRANCH   1  10
ATOM     10  C   UNL     1      33.494  48.670  25.455  1.00  0.00     0.000 C 
BRANCH  10  11
ATOM     11  C   UNL     1      34.607  49.685  25.150  1.00  0.00    -0.000 C 
BRANCH  11  12
ATOM     12  C   UNL     1      34.253  51.108  25.617  1.00  0.00    -0.000 C 
BRANCH  12  13
ATOM     13  C   UNL     1      32.728  51.336  25.679  1.00  0.00    -0.000 C 
BRANCH  13  14
ATOM     14  C   UNL     1      32.313  52.801  25.463  1.00  0.00    -0.000 C 
BRANCH  14  15
ATOM     15  C   UNL     1      31.318  52.976  24.305  1.00  0.00    -0.000 C 
BRANCH  15  16
ATOM     16  C   UNL     1      30.612  51.663  23.932  1.00  0.00    -0.003 C 
ATOM     17  C   UNL     1      29.375  51.392  24.787  1.00  0.00     0.004 C 
ENDBRANCH  15  16
ENDBRANCH  14  15
ENDBRANCH  13  14
ENDBRANCH  12  13
ENDBRANCH  11  12
ENDBRANCH  10  11
ENDBRANCH   1  10
TORSDOF 13
ENDMDL
MODEL 6
REMARK VINA RESULT:    -3.271      3.500      6.608
REMARK INTER + INTRA:          -7.664
REMARK INTER:                  -5.856
REMARK INTRA:                  -1.809
REMARK UNBOUND:                -1.908
REMARK SMILES CCCCCCCCCCCCCCC(=O)[O-]
REMARK SMILES IDX 9 1 10 2 11 3 12 4 13 5 14 6 15 7 16 8 17 9 8 10 7 11 6 12
REMARK SMILES IDX 5 13 4 14 3 15 2 16 1 17
REMARK H PARENT
REMARK Flexibility Score: inf
ROOT
ATOM      1  C   UNL     1      29.360  47.646   9.584  1.00  0.00     0.000 C 
ENDROOT
BRANCH   1   2
ATOM      2  C   UNL     1      28.685  48.918   9.040  1.00  0.00     0.000 C 
BRANCH   2   3
ATOM      3  C   UNL     1      27.658  48.640   7.923  1.00  0.00     0.000 C 
BRANCH   3   4
ATOM      4  C   UNL     1      26.212  48.884   8.390  1.00  0.00     0.000 C 
BRANCH   4   5
ATOM      5  C   UNL     1      25.339  47.622   8.302  1.00  0.00     0.006 C 
BRANCH   5   6
ATOM      6  C   UNL     1      26.157  46.359   7.999  1.00  0.00     0.053 C 
BRANCH   6   7
ATOM      7  C   UNL     1      26.176  45.453   9.189  1.00  0.00     0.041 C 
ATOM      8  O   UNL     1      25.813  45.881  10.317  1.00  0.00    -0.550 OA
ATOM      9  O   UNL     1      26.549  44.122   9.045  1.00  0.00    -0.550 OA
ENDBRANCH   6   7
ENDBRANCH   5   6
ENDBRANCH   4   5
ENDBRANCH   3   4
ENDBRANCH   2   3
ENDBRANCH   1   2
BRANCH   1  10
ATOM     10  C   UNL     1      29.888  46.729   8.469  1.00  0.00     0.000 C 
BRANCH  10  11
ATOM     11  C   UNL     1      31.423  46.685   8.417  1.00  0.00    -0.000 C 
BRANCH  11  12
ATOM     12  C   UNL     1      32.031  47.969   7.824  1.00  0.00    -0.000 C 
BRANCH  12  13
ATOM     13  C   UNL     1      31.548  48.227   6.381  1.00  0.00    -0.000 C 
BRANCH  13  14
ATOM     14  C   UNL     1      30.934  49.623   6.176  1.00  0.00    -0.000 C 
BRANCH  14  15
ATOM     15  C   UNL     1      31.796  50.747   6.772  1.00  0.00    -0.000 C 
BRANCH  15  16
ATOM     16  C   UNL     1      31.057  52.093   6.821  1.00  0.00    -0.003 C 
ATOM     17  C   UNL     1      29.542  51.933   6.951  1.00  0.00     0.004 C 
ENDBRANCH  15  16
ENDBRANCH  14  15
ENDBRANCH  13  14
ENDBRANCH  12  13
ENDBRANCH  11  12
ENDBRANCH  10  11
ENDBRANCH   1  10
TORSDOF 13
ENDMDL
MODEL 7
REMARK VINA RESULT:    -3.218     16.978     18.548
REMARK INTER + INTRA:          -7.572
REMARK INTER:                  -7.014
REMARK INTRA:                  -0.558
REMARK UNBOUND:                -1.908
REMARK SMILES CCCCCCCCCCCCCCC(=O)[O-]
REMARK SMILES IDX 9 1 10 2 11 3 12 4 13 5 14 6 15 7 16 8 17 9 8 10 7 11 6 12
REMARK SMILES IDX 5 13 4 14 3 15 2 16 1 17
REMARK H PARENT
REMARK Flexibility Score: inf
ROOT
ATOM      1  C   UNL     1      33.477  48.628  24.999  1.00  0.00     0.000 C 
ENDROOT
BRANCH   1   2
ATOM      2  C   UNL     1      34.611  49.668  25.025  1.00  0.00     0.000 C 
BRANCH   2   3
ATOM      3  C   UNL     1      34.259  50.943  25.819  1.00  0.00     0.000 C 
BRANCH   3   4
ATOM      4  C   UNL     1      32.775  51.328  25.671  1.00  0.00     0.000 C 
BRANCH   4   5
ATOM      5  C   UNL     1      32.577  52.823  25.380  1.00  0.00     0.006 C 
BRANCH   5   6
ATOM      6  C   UNL     1      31.116  53.176  25.071  1.00  0.00     0.053 C 
BRANCH   6   7
ATOM      7  C   UNL     1      30.447  52.046  24.354  1.00  0.00     0.041 C 
ATOM      8  O   UNL     1      30.804  51.737  23.186  1.00  0.00    -0.550 OA
ATOM      9  O   UNL     1      29.464  51.301  24.993  1.00  0.00    -0.550 OA
ENDBRANCH   6   7
ENDBRANCH   5   6
ENDBRANCH   4   5
ENDBRANCH   3   4
ENDBRANCH   2   3
ENDBRANCH   1   2
BRANCH   1  10
ATOM     10  C   UNL     1      33.664  47.516  26.043  1.00  0.00     0.000 C 
BRANCH  10  11
ATOM     11  C   UNL     1      33.191  46.144  25.537  1.00  0.00    -0.000 C 
BRANCH  11  12
ATOM     12  C   UNL     1      34.161  45.009  25.911  1.00  0.00    -0.000 C 
BRANCH  12  13
ATOM     13  C   UNL     1      35.602  45.523  26.118  1.00  0.00    -0.000 C 
BRANCH  13  14
ATOM     14  C   UNL     1      36.668  44.671  25.408  1.00  0.00    -0.000 C 
BRANCH  14  15
ATOM     15  C   UNL     1      36.091  43.391  24.783  1.00  0.00    -0.000 C 
BRANCH  15  16
ATOM     16  C   UNL     1      37.044  42.753  23.760  1.00  0.00    -0.003 C 
ATOM     17  C   UNL     1      37.987  41.728  24.390  1.00  0.00     0.004 C 
ENDBRANCH  15  16
ENDBRANCH  14  15
ENDBRANCH  13  14
ENDBRANCH  12  13
ENDBRANCH  11  12
ENDBRANCH  10  11
ENDBRANCH   1  10
TORSDOF 13
ENDMDL
MODEL 8
REMARK VINA RESULT:    -3.216      1.834      2.627
REMARK INTER + INTRA:          -7.567
REMARK INTER:                  -6.081
REMARK INTRA:                  -1.486
REMARK UNBOUND:                -1.908
REMARK SMILES CCCCCCCCCCCCCCC(=O)[O-]
REMARK SMILES IDX 9 1 10 2 11 3 12 4 13 5 14 6 15 7 16 8 17 9 8 10 7 11 6 12
REMARK SMILES IDX 5 13 4 14 3 15 2 16 1 17
REMARK H PARENT
REMARK Flexibility Score: inf
ROOT
ATOM      1  C   UNL     1      31.651  47.563   8.494  1.00  0.00     0.000 C 
ENDROOT
BRANCH   1   2
ATOM      2  C   UNL     1      32.019  48.419   7.270  1.00  0.00     0.000 C 
BRANCH   2   3
ATOM      3  C   UNL     1      32.370  49.880   7.623  1.00  0.00     0.000 C 
BRANCH   3   4
ATOM      4  C   UNL     1      31.699  50.885   6.669  1.00  0.00     0.000 C 
BRANCH   4   5
ATOM      5  C   UNL     1      30.181  50.678   6.561  1.00  0.00     0.006 C 
BRANCH   5   6
ATOM      6  C   UNL     1      29.382  51.893   7.051  1.00  0.00     0.053 C 
BRANCH   6   7
ATOM      7  C   UNL     1      28.732  51.594   8.365  1.00  0.00     0.041 C 
ATOM      8  O   UNL     1      27.559  51.989   8.596  1.00  0.00    -0.550 OA
ATOM      9  O   UNL     1      29.404  50.837   9.317  1.00  0.00    -0.550 OA
ENDBRANCH   6   7
ENDBRANCH   5   6
ENDBRANCH   4   5
ENDBRANCH   3   4
ENDBRANCH   2   3
ENDBRANCH   1   2
BRANCH   1  10
ATOM     10  C   UNL     1      31.103  46.179   8.110  1.00  0.00     0.000 C 
BRANCH  10  11
ATOM     11  C   UNL     1      29.567  46.135   8.091  1.00  0.00    -0.000 C 
BRANCH  11  12
ATOM     12  C   UNL     1      28.933  47.353   8.788  1.00  0.00    -0.000 C 
BRANCH  12  13
ATOM     13  C   UNL     1      27.829  48.003   7.928  1.00  0.00    -0.000 C 
BRANCH  13  14
ATOM     14  C   UNL     1      26.418  47.464   8.224  1.00  0.00    -0.000 C 
BRANCH  14  15
ATOM     15  C   UNL     1      26.145  47.303   9.728  1.00  0.00    -0.000 C 
BRANCH  15  16
ATOM     16  C   UNL     1      25.776  45.861  10.108  1.00  0.00    -0.003 C 
ATOM     17  C   UNL     1      26.184  44.844   9.042  1.00  0.00     0.004 C 
ENDBRANCH  15  16
ENDBRANCH  14  15
ENDBRANCH  13  14
ENDBRANCH  12  13
ENDBRANCH  11  12
ENDBRANCH  10  11
ENDBRANCH   1  10
TORSDOF 13
ENDMDL
MODEL 9
REMARK VINA RESULT:    -3.123      1.903      2.943
REMARK INTER + INTRA:          -7.404
REMARK INTER:                  -5.487
REMARK INTRA:                  -1.917
REMARK UNBOUND:                -1.908
REMARK SMILES CCCCCCCCCCCCCCC(=O)[O-]
REMARK SMILES IDX 9 1 10 2 11 3 12 4 13 5 14 6 15 7 16 8 17 9 8 10 7 11 6 12
REMARK SMILES IDX 5 13 4 14 3 15 2 16 1 17
REMARK H PARENT
REMARK Flexibility Score: inf
ROOT
ATOM      1  C   UNL     1      30.123  46.946   8.554  1.00  0.00     0.000 C 
ENDROOT
BRANCH   1   2
ATOM      2  C   UNL     1      31.642  47.159   8.444  1.00  0.00     0.000 C 
BRANCH   2   3
ATOM      3  C   UNL     1      32.030  48.518   7.826  1.00  0.00     0.000 C 
BRANCH   3   4
ATOM      4  C   UNL     1      31.427  48.712   6.423  1.00  0.00     0.000 C 
BRANCH   4   5
ATOM      5  C   UNL     1      30.694  50.054   6.272  1.00  0.00     0.006 C 
BRANCH   5   6
ATOM      6  C   UNL     1      29.235  49.986   6.744  1.00  0.00     0.053 C 
BRANCH   6   7
ATOM      7  C   UNL     1      29.041  50.835   7.960  1.00  0.00     0.041 C 
ATOM      8  O   UNL     1      29.319  50.381   9.101  1.00  0.00    -0.550 OA
ATOM      9  O   UNL     1      28.600  52.147   7.830  1.00  0.00    -0.550 OA
ENDBRANCH   6   7
ENDBRANCH   5   6
ENDBRANCH   4   5
ENDBRANCH   3   4
ENDBRANCH   2   3
ENDBRANCH   1   2
BRANCH   1  10
ATOM     10  C   UNL     1      29.628  45.746   7.731  1.00  0.00     0.000 C 
BRANCH  10  11
ATOM     11  C   UNL     1      28.618  46.149   6.645  1.00  0.00    -0.000 C 
BRANCH  11  12
ATOM     12  C   UNL     1      27.365  45.254   6.643  1.00  0.00    -0.000 C 
BRANCH  12  13
ATOM     13  C   UNL     1      27.471  44.105   7.667  1.00  0.00    -0.000 C 
BRANCH  13  14
ATOM     14  C   UNL     1      26.428  44.186   8.795  1.00  0.00    -0.000 C 
BRANCH  14  15
ATOM     15  C   UNL     1      25.613  45.489   8.761  1.00  0.00    -0.000 C 
BRANCH  15  16
ATOM     16  C   UNL     1      26.075  46.502   9.820  1.00  0.00    -0.003 C 
ATOM     17  C   UNL     1      26.446  47.858   9.220  1.00  0.00     0.004 C 
ENDBRANCH  15  16
ENDBRANCH  14  15
ENDBRANCH  13  14
ENDBRANCH  12  13
ENDBRANCH  11  12
ENDBRANCH  10  11
ENDBRANCH   1  10
TORSDOF 13
ENDMDL
