MODEL 1
REMARK VINA RESULT:    -7.565      0.000      0.000
REMARK INTER + INTRA:         -10.355
REMARK INTER:                  -9.998
REMARK INTRA:                  -0.357
REMARK UNBOUND:                -0.357
REMARK SMILES CC[C@H](C=C[C@@H](C)[C@@H]1CC[C@@H]2[C@@H]3CC=C4C[C@@H](O)CC[C@]4(C)[C@@H]3CC[C@]21C)C(C)C
REMARK SMILES IDX 6 1 7 2 5 3 4 4 3 5 2 6 1 7 28 8 29 9 30 10 8 11 9 12 26 13
REMARK SMILES IDX 10 14 11 15 25 16 27 17 12 18 24 19 23 20 13 21 21 22 14 23
REMARK SMILES IDX 15 24 20 25 22 26 16 27 19 28 17 29 18 30
REMARK H PARENT 18 31
REMARK Flexibility Score: inf
ROOT
ATOM      1  C   UNL     1     141.266 135.692 144.304  1.00  0.00     0.012 C 
ATOM      2  C   UNL     1     142.784 135.511 144.056  1.00  0.00     0.012 C 
ENDROOT
BRANCH   1   3
ATOM      3  C   UNL     1     141.062 136.884 145.228  1.00  0.00    -0.028 C 
ATOM      4  C   UNL     1     142.084 137.655 145.633  1.00  0.00    -0.027 C 
BRANCH   4   5
ATOM      5  C   UNL     1     141.893 138.887 146.492  1.00  0.00     0.014 C 
BRANCH   5   6
ATOM      6  C   UNL     1     142.618 140.048 145.763  1.00  0.00     0.004 C 
ATOM      7  C   UNL     1     143.905 140.517 146.446  1.00  0.00     0.004 C 
ENDBRANCH   5   6
BRANCH   5   8
ATOM      8  C   UNL     1     140.372 139.198 146.761  1.00  0.00    -0.011 C 
ATOM      9  C   UNL     1     139.968 140.553 146.144  1.00  0.00     0.008 C 
ATOM     10  C   UNL     1     139.980 139.213 148.251  1.00  0.00     0.008 C 
ENDBRANCH   5   8
ENDBRANCH   4   5
ENDBRANCH   1   3
BRANCH   1  11
ATOM     11  C   UNL     1     140.461 134.454 144.840  1.00  0.00     0.002 C 
ATOM     12  C   UNL     1     139.440 133.796 143.875  1.00  0.00     0.005 C 
ATOM     13  C   UNL     1     139.692 134.584 146.186  1.00  0.00    -0.026 C 
ATOM     14  C   UNL     1     138.349 133.162 144.755  1.00  0.00     0.005 C 
ATOM     15  C   UNL     1     138.920 133.257 146.164  1.00  0.00    -0.001 C 
ATOM     16  C   UNL     1     140.579 134.575 147.450  1.00  0.00     0.007 C 
ATOM     17  C   UNL     1     138.781 135.844 146.174  1.00  0.00     0.012 C 
ATOM     18  C   UNL     1     138.041 132.922 147.402  1.00  0.00     0.000 C 
ATOM     19  C   UNL     1     139.705 134.480 148.722  1.00  0.00     0.005 C 
ATOM     20  C   UNL     1     138.752 133.241 148.761  1.00  0.00     0.003 C 
ATOM     21  C   UNL     1     136.589 133.387 147.360  1.00  0.00     0.031 C 
ATOM     22  C   UNL     1     137.766 133.226 150.029  1.00  0.00    -0.008 C 
ATOM     23  C   UNL     1     135.850 132.730 148.476  1.00  0.00    -0.027 C 
ATOM     24  C   UNL     1     136.375 132.653 149.716  1.00  0.00    -0.065 C 
ATOM     25  C   UNL     1     137.486 134.651 150.619  1.00  0.00     0.014 C 
ATOM     26  C   UNL     1     138.467 132.371 151.124  1.00  0.00     0.016 C 
ATOM     27  C   UNL     1     135.400 132.540 150.865  1.00  0.00     0.063 C 
ATOM     28  C   UNL     1     136.447 134.678 151.767  1.00  0.00     0.033 C 
ATOM     29  C   UNL     1     135.134 133.970 151.389  1.00  0.00     0.118 C 
BRANCH  29  30
ATOM     30  O   UNL     1     134.289 133.927 152.505  1.00  0.00    -0.393 OA
ATOM     31  H   UNL     1     134.604 133.181 153.078  1.00  0.00     0.210 HD
ENDBRANCH  29  30
ENDBRANCH   1  11
TORSDOF 6
ENDMDL
MODEL 2
REMARK VINA RESULT:    -7.376      1.387      2.334
REMARK INTER + INTRA:         -10.105
REMARK INTER:                  -9.521
REMARK INTRA:                  -0.585
REMARK UNBOUND:                -0.357
REMARK SMILES CC[C@H](C=C[C@@H](C)[C@@H]1CC[C@@H]2[C@@H]3CC=C4C[C@@H](O)CC[C@]4(C)[C@@H]3CC[C@]21C)C(C)C
REMARK SMILES IDX 6 1 7 2 5 3 4 4 3 5 2 6 1 7 28 8 29 9 30 10 8 11 9 12 26 13
REMARK SMILES IDX 10 14 11 15 25 16 27 17 12 18 24 19 23 20 13 21 21 22 14 23
REMARK SMILES IDX 15 24 20 25 22 26 16 27 19 28 17 29 18 30
REMARK H PARENT 18 31
REMARK Flexibility Score: inf
ROOT
ATOM      1  C   UNL     1     141.684 134.570 146.455  1.00  0.00     0.012 C 
ATOM      2  C   UNL     1     142.282 135.119 147.774  1.00  0.00     0.012 C 
ENDROOT
BRANCH   1   3
ATOM      3  C   UNL     1     141.415 135.740 145.518  1.00  0.00    -0.028 C 
ATOM      4  C   UNL     1     141.431 137.013 145.945  1.00  0.00    -0.027 C 
BRANCH   4   5
ATOM      5  C   UNL     1     141.237 138.192 145.015  1.00  0.00     0.014 C 
BRANCH   5   6
ATOM      6  C   UNL     1     139.718 138.507 145.015  1.00  0.00     0.004 C 
ATOM      7  C   UNL     1     138.865 137.498 144.244  1.00  0.00     0.004 C 
ENDBRANCH   5   6
BRANCH   5   8
ATOM      8  C   UNL     1     142.112 139.433 145.433  1.00  0.00    -0.011 C 
ATOM      9  C   UNL     1     142.714 139.237 146.840  1.00  0.00     0.008 C 
ATOM     10  C   UNL     1     141.357 140.777 145.419  1.00  0.00     0.008 C 
ENDBRANCH   5   8
ENDBRANCH   4   5
ENDBRANCH   1   3
BRANCH   1  11
ATOM     11  C   UNL     1     140.409 133.659 146.556  1.00  0.00     0.002 C 
ATOM     12  C   UNL     1     139.582 133.443 145.261  1.00  0.00     0.005 C 
ATOM     13  C   UNL     1     139.345 133.974 147.646  1.00  0.00    -0.026 C 
ATOM     14  C   UNL     1     138.133 133.178 145.704  1.00  0.00     0.005 C 
ATOM     15  C   UNL     1     138.243 132.996 147.212  1.00  0.00    -0.001 C 
ATOM     16  C   UNL     1     139.751 133.594 149.087  1.00  0.00     0.007 C 
ATOM     17  C   UNL     1     138.924 135.470 147.580  1.00  0.00     0.012 C 
ATOM     18  C   UNL     1     136.968 132.921 148.099  1.00  0.00     0.000 C 
ATOM     19  C   UNL     1     138.545 133.739 150.043  1.00  0.00     0.005 C 
ATOM     20  C   UNL     1     137.289 132.903 149.632  1.00  0.00     0.003 C 
ATOM     21  C   UNL     1     135.821 133.858 147.735  1.00  0.00     0.031 C 
ATOM     22  C   UNL     1     136.008 133.162 150.566  1.00  0.00    -0.008 C 
ATOM     23  C   UNL     1     134.608 133.437 148.494  1.00  0.00    -0.027 C 
ATOM     24  C   UNL     1     134.675 133.120 149.803  1.00  0.00    -0.065 C 
ATOM     25  C   UNL     1     136.020 134.563 151.269  1.00  0.00     0.014 C 
ATOM     26  C   UNL     1     136.034 132.062 151.667  1.00  0.00     0.016 C 
ATOM     27  C   UNL     1     133.410 133.289 150.612  1.00  0.00     0.063 C 
ATOM     28  C   UNL     1     134.743 134.887 152.081  1.00  0.00     0.033 C 
ATOM     29  C   UNL     1     133.457 134.694 151.257  1.00  0.00     0.118 C 
BRANCH  29  30
ATOM     30  O   UNL     1     132.341 134.886 152.081  1.00  0.00    -0.393 OA
ATOM     31  H   UNL     1     131.679 134.189 151.838  1.00  0.00     0.210 HD
ENDBRANCH  29  30
ENDBRANCH   1  11
TORSDOF 6
ENDMDL
MODEL 3
REMARK VINA RESULT:    -7.343      6.278     10.821
REMARK INTER + INTRA:         -10.062
REMARK INTER:                  -9.321
REMARK INTRA:                  -0.741
REMARK UNBOUND:                -0.357
REMARK SMILES CC[C@H](C=C[C@@H](C)[C@@H]1CC[C@@H]2[C@@H]3CC=C4C[C@@H](O)CC[C@]4(C)[C@@H]3CC[C@]21C)C(C)C
REMARK SMILES IDX 6 1 7 2 5 3 4 4 3 5 2 6 1 7 28 8 29 9 30 10 8 11 9 12 26 13
REMARK SMILES IDX 10 14 11 15 25 16 27 17 12 18 24 19 23 20 13 21 21 22 14 23
REMARK SMILES IDX 15 24 20 25 22 26 16 27 19 28 17 29 18 30
REMARK H PARENT 18 31
REMARK Flexibility Score: inf
ROOT
ATOM      1  C   UNL     1     133.583 133.780 152.342  1.00  0.00     0.012 C 
ATOM      2  C   UNL     1     134.929 133.372 152.992  1.00  0.00     0.012 C 
ENDROOT
BRANCH   1   3
ATOM      3  C   UNL     1     133.632 133.434 150.861  1.00  0.00    -0.028 C 
ATOM      4  C   UNL     1     134.792 133.283 150.202  1.00  0.00    -0.027 C 
BRANCH   4   5
ATOM      5  C   UNL     1     134.862 132.867 148.748  1.00  0.00     0.014 C 
BRANCH   5   6
ATOM      6  C   UNL     1     134.093 133.949 147.945  1.00  0.00     0.004 C 
ATOM      7  C   UNL     1     132.865 133.426 147.197  1.00  0.00     0.004 C 
ENDBRANCH   5   6
BRANCH   5   8
ATOM      8  C   UNL     1     136.344 132.683 148.249  1.00  0.00    -0.011 C 
ATOM      9  C   UNL     1     136.906 134.004 147.684  1.00  0.00     0.008 C 
ATOM     10  C   UNL     1     136.523 131.591 147.176  1.00  0.00     0.008 C 
ENDBRANCH   5   8
ENDBRANCH   4   5
ENDBRANCH   1   3
BRANCH   1  11
ATOM     11  C   UNL     1     133.103 135.264 152.531  1.00  0.00     0.002 C 
ATOM     12  C   UNL     1     134.149 136.387 152.304  1.00  0.00     0.005 C 
ATOM     13  C   UNL     1     132.393 135.660 153.858  1.00  0.00    -0.026 C 
ATOM     14  C   UNL     1     133.718 137.574 153.181  1.00  0.00     0.005 C 
ATOM     15  C   UNL     1     132.326 137.182 153.662  1.00  0.00    -0.001 C 
ATOM     16  C   UNL     1     130.941 135.155 153.999  1.00  0.00     0.007 C 
ATOM     17  C   UNL     1     133.242 135.218 155.083  1.00  0.00     0.012 C 
ATOM     18  C   UNL     1     131.602 138.010 154.761  1.00  0.00     0.000 C 
ATOM     19  C   UNL     1     130.266 135.791 155.236  1.00  0.00     0.005 C 
ATOM     20  C   UNL     1     130.262 137.355 155.238  1.00  0.00     0.003 C 
ATOM     21  C   UNL     1     132.461 138.527 155.910  1.00  0.00     0.031 C 
ATOM     22  C   UNL     1     129.669 137.997 156.586  1.00  0.00    -0.008 C 
ATOM     23  C   UNL     1     131.666 139.524 156.684  1.00  0.00    -0.027 C 
ATOM     24  C   UNL     1     130.378 139.293 157.011  1.00  0.00    -0.065 C 
ATOM     25  C   UNL     1     129.786 137.052 157.831  1.00  0.00     0.014 C 
ATOM     26  C   UNL     1     128.161 138.271 156.319  1.00  0.00     0.016 C 
ATOM     27  C   UNL     1     129.846 140.002 158.233  1.00  0.00     0.063 C 
ATOM     28  C   UNL     1     129.331 137.690 159.167  1.00  0.00     0.033 C 
ATOM     29  C   UNL     1     130.012 139.043 159.435  1.00  0.00     0.118 C 
BRANCH  29  30
ATOM     30  O   UNL     1     129.469 139.618 160.592  1.00  0.00    -0.393 OA
ATOM     31  H   UNL     1     130.224 140.017 161.097  1.00  0.00     0.210 HD
ENDBRANCH  29  30
ENDBRANCH   1  11
TORSDOF 6
ENDMDL
MODEL 4
REMARK VINA RESULT:    -7.291      1.902      3.352
REMARK INTER + INTRA:          -9.993
REMARK INTER:                  -8.951
REMARK INTRA:                  -1.042
REMARK UNBOUND:                -0.357
REMARK SMILES CC[C@H](C=C[C@@H](C)[C@@H]1CC[C@@H]2[C@@H]3CC=C4C[C@@H](O)CC[C@]4(C)[C@@H]3CC[C@]21C)C(C)C
REMARK SMILES IDX 6 1 7 2 5 3 4 4 3 5 2 6 1 7 28 8 29 9 30 10 8 11 9 12 26 13
REMARK SMILES IDX 10 14 11 15 25 16 27 17 12 18 24 19 23 20 13 21 21 22 14 23
REMARK SMILES IDX 15 24 20 25 22 26 16 27 19 28 17 29 18 30
REMARK H PARENT 18 31
REMARK Flexibility Score: inf
ROOT
ATOM      1  C   UNL     1     139.210 133.811 145.417  1.00  0.00     0.012 C 
ATOM      2  C   UNL     1     139.077 133.685 143.878  1.00  0.00     0.012 C 
ENDROOT
BRANCH   1   3
ATOM      3  C   UNL     1     140.683 133.718 145.788  1.00  0.00    -0.028 C 
ATOM      4  C   UNL     1     141.456 134.809 145.915  1.00  0.00    -0.027 C 
BRANCH   4   5
ATOM      5  C   UNL     1     142.903 134.742 146.354  1.00  0.00     0.014 C 
BRANCH   5   6
ATOM      6  C   UNL     1     143.753 134.679 145.058  1.00  0.00     0.004 C 
ATOM      7  C   UNL     1     143.171 135.466 143.883  1.00  0.00     0.004 C 
ENDBRANCH   5   6
BRANCH   5   8
ATOM      8  C   UNL     1     143.303 135.951 147.282  1.00  0.00    -0.011 C 
ATOM      9  C   UNL     1     143.027 135.625 148.764  1.00  0.00     0.008 C 
ATOM     10  C   UNL     1     142.593 137.275 146.942  1.00  0.00     0.008 C 
ENDBRANCH   5   8
ENDBRANCH   4   5
ENDBRANCH   1   3
BRANCH   1  11
ATOM     11  C   UNL     1     138.369 132.824 146.304  1.00  0.00     0.002 C 
ATOM     12  C   UNL     1     137.096 132.204 145.670  1.00  0.00     0.005 C 
ATOM     13  C   UNL     1     137.910 133.289 147.716  1.00  0.00    -0.026 C 
ATOM     14  C   UNL     1     136.128 131.906 146.828  1.00  0.00     0.005 C 
ATOM     15  C   UNL     1     136.978 132.122 148.074  1.00  0.00    -0.001 C 
ATOM     16  C   UNL     1     139.023 133.328 148.786  1.00  0.00     0.007 C 
ATOM     17  C   UNL     1     137.194 134.666 147.630  1.00  0.00     0.012 C 
ATOM     18  C   UNL     1     136.328 132.137 149.486  1.00  0.00     0.000 C 
ATOM     19  C   UNL     1     138.417 133.580 150.186  1.00  0.00     0.005 C 
ATOM     20  C   UNL     1     137.333 132.540 150.618  1.00  0.00     0.003 C 
ATOM     21  C   UNL     1     134.973 132.826 149.613  1.00  0.00     0.031 C 
ATOM     22  C   UNL     1     136.628 132.888 152.019  1.00  0.00    -0.008 C 
ATOM     23  C   UNL     1     134.391 132.483 150.942  1.00  0.00    -0.027 C 
ATOM     24  C   UNL     1     135.138 132.514 152.065  1.00  0.00    -0.065 C 
ATOM     25  C   UNL     1     136.667 134.414 152.376  1.00  0.00     0.014 C 
ATOM     26  C   UNL     1     137.413 132.109 153.114  1.00  0.00     0.016 C 
ATOM     27  C   UNL     1     134.407 132.747 153.366  1.00  0.00     0.063 C 
ATOM     28  C   UNL     1     135.892 134.794 153.661  1.00  0.00     0.033 C 
ATOM     29  C   UNL     1     134.447 134.265 153.655  1.00  0.00     0.118 C 
BRANCH  29  30
ATOM     30  O   UNL     1     133.844 134.539 154.890  1.00  0.00    -0.393 OA
ATOM     31  H   UNL     1     133.056 133.942 154.965  1.00  0.00     0.210 HD
ENDBRANCH  29  30
ENDBRANCH   1  11
TORSDOF 6
ENDMDL
MODEL 5
REMARK VINA RESULT:    -7.236      6.336     10.665
REMARK INTER + INTRA:          -9.919
REMARK INTER:                  -8.832
REMARK INTRA:                  -1.087
REMARK UNBOUND:                -0.357
REMARK SMILES CC[C@H](C=C[C@@H](C)[C@@H]1CC[C@@H]2[C@@H]3CC=C4C[C@@H](O)CC[C@]4(C)[C@@H]3CC[C@]21C)C(C)C
REMARK SMILES IDX 6 1 7 2 5 3 4 4 3 5 2 6 1 7 28 8 29 9 30 10 8 11 9 12 26 13
REMARK SMILES IDX 10 14 11 15 25 16 27 17 12 18 24 19 23 20 13 21 21 22 14 23
REMARK SMILES IDX 15 24 20 25 22 26 16 27 19 28 17 29 18 30
REMARK H PARENT 18 31
REMARK Flexibility Score: inf
ROOT
ATOM      1  C   UNL     1     135.207 135.195 152.649  1.00  0.00     0.012 C 
ATOM      2  C   UNL     1     136.754 135.272 152.621  1.00  0.00     0.012 C 
ENDROOT
BRANCH   1   3
ATOM      3  C   UNL     1     134.731 134.493 151.386  1.00  0.00    -0.028 C 
ATOM      4  C   UNL     1     135.558 133.760 150.623  1.00  0.00    -0.027 C 
BRANCH   4   5
ATOM      5  C   UNL     1     135.087 132.995 149.404  1.00  0.00     0.014 C 
BRANCH   5   6
ATOM      6  C   UNL     1     133.683 133.553 149.051  1.00  0.00     0.004 C 
ATOM      7  C   UNL     1     133.503 133.923 147.577  1.00  0.00     0.004 C 
ENDBRANCH   5   6
BRANCH   5   8
ATOM      8  C   UNL     1     136.100 133.103 148.202  1.00  0.00    -0.011 C 
ATOM      9  C   UNL     1     136.596 131.707 147.771  1.00  0.00     0.008 C 
ATOM     10  C   UNL     1     137.332 133.983 148.486  1.00  0.00     0.008 C 
ENDBRANCH   5   8
ENDBRANCH   4   5
ENDBRANCH   1   3
BRANCH   1  11
ATOM     11  C   UNL     1     134.414 136.536 152.850  1.00  0.00     0.002 C 
ATOM     12  C   UNL     1     135.219 137.859 152.769  1.00  0.00     0.005 C 
ATOM     13  C   UNL     1     133.526 136.701 154.117  1.00  0.00    -0.026 C 
ATOM     14  C   UNL     1     134.477 138.881 153.648  1.00  0.00     0.005 C 
ATOM     15  C   UNL     1     133.161 138.186 153.977  1.00  0.00    -0.001 C 
ATOM     16  C   UNL     1     132.204 135.903 154.098  1.00  0.00     0.007 C 
ATOM     17  C   UNL     1     134.340 136.369 155.400  1.00  0.00     0.012 C 
ATOM     18  C   UNL     1     132.189 138.783 155.033  1.00  0.00     0.000 C 
ATOM     19  C   UNL     1     131.308 136.315 155.289  1.00  0.00     0.005 C 
ATOM     20  C   UNL     1     130.979 137.842 155.352  1.00  0.00     0.003 C 
ATOM     21  C   UNL     1     132.819 139.396 156.280  1.00  0.00     0.031 C 
ATOM     22  C   UNL     1     130.151 138.269 156.661  1.00  0.00    -0.008 C 
ATOM     23  C   UNL     1     131.771 140.162 157.012  1.00  0.00    -0.027 C 
ATOM     24  C   UNL     1     130.536 139.655 157.204  1.00  0.00    -0.065 C 
ATOM     25  C   UNL     1     130.355 137.297 157.873  1.00  0.00     0.014 C 
ATOM     26  C   UNL     1     128.648 138.246 156.261  1.00  0.00     0.016 C 
ATOM     27  C   UNL     1     129.765 140.168 158.397  1.00  0.00     0.063 C 
ATOM     28  C   UNL     1     129.664 137.748 159.183  1.00  0.00     0.033 C 
ATOM     29  C   UNL     1     130.022 139.194 159.570  1.00  0.00     0.118 C 
BRANCH  29  30
ATOM     30  O   UNL     1     129.275 139.577 160.691  1.00  0.00    -0.393 OA
ATOM     31  H   UNL     1     128.320 139.546 160.426  1.00  0.00     0.210 HD
ENDBRANCH  29  30
ENDBRANCH   1  11
TORSDOF 6
ENDMDL
MODEL 6
REMARK VINA RESULT:    -6.989      3.293      6.660
REMARK INTER + INTRA:          -9.594
REMARK INTER:                  -8.361
REMARK INTRA:                  -1.233
REMARK UNBOUND:                -0.357
REMARK SMILES CC[C@H](C=C[C@@H](C)[C@@H]1CC[C@@H]2[C@@H]3CC=C4C[C@@H](O)CC[C@]4(C)[C@@H]3CC[C@]21C)C(C)C
REMARK SMILES IDX 6 1 7 2 5 3 4 4 3 5 2 6 1 7 28 8 29 9 30 10 8 11 9 12 26 13
REMARK SMILES IDX 10 14 11 15 25 16 27 17 12 18 24 19 23 20 13 21 21 22 14 23
REMARK SMILES IDX 15 24 20 25 22 26 16 27 19 28 17 29 18 30
REMARK H PARENT 18 31
REMARK Flexibility Score: inf
ROOT
ATOM      1  C   UNL     1     139.736 135.902 145.440  1.00  0.00     0.012 C 
ATOM      2  C   UNL     1     140.193 136.112 143.974  1.00  0.00     0.012 C 
ENDROOT
BRANCH   1   3
ATOM      3  C   UNL     1     138.948 134.604 145.524  1.00  0.00    -0.028 C 
ATOM      4  C   UNL     1     139.383 133.550 146.234  1.00  0.00    -0.027 C 
BRANCH   4   5
ATOM      5  C   UNL     1     138.578 132.277 146.389  1.00  0.00     0.014 C 
BRANCH   5   6
ATOM      6  C   UNL     1     138.581 131.937 147.902  1.00  0.00     0.004 C 
ATOM      7  C   UNL     1     139.002 133.096 148.809  1.00  0.00     0.004 C 
ENDBRANCH   5   6
BRANCH   5   8
ATOM      8  C   UNL     1     137.122 132.414 145.803  1.00  0.00    -0.011 C 
ATOM      9  C   UNL     1     136.070 131.911 146.813  1.00  0.00     0.008 C 
ATOM     10  C   UNL     1     136.900 131.673 144.470  1.00  0.00     0.008 C 
ENDBRANCH   5   8
ENDBRANCH   4   5
ENDBRANCH   1   3
BRANCH   1  11
ATOM     11  C   UNL     1     138.932 137.064 146.126  1.00  0.00     0.002 C 
ATOM     12  C   UNL     1     138.924 138.443 145.416  1.00  0.00     0.005 C 
ATOM     13  C   UNL     1     139.224 137.400 147.617  1.00  0.00    -0.026 C 
ATOM     14  C   UNL     1     138.741 139.504 146.514  1.00  0.00     0.005 C 
ATOM     15  C   UNL     1     138.395 138.686 147.752  1.00  0.00    -0.001 C 
ATOM     16  C   UNL     1     138.663 136.387 148.639  1.00  0.00     0.007 C 
ATOM     17  C   UNL     1     140.749 137.606 147.842  1.00  0.00     0.012 C 
ATOM     18  C   UNL     1     138.338 139.353 149.155  1.00  0.00     0.000 C 
ATOM     19  C   UNL     1     138.812 136.932 150.078  1.00  0.00     0.005 C 
ATOM     20  C   UNL     1     138.134 138.321 150.316  1.00  0.00     0.003 C 
ATOM     21  C   UNL     1     139.403 140.401 149.462  1.00  0.00     0.031 C 
ATOM     22  C   UNL     1     138.405 138.928 151.779  1.00  0.00    -0.008 C 
ATOM     23  C   UNL     1     139.013 141.122 150.707  1.00  0.00    -0.027 C 
ATOM     24  C   UNL     1     138.557 140.457 151.789  1.00  0.00    -0.065 C 
ATOM     25  C   UNL     1     139.719 138.392 152.444  1.00  0.00     0.014 C 
ATOM     26  C   UNL     1     137.199 138.500 152.664  1.00  0.00     0.016 C 
ATOM     27  C   UNL     1     138.750 141.123 153.132  1.00  0.00     0.063 C 
ATOM     28  C   UNL     1     140.066 139.049 153.802  1.00  0.00     0.033 C 
ATOM     29  C   UNL     1     140.071 140.586 153.730  1.00  0.00     0.118 C 
BRANCH  29  30
ATOM     30  O   UNL     1     140.272 141.114 155.012  1.00  0.00    -0.393 OA
ATOM     31  H   UNL     1     139.441 140.948 155.526  1.00  0.00     0.210 HD
ENDBRANCH  29  30
ENDBRANCH   1  11
TORSDOF 6
ENDMDL
MODEL 7
REMARK VINA RESULT:    -6.951      2.636      7.923
REMARK INTER + INTRA:          -9.543
REMARK INTER:                  -9.011
REMARK INTRA:                  -0.533
REMARK UNBOUND:                -0.357
REMARK SMILES CC[C@H](C=C[C@@H](C)[C@@H]1CC[C@@H]2[C@@H]3CC=C4C[C@@H](O)CC[C@]4(C)[C@@H]3CC[C@]21C)C(C)C
REMARK SMILES IDX 6 1 7 2 5 3 4 4 3 5 2 6 1 7 28 8 29 9 30 10 8 11 9 12 26 13
REMARK SMILES IDX 10 14 11 15 25 16 27 17 12 18 24 19 23 20 13 21 21 22 14 23
REMARK SMILES IDX 15 24 20 25 22 26 16 27 19 28 17 29 18 30
REMARK H PARENT 18 31
REMARK Flexibility Score: inf
ROOT
ATOM      1  C   UNL     1     136.371 131.891 147.826  1.00  0.00     0.012 C 
ATOM      2  C   UNL     1     135.775 131.668 146.413  1.00  0.00     0.012 C 
ENDROOT
BRANCH   1   3
ATOM      3  C   UNL     1     135.498 132.890 148.572  1.00  0.00    -0.028 C 
ATOM      4  C   UNL     1     135.201 132.744 149.873  1.00  0.00    -0.027 C 
BRANCH   4   5
ATOM      5  C   UNL     1     134.395 133.765 150.649  1.00  0.00     0.014 C 
BRANCH   5   6
ATOM      6  C   UNL     1     133.212 132.994 151.292  1.00  0.00     0.004 C 
ATOM      7  C   UNL     1     133.548 131.563 151.717  1.00  0.00     0.004 C 
ENDBRANCH   5   6
BRANCH   5   8
ATOM      8  C   UNL     1     135.268 134.531 151.714  1.00  0.00    -0.011 C 
ATOM      9  C   UNL     1     136.519 133.713 152.094  1.00  0.00     0.008 C 
ATOM     10  C   UNL     1     134.517 134.889 153.011  1.00  0.00     0.008 C 
ENDBRANCH   5   8
ENDBRANCH   4   5
ENDBRANCH   1   3
BRANCH   1  11
ATOM     11  C   UNL     1     137.879 132.319 147.922  1.00  0.00     0.002 C 
ATOM     12  C   UNL     1     138.548 132.267 149.321  1.00  0.00     0.005 C 
ATOM     13  C   UNL     1     138.307 133.697 147.341  1.00  0.00    -0.026 C 
ATOM     14  C   UNL     1     139.662 133.327 149.316  1.00  0.00     0.005 C 
ATOM     15  C   UNL     1     139.753 133.750 147.855  1.00  0.00    -0.001 C 
ATOM     16  C   UNL     1     138.368 133.767 145.799  1.00  0.00     0.007 C 
ATOM     17  C   UNL     1     137.398 134.829 147.897  1.00  0.00     0.012 C 
ATOM     18  C   UNL     1     140.615 134.973 147.434  1.00  0.00     0.000 C 
ATOM     19  C   UNL     1     139.016 135.095 145.344  1.00  0.00     0.005 C 
ATOM     20  C   UNL     1     140.447 135.348 145.922  1.00  0.00     0.003 C 
ATOM     21  C   UNL     1     140.591 136.184 148.360  1.00  0.00     0.031 C 
ATOM     22  C   UNL     1     141.052 136.787 145.539  1.00  0.00    -0.008 C 
ATOM     23  C   UNL     1     141.684 137.113 147.953  1.00  0.00    -0.027 C 
ATOM     24  C   UNL     1     141.906 137.409 146.655  1.00  0.00    -0.065 C 
ATOM     25  C   UNL     1     139.955 137.863 145.230  1.00  0.00     0.014 C 
ATOM     26  C   UNL     1     141.909 136.578 144.258  1.00  0.00     0.016 C 
ATOM     27  C   UNL     1     142.569 138.734 146.361  1.00  0.00     0.063 C 
ATOM     28  C   UNL     1     140.506 139.287 144.974  1.00  0.00     0.033 C 
ATOM     29  C   UNL     1     141.448 139.764 146.094  1.00  0.00     0.118 C 
BRANCH  29  30
ATOM     30  O   UNL     1     142.001 141.003 145.743  1.00  0.00    -0.393 OA
ATOM     31  H   UNL     1     141.250 141.648 145.684  1.00  0.00     0.210 HD
ENDBRANCH  29  30
ENDBRANCH   1  11
TORSDOF 6
ENDMDL
MODEL 8
REMARK VINA RESULT:    -6.878      7.066     12.345
REMARK INTER + INTRA:          -9.447
REMARK INTER:                  -7.966
REMARK INTRA:                  -1.481
REMARK UNBOUND:                -0.357
REMARK SMILES CC[C@H](C=C[C@@H](C)[C@@H]1CC[C@@H]2[C@@H]3CC=C4C[C@@H](O)CC[C@]4(C)[C@@H]3CC[C@]21C)C(C)C
REMARK SMILES IDX 6 1 7 2 5 3 4 4 3 5 2 6 1 7 28 8 29 9 30 10 8 11 9 12 26 13
REMARK SMILES IDX 10 14 11 15 25 16 27 17 12 18 24 19 23 20 13 21 21 22 14 23
REMARK SMILES IDX 15 24 20 25 22 26 16 27 19 28 17 29 18 30
REMARK H PARENT 18 31
REMARK Flexibility Score: inf
ROOT
ATOM      1  C   UNL     1     130.993 139.469 156.742  1.00  0.00     0.012 C 
ATOM      2  C   UNL     1     130.956 140.665 157.727  1.00  0.00     0.012 C 
ENDROOT
BRANCH   1   3
ATOM      3  C   UNL     1     129.881 138.498 157.112  1.00  0.00    -0.028 C 
ATOM      4  C   UNL     1     128.809 138.310 156.326  1.00  0.00    -0.027 C 
BRANCH   4   5
ATOM      5  C   UNL     1     127.729 137.296 156.640  1.00  0.00     0.014 C 
BRANCH   5   6
ATOM      6  C   UNL     1     126.393 138.083 156.702  1.00  0.00     0.004 C 
ATOM      7  C   UNL     1     126.169 139.039 155.529  1.00  0.00     0.004 C 
ENDBRANCH   5   6
BRANCH   5   8
ATOM      8  C   UNL     1     127.690 136.119 155.594  1.00  0.00    -0.011 C 
ATOM      9  C   UNL     1     128.233 134.813 156.210  1.00  0.00     0.008 C 
ATOM     10  C   UNL     1     128.472 136.397 154.295  1.00  0.00     0.008 C 
ENDBRANCH   5   8
ENDBRANCH   4   5
ENDBRANCH   1   3
BRANCH   1  11
ATOM     11  C   UNL     1     132.351 138.695 156.587  1.00  0.00     0.002 C 
ATOM     12  C   UNL     1     133.626 139.538 156.322  1.00  0.00     0.005 C 
ATOM     13  C   UNL     1     132.438 137.530 155.559  1.00  0.00    -0.026 C 
ATOM     14  C   UNL     1     134.595 138.637 155.537  1.00  0.00     0.005 C 
ATOM     15  C   UNL     1     133.949 137.259 155.613  1.00  0.00    -0.001 C 
ATOM     16  C   UNL     1     131.726 136.227 155.984  1.00  0.00     0.007 C 
ATOM     17  C   UNL     1     131.930 137.994 154.165  1.00  0.00     0.012 C 
ATOM     18  C   UNL     1     134.492 136.079 154.760  1.00  0.00     0.000 C 
ATOM     19  C   UNL     1     132.067 135.081 155.004  1.00  0.00     0.005 C 
ATOM     20  C   UNL     1     133.596 134.797 154.849  1.00  0.00     0.003 C 
ATOM     21  C   UNL     1     134.936 136.405 153.338  1.00  0.00     0.031 C 
ATOM     22  C   UNL     1     133.936 133.689 153.736  1.00  0.00    -0.008 C 
ATOM     23  C   UNL     1     135.685 135.235 152.796  1.00  0.00    -0.027 C 
ATOM     24  C   UNL     1     135.234 133.974 152.964  1.00  0.00    -0.065 C 
ATOM     25  C   UNL     1     132.835 133.558 152.629  1.00  0.00     0.014 C 
ATOM     26  C   UNL     1     134.042 132.329 154.484  1.00  0.00     0.016 C 
ATOM     27  C   UNL     1     135.667 132.952 151.940  1.00  0.00     0.063 C 
ATOM     28  C   UNL     1     133.190 132.583 151.480  1.00  0.00     0.033 C 
ATOM     29  C   UNL     1     134.565 132.883 150.857  1.00  0.00     0.118 C 
BRANCH  29  30
ATOM     30  O   UNL     1     134.876 131.897 149.912  1.00  0.00    -0.393 OA
ATOM     31  H   UNL     1     134.033 131.413 149.712  1.00  0.00     0.210 HD
ENDBRANCH  29  30
ENDBRANCH   1  11
TORSDOF 6
ENDMDL
MODEL 9
REMARK VINA RESULT:    -6.632      2.257      4.123
REMARK INTER + INTRA:          -9.122
REMARK INTER:                  -7.710
REMARK INTRA:                  -1.412
REMARK UNBOUND:                -0.357
REMARK SMILES CC[C@H](C=C[C@@H](C)[C@@H]1CC[C@@H]2[C@@H]3CC=C4C[C@@H](O)CC[C@]4(C)[C@@H]3CC[C@]21C)C(C)C
REMARK SMILES IDX 6 1 7 2 5 3 4 4 3 5 2 6 1 7 28 8 29 9 30 10 8 11 9 12 26 13
REMARK SMILES IDX 10 14 11 15 25 16 27 17 12 18 24 19 23 20 13 21 21 22 14 23
REMARK SMILES IDX 15 24 20 25 22 26 16 27 19 28 17 29 18 30
REMARK H PARENT 18 31
REMARK Flexibility Score: inf
ROOT
ATOM      1  C   UNL     1     138.479 133.261 144.971  1.00  0.00     0.012 C 
ATOM      2  C   UNL     1     138.290 132.183 143.875  1.00  0.00     0.012 C 
ENDROOT
BRANCH   1   3
ATOM      3  C   UNL     1     139.793 133.986 144.720  1.00  0.00    -0.028 C 
ATOM      4  C   UNL     1     139.835 135.261 144.300  1.00  0.00    -0.027 C 
BRANCH   4   5
ATOM      5  C   UNL     1     141.131 136.021 144.114  1.00  0.00     0.014 C 
BRANCH   5   6
ATOM      6  C   UNL     1     140.900 137.436 144.708  1.00  0.00     0.004 C 
ATOM      7  C   UNL     1     139.461 137.706 145.151  1.00  0.00     0.004 C 
ENDBRANCH   5   6
BRANCH   5   8
ATOM      8  C   UNL     1     142.358 135.282 144.772  1.00  0.00    -0.011 C 
ATOM      9  C   UNL     1     142.762 135.957 146.099  1.00  0.00     0.008 C 
ATOM     10  C   UNL     1     143.608 135.203 143.875  1.00  0.00     0.008 C 
ENDBRANCH   5   8
ENDBRANCH   4   5
ENDBRANCH   1   3
BRANCH   1  11
ATOM     11  C   UNL     1     138.399 132.799 146.470  1.00  0.00     0.002 C 
ATOM     12  C   UNL     1     137.124 132.036 146.914  1.00  0.00     0.005 C 
ATOM     13  C   UNL     1     138.631 133.850 147.593  1.00  0.00    -0.026 C 
ATOM     14  C   UNL     1     136.942 132.318 148.415  1.00  0.00     0.005 C 
ATOM     15  C   UNL     1     138.243 133.004 148.814  1.00  0.00    -0.001 C 
ATOM     16  C   UNL     1     140.099 134.287 147.789  1.00  0.00     0.007 C 
ATOM     17  C   UNL     1     137.723 135.093 147.373  1.00  0.00     0.012 C 
ATOM     18  C   UNL     1     138.398 133.660 150.215  1.00  0.00     0.000 C 
ATOM     19  C   UNL     1     140.241 135.149 149.065  1.00  0.00     0.005 C 
ATOM     20  C   UNL     1     139.738 134.456 150.373  1.00  0.00     0.003 C 
ATOM     21  C   UNL     1     137.187 134.408 150.762  1.00  0.00     0.031 C 
ATOM     22  C   UNL     1     139.778 135.411 151.664  1.00  0.00    -0.008 C 
ATOM     23  C   UNL     1     137.424 134.703 152.204  1.00  0.00    -0.027 C 
ATOM     24  C   UNL     1     138.612 135.173 152.638  1.00  0.00    -0.065 C 
ATOM     25  C   UNL     1     139.701 136.937 151.316  1.00  0.00     0.014 C 
ATOM     26  C   UNL     1     141.136 135.138 152.374  1.00  0.00     0.016 C 
ATOM     27  C   UNL     1     138.602 135.982 153.913  1.00  0.00     0.063 C 
ATOM     28  C   UNL     1     139.618 137.874 152.545  1.00  0.00     0.033 C 
ATOM     29  C   UNL     1     138.494 137.473 153.517  1.00  0.00     0.118 C 
BRANCH  29  30
ATOM     30  O   UNL     1     138.552 138.283 154.658  1.00  0.00    -0.393 OA
ATOM     31  H   UNL     1     139.107 137.804 155.325  1.00  0.00     0.210 HD
ENDBRANCH  29  30
ENDBRANCH   1  11
TORSDOF 6
ENDMDL
