MODEL 1
REMARK VINA RESULT:    -7.943      0.000      0.000
REMARK INTER + INTRA:          -8.639
REMARK INTER:                  -8.639
REMARK INTRA:                   0.000
REMARK UNBOUND:                 0.000
REMARK SMILES Cc1cc(O)c2c(c1)C(=O)c1cc(O)cc(O)c1C2=O
REMARK SMILES IDX 1 1 2 2 8 3 7 4 6 5 4 6 3 7 19 8 20 9 18 10 11 11 9 12 10 13
REMARK SMILES IDX 12 14 13 15 15 16 16 17 5 18 17 20 14 22
REMARK H PARENT 5 19 17 21 14 23
REMARK Flexibility Score: inf
ROOT
ATOM      1  C   UNL     1      -3.787  -3.958  12.442  1.00  0.00     0.044 C 
ATOM      2  C   UNL     1      -3.344  -2.565  12.104  1.00  0.00    -0.047 A 
ATOM      3  C   UNL     1      -2.917  -2.256  10.807  1.00  0.00     0.016 A 
ATOM      4  C   UNL     1      -2.527  -0.949  10.475  1.00  0.00     0.038 A 
ATOM      5  C   UNL     1      -2.566   0.068  11.454  1.00  0.00     0.076 A 
ATOM      6  C   UNL     1      -3.081  -0.231  12.742  1.00  0.00     0.127 A 
ATOM      7  C   UNL     1      -3.443  -1.545  13.056  1.00  0.00     0.050 A 
ATOM      8  C   UNL     1      -2.007   1.401  11.106  1.00  0.00     0.201 C 
ATOM      9  O   UNL     1      -1.497   2.120  12.006  1.00  0.00    -0.288 OA
ATOM     10  C   UNL     1      -1.883   1.800   9.681  1.00  0.00     0.076 A 
ATOM     11  C   UNL     1      -1.847   0.780   8.703  1.00  0.00     0.041 A 
ATOM     12  C   UNL     1      -2.082  -0.630   9.096  1.00  0.00     0.194 C 
ATOM     13  O   UNL     1      -1.926  -1.555   8.253  1.00  0.00    -0.289 OA
ATOM     14  C   UNL     1      -1.594   1.108   7.361  1.00  0.00     0.059 A 
ATOM     15  C   UNL     1      -1.391   2.437   6.981  1.00  0.00     0.120 A 
ATOM     16  C   UNL     1      -1.467   3.450   7.936  1.00  0.00     0.093 A 
ATOM     17  C   UNL     1      -1.738   3.152   9.275  1.00  0.00     0.131 A 
ENDROOT
BRANCH   6  18
ATOM     18  O   UNL     1      -3.282   0.745  13.720  1.00  0.00    -0.507 OA
ATOM     19  H   UNL     1      -2.688   0.853  14.531  1.00  0.00     0.293 HD
ENDBRANCH   6  18
BRANCH  17  20
ATOM     20  O   UNL     1      -1.888   4.226  10.156  1.00  0.00    -0.507 OA
ATOM     21  H   UNL     1      -1.753   4.151  11.155  1.00  0.00     0.293 HD
ENDBRANCH  17  20
BRANCH  15  22
ATOM     22  O   UNL     1      -1.128   2.765   5.652  1.00  0.00    -0.508 OA
ATOM     23  H   UNL     1      -1.178   2.071   4.915  1.00  0.00     0.293 HD
ENDBRANCH  15  22
TORSDOF 3
ENDMDL
MODEL 2
REMARK VINA RESULT:    -7.919      2.438      3.244
REMARK INTER + INTRA:          -8.613
REMARK INTER:                  -8.613
REMARK INTRA:                   0.000
REMARK UNBOUND:                 0.000
REMARK SMILES Cc1cc(O)c2c(c1)C(=O)c1cc(O)cc(O)c1C2=O
REMARK SMILES IDX 1 1 2 2 8 3 7 4 6 5 4 6 3 7 19 8 20 9 18 10 11 11 9 12 10 13
REMARK SMILES IDX 12 14 13 15 15 16 16 17 5 18 17 20 14 22
REMARK H PARENT 5 19 17 21 14 23
REMARK Flexibility Score: inf
ROOT
ATOM      1  C   UNL     1      -6.748  -2.745  12.018  1.00  0.00     0.044 C 
ATOM      2  C   UNL     1      -5.543  -2.369  11.207  1.00  0.00    -0.047 A 
ATOM      3  C   UNL     1      -5.513  -1.154  10.511  1.00  0.00     0.016 A 
ATOM      4  C   UNL     1      -4.379  -0.781   9.771  1.00  0.00     0.038 A 
ATOM      5  C   UNL     1      -3.256  -1.636   9.727  1.00  0.00     0.076 A 
ATOM      6  C   UNL     1      -3.259  -2.824  10.503  1.00  0.00     0.127 A 
ATOM      7  C   UNL     1      -4.408  -3.184  11.214  1.00  0.00     0.050 A 
ATOM      8  C   UNL     1      -2.136  -1.278   8.818  1.00  0.00     0.201 C 
ATOM      9  O   UNL     1      -1.430  -2.187   8.305  1.00  0.00    -0.288 OA
ATOM     10  C   UNL     1      -1.969   0.128   8.371  1.00  0.00     0.076 A 
ATOM     11  C   UNL     1      -3.094   0.982   8.419  1.00  0.00     0.041 A 
ATOM     12  C   UNL     1      -4.353   0.511   9.044  1.00  0.00     0.194 C 
ATOM     13  O   UNL     1      -5.395   1.218   8.977  1.00  0.00    -0.289 OA
ATOM     14  C   UNL     1      -3.014   2.276   7.878  1.00  0.00     0.059 A 
ATOM     15  C   UNL     1      -1.824   2.733   7.305  1.00  0.00     0.120 A 
ATOM     16  C   UNL     1      -0.700   1.908   7.292  1.00  0.00     0.093 A 
ATOM     17  C   UNL     1      -0.749   0.623   7.843  1.00  0.00     0.131 A 
ENDROOT
BRANCH   6  18
ATOM     18  O   UNL     1      -2.140  -3.651  10.623  1.00  0.00    -0.507 OA
ATOM     19  H   UNL     1      -1.505  -3.621  11.408  1.00  0.00     0.293 HD
ENDBRANCH   6  18
BRANCH  17  20
ATOM     20  O   UNL     1       0.441  -0.109   7.875  1.00  0.00    -0.507 OA
ATOM     21  H   UNL     1       1.344   0.284   7.646  1.00  0.00     0.293 HD
ENDBRANCH  17  20
BRANCH  15  22
ATOM     22  O   UNL     1      -1.744   4.011   6.756  1.00  0.00    -0.508 OA
ATOM     23  H   UNL     1      -2.514   4.667   6.825  1.00  0.00     0.293 HD
ENDBRANCH  15  22
TORSDOF 3
ENDMDL
MODEL 3
REMARK VINA RESULT:    -7.803      2.393      3.212
REMARK INTER + INTRA:          -8.487
REMARK INTER:                  -8.487
REMARK INTRA:                   0.000
REMARK UNBOUND:                 0.000
REMARK SMILES Cc1cc(O)c2c(c1)C(=O)c1cc(O)cc(O)c1C2=O
REMARK SMILES IDX 1 1 2 2 8 3 7 4 6 5 4 6 3 7 19 8 20 9 18 10 11 11 9 12 10 13
REMARK SMILES IDX 12 14 13 15 15 16 16 17 5 18 17 20 14 22
REMARK H PARENT 5 19 17 21 14 23
REMARK Flexibility Score: inf
ROOT
ATOM      1  C   UNL     1      -4.521  -1.249  14.614  1.00  0.00     0.044 C 
ATOM      2  C   UNL     1      -4.586  -0.686  13.225  1.00  0.00    -0.047 A 
ATOM      3  C   UNL     1      -3.527   0.082  12.725  1.00  0.00     0.016 A 
ATOM      4  C   UNL     1      -3.567   0.591  11.417  1.00  0.00     0.038 A 
ATOM      5  C   UNL     1      -4.683   0.327  10.593  1.00  0.00     0.076 A 
ATOM      6  C   UNL     1      -5.713  -0.523  11.074  1.00  0.00     0.127 A 
ATOM      7  C   UNL     1      -5.661  -1.000  12.388  1.00  0.00     0.050 A 
ATOM      8  C   UNL     1      -4.757   1.002   9.271  1.00  0.00     0.201 C 
ATOM      9  O   UNL     1      -5.880   1.279   8.771  1.00  0.00    -0.288 OA
ATOM     10  C   UNL     1      -3.517   1.515   8.634  1.00  0.00     0.076 A 
ATOM     11  C   UNL     1      -2.401   1.775   9.461  1.00  0.00     0.041 A 
ATOM     12  C   UNL     1      -2.438   1.397  10.894  1.00  0.00     0.194 C 
ATOM     13  O   UNL     1      -1.498   1.740  11.662  1.00  0.00    -0.289 OA
ATOM     14  C   UNL     1      -1.258   2.388   8.920  1.00  0.00     0.059 A 
ATOM     15  C   UNL     1      -1.210   2.729   7.565  1.00  0.00     0.120 A 
ATOM     16  C   UNL     1      -2.293   2.436   6.739  1.00  0.00     0.093 A 
ATOM     17  C   UNL     1      -3.434   1.808   7.249  1.00  0.00     0.131 A 
ENDROOT
BRANCH   6  18
ATOM     18  O   UNL     1      -6.779  -0.943  10.276  1.00  0.00    -0.507 OA
ATOM     19  H   UNL     1      -6.787  -1.817   9.768  1.00  0.00     0.293 HD
ENDBRANCH   6  18
BRANCH  17  20
ATOM     20  O   UNL     1      -4.440   1.465   6.341  1.00  0.00    -0.507 OA
ATOM     21  H   UNL     1      -4.793   2.096   5.636  1.00  0.00     0.293 HD
ENDBRANCH  17  20
BRANCH  15  22
ATOM     22  O   UNL     1      -0.083   3.348   7.028  1.00  0.00    -0.508 OA
ATOM     23  H   UNL     1       0.818   3.305   7.491  1.00  0.00     0.293 HD
ENDBRANCH  15  22
TORSDOF 3
ENDMDL
MODEL 4
REMARK VINA RESULT:    -7.608      2.585      3.527
REMARK INTER + INTRA:          -8.275
REMARK INTER:                  -8.275
REMARK INTRA:                   0.000
REMARK UNBOUND:                 0.000
REMARK SMILES Cc1cc(O)c2c(c1)C(=O)c1cc(O)cc(O)c1C2=O
REMARK SMILES IDX 1 1 2 2 8 3 7 4 6 5 4 6 3 7 19 8 20 9 18 10 11 11 9 12 10 13
REMARK SMILES IDX 12 14 13 15 15 16 16 17 5 18 17 20 14 22
REMARK H PARENT 5 19 17 21 14 23
REMARK Flexibility Score: inf
ROOT
ATOM      1  C   UNL     1      -5.407  -3.389  13.964  1.00  0.00     0.044 C 
ATOM      2  C   UNL     1      -5.348  -2.497  12.759  1.00  0.00    -0.047 A 
ATOM      3  C   UNL     1      -4.384  -1.485  12.678  1.00  0.00     0.016 A 
ATOM      4  C   UNL     1      -4.303  -0.663  11.542  1.00  0.00     0.038 A 
ATOM      5  C   UNL     1      -5.199  -0.857  10.468  1.00  0.00     0.076 A 
ATOM      6  C   UNL     1      -6.117  -1.938  10.519  1.00  0.00     0.127 A 
ATOM      7  C   UNL     1      -6.193  -2.729  11.670  1.00  0.00     0.050 A 
ATOM      8  C   UNL     1      -5.180   0.123   9.351  1.00  0.00     0.201 C 
ATOM      9  O   UNL     1      -6.237   0.361   8.708  1.00  0.00    -0.288 OA
ATOM     10  C   UNL     1      -3.971   0.953   9.118  1.00  0.00     0.076 A 
ATOM     11  C   UNL     1      -3.074   1.143  10.193  1.00  0.00     0.041 A 
ATOM     12  C   UNL     1      -3.274   0.402  11.462  1.00  0.00     0.194 C 
ATOM     13  O   UNL     1      -2.554   0.661  12.465  1.00  0.00    -0.289 OA
ATOM     14  C   UNL     1      -1.993   2.029  10.054  1.00  0.00     0.059 A 
ATOM     15  C   UNL     1      -1.788   2.715   8.854  1.00  0.00     0.120 A 
ATOM     16  C   UNL     1      -2.647   2.500   7.778  1.00  0.00     0.093 A 
ATOM     17  C   UNL     1      -3.718   1.607   7.884  1.00  0.00     0.131 A 
ENDROOT
BRANCH   6  18
ATOM     18  O   UNL     1      -6.940  -2.281   9.444  1.00  0.00    -0.507 OA
ATOM     19  H   UNL     1      -6.803  -3.105   8.876  1.00  0.00     0.293 HD
ENDBRANCH   6  18
BRANCH  17  20
ATOM     20  O   UNL     1      -4.479   1.375   6.735  1.00  0.00    -0.507 OA
ATOM     21  H   UNL     1      -4.251   1.758   5.829  1.00  0.00     0.293 HD
ENDBRANCH  17  20
BRANCH  15  22
ATOM     22  O   UNL     1      -0.724   3.605   8.717  1.00  0.00    -0.508 OA
ATOM     23  H   UNL     1      -0.850   4.604   8.826  1.00  0.00     0.293 HD
ENDBRANCH  15  22
TORSDOF 3
ENDMDL
MODEL 5
REMARK VINA RESULT:    -7.575      2.826      6.617
REMARK INTER + INTRA:          -8.240
REMARK INTER:                  -8.240
REMARK INTRA:                   0.000
REMARK UNBOUND:                 0.000
REMARK SMILES Cc1cc(O)c2c(c1)C(=O)c1cc(O)cc(O)c1C2=O
REMARK SMILES IDX 1 1 2 2 8 3 7 4 6 5 4 6 3 7 19 8 20 9 18 10 11 11 9 12 10 13
REMARK SMILES IDX 12 14 13 15 15 16 16 17 5 18 17 20 14 22
REMARK H PARENT 5 19 17 21 14 23
REMARK Flexibility Score: inf
ROOT
ATOM      1  C   UNL     1      -1.336   3.095   8.548  1.00  0.00     0.044 C 
ATOM      2  C   UNL     1      -2.354   2.033   8.842  1.00  0.00    -0.047 A 
ATOM      3  C   UNL     1      -2.318   1.340  10.058  1.00  0.00     0.016 A 
ATOM      4  C   UNL     1      -3.283   0.364  10.355  1.00  0.00     0.038 A 
ATOM      5  C   UNL     1      -4.303   0.077   9.421  1.00  0.00     0.076 A 
ATOM      6  C   UNL     1      -4.385   0.842   8.229  1.00  0.00     0.127 A 
ATOM      7  C   UNL     1      -3.400   1.793   7.946  1.00  0.00     0.050 A 
ATOM      8  C   UNL     1      -5.216  -1.061   9.705  1.00  0.00     0.201 C 
ATOM      9  O   UNL     1      -5.721  -1.712   8.751  1.00  0.00    -0.288 OA
ATOM     10  C   UNL     1      -5.381  -1.544  11.099  1.00  0.00     0.076 A 
ATOM     11  C   UNL     1      -4.361  -1.253  12.032  1.00  0.00     0.041 A 
ATOM     12  C   UNL     1      -3.241  -0.360  11.648  1.00  0.00     0.194 C 
ATOM     13  O   UNL     1      -2.265  -0.198  12.431  1.00  0.00    -0.289 OA
ATOM     14  C   UNL     1      -4.414  -1.807  13.322  1.00  0.00     0.059 A 
ATOM     15  C   UNL     1      -5.477  -2.633  13.696  1.00  0.00     0.120 A 
ATOM     16  C   UNL     1      -6.506  -2.890  12.792  1.00  0.00     0.093 A 
ATOM     17  C   UNL     1      -6.487  -2.334  11.509  1.00  0.00     0.131 A 
ENDROOT
BRANCH   6  18
ATOM     18  O   UNL     1      -5.439   0.715   7.321  1.00  0.00    -0.507 OA
ATOM     19  H   UNL     1      -5.691   1.431   6.654  1.00  0.00     0.293 HD
ENDBRANCH   6  18
BRANCH  17  20
ATOM     20  O   UNL     1      -7.597  -2.562  10.692  1.00  0.00    -0.507 OA
ATOM     21  H   UNL     1      -8.350  -1.898  10.576  1.00  0.00     0.293 HD
ENDBRANCH  17  20
BRANCH  15  22
ATOM     22  O   UNL     1      -5.526  -3.194  14.971  1.00  0.00    -0.508 OA
ATOM     23  H   UNL     1      -5.478  -4.197  15.112  1.00  0.00     0.293 HD
ENDBRANCH  15  22
TORSDOF 3
ENDMDL
MODEL 6
REMARK VINA RESULT:    -7.571      1.784      5.770
REMARK INTER + INTRA:          -8.235
REMARK INTER:                  -8.235
REMARK INTRA:                   0.000
REMARK UNBOUND:                 0.000
REMARK SMILES Cc1cc(O)c2c(c1)C(=O)c1cc(O)cc(O)c1C2=O
REMARK SMILES IDX 1 1 2 2 8 3 7 4 6 5 4 6 3 7 19 8 20 9 18 10 11 11 9 12 10 13
REMARK SMILES IDX 12 14 13 15 15 16 16 17 5 18 17 20 14 22
REMARK H PARENT 5 19 17 21 14 23
REMARK Flexibility Score: inf
ROOT
ATOM      1  C   UNL     1      -0.806   1.397   7.135  1.00  0.00     0.044 C 
ATOM      2  C   UNL     1      -1.545   1.246   8.432  1.00  0.00    -0.047 A 
ATOM      3  C   UNL     1      -2.092   0.009   8.792  1.00  0.00     0.016 A 
ATOM      4  C   UNL     1      -2.762  -0.149  10.016  1.00  0.00     0.038 A 
ATOM      5  C   UNL     1      -2.884   0.948  10.898  1.00  0.00     0.076 A 
ATOM      6  C   UNL     1      -2.253   2.175  10.567  1.00  0.00     0.127 A 
ATOM      7  C   UNL     1      -1.611   2.314   9.333  1.00  0.00     0.050 A 
ATOM      8  C   UNL     1      -3.724   0.782  12.113  1.00  0.00     0.201 C 
ATOM      9  O   UNL     1      -4.326   1.777  12.598  1.00  0.00    -0.288 OA
ATOM     10  C   UNL     1      -4.000  -0.579  12.639  1.00  0.00     0.076 A 
ATOM     11  C   UNL     1      -3.873  -1.675  11.756  1.00  0.00     0.041 A 
ATOM     12  C   UNL     1      -3.332  -1.465  10.391  1.00  0.00     0.194 C 
ATOM     13  O   UNL     1      -3.335  -2.413   9.558  1.00  0.00    -0.289 OA
ATOM     14  C   UNL     1      -4.257  -2.959  12.176  1.00  0.00     0.059 A 
ATOM     15  C   UNL     1      -4.750  -3.166  13.467  1.00  0.00     0.120 A 
ATOM     16  C   UNL     1      -4.837  -2.094  14.355  1.00  0.00     0.093 A 
ATOM     17  C   UNL     1      -4.443  -0.810  13.967  1.00  0.00     0.131 A 
ENDROOT
BRANCH   6  18
ATOM     18  O   UNL     1      -2.210   3.262  11.443  1.00  0.00    -0.507 OA
ATOM     19  H   UNL     1      -2.858   4.037  11.405  1.00  0.00     0.293 HD
ENDBRANCH   6  18
BRANCH  17  20
ATOM     20  O   UNL     1      -4.473   0.194  14.940  1.00  0.00    -0.507 OA
ATOM     21  H   UNL     1      -4.590   1.174  14.725  1.00  0.00     0.293 HD
ENDBRANCH  17  20
BRANCH  15  22
ATOM     22  O   UNL     1      -5.143  -4.437  13.883  1.00  0.00    -0.508 OA
ATOM     23  H   UNL     1      -4.575  -5.255  13.698  1.00  0.00     0.293 HD
ENDBRANCH  15  22
TORSDOF 3
ENDMDL
MODEL 7
REMARK VINA RESULT:    -7.528      1.504      2.107
REMARK INTER + INTRA:          -8.188
REMARK INTER:                  -8.188
REMARK INTRA:                   0.000
REMARK UNBOUND:                 0.000
REMARK SMILES Cc1cc(O)c2c(c1)C(=O)c1cc(O)cc(O)c1C2=O
REMARK SMILES IDX 1 1 2 2 8 3 7 4 6 5 4 6 3 7 19 8 20 9 18 10 11 11 9 12 10 13
REMARK SMILES IDX 12 14 13 15 15 16 16 17 5 18 17 20 14 22
REMARK H PARENT 5 19 17 21 14 23
REMARK Flexibility Score: inf
ROOT
ATOM      1  C   UNL     1      -5.983  -4.170  14.140  1.00  0.00     0.044 C 
ATOM      2  C   UNL     1      -5.172  -2.998  13.673  1.00  0.00    -0.047 A 
ATOM      3  C   UNL     1      -4.756  -2.917  12.338  1.00  0.00     0.016 A 
ATOM      4  C   UNL     1      -4.020  -1.810  11.885  1.00  0.00     0.038 A 
ATOM      5  C   UNL     1      -3.696  -0.766  12.779  1.00  0.00     0.076 A 
ATOM      6  C   UNL     1      -4.194  -0.813  14.107  1.00  0.00     0.127 A 
ATOM      7  C   UNL     1      -4.906  -1.935  14.541  1.00  0.00     0.050 A 
ATOM      8  C   UNL     1      -2.793   0.314  12.301  1.00  0.00     0.201 C 
ATOM      9  O   UNL     1      -2.037   0.905  13.118  1.00  0.00    -0.288 OA
ATOM     10  C   UNL     1      -2.648   0.564  10.844  1.00  0.00     0.076 A 
ATOM     11  C   UNL     1      -2.975  -0.482   9.952  1.00  0.00     0.041 A 
ATOM     12  C   UNL     1      -3.589  -1.729  10.468  1.00  0.00     0.194 C 
ATOM     13  O   UNL     1      -3.767  -2.711   9.697  1.00  0.00    -0.289 OA
ATOM     14  C   UNL     1      -2.722  -0.333   8.578  1.00  0.00     0.059 A 
ATOM     15  C   UNL     1      -2.162   0.848   8.084  1.00  0.00     0.120 A 
ATOM     16  C   UNL     1      -1.875   1.897   8.956  1.00  0.00     0.093 A 
ATOM     17  C   UNL     1      -2.137   1.781  10.325  1.00  0.00     0.131 A 
ENDROOT
BRANCH   6  18
ATOM     18  O   UNL     1      -4.035   0.241  15.010  1.00  0.00    -0.507 OA
ATOM     19  H   UNL     1      -4.311   0.190  15.981  1.00  0.00     0.293 HD
ENDBRANCH   6  18
BRANCH  17  20
ATOM     20  O   UNL     1      -1.908   2.907  11.121  1.00  0.00    -0.507 OA
ATOM     21  H   UNL     1      -2.583   3.648  11.245  1.00  0.00     0.293 HD
ENDBRANCH  17  20
BRANCH  15  22
ATOM     22  O   UNL     1      -1.898   0.994   6.723  1.00  0.00    -0.508 OA
ATOM     23  H   UNL     1      -2.608   0.811   6.022  1.00  0.00     0.293 HD
ENDBRANCH  15  22
TORSDOF 3
ENDMDL
MODEL 8
REMARK VINA RESULT:    -7.521      2.141      3.524
REMARK INTER + INTRA:          -8.181
REMARK INTER:                  -8.181
REMARK INTRA:                   0.000
REMARK UNBOUND:                 0.000
REMARK SMILES Cc1cc(O)c2c(c1)C(=O)c1cc(O)cc(O)c1C2=O
REMARK SMILES IDX 1 1 2 2 8 3 7 4 6 5 4 6 3 7 19 8 20 9 18 10 11 11 9 12 10 13
REMARK SMILES IDX 12 14 13 15 15 16 16 17 5 18 17 20 14 22
REMARK H PARENT 5 19 17 21 14 23
REMARK Flexibility Score: inf
ROOT
ATOM      1  C   UNL     1      -5.955  -3.757  14.252  1.00  0.00     0.044 C 
ATOM      2  C   UNL     1      -5.048  -3.327  13.136  1.00  0.00    -0.047 A 
ATOM      3  C   UNL     1      -5.284  -2.124  12.460  1.00  0.00     0.016 A 
ATOM      4  C   UNL     1      -4.425  -1.699  11.433  1.00  0.00     0.038 A 
ATOM      5  C   UNL     1      -3.310  -2.490  11.077  1.00  0.00     0.076 A 
ATOM      6  C   UNL     1      -3.028  -3.663  11.823  1.00  0.00     0.127 A 
ATOM      7  C   UNL     1      -3.909  -4.076  12.826  1.00  0.00     0.050 A 
ATOM      8  C   UNL     1      -2.511  -2.084   9.892  1.00  0.00     0.201 C 
ATOM      9  O   UNL     1      -1.924  -2.960   9.203  1.00  0.00    -0.288 OA
ATOM     10  C   UNL     1      -2.559  -0.678   9.416  1.00  0.00     0.076 A 
ATOM     11  C   UNL     1      -3.674   0.112   9.776  1.00  0.00     0.041 A 
ATOM     12  C   UNL     1      -4.679  -0.420  10.728  1.00  0.00     0.194 C 
ATOM     13  O   UNL     1      -5.738   0.227  10.955  1.00  0.00    -0.289 OA
ATOM     14  C   UNL     1      -3.824   1.399   9.235  1.00  0.00     0.059 A 
ATOM     15  C   UNL     1      -2.870   1.913   8.353  1.00  0.00     0.120 A 
ATOM     16  C   UNL     1      -1.747   1.153   8.027  1.00  0.00     0.093 A 
ATOM     17  C   UNL     1      -1.565  -0.123   8.569  1.00  0.00     0.131 A 
ENDROOT
BRANCH   6  18
ATOM     18  O   UNL     1      -1.873  -4.423  11.626  1.00  0.00    -0.507 OA
ATOM     19  H   UNL     1      -1.362  -4.870  12.375  1.00  0.00     0.293 HD
ENDBRANCH   6  18
BRANCH  17  20
ATOM     20  O   UNL     1      -0.372  -0.786   8.268  1.00  0.00    -0.507 OA
ATOM     21  H   UNL     1      -0.334  -1.680   7.799  1.00  0.00     0.293 HD
ENDBRANCH  17  20
BRANCH  15  22
ATOM     22  O   UNL     1      -3.021   3.185   7.804  1.00  0.00    -0.508 OA
ATOM     23  H   UNL     1      -3.397   3.955   8.345  1.00  0.00     0.293 HD
ENDBRANCH  15  22
TORSDOF 3
ENDMDL
MODEL 9
REMARK VINA RESULT:    -7.519      2.511      6.391
REMARK INTER + INTRA:          -8.178
REMARK INTER:                  -8.178
REMARK INTRA:                   0.000
REMARK UNBOUND:                 0.000
REMARK SMILES Cc1cc(O)c2c(c1)C(=O)c1cc(O)cc(O)c1C2=O
REMARK SMILES IDX 1 1 2 2 8 3 7 4 6 5 4 6 3 7 19 8 20 9 18 10 11 11 9 12 10 13
REMARK SMILES IDX 12 14 13 15 15 16 16 17 5 18 17 20 14 22
REMARK H PARENT 5 19 17 21 14 23
REMARK Flexibility Score: inf
ROOT
ATOM      1  C   UNL     1      -2.683   2.500   6.964  1.00  0.00     0.044 C 
ATOM      2  C   UNL     1      -2.484   1.374   7.935  1.00  0.00    -0.047 A 
ATOM      3  C   UNL     1      -3.499   1.034   8.838  1.00  0.00     0.016 A 
ATOM      4  C   UNL     1      -3.332  -0.036   9.732  1.00  0.00     0.038 A 
ATOM      5  C   UNL     1      -2.132  -0.780   9.723  1.00  0.00     0.076 A 
ATOM      6  C   UNL     1      -1.143  -0.486   8.749  1.00  0.00     0.127 A 
ATOM      7  C   UNL     1      -1.322   0.597   7.883  1.00  0.00     0.050 A 
ATOM      8  C   UNL     1      -1.933  -1.807  10.779  1.00  0.00     0.201 C 
ATOM      9  O   UNL     1      -0.769  -2.075  11.180  1.00  0.00    -0.288 OA
ATOM     10  C   UNL     1      -3.109  -2.376  11.485  1.00  0.00     0.076 A 
ATOM     11  C   UNL     1      -4.310  -1.630  11.491  1.00  0.00     0.041 A 
ATOM     12  C   UNL     1      -4.415  -0.393  10.680  1.00  0.00     0.194 C 
ATOM     13  O   UNL     1      -5.435   0.342  10.779  1.00  0.00    -0.289 OA
ATOM     14  C   UNL     1      -5.400  -2.067  12.261  1.00  0.00     0.059 A 
ATOM     15  C   UNL     1      -5.313  -3.242  13.011  1.00  0.00     0.120 A 
ATOM     16  C   UNL     1      -4.145  -4.002  12.976  1.00  0.00     0.093 A 
ATOM     17  C   UNL     1      -3.053  -3.599  12.202  1.00  0.00     0.131 A 
ENDROOT
BRANCH   6  18
ATOM     18  O   UNL     1       0.008  -1.260   8.583  1.00  0.00    -0.507 OA
ATOM     19  H   UNL     1       0.019  -2.268   8.657  1.00  0.00     0.293 HD
ENDBRANCH   6  18
BRANCH  17  20
ATOM     20  O   UNL     1      -1.952  -4.459  12.145  1.00  0.00    -0.507 OA
ATOM     21  H   UNL     1      -1.919  -5.285  11.564  1.00  0.00     0.293 HD
ENDBRANCH  17  20
BRANCH  15  22
ATOM     22  O   UNL     1      -6.389  -3.672  13.786  1.00  0.00    -0.508 OA
ATOM     23  H   UNL     1      -6.949  -3.021  14.325  1.00  0.00     0.293 HD
ENDBRANCH  15  22
TORSDOF 3
ENDMDL
