MODEL 1
REMARK VINA RESULT:    -5.060      0.000      0.000
REMARK INTER + INTRA:          -7.170
REMARK INTER:                  -6.391
REMARK INTRA:                  -0.779
REMARK UNBOUND:                -0.779
REMARK SMILES Oc1ccc(CCc2cc(O)cc(O)c2)cc1
REMARK SMILES IDX 6 1 5 2 4 3 3 4 2 5 16 6 17 7 1 8 7 10 8 11 15 12 9 13 13 14
REMARK SMILES IDX 10 15 12 16 14 17 11 19
REMARK H PARENT 1 9 14 18 11 20
REMARK Flexibility Score: inf
ROOT
ATOM      1  C   UNL     1     -11.205  82.245  -8.127  1.00  0.00     0.040 C 
ENDROOT
BRANCH   1   2
ATOM      2  C   UNL     1     -12.065  82.280  -9.362  1.00  0.00    -0.047 A 
ATOM      3  C   UNL     1     -12.951  83.348  -9.578  1.00  0.00     0.007 A 
ATOM      4  C   UNL     1     -13.727  83.397 -10.740  1.00  0.00     0.046 A 
ATOM      5  C   UNL     1     -13.617  82.383 -11.703  1.00  0.00     0.115 A 
ATOM      6  C   UNL     1     -11.948  81.275 -10.335  1.00  0.00     0.007 A 
ATOM      7  C   UNL     1     -12.725  81.325 -11.497  1.00  0.00     0.046 A 
BRANCH   5   8
ATOM      8  O   UNL     1     -14.383  82.421 -12.865  1.00  0.00    -0.508 OA
ATOM      9  H   UNL     1     -14.241  83.135 -13.570  1.00  0.00     0.293 HD
ENDBRANCH   5   8
ENDBRANCH   1   2
BRANCH   1  10
ATOM     10  C   UNL     1     -12.062  82.014  -6.880  1.00  0.00     0.040 C 
BRANCH  10  11
ATOM     11  C   UNL     1     -12.600  80.609  -6.860  1.00  0.00    -0.040 A 
ATOM     12  C   UNL     1     -11.726  79.519  -6.712  1.00  0.00     0.050 A 
ATOM     13  C   UNL     1     -13.983  80.378  -6.931  1.00  0.00     0.050 A 
ATOM     14  C   UNL     1     -12.227  78.213  -6.659  1.00  0.00     0.119 A 
ATOM     15  C   UNL     1     -14.487  79.075  -6.879  1.00  0.00     0.119 A 
ATOM     16  C   UNL     1     -13.607  77.992  -6.746  1.00  0.00     0.092 A 
BRANCH  14  17
ATOM     17  O   UNL     1     -11.345  77.144  -6.519  1.00  0.00    -0.508 OA
ATOM     18  H   UNL     1     -10.965  76.886  -5.616  1.00  0.00     0.293 HD
ENDBRANCH  14  17
BRANCH  15  19
ATOM     19  O   UNL     1     -15.863  78.866  -6.959  1.00  0.00    -0.508 OA
ATOM     20  H   UNL     1     -16.257  78.159  -7.569  1.00  0.00     0.293 HD
ENDBRANCH  15  19
ENDBRANCH  10  11
ENDBRANCH   1  10
TORSDOF 6
ENDMDL
MODEL 2
REMARK VINA RESULT:    -5.046      0.164      2.355
REMARK INTER + INTRA:          -7.152
REMARK INTER:                  -6.346
REMARK INTRA:                  -0.806
REMARK UNBOUND:                -0.779
REMARK SMILES Oc1ccc(CCc2cc(O)cc(O)c2)cc1
REMARK SMILES IDX 6 1 5 2 4 3 3 4 2 5 16 6 17 7 1 8 7 10 8 11 15 12 9 13 13 14
REMARK SMILES IDX 10 15 12 16 14 17 11 19
REMARK H PARENT 1 9 14 18 11 20
REMARK Flexibility Score: inf
ROOT
ATOM      1  C   UNL     1     -11.330  82.241  -7.974  1.00  0.00     0.040 C 
ENDROOT
BRANCH   1   2
ATOM      2  C   UNL     1     -12.103  82.297  -9.265  1.00  0.00    -0.047 A 
ATOM      3  C   UNL     1     -11.970  81.272 -10.215  1.00  0.00     0.007 A 
ATOM      4  C   UNL     1     -12.712  81.307 -11.400  1.00  0.00     0.046 A 
ATOM      5  C   UNL     1     -13.602  82.363 -11.641  1.00  0.00     0.115 A 
ATOM      6  C   UNL     1     -13.005  83.345  -9.505  1.00  0.00     0.007 A 
ATOM      7  C   UNL     1     -13.747  83.379 -10.690  1.00  0.00     0.046 A 
BRANCH   5   8
ATOM      8  O   UNL     1     -14.347  82.410 -12.816  1.00  0.00    -0.508 OA
ATOM      9  H   UNL     1     -14.960  81.649 -13.085  1.00  0.00     0.293 HD
ENDBRANCH   5   8
ENDBRANCH   1   2
BRANCH   1  10
ATOM     10  C   UNL     1     -12.272  81.986  -6.794  1.00  0.00     0.040 C 
BRANCH  10  11
ATOM     11  C   UNL     1     -12.716  80.549  -6.772  1.00  0.00    -0.040 A 
ATOM     12  C   UNL     1     -14.084  80.231  -6.815  1.00  0.00     0.050 A 
ATOM     13  C   UNL     1     -11.768  79.514  -6.766  1.00  0.00     0.050 A 
ATOM     14  C   UNL     1     -14.499  78.894  -6.829  1.00  0.00     0.119 A 
ATOM     15  C   UNL     1     -12.178  78.177  -6.780  1.00  0.00     0.119 A 
ATOM     16  C   UNL     1     -13.545  77.868  -6.808  1.00  0.00     0.092 A 
BRANCH  14  17
ATOM     17  O   UNL     1     -15.859  78.598  -6.864  1.00  0.00    -0.508 OA
ATOM     18  H   UNL     1     -16.206  77.752  -7.301  1.00  0.00     0.293 HD
ENDBRANCH  14  17
BRANCH  15  19
ATOM     19  O   UNL     1     -11.222  77.164  -6.766  1.00  0.00    -0.508 OA
ATOM     20  H   UNL     1     -10.249  77.356  -6.560  1.00  0.00     0.293 HD
ENDBRANCH  15  19
ENDBRANCH  10  11
ENDBRANCH   1  10
TORSDOF 6
ENDMDL
MODEL 3
REMARK VINA RESULT:    -4.826      4.780      7.058
REMARK INTER + INTRA:          -6.874
REMARK INTER:                  -6.342
REMARK INTRA:                  -0.532
REMARK UNBOUND:                -0.779
REMARK SMILES Oc1ccc(CCc2cc(O)cc(O)c2)cc1
REMARK SMILES IDX 6 1 5 2 4 3 3 4 2 5 16 6 17 7 1 8 7 10 8 11 15 12 9 13 13 14
REMARK SMILES IDX 10 15 12 16 14 17 11 19
REMARK H PARENT 1 9 14 18 11 20
REMARK Flexibility Score: inf
ROOT
ATOM      1  C   UNL     1      -9.717  83.222  -8.144  1.00  0.00     0.040 C 
ENDROOT
BRANCH   1   2
ATOM      2  C   UNL     1     -10.988  83.210  -8.951  1.00  0.00    -0.047 A 
ATOM      3  C   UNL     1     -11.761  84.377  -9.073  1.00  0.00     0.007 A 
ATOM      4  C   UNL     1     -12.924  84.375  -9.849  1.00  0.00     0.046 A 
ATOM      5  C   UNL     1     -13.320  83.209 -10.519  1.00  0.00     0.115 A 
ATOM      6  C   UNL     1     -11.382  82.050  -9.635  1.00  0.00     0.007 A 
ATOM      7  C   UNL     1     -12.545  82.049 -10.411  1.00  0.00     0.046 A 
BRANCH   5   8
ATOM      8  O   UNL     1     -14.476  83.194 -11.295  1.00  0.00    -0.508 OA
ATOM      9  H   UNL     1     -15.224  82.533 -11.120  1.00  0.00     0.293 HD
ENDBRANCH   5   8
ENDBRANCH   1   2
BRANCH   1  10
ATOM     10  C   UNL     1      -8.599  82.488  -8.890  1.00  0.00     0.040 C 
BRANCH  10  11
ATOM     11  C   UNL     1      -7.552  83.459  -9.363  1.00  0.00    -0.040 A 
ATOM     12  C   UNL     1      -7.922  84.745  -9.793  1.00  0.00     0.050 A 
ATOM     13  C   UNL     1      -6.193  83.110  -9.324  1.00  0.00     0.050 A 
ATOM     14  C   UNL     1      -6.947  85.662 -10.201  1.00  0.00     0.119 A 
ATOM     15  C   UNL     1      -5.216  84.024  -9.732  1.00  0.00     0.119 A 
ATOM     16  C   UNL     1      -5.595  85.299 -10.174  1.00  0.00     0.092 A 
BRANCH  14  17
ATOM     17  O   UNL     1      -7.333  86.929 -10.631  1.00  0.00    -0.508 OA
ATOM     18  H   UNL     1      -7.588  87.106 -11.595  1.00  0.00     0.293 HD
ENDBRANCH  14  17
BRANCH  15  19
ATOM     19  O   UNL     1      -3.872  83.656  -9.694  1.00  0.00    -0.508 OA
ATOM     20  H   UNL     1      -3.427  83.193 -10.477  1.00  0.00     0.293 HD
ENDBRANCH  15  19
ENDBRANCH  10  11
ENDBRANCH   1  10
TORSDOF 6
ENDMDL
MODEL 4
REMARK VINA RESULT:    -4.822      4.819      6.826
REMARK INTER + INTRA:          -6.869
REMARK INTER:                  -6.331
REMARK INTRA:                  -0.538
REMARK UNBOUND:                -0.779
REMARK SMILES Oc1ccc(CCc2cc(O)cc(O)c2)cc1
REMARK SMILES IDX 6 1 5 2 4 3 3 4 2 5 16 6 17 7 1 8 7 10 8 11 15 12 9 13 13 14
REMARK SMILES IDX 10 15 12 16 14 17 11 19
REMARK H PARENT 1 9 14 18 11 20
REMARK Flexibility Score: inf
ROOT
ATOM      1  C   UNL     1      -9.669  83.094  -8.192  1.00  0.00     0.040 C 
ENDROOT
BRANCH   1   2
ATOM      2  C   UNL     1     -10.959  83.133  -8.967  1.00  0.00    -0.047 A 
ATOM      3  C   UNL     1     -11.671  84.336  -9.097  1.00  0.00     0.007 A 
ATOM      4  C   UNL     1     -12.853  84.381  -9.843  1.00  0.00     0.046 A 
ATOM      5  C   UNL     1     -13.328  83.223 -10.476  1.00  0.00     0.115 A 
ATOM      6  C   UNL     1     -11.432  81.981  -9.614  1.00  0.00     0.007 A 
ATOM      7  C   UNL     1     -12.613  82.026 -10.360  1.00  0.00     0.046 A 
BRANCH   5   8
ATOM      8  O   UNL     1     -14.502  83.254 -11.223  1.00  0.00    -0.508 OA
ATOM      9  H   UNL     1     -15.411  83.329 -10.779  1.00  0.00     0.293 HD
ENDBRANCH   5   8
ENDBRANCH   1   2
BRANCH   1  10
ATOM     10  C   UNL     1      -8.552  82.474  -9.037  1.00  0.00     0.040 C 
BRANCH  10  11
ATOM     11  C   UNL     1      -7.515  83.506  -9.383  1.00  0.00    -0.040 A 
ATOM     12  C   UNL     1      -6.148  83.184  -9.323  1.00  0.00     0.050 A 
ATOM     13  C   UNL     1      -7.903  84.782  -9.825  1.00  0.00     0.050 A 
ATOM     14  C   UNL     1      -5.182  84.132  -9.677  1.00  0.00     0.119 A 
ATOM     15  C   UNL     1      -6.940  85.731 -10.179  1.00  0.00     0.119 A 
ATOM     16  C   UNL     1      -5.578  85.407 -10.101  1.00  0.00     0.092 A 
BRANCH  14  17
ATOM     17  O   UNL     1      -3.832  83.797  -9.604  1.00  0.00    -0.508 OA
ATOM     18  H   UNL     1      -3.106  84.496  -9.703  1.00  0.00     0.293 HD
ENDBRANCH  14  17
BRANCH  15  19
ATOM     19  O   UNL     1      -7.345  86.994 -10.607  1.00  0.00    -0.508 OA
ATOM     20  H   UNL     1      -8.204  87.127 -11.128  1.00  0.00     0.293 HD
ENDBRANCH  15  19
ENDBRANCH  10  11
ENDBRANCH   1  10
TORSDOF 6
ENDMDL
MODEL 5
REMARK VINA RESULT:    -4.693      4.406      6.506
REMARK INTER + INTRA:          -6.707
REMARK INTER:                  -6.149
REMARK INTRA:                  -0.558
REMARK UNBOUND:                -0.779
REMARK SMILES Oc1ccc(CCc2cc(O)cc(O)c2)cc1
REMARK SMILES IDX 6 1 5 2 4 3 3 4 2 5 16 6 17 7 1 8 7 10 8 11 15 12 9 13 13 14
REMARK SMILES IDX 10 15 12 16 14 17 11 19
REMARK H PARENT 1 9 14 18 11 20
REMARK Flexibility Score: inf
ROOT
ATOM      1  C   UNL     1      -9.333  85.336  -9.058  1.00  0.00     0.040 C 
ENDROOT
BRANCH   1   2
ATOM      2  C   UNL     1      -7.959  84.804  -9.366  1.00  0.00    -0.047 A 
ATOM      3  C   UNL     1      -6.973  85.651  -9.898  1.00  0.00     0.007 A 
ATOM      4  C   UNL     1      -5.688  85.165 -10.154  1.00  0.00     0.046 A 
ATOM      5  C   UNL     1      -5.372  83.829  -9.870  1.00  0.00     0.115 A 
ATOM      6  C   UNL     1      -7.634  83.470  -9.071  1.00  0.00     0.007 A 
ATOM      7  C   UNL     1      -6.347  82.986  -9.327  1.00  0.00     0.046 A 
BRANCH   5   8
ATOM      8  O   UNL     1      -4.095  83.333 -10.120  1.00  0.00    -0.508 OA
ATOM      9  H   UNL     1      -3.948  82.516 -10.702  1.00  0.00     0.293 HD
ENDBRANCH   5   8
ENDBRANCH   1   2
BRANCH   1  10
ATOM     10  C   UNL     1     -10.140  84.311  -8.257  1.00  0.00     0.040 C 
BRANCH  10  11
ATOM     11  C   UNL     1     -11.315  83.820  -9.058  1.00  0.00    -0.040 A 
ATOM     12  C   UNL     1     -12.313  84.719  -9.473  1.00  0.00     0.050 A 
ATOM     13  C   UNL     1     -11.396  82.473  -9.446  1.00  0.00     0.050 A 
ATOM     14  C   UNL     1     -13.390  84.271 -10.247  1.00  0.00     0.119 A 
ATOM     15  C   UNL     1     -12.471  82.023 -10.220  1.00  0.00     0.119 A 
ATOM     16  C   UNL     1     -13.469  82.923 -10.617  1.00  0.00     0.092 A 
BRANCH  14  17
ATOM     17  O   UNL     1     -14.373  85.175 -10.644  1.00  0.00    -0.508 OA
ATOM     18  H   UNL     1     -14.558  86.020 -10.118  1.00  0.00     0.293 HD
ENDBRANCH  14  17
BRANCH  15  19
ATOM     19  O   UNL     1     -12.537  80.681 -10.588  1.00  0.00    -0.508 OA
ATOM     20  H   UNL     1     -11.702  80.112 -10.672  1.00  0.00     0.293 HD
ENDBRANCH  15  19
ENDBRANCH  10  11
ENDBRANCH   1  10
TORSDOF 6
ENDMDL
MODEL 6
REMARK VINA RESULT:    -4.654     14.247     15.634
REMARK INTER + INTRA:          -6.658
REMARK INTER:                  -6.133
REMARK INTRA:                  -0.525
REMARK UNBOUND:                -0.779
REMARK SMILES Oc1ccc(CCc2cc(O)cc(O)c2)cc1
REMARK SMILES IDX 6 1 5 2 4 3 3 4 2 5 16 6 17 7 1 8 7 10 8 11 15 12 9 13 13 14
REMARK SMILES IDX 10 15 12 16 14 17 11 19
REMARK H PARENT 1 9 14 18 11 20
REMARK Flexibility Score: inf
ROOT
ATOM      1  C   UNL     1      -3.999  90.519 -13.307  1.00  0.00     0.040 C 
ENDROOT
BRANCH   1   2
ATOM      2  C   UNL     1      -4.124  90.679 -14.798  1.00  0.00    -0.047 A 
ATOM      3  C   UNL     1      -2.991  90.959 -15.578  1.00  0.00     0.007 A 
ATOM      4  C   UNL     1      -3.101  91.076 -16.967  1.00  0.00     0.046 A 
ATOM      5  C   UNL     1      -4.345  90.904 -17.591  1.00  0.00     0.115 A 
ATOM      6  C   UNL     1      -5.365  90.494 -15.429  1.00  0.00     0.007 A 
ATOM      7  C   UNL     1      -5.474  90.611 -16.818  1.00  0.00     0.046 A 
BRANCH   5   8
ATOM      8  O   UNL     1      -4.468  91.017 -18.973  1.00  0.00    -0.508 OA
ATOM      9  H   UNL     1      -3.971  91.732 -19.492  1.00  0.00     0.293 HD
ENDBRANCH   5   8
ENDBRANCH   1   2
BRANCH   1  10
ATOM     10  C   UNL     1      -5.152  91.229 -12.590  1.00  0.00     0.040 C 
BRANCH  10  11
ATOM     11  C   UNL     1      -4.625  92.288 -11.661  1.00  0.00    -0.040 A 
ATOM     12  C   UNL     1      -3.986  93.428 -12.177  1.00  0.00     0.050 A 
ATOM     13  C   UNL     1      -4.817  92.175 -10.275  1.00  0.00     0.050 A 
ATOM     14  C   UNL     1      -3.525  94.431 -11.317  1.00  0.00     0.119 A 
ATOM     15  C   UNL     1      -4.358  93.175  -9.412  1.00  0.00     0.119 A 
ATOM     16  C   UNL     1      -3.709  94.302  -9.934  1.00  0.00     0.092 A 
BRANCH  14  17
ATOM     17  O   UNL     1      -2.888  95.551 -11.846  1.00  0.00    -0.508 OA
ATOM     18  H   UNL     1      -2.058  95.466 -12.421  1.00  0.00     0.293 HD
ENDBRANCH  14  17
BRANCH  15  19
ATOM     19  O   UNL     1      -4.552  93.041  -8.039  1.00  0.00    -0.508 OA
ATOM     20  H   UNL     1      -4.147  92.270  -7.519  1.00  0.00     0.293 HD
ENDBRANCH  15  19
ENDBRANCH  10  11
ENDBRANCH   1  10
TORSDOF 6
ENDMDL
MODEL 7
REMARK VINA RESULT:    -4.644     12.569     15.555
REMARK INTER + INTRA:          -6.644
REMARK INTER:                  -5.833
REMARK INTRA:                  -0.811
REMARK UNBOUND:                -0.779
REMARK SMILES Oc1ccc(CCc2cc(O)cc(O)c2)cc1
REMARK SMILES IDX 6 1 5 2 4 3 3 4 2 5 16 6 17 7 1 8 7 10 8 11 15 12 9 13 13 14
REMARK SMILES IDX 10 15 12 16 14 17 11 19
REMARK H PARENT 1 9 14 18 11 20
REMARK Flexibility Score: inf
ROOT
ATOM      1  C   UNL     1      -4.149  91.070 -13.908  1.00  0.00     0.040 C 
ENDROOT
BRANCH   1   2
ATOM      2  C   UNL     1      -5.548  90.528 -13.788  1.00  0.00    -0.047 A 
ATOM      3  C   UNL     1      -5.779  89.144 -13.840  1.00  0.00     0.007 A 
ATOM      4  C   UNL     1      -7.075  88.638 -13.696  1.00  0.00     0.046 A 
ATOM      5  C   UNL     1      -8.151  89.511 -13.488  1.00  0.00     0.115 A 
ATOM      6  C   UNL     1      -6.628  91.397 -13.565  1.00  0.00     0.007 A 
ATOM      7  C   UNL     1      -7.923  90.890 -13.421  1.00  0.00     0.046 A 
BRANCH   5   8
ATOM      8  O   UNL     1      -9.446  89.020 -13.342  1.00  0.00    -0.508 OA
ATOM      9  H   UNL     1     -10.047  88.866 -14.143  1.00  0.00     0.293 HD
ENDBRANCH   5   8
ENDBRANCH   1   2
BRANCH   1  10
ATOM     10  C   UNL     1      -3.554  90.727 -15.276  1.00  0.00     0.040 C 
BRANCH  10  11
ATOM     11  C   UNL     1      -4.194  91.557 -16.355  1.00  0.00    -0.040 A 
ATOM     12  C   UNL     1      -4.950  90.941 -17.368  1.00  0.00     0.050 A 
ATOM     13  C   UNL     1      -4.091  92.957 -16.328  1.00  0.00     0.050 A 
ATOM     14  C   UNL     1      -5.575  91.714 -18.353  1.00  0.00     0.119 A 
ATOM     15  C   UNL     1      -4.714  93.732 -17.312  1.00  0.00     0.119 A 
ATOM     16  C   UNL     1      -5.453  93.108 -18.326  1.00  0.00     0.092 A 
BRANCH  14  17
ATOM     17  O   UNL     1      -6.314  91.085 -19.352  1.00  0.00    -0.508 OA
ATOM     18  H   UNL     1      -6.864  90.256 -19.162  1.00  0.00     0.293 HD
ENDBRANCH  14  17
BRANCH  15  19
ATOM     19  O   UNL     1      -4.593  95.119 -17.272  1.00  0.00    -0.508 OA
ATOM     20  H   UNL     1      -4.089  95.628 -17.989  1.00  0.00     0.293 HD
ENDBRANCH  15  19
ENDBRANCH  10  11
ENDBRANCH   1  10
TORSDOF 6
ENDMDL
MODEL 8
REMARK VINA RESULT:    -4.630     12.540     15.493
REMARK INTER + INTRA:          -6.627
REMARK INTER:                  -5.815
REMARK INTRA:                  -0.812
REMARK UNBOUND:                -0.779
REMARK SMILES Oc1ccc(CCc2cc(O)cc(O)c2)cc1
REMARK SMILES IDX 6 1 5 2 4 3 3 4 2 5 16 6 17 7 1 8 7 10 8 11 15 12 9 13 13 14
REMARK SMILES IDX 10 15 12 16 14 17 11 19
REMARK H PARENT 1 9 14 18 11 20
REMARK Flexibility Score: inf
ROOT
ATOM      1  C   UNL     1      -4.273  91.176 -13.911  1.00  0.00     0.040 C 
ENDROOT
BRANCH   1   2
ATOM      2  C   UNL     1      -5.649  90.600 -13.712  1.00  0.00    -0.047 A 
ATOM      3  C   UNL     1      -6.734  91.441 -13.420  1.00  0.00     0.007 A 
ATOM      4  C   UNL     1      -8.019  90.910 -13.267  1.00  0.00     0.046 A 
ATOM      5  C   UNL     1      -8.232  89.532 -13.416  1.00  0.00     0.115 A 
ATOM      6  C   UNL     1      -5.870  89.223 -13.874  1.00  0.00     0.007 A 
ATOM      7  C   UNL     1      -7.155  88.693 -13.721  1.00  0.00     0.046 A 
BRANCH   5   8
ATOM      8  O   UNL     1      -9.505  88.990 -13.267  1.00  0.00    -0.508 OA
ATOM      9  H   UNL     1     -10.258  89.516 -12.837  1.00  0.00     0.293 HD
ENDBRANCH   5   8
ENDBRANCH   1   2
BRANCH   1  10
ATOM     10  C   UNL     1      -3.709  90.766 -15.274  1.00  0.00     0.040 C 
BRANCH  10  11
ATOM     11  C   UNL     1      -4.348  91.569 -16.375  1.00  0.00    -0.040 A 
ATOM     12  C   UNL     1      -4.147  92.958 -16.446  1.00  0.00     0.050 A 
ATOM     13  C   UNL     1      -5.103  90.930 -17.372  1.00  0.00     0.050 A 
ATOM     14  C   UNL     1      -4.712  93.702 -17.488  1.00  0.00     0.119 A 
ATOM     15  C   UNL     1      -5.669  91.671 -18.414  1.00  0.00     0.119 A 
ATOM     16  C   UNL     1      -5.476  93.058 -18.469  1.00  0.00     0.092 A 
BRANCH  14  17
ATOM     17  O   UNL     1      -4.507  95.079 -17.538  1.00  0.00    -0.508 OA
ATOM     18  H   UNL     1      -3.728  95.480 -18.045  1.00  0.00     0.293 HD
ENDBRANCH  14  17
BRANCH  15  19
ATOM     19  O   UNL     1      -6.421  91.020 -19.390  1.00  0.00    -0.508 OA
ATOM     20  H   UNL     1      -6.160  91.050 -20.369  1.00  0.00     0.293 HD
ENDBRANCH  15  19
ENDBRANCH  10  11
ENDBRANCH   1  10
TORSDOF 6
ENDMDL
MODEL 9
REMARK VINA RESULT:    -3.945     14.371     15.735
REMARK INTER + INTRA:          -5.762
REMARK INTER:                  -5.256
REMARK INTRA:                  -0.506
REMARK UNBOUND:                -0.779
REMARK SMILES Oc1ccc(CCc2cc(O)cc(O)c2)cc1
REMARK SMILES IDX 6 1 5 2 4 3 3 4 2 5 16 6 17 7 1 8 7 10 8 11 15 12 9 13 13 14
REMARK SMILES IDX 10 15 12 16 14 17 11 19
REMARK H PARENT 1 9 14 18 11 20
REMARK Flexibility Score: inf
ROOT
ATOM      1  C   UNL     1      -3.973  90.819 -13.306  1.00  0.00     0.040 C 
ENDROOT
BRANCH   1   2
ATOM      2  C   UNL     1      -4.147  90.929 -14.797  1.00  0.00    -0.047 A 
ATOM      3  C   UNL     1      -3.136  91.496 -15.589  1.00  0.00     0.007 A 
ATOM      4  C   UNL     1      -3.284  91.570 -16.978  1.00  0.00     0.046 A 
ATOM      5  C   UNL     1      -4.441  91.067 -17.589  1.00  0.00     0.115 A 
ATOM      6  C   UNL     1      -5.298  90.415 -15.415  1.00  0.00     0.007 A 
ATOM      7  C   UNL     1      -5.445  90.489 -16.804  1.00  0.00     0.046 A 
BRANCH   5   8
ATOM      8  O   UNL     1      -4.601  91.133 -18.970  1.00  0.00    -0.508 OA
ATOM      9  H   UNL     1      -4.200  91.888 -19.515  1.00  0.00     0.293 HD
ENDBRANCH   5   8
ENDBRANCH   1   2
BRANCH   1  10
ATOM     10  C   UNL     1      -5.147  91.477 -12.576  1.00  0.00     0.040 C 
BRANCH  10  11
ATOM     11  C   UNL     1      -4.652  92.510 -11.600  1.00  0.00    -0.040 A 
ATOM     12  C   UNL     1      -4.786  92.298 -10.218  1.00  0.00     0.050 A 
ATOM     13  C   UNL     1      -4.001  93.666 -12.060  1.00  0.00     0.050 A 
ATOM     14  C   UNL     1      -4.296  93.241  -9.307  1.00  0.00     0.119 A 
ATOM     15  C   UNL     1      -3.511  94.610 -11.153  1.00  0.00     0.119 A 
ATOM     16  C   UNL     1      -3.662  94.398  -9.776  1.00  0.00     0.092 A 
BRANCH  14  17
ATOM     17  O   UNL     1      -4.444  93.017  -7.940  1.00  0.00    -0.508 OA
ATOM     18  H   UNL     1      -4.087  92.178  -7.499  1.00  0.00     0.293 HD
ENDBRANCH  14  17
BRANCH  15  19
ATOM     19  O   UNL     1      -2.875  95.755 -11.630  1.00  0.00    -0.508 OA
ATOM     20  H   UNL     1      -2.285  95.730 -12.453  1.00  0.00     0.293 HD
ENDBRANCH  15  19
ENDBRANCH  10  11
ENDBRANCH   1  10
TORSDOF 6
ENDMDL
