MODEL 1
REMARK VINA RESULT:    -4.170      0.000      0.000
REMARK INTER + INTRA:          -6.511
REMARK INTER:                  -6.364
REMARK INTRA:                  -0.147
REMARK UNBOUND:                -0.147
REMARK SMILES CC1=CCC[C@H](C)C(=O)C[C@H](C(C)C)C(=O)C1
REMARK SMILES IDX 8 1 9 2 6 3 7 4 5 5 4 6 3 7 2 8 1 9 10 11 11 12 15 13 16 14
REMARK SMILES IDX 17 15 12 17 13 18 14 19
REMARK H PARENT
REMARK Flexibility Score: 70.00
ROOT
ATOM      1  C   UNL     1     -14.789  13.199 -28.119  1.00  0.00     0.136 C 
ATOM      2  O   UNL     1     -13.726  13.771 -27.925  1.00  0.00    -0.299 OA
ENDROOT
BRANCH   1   3
ATOM      3  C   UNL     1     -15.028  11.854 -27.453  1.00  0.00     0.053 C 
ATOM      4  C   UNL     1     -13.949  11.576 -26.401  1.00  0.00     0.016 C 
BRANCH   3   5
ATOM      5  C   UNL     1     -16.438  11.750 -26.837  1.00  0.00     0.015 C 
BRANCH   5   6
ATOM      6  C   UNL     1     -17.381  10.900 -27.707  1.00  0.00     0.028 C 
BRANCH   6   7
ATOM      7  C   UNL     1     -18.574  11.668 -28.217  1.00  0.00    -0.028 C 
ATOM      8  C   UNL     1     -18.804  12.019 -29.508  1.00  0.00    -0.070 CG0
ATOM      9  C   UNL     1     -20.130  12.672 -29.817  1.00  0.00     0.039 C 
ATOM     10  G   UNL     1     -17.789  11.872 -30.639  1.00  0.00     0.000 G0
ENDBRANCH   6   7
ENDBRANCH   5   6
ENDBRANCH   3   5
ENDBRANCH   1   3
BRANCH   1  11
ATOM     11  C   UNL     1     -15.841  13.882 -28.964  1.00  0.00     0.087 C 
BRANCH  11  12
ATOM     12  C   UNL     1     -15.724  13.541 -30.475  1.00  0.00     0.066 C 
BRANCH  12  13
ATOM     13  C   UNL     1     -17.073  13.147 -31.066  1.00  0.00     0.140 C 
ATOM     14  O   UNL     1     -17.659  13.943 -31.786  1.00  0.00    -0.299 OA
BRANCH  13  15
ATOM     15  C   UNL     1     -17.768  11.870 -30.650  1.00  0.00     0.106 CG0
ATOM     16  G   UNL     1     -18.794  12.032 -29.531  1.00  0.00     0.000 G0
ENDBRANCH  13  15
ENDBRANCH  12  13
BRANCH  12  17
ATOM     17  C   UNL     1     -15.081  14.702 -31.304  1.00  0.00    -0.006 C 
ATOM     18  C   UNL     1     -14.743  15.929 -30.437  1.00  0.00     0.008 C 
ATOM     19  C   UNL     1     -13.799  14.234 -32.018  1.00  0.00     0.008 C 
ENDBRANCH  12  17
ENDBRANCH  11  12
ENDBRANCH   1  11
TORSDOF 1
ENDMDL
MODEL 2
REMARK VINA RESULT:    -4.046      2.180      4.240
REMARK INTER + INTRA:          -6.321
REMARK INTER:                  -6.364
REMARK INTRA:                   0.043
REMARK UNBOUND:                -0.147
REMARK SMILES CC1=CCC[C@H](C)C(=O)C[C@H](C(C)C)C(=O)C1
REMARK SMILES IDX 8 1 9 2 6 3 7 4 5 5 4 6 3 7 2 8 1 9 10 11 11 12 15 13 16 14
REMARK SMILES IDX 17 15 12 17 13 18 14 19
REMARK H PARENT
REMARK Flexibility Score: 70.00
ROOT
ATOM      1  C   UNL     1     -15.382  14.650 -31.071  1.00  0.00     0.136 C 
ATOM      2  O   UNL     1     -15.697  15.591 -30.357  1.00  0.00    -0.299 OA
ENDROOT
BRANCH   1   3
ATOM      3  C   UNL     1     -16.437  14.026 -31.968  1.00  0.00     0.053 C 
ATOM      4  C   UNL     1     -15.777  13.251 -33.114  1.00  0.00     0.016 C 
BRANCH   3   5
ATOM      5  C   UNL     1     -17.412  13.125 -31.183  1.00  0.00     0.015 C 
BRANCH   5   6
ATOM      6  C   UNL     1     -16.691  11.928 -30.538  1.00  0.00     0.028 C 
BRANCH   6   7
ATOM      7  C   UNL     1     -16.674  11.984 -29.031  1.00  0.00    -0.028 C 
ATOM      8  C   UNL     1     -15.599  12.278 -28.256  1.00  0.00    -0.070 CG0
ATOM      9  C   UNL     1     -15.838  12.409 -26.771  1.00  0.00     0.039 C 
ATOM     10  G   UNL     1     -14.168  12.403 -28.773  1.00  0.00     0.000 G0
ENDBRANCH   6   7
ENDBRANCH   5   6
ENDBRANCH   3   5
ENDBRANCH   1   3
BRANCH   1  11
ATOM     11  C   UNL     1     -13.942  14.186 -31.071  1.00  0.00     0.087 C 
BRANCH  11  12
ATOM     12  C   UNL     1     -13.161  14.625 -29.803  1.00  0.00     0.066 C 
BRANCH  12  13
ATOM     13  C   UNL     1     -13.496  13.743 -28.606  1.00  0.00     0.140 C 
ATOM     14  O   UNL     1     -13.105  14.076 -27.496  1.00  0.00    -0.299 OA
BRANCH  13  15
ATOM     15  C   UNL     1     -14.155  12.394 -28.786  1.00  0.00     0.106 CG0
ATOM     16  G   UNL     1     -15.592  12.306 -28.275  1.00  0.00     0.000 G0
ENDBRANCH  13  15
ENDBRANCH  12  13
BRANCH  12  17
ATOM     17  C   UNL     1     -11.614  14.668 -30.035  1.00  0.00    -0.006 C 
ATOM     18  C   UNL     1     -10.996  13.262 -30.152  1.00  0.00     0.008 C 
ATOM     19  C   UNL     1     -11.263  15.469 -31.303  1.00  0.00     0.008 C 
ENDBRANCH  12  17
ENDBRANCH  11  12
ENDBRANCH   1  11
TORSDOF 1
ENDMDL
MODEL 3
REMARK VINA RESULT:    -3.890      2.234      4.503
REMARK INTER + INTRA:          -6.083
REMARK INTER:                  -5.899
REMARK INTRA:                  -0.184
REMARK UNBOUND:                -0.147
REMARK SMILES CC1=CCC[C@H](C)C(=O)C[C@H](C(C)C)C(=O)C1
REMARK SMILES IDX 8 1 9 2 6 3 7 4 5 5 4 6 3 7 2 8 1 9 10 11 11 12 15 13 16 14
REMARK SMILES IDX 17 15 12 17 13 18 14 19
REMARK H PARENT
REMARK Flexibility Score: 70.00
ROOT
ATOM      1  C   UNL     1     -16.934  13.117 -29.686  1.00  0.00     0.136 C 
ATOM      2  O   UNL     1     -17.566  13.715 -30.545  1.00  0.00    -0.299 OA
ENDROOT
BRANCH   1   3
ATOM      3  C   UNL     1     -17.669  12.610 -28.457  1.00  0.00     0.053 C 
ATOM      4  C   UNL     1     -19.102  12.205 -28.819  1.00  0.00     0.016 C 
BRANCH   3   5
ATOM      5  C   UNL     1     -16.924  11.448 -27.769  1.00  0.00     0.015 C 
BRANCH   5   6
ATOM      6  C   UNL     1     -16.327  11.873 -26.417  1.00  0.00     0.028 C 
BRANCH   6   7
ATOM      7  C   UNL     1     -15.008  11.207 -26.113  1.00  0.00    -0.028 C 
ATOM      8  C   UNL     1     -13.782  11.780 -26.220  1.00  0.00    -0.070 CG0
ATOM      9  C   UNL     1     -12.601  10.972 -25.738  1.00  0.00     0.039 C 
ATOM     10  G   UNL     1     -13.515  13.139 -26.864  1.00  0.00     0.000 G0
ENDBRANCH   6   7
ENDBRANCH   5   6
ENDBRANCH   3   5
ENDBRANCH   1   3
BRANCH   1  11
ATOM     11  C   UNL     1     -15.461  12.858 -29.912  1.00  0.00     0.087 C 
BRANCH  11  12
ATOM     12  C   UNL     1     -14.544  13.876 -29.178  1.00  0.00     0.066 C 
BRANCH  12  13
ATOM     13  C   UNL     1     -13.456  13.170 -28.377  1.00  0.00     0.140 C 
ATOM     14  O   UNL     1     -12.621  12.502 -28.972  1.00  0.00    -0.299 OA
BRANCH  13  15
ATOM     15  C   UNL     1     -13.484  13.147 -26.866  1.00  0.00     0.106 CG0
ATOM     16  G   UNL     1     -13.779  11.782 -26.249  1.00  0.00     0.000 G0
ENDBRANCH  13  15
ENDBRANCH  12  13
BRANCH  12  17
ATOM     17  C   UNL     1     -13.915  14.927 -30.151  1.00  0.00    -0.006 C 
ATOM     18  C   UNL     1     -13.507  14.311 -31.502  1.00  0.00     0.008 C 
ATOM     19  C   UNL     1     -14.885  16.095 -30.412  1.00  0.00     0.008 C 
ENDBRANCH  12  17
ENDBRANCH  11  12
ENDBRANCH   1  11
TORSDOF 1
ENDMDL
MODEL 4
REMARK VINA RESULT:    -3.826      2.433      5.141
REMARK INTER + INTRA:          -5.986
REMARK INTER:                  -6.034
REMARK INTRA:                   0.047
REMARK UNBOUND:                -0.147
REMARK SMILES CC1=CCC[C@H](C)C(=O)C[C@H](C(C)C)C(=O)C1
REMARK SMILES IDX 8 1 9 2 6 3 7 4 5 5 4 6 3 7 2 8 1 9 10 11 11 12 15 13 16 14
REMARK SMILES IDX 17 15 12 17 13 18 14 19
REMARK H PARENT
REMARK Flexibility Score: 70.00
ROOT
ATOM      1  C   UNL     1     -15.145  14.638 -30.756  1.00  0.00     0.136 C 
ATOM      2  O   UNL     1     -15.819  15.267 -31.559  1.00  0.00    -0.299 OA
ENDROOT
BRANCH   1   3
ATOM      3  C   UNL     1     -13.728  14.245 -31.138  1.00  0.00     0.053 C 
ATOM      4  C   UNL     1     -13.133  15.267 -32.115  1.00  0.00     0.016 C 
BRANCH   3   5
ATOM      5  C   UNL     1     -12.819  14.067 -29.906  1.00  0.00     0.015 C 
BRANCH   5   6
ATOM      6  C   UNL     1     -12.591  12.581 -29.574  1.00  0.00     0.028 C 
BRANCH   6   7
ATOM      7  C   UNL     1     -12.236  12.342 -28.129  1.00  0.00    -0.028 C 
ATOM      8  C   UNL     1     -13.081  12.444 -27.072  1.00  0.00    -0.070 CG0
ATOM      9  C   UNL     1     -12.548  12.031 -25.721  1.00  0.00     0.039 C 
ATOM     10  G   UNL     1     -14.493  13.021 -27.147  1.00  0.00     0.000 G0
ENDBRANCH   6   7
ENDBRANCH   5   6
ENDBRANCH   3   5
ENDBRANCH   1   3
BRANCH   1  11
ATOM     11  C   UNL     1     -15.732  14.329 -29.397  1.00  0.00     0.087 C 
BRANCH  11  12
ATOM     12  C   UNL     1     -16.108  12.832 -29.222  1.00  0.00     0.066 C 
BRANCH  12  13
ATOM     13  C   UNL     1     -15.493  12.244 -27.957  1.00  0.00     0.140 C 
ATOM     14  O   UNL     1     -15.910  11.174 -27.537  1.00  0.00    -0.299 OA
BRANCH  13  15
ATOM     15  C   UNL     1     -14.501  13.030 -27.129  1.00  0.00     0.106 CG0
ATOM     16  G   UNL     1     -13.095  12.437 -27.076  1.00  0.00     0.000 G0
ENDBRANCH  13  15
ENDBRANCH  12  13
BRANCH  12  17
ATOM     17  C   UNL     1     -17.655  12.596 -29.239  1.00  0.00    -0.006 C 
ATOM     18  C   UNL     1     -18.417  13.617 -28.375  1.00  0.00     0.008 C 
ATOM     19  C   UNL     1     -18.211  12.651 -30.675  1.00  0.00     0.008 C 
ENDBRANCH  12  17
ENDBRANCH  11  12
ENDBRANCH   1  11
TORSDOF 1
ENDMDL
MODEL 5
REMARK VINA RESULT:    -3.789      2.632      5.654
REMARK INTER + INTRA:          -5.930
REMARK INTER:                  -5.401
REMARK INTRA:                  -0.529
REMARK UNBOUND:                -0.147
REMARK SMILES CC1=CCC[C@H](C)C(=O)C[C@H](C(C)C)C(=O)C1
REMARK SMILES IDX 8 1 9 2 6 3 7 4 5 5 4 6 3 7 2 8 1 9 10 11 11 12 15 13 16 14
REMARK SMILES IDX 17 15 12 17 13 18 14 19
REMARK H PARENT
REMARK Flexibility Score: 70.00
ROOT
ATOM      1  C   UNL     1     -15.625  14.354 -30.506  1.00  0.00     0.136 C 
ATOM      2  O   UNL     1     -16.242  15.376 -30.770  1.00  0.00    -0.299 OA
ENDROOT
BRANCH   1   3
ATOM      3  C   UNL     1     -14.721  13.750 -31.567  1.00  0.00     0.053 C 
ATOM      4  C   UNL     1     -15.511  13.476 -32.852  1.00  0.00     0.016 C 
BRANCH   3   5
ATOM      5  C   UNL     1     -13.488  14.630 -31.855  1.00  0.00     0.015 C 
BRANCH   5   6
ATOM      6  C   UNL     1     -12.546  14.709 -30.641  1.00  0.00     0.028 C 
BRANCH   6   7
ATOM      7  C   UNL     1     -11.799  13.425 -30.383  1.00  0.00    -0.028 C 
ATOM      8  C   UNL     1     -12.060  12.535 -29.392  1.00  0.00    -0.070 CG0
ATOM      9  C   UNL     1     -11.270  11.248 -29.397  1.00  0.00     0.039 C 
ATOM     10  G   UNL     1     -13.031  12.784 -28.240  1.00  0.00     0.000 G0
ENDBRANCH   6   7
ENDBRANCH   5   6
ENDBRANCH   3   5
ENDBRANCH   1   3
BRANCH   1  11
ATOM     11  C   UNL     1     -15.744  13.770 -29.116  1.00  0.00     0.087 C 
BRANCH  11  12
ATOM     12  C   UNL     1     -15.489  12.238 -29.075  1.00  0.00     0.066 C 
BRANCH  12  13
ATOM     13  C   UNL     1     -14.267  11.897 -28.229  1.00  0.00     0.140 C 
ATOM     14  O   UNL     1     -14.333  10.963 -27.443  1.00  0.00    -0.299 OA
BRANCH  13  15
ATOM     15  C   UNL     1     -13.043  12.785 -28.225  1.00  0.00     0.106 CG0
ATOM     16  G   UNL     1     -12.071  12.544 -29.378  1.00  0.00     0.000 G0
ENDBRANCH  13  15
ENDBRANCH  12  13
BRANCH  12  17
ATOM     17  C   UNL     1     -16.738  11.435 -28.582  1.00  0.00    -0.006 C 
ATOM     18  C   UNL     1     -17.470  12.136 -27.423  1.00  0.00     0.008 C 
ATOM     19  C   UNL     1     -17.739  11.201 -29.729  1.00  0.00     0.008 C 
ENDBRANCH  12  17
ENDBRANCH  11  12
ENDBRANCH   1  11
TORSDOF 1
ENDMDL
MODEL 6
REMARK VINA RESULT:    -3.649      2.118      4.294
REMARK INTER + INTRA:          -5.717
REMARK INTER:                  -5.564
REMARK INTRA:                  -0.153
REMARK UNBOUND:                -0.147
REMARK SMILES CC1=CCC[C@H](C)C(=O)C[C@H](C(C)C)C(=O)C1
REMARK SMILES IDX 8 1 9 2 6 3 7 4 5 5 4 6 3 7 2 8 1 9 10 11 11 12 15 13 16 14
REMARK SMILES IDX 17 15 12 17 13 18 14 19
REMARK H PARENT
REMARK Flexibility Score: 70.00
ROOT
ATOM      1  C   UNL     1     -14.609  11.832 -28.321  1.00  0.00     0.136 C 
ATOM      2  O   UNL     1     -14.588  10.891 -27.540  1.00  0.00    -0.299 OA
ENDROOT
BRANCH   1   3
ATOM      3  C   UNL     1     -13.703  13.022 -28.056  1.00  0.00     0.053 C 
ATOM      4  C   UNL     1     -13.559  13.263 -26.549  1.00  0.00     0.016 C 
BRANCH   3   5
ATOM      5  C   UNL     1     -12.322  12.866 -28.724  1.00  0.00     0.015 C 
BRANCH   5   6
ATOM      6  C   UNL     1     -12.225  13.671 -30.031  1.00  0.00     0.028 C 
BRANCH   6   7
ATOM      7  C   UNL     1     -13.042  14.939 -30.012  1.00  0.00    -0.028 C 
ATOM      8  C   UNL     1     -14.227  15.133 -30.644  1.00  0.00    -0.070 CG0
ATOM      9  C   UNL     1     -14.940  16.438 -30.382  1.00  0.00     0.039 C 
ATOM     10  G   UNL     1     -14.838  14.164 -31.653  1.00  0.00     0.000 G0
ENDBRANCH   6   7
ENDBRANCH   5   6
ENDBRANCH   3   5
ENDBRANCH   1   3
BRANCH   1  11
ATOM     11  C   UNL     1     -15.492  11.743 -29.545  1.00  0.00     0.087 C 
BRANCH  11  12
ATOM     12  C   UNL     1     -16.341  13.022 -29.778  1.00  0.00     0.066 C 
BRANCH  12  13
ATOM     13  C   UNL     1     -16.164  13.561 -31.193  1.00  0.00     0.140 C 
ATOM     14  O   UNL     1     -17.050  13.373 -32.014  1.00  0.00    -0.299 OA
BRANCH  13  15
ATOM     15  C   UNL     1     -14.856  14.175 -31.641  1.00  0.00     0.106 CG0
ATOM     16  G   UNL     1     -14.217  15.132 -30.637  1.00  0.00     0.000 G0
ENDBRANCH  13  15
ENDBRANCH  12  13
BRANCH  12  17
ATOM     17  C   UNL     1     -17.858  12.802 -29.462  1.00  0.00    -0.006 C 
ATOM     18  C   UNL     1     -18.183  11.336 -29.122  1.00  0.00     0.008 C 
ATOM     19  C   UNL     1     -18.319  13.695 -28.294  1.00  0.00     0.008 C 
ENDBRANCH  12  17
ENDBRANCH  11  12
ENDBRANCH   1  11
TORSDOF 1
ENDMDL
MODEL 7
REMARK VINA RESULT:    -3.609      2.686      5.737
REMARK INTER + INTRA:          -5.655
REMARK INTER:                  -5.509
REMARK INTRA:                  -0.146
REMARK UNBOUND:                -0.147
REMARK SMILES CC1=CCC[C@H](C)C(=O)C[C@H](C(C)C)C(=O)C1
REMARK SMILES IDX 8 1 9 2 6 3 7 4 5 5 4 6 3 7 2 8 1 9 10 11 11 12 15 13 16 14
REMARK SMILES IDX 17 15 12 17 13 18 14 19
REMARK H PARENT
REMARK Flexibility Score: 70.00
ROOT
ATOM      1  C   UNL     1     -16.028  13.717 -29.585  1.00  0.00     0.136 C 
ATOM      2  O   UNL     1     -16.895  14.528 -29.294  1.00  0.00    -0.299 OA
ENDROOT
BRANCH   1   3
ATOM      3  C   UNL     1     -16.101  13.021 -30.934  1.00  0.00     0.053 C 
ATOM      4  C   UNL     1     -17.520  12.505 -31.195  1.00  0.00     0.016 C 
BRANCH   3   5
ATOM      5  C   UNL     1     -15.623  13.928 -32.086  1.00  0.00     0.015 C 
BRANCH   5   6
ATOM      6  C   UNL     1     -14.601  14.973 -31.605  1.00  0.00     0.028 C 
BRANCH   6   7
ATOM      7  C   UNL     1     -13.196  14.692 -32.076  1.00  0.00    -0.028 C 
ATOM      8  C   UNL     1     -12.220  14.084 -31.356  1.00  0.00    -0.070 CG0
ATOM      9  C   UNL     1     -10.923  13.784 -32.070  1.00  0.00     0.039 C 
ATOM     10  G   UNL     1     -12.316  13.762 -29.866  1.00  0.00     0.000 G0
ENDBRANCH   6   7
ENDBRANCH   5   6
ENDBRANCH   3   5
ENDBRANCH   1   3
BRANCH   1  11
ATOM     11  C   UNL     1     -14.890  13.487 -28.616  1.00  0.00     0.087 C 
BRANCH  11  12
ATOM     12  C   UNL     1     -14.149  12.143 -28.856  1.00  0.00     0.066 C 
BRANCH  12  13
ATOM     13  C   UNL     1     -12.802  12.361 -29.537  1.00  0.00     0.140 C 
ATOM     14  O   UNL     1     -12.057  11.404 -29.696  1.00  0.00    -0.299 OA
BRANCH  13  15
ATOM     15  C   UNL     1     -12.307  13.750 -29.870  1.00  0.00     0.106 CG0
ATOM     16  G   UNL     1     -12.229  14.065 -31.362  1.00  0.00     0.000 G0
ENDBRANCH  13  15
ENDBRANCH  12  13
BRANCH  12  17
ATOM     17  C   UNL     1     -13.969  11.314 -27.541  1.00  0.00    -0.006 C 
ATOM     18  C   UNL     1     -12.938  11.941 -26.584  1.00  0.00     0.008 C 
ATOM     19  C   UNL     1     -15.307  11.158 -26.793  1.00  0.00     0.008 C 
ENDBRANCH  12  17
ENDBRANCH  11  12
ENDBRANCH   1  11
TORSDOF 1
ENDMDL
MODEL 8
REMARK VINA RESULT:    -3.445      1.634      2.032
REMARK INTER + INTRA:          -5.405
REMARK INTER:                  -5.587
REMARK INTRA:                   0.182
REMARK UNBOUND:                -0.147
REMARK SMILES CC1=CCC[C@H](C)C(=O)C[C@H](C(C)C)C(=O)C1
REMARK SMILES IDX 8 1 9 2 6 3 7 4 5 5 4 6 3 7 2 8 1 9 10 11 11 12 15 13 16 14
REMARK SMILES IDX 17 15 12 17 13 18 14 19
REMARK H PARENT
REMARK Flexibility Score: 70.00
ROOT
ATOM      1  C   UNL     1     -12.912  12.413 -28.051  1.00  0.00     0.136 C 
ATOM      2  O   UNL     1     -12.069  11.749 -28.636  1.00  0.00    -0.299 OA
ENDROOT
BRANCH   1   3
ATOM      3  C   UNL     1     -13.282  12.035 -26.627  1.00  0.00     0.053 C 
ATOM      4  C   UNL     1     -12.821  13.120 -25.646  1.00  0.00     0.016 C 
BRANCH   3   5
ATOM      5  C   UNL     1     -14.791  11.756 -26.470  1.00  0.00     0.015 C 
BRANCH   5   6
ATOM      6  C   UNL     1     -15.389  11.121 -27.737  1.00  0.00     0.028 C 
BRANCH   6   7
ATOM      7  C   UNL     1     -16.828  11.505 -27.973  1.00  0.00    -0.028 C 
ATOM      8  C   UNL     1     -17.262  12.534 -28.745  1.00  0.00    -0.070 CG0
ATOM      9  C   UNL     1     -18.753  12.659 -28.949  1.00  0.00     0.039 C 
ATOM     10  G   UNL     1     -16.357  13.607 -29.345  1.00  0.00     0.000 G0
ENDBRANCH   6   7
ENDBRANCH   5   6
ENDBRANCH   3   5
ENDBRANCH   1   3
BRANCH   1  11
ATOM     11  C   UNL     1     -13.506  13.616 -28.749  1.00  0.00     0.087 C 
BRANCH  11  12
ATOM     12  C   UNL     1     -13.877  13.338 -30.232  1.00  0.00     0.066 C 
BRANCH  12  13
ATOM     13  C   UNL     1     -15.375  13.105 -30.399  1.00  0.00     0.140 C 
ATOM     14  O   UNL     1     -15.785  12.611 -31.440  1.00  0.00    -0.299 OA
BRANCH  13  15
ATOM     15  C   UNL     1     -16.367  13.618 -29.380  1.00  0.00     0.106 CG0
ATOM     16  G   UNL     1     -17.261  12.547 -28.757  1.00  0.00     0.000 G0
ENDBRANCH  13  15
ENDBRANCH  12  13
BRANCH  12  17
ATOM     17  C   UNL     1     -13.389  14.470 -31.195  1.00  0.00    -0.006 C 
ATOM     18  C   UNL     1     -14.225  15.756 -31.067  1.00  0.00     0.008 C 
ATOM     19  C   UNL     1     -11.909  14.815 -30.943  1.00  0.00     0.008 C 
ENDBRANCH  12  17
ENDBRANCH  11  12
ENDBRANCH   1  11
TORSDOF 1
ENDMDL
MODEL 9
REMARK VINA RESULT:    -3.314      2.475      5.137
REMARK INTER + INTRA:          -5.204
REMARK INTER:                  -5.363
REMARK INTRA:                   0.159
REMARK UNBOUND:                -0.147
REMARK SMILES CC1=CCC[C@H](C)C(=O)C[C@H](C(C)C)C(=O)C1
REMARK SMILES IDX 8 1 9 2 6 3 7 4 5 5 4 6 3 7 2 8 1 9 10 11 11 12 15 13 16 14
REMARK SMILES IDX 17 15 12 17 13 18 14 19
REMARK H PARENT
REMARK Flexibility Score: 70.00
ROOT
ATOM      1  C   UNL     1     -13.889  14.959 -31.960  1.00  0.00     0.136 C 
ATOM      2  O   UNL     1     -13.965  16.180 -31.953  1.00  0.00    -0.299 OA
ENDROOT
BRANCH   1   3
ATOM      3  C   UNL     1     -12.523  14.309 -31.823  1.00  0.00     0.053 C 
ATOM      4  C   UNL     1     -11.874  14.130 -33.200  1.00  0.00     0.016 C 
BRANCH   3   5
ATOM      5  C   UNL     1     -11.595  15.095 -30.874  1.00  0.00     0.015 C 
BRANCH   5   6
ATOM      6  C   UNL     1     -11.953  14.856 -29.397  1.00  0.00     0.028 C 
BRANCH   6   7
ATOM      7  C   UNL     1     -12.105  13.396 -29.050  1.00  0.00    -0.028 C 
ATOM      8  C   UNL     1     -13.252  12.783 -28.665  1.00  0.00    -0.070 CG0
ATOM      9  C   UNL     1     -13.207  11.283 -28.493  1.00  0.00     0.039 C 
ATOM     10  G   UNL     1     -14.549  13.512 -28.321  1.00  0.00     0.000 G0
ENDBRANCH   6   7
ENDBRANCH   5   6
ENDBRANCH   3   5
ENDBRANCH   1   3
BRANCH   1  11
ATOM     11  C   UNL     1     -15.165  14.151 -32.045  1.00  0.00     0.087 C 
BRANCH  11  12
ATOM     12  C   UNL     1     -15.369  13.205 -30.831  1.00  0.00     0.066 C 
BRANCH  12  13
ATOM     13  C   UNL     1     -15.368  13.975 -29.515  1.00  0.00     0.140 C 
ATOM     14  O   UNL     1     -15.922  15.065 -29.466  1.00  0.00    -0.299 OA
BRANCH  13  15
ATOM     15  C   UNL     1     -14.563  13.499 -28.327  1.00  0.00     0.106 CG0
ATOM     16  G   UNL     1     -13.253  12.797 -28.678  1.00  0.00     0.000 G0
ENDBRANCH  13  15
ENDBRANCH  12  13
BRANCH  12  17
ATOM     17  C   UNL     1     -16.665  12.338 -30.956  1.00  0.00    -0.006 C 
ATOM     18  C   UNL     1     -17.170  11.830 -29.593  1.00  0.00     0.008 C 
ATOM     19  C   UNL     1     -17.799  13.126 -31.639  1.00  0.00     0.008 C 
ENDBRANCH  12  17
ENDBRANCH  11  12
ENDBRANCH   1  11
TORSDOF 1
ENDMDL
