MODEL 1
REMARK VINA RESULT:    -3.177      0.000      0.000
REMARK INTER + INTRA:          -8.499
REMARK INTER:                  -6.148
REMARK INTRA:                  -2.351
REMARK UNBOUND:                -2.351
REMARK SMILES CCCCCCCCCCCCCCCCCC(=O)[O-]
REMARK SMILES IDX 10 1 11 2 12 3 13 4 14 5 15 6 16 7 17 8 18 9 19 10 20 11
REMARK SMILES IDX 9 12 8 13 7 14 6 15 5 16 4 17 3 18 2 19 1 20
REMARK H PARENT
REMARK Flexibility Score: inf
ROOT
ATOM      1  C   UNL     1     142.448 140.036 145.433  1.00  0.00     0.000 C 
ENDROOT
BRANCH   1   2
ATOM      2  C   UNL     1     143.272 140.039 146.733  1.00  0.00     0.000 C 
BRANCH   2   3
ATOM      3  C   UNL     1     144.766 140.306 146.491  1.00  0.00     0.000 C 
BRANCH   3   4
ATOM      4  C   UNL     1     145.063 141.785 146.194  1.00  0.00     0.000 C 
BRANCH   4   5
ATOM      5  C   UNL     1     145.590 142.013 144.767  1.00  0.00     0.000 C 
BRANCH   5   6
ATOM      6  C   UNL     1     144.504 142.590 143.830  1.00  0.00     0.000 C 
BRANCH   6   7
ATOM      7  C   UNL     1     144.765 144.049 143.414  1.00  0.00     0.006 C 
BRANCH   7   8
ATOM      8  C   UNL     1     144.392 144.358 141.955  1.00  0.00     0.053 C 
BRANCH   8   9
ATOM      9  C   UNL     1     145.583 144.285 141.048  1.00  0.00     0.041 C 
ATOM     10  O   UNL     1     146.029 145.330 140.504  1.00  0.00    -0.550 OA
ATOM     11  O   UNL     1     146.189 143.063 140.787  1.00  0.00    -0.550 OA
ENDBRANCH   8   9
ENDBRANCH   7   8
ENDBRANCH   6   7
ENDBRANCH   5   6
ENDBRANCH   4   5
ENDBRANCH   3   4
ENDBRANCH   2   3
ENDBRANCH   1   2
BRANCH   1  12
ATOM     12  C   UNL     1     141.214 140.963 145.482  1.00  0.00     0.000 C 
BRANCH  12  13
ATOM     13  C   UNL     1     141.380 142.093 146.512  1.00  0.00    -0.000 C 
BRANCH  13  14
ATOM     14  C   UNL     1     141.614 143.462 145.853  1.00  0.00    -0.000 C 
BRANCH  14  15
ATOM     15  C   UNL     1     142.468 144.393 146.731  1.00  0.00    -0.000 C 
BRANCH  15  16
ATOM     16  C   UNL     1     142.646 145.788 146.113  1.00  0.00    -0.000 C 
BRANCH  16  17
ATOM     17  C   UNL     1     141.938 145.932 144.757  1.00  0.00    -0.000 C 
BRANCH  17  18
ATOM     18  C   UNL     1     140.972 147.123 144.766  1.00  0.00    -0.000 C 
BRANCH  18  19
ATOM     19  C   UNL     1     140.180 147.198 143.455  1.00  0.00    -0.003 C 
ATOM     20  C   UNL     1     141.107 147.121 142.245  1.00  0.00     0.004 C 
ENDBRANCH  18  19
ENDBRANCH  17  18
ENDBRANCH  16  17
ENDBRANCH  15  16
ENDBRANCH  14  15
ENDBRANCH  13  14
ENDBRANCH  12  13
ENDBRANCH   1  12
TORSDOF 16
ENDMDL
MODEL 2
REMARK VINA RESULT:    -3.085      4.305      6.293
REMARK INTER + INTRA:          -8.321
REMARK INTER:                  -5.741
REMARK INTRA:                  -2.580
REMARK UNBOUND:                -2.351
REMARK SMILES CCCCCCCCCCCCCCCCCC(=O)[O-]
REMARK SMILES IDX 10 1 11 2 12 3 13 4 14 5 15 6 16 7 17 8 18 9 19 10 20 11
REMARK SMILES IDX 9 12 8 13 7 14 6 15 5 16 4 17 3 18 2 19 1 20
REMARK H PARENT
REMARK Flexibility Score: inf
ROOT
ATOM      1  C   UNL     1     143.293 142.306 149.662  1.00  0.00     0.000 C 
ENDROOT
BRANCH   1   2
ATOM      2  C   UNL     1     143.779 140.972 149.067  1.00  0.00     0.000 C 
BRANCH   2   3
ATOM      3  C   UNL     1     142.686 140.242 148.270  1.00  0.00     0.000 C 
BRANCH   3   4
ATOM      4  C   UNL     1     142.902 140.331 146.751  1.00  0.00     0.000 C 
BRANCH   4   5
ATOM      5  C   UNL     1     141.804 141.139 146.038  1.00  0.00     0.000 C 
BRANCH   5   6
ATOM      6  C   UNL     1     142.095 142.657 146.052  1.00  0.00     0.000 C 
BRANCH   6   7
ATOM      7  C   UNL     1     143.577 142.999 145.812  1.00  0.00     0.006 C 
BRANCH   7   8
ATOM      8  C   UNL     1     143.864 143.589 144.422  1.00  0.00     0.053 C 
BRANCH   8   9
ATOM      9  C   UNL     1     144.649 142.642 143.566  1.00  0.00     0.041 C 
ATOM     10  O   UNL     1     145.310 143.076 142.586  1.00  0.00    -0.550 OA
ATOM     11  O   UNL     1     144.638 141.281 143.838  1.00  0.00    -0.550 OA
ENDBRANCH   8   9
ENDBRANCH   7   8
ENDBRANCH   6   7
ENDBRANCH   5   6
ENDBRANCH   4   5
ENDBRANCH   3   4
ENDBRANCH   2   3
ENDBRANCH   1   2
BRANCH   1  12
ATOM     12  C   UNL     1     141.760 142.394 149.811  1.00  0.00     0.000 C 
BRANCH  12  13
ATOM     13  C   UNL     1     141.304 143.779 150.299  1.00  0.00    -0.000 C 
BRANCH  13  14
ATOM     14  C   UNL     1     140.413 143.701 151.549  1.00  0.00    -0.000 C 
BRANCH  14  15
ATOM     15  C   UNL     1     139.898 142.274 151.809  1.00  0.00    -0.000 C 
BRANCH  15  16
ATOM     16  C   UNL     1     140.060 141.846 153.276  1.00  0.00    -0.000 C 
BRANCH  16  17
ATOM     17  C   UNL     1     141.450 142.176 153.841  1.00  0.00    -0.000 C 
BRANCH  17  18
ATOM     18  C   UNL     1     142.512 141.227 153.273  1.00  0.00    -0.000 C 
BRANCH  18  19
ATOM     19  C   UNL     1     143.908 141.857 153.347  1.00  0.00    -0.003 C 
ATOM     20  C   UNL     1     143.842 143.368 153.145  1.00  0.00     0.004 C 
ENDBRANCH  18  19
ENDBRANCH  17  18
ENDBRANCH  16  17
ENDBRANCH  15  16
ENDBRANCH  14  15
ENDBRANCH  13  14
ENDBRANCH  12  13
ENDBRANCH   1  12
TORSDOF 16
ENDMDL
MODEL 3
REMARK VINA RESULT:    -3.081      2.423      5.031
REMARK INTER + INTRA:          -8.314
REMARK INTER:                  -5.046
REMARK INTRA:                  -3.268
REMARK UNBOUND:                -2.351
REMARK SMILES CCCCCCCCCCCCCCCCCC(=O)[O-]
REMARK SMILES IDX 10 1 11 2 12 3 13 4 14 5 15 6 16 7 17 8 18 9 19 10 20 11
REMARK SMILES IDX 9 12 8 13 7 14 6 15 5 16 4 17 3 18 2 19 1 20
REMARK H PARENT
REMARK Flexibility Score: inf
ROOT
ATOM      1  C   UNL     1     143.210 144.414 144.943  1.00  0.00     0.000 C 
ENDROOT
BRANCH   1   2
ATOM      2  C   UNL     1     144.509 144.431 144.117  1.00  0.00     0.000 C 
BRANCH   2   3
ATOM      3  C   UNL     1     144.608 143.251 143.137  1.00  0.00     0.000 C 
BRANCH   3   4
ATOM      4  C   UNL     1     146.004 142.610 143.122  1.00  0.00     0.000 C 
BRANCH   4   5
ATOM      5  C   UNL     1     147.042 143.420 143.918  1.00  0.00     0.000 C 
BRANCH   5   6
ATOM      6  C   UNL     1     148.055 142.510 144.650  1.00  0.00     0.000 C 
BRANCH   6   7
ATOM      7  C   UNL     1     148.234 141.133 143.985  1.00  0.00     0.006 C 
BRANCH   7   8
ATOM      8  C   UNL     1     149.562 140.975 143.227  1.00  0.00     0.053 C 
BRANCH   8   9
ATOM      9  C   UNL     1     149.353 140.904 141.745  1.00  0.00     0.041 C 
ATOM     10  O   UNL     1     149.699 139.875 141.106  1.00  0.00    -0.550 OA
ATOM     11  O   UNL     1     148.793 141.977 141.065  1.00  0.00    -0.550 OA
ENDBRANCH   8   9
ENDBRANCH   7   8
ENDBRANCH   6   7
ENDBRANCH   5   6
ENDBRANCH   4   5
ENDBRANCH   3   4
ENDBRANCH   2   3
ENDBRANCH   1   2
BRANCH   1  12
ATOM     12  C   UNL     1     143.443 144.212 146.455  1.00  0.00     0.000 C 
BRANCH  12  13
ATOM     13  C   UNL     1     144.933 144.295 146.828  1.00  0.00    -0.000 C 
BRANCH  13  14
ATOM     14  C   UNL     1     145.434 143.029 147.542  1.00  0.00    -0.000 C 
BRANCH  14  15
ATOM     15  C   UNL     1     144.508 141.823 147.308  1.00  0.00    -0.000 C 
BRANCH  15  16
ATOM     16  C   UNL     1     145.089 140.818 146.301  1.00  0.00    -0.000 C 
BRANCH  16  17
ATOM     17  C   UNL     1     144.034 140.280 145.322  1.00  0.00    -0.000 C 
BRANCH  17  18
ATOM     18  C   UNL     1     142.661 140.176 145.998  1.00  0.00    -0.000 C 
BRANCH  18  19
ATOM     19  C   UNL     1     141.605 140.974 145.225  1.00  0.00    -0.003 C 
ATOM     20  C   UNL     1     140.703 141.759 146.174  1.00  0.00     0.004 C 
ENDBRANCH  18  19
ENDBRANCH  17  18
ENDBRANCH  16  17
ENDBRANCH  15  16
ENDBRANCH  14  15
ENDBRANCH  13  14
ENDBRANCH  12  13
ENDBRANCH   1  12
TORSDOF 16
ENDMDL
MODEL 4
REMARK VINA RESULT:    -2.978      5.803      8.530
REMARK INTER + INTRA:          -8.115
REMARK INTER:                  -5.940
REMARK INTRA:                  -2.175
REMARK UNBOUND:                -2.351
REMARK SMILES CCCCCCCCCCCCCCCCCC(=O)[O-]
REMARK SMILES IDX 10 1 11 2 12 3 13 4 14 5 15 6 16 7 17 8 18 9 19 10 20 11
REMARK SMILES IDX 9 12 8 13 7 14 6 15 5 16 4 17 3 18 2 19 1 20
REMARK H PARENT
REMARK Flexibility Score: inf
ROOT
ATOM      1  C   UNL     1     142.226 143.889 149.511  1.00  0.00     0.000 C 
ENDROOT
BRANCH   1   2
ATOM      2  C   UNL     1     141.533 144.756 150.577  1.00  0.00     0.000 C 
BRANCH   2   3
ATOM      3  C   UNL     1     140.404 144.013 151.309  1.00  0.00     0.000 C 
BRANCH   3   4
ATOM      4  C   UNL     1     140.065 144.643 152.669  1.00  0.00     0.000 C 
BRANCH   4   5
ATOM      5  C   UNL     1     140.327 143.693 153.850  1.00  0.00     0.000 C 
BRANCH   5   6
ATOM      6  C   UNL     1     140.199 142.207 153.442  1.00  0.00     0.000 C 
BRANCH   6   7
ATOM      7  C   UNL     1     141.452 141.373 153.767  1.00  0.00     0.006 C 
BRANCH   7   8
ATOM      8  C   UNL     1     142.774 142.068 153.407  1.00  0.00     0.053 C 
BRANCH   8   9
ATOM      9  C   UNL     1     143.853 141.080 153.081  1.00  0.00     0.041 C 
ATOM     10  O   UNL     1     144.985 141.178 153.624  1.00  0.00    -0.550 OA
ATOM     11  O   UNL     1     143.616 140.062 152.167  1.00  0.00    -0.550 OA
ENDBRANCH   8   9
ENDBRANCH   7   8
ENDBRANCH   6   7
ENDBRANCH   5   6
ENDBRANCH   4   5
ENDBRANCH   3   4
ENDBRANCH   2   3
ENDBRANCH   1   2
BRANCH   1  12
ATOM     12  C   UNL     1     141.973 142.377 149.686  1.00  0.00     0.000 C 
BRANCH  12  13
ATOM     13  C   UNL     1     141.368 141.741 148.422  1.00  0.00    -0.000 C 
BRANCH  13  14
ATOM     14  C   UNL     1     141.328 142.715 147.233  1.00  0.00    -0.000 C 
BRANCH  14  15
ATOM     15  C   UNL     1     140.722 142.072 145.973  1.00  0.00    -0.000 C 
BRANCH  15  16
ATOM     16  C   UNL     1     141.447 140.781 145.563  1.00  0.00    -0.000 C 
BRANCH  16  17
ATOM     17  C   UNL     1     142.910 141.023 145.159  1.00  0.00    -0.000 C 
BRANCH  17  18
ATOM     18  C   UNL     1     143.858 140.128 145.966  1.00  0.00    -0.000 C 
BRANCH  18  19
ATOM     19  C   UNL     1     144.843 140.970 146.786  1.00  0.00    -0.003 C 
ATOM     20  C   UNL     1     144.779 142.441 146.384  1.00  0.00     0.004 C 
ENDBRANCH  18  19
ENDBRANCH  17  18
ENDBRANCH  16  17
ENDBRANCH  15  16
ENDBRANCH  14  15
ENDBRANCH  13  14
ENDBRANCH  12  13
ENDBRANCH   1  12
TORSDOF 16
ENDMDL
MODEL 5
REMARK VINA RESULT:    -2.953      3.526      5.294
REMARK INTER + INTRA:          -8.066
REMARK INTER:                  -5.694
REMARK INTRA:                  -2.371
REMARK UNBOUND:                -2.351
REMARK SMILES CCCCCCCCCCCCCCCCCC(=O)[O-]
REMARK SMILES IDX 10 1 11 2 12 3 13 4 14 5 15 6 16 7 17 8 18 9 19 10 20 11
REMARK SMILES IDX 9 12 8 13 7 14 6 15 5 16 4 17 3 18 2 19 1 20
REMARK H PARENT
REMARK Flexibility Score: inf
ROOT
ATOM      1  C   UNL     1     144.344 143.775 145.794  1.00  0.00     0.000 C 
ENDROOT
BRANCH   1   2
ATOM      2  C   UNL     1     144.948 142.461 145.267  1.00  0.00     0.000 C 
BRANCH   2   3
ATOM      3  C   UNL     1     144.013 141.722 144.296  1.00  0.00     0.000 C 
BRANCH   3   4
ATOM      4  C   UNL     1     143.825 140.242 144.666  1.00  0.00     0.000 C 
BRANCH   4   5
ATOM      5  C   UNL     1     142.645 140.012 145.626  1.00  0.00     0.000 C 
BRANCH   5   6
ATOM      6  C   UNL     1     141.481 140.995 145.365  1.00  0.00     0.000 C 
BRANCH   6   7
ATOM      7  C   UNL     1     141.012 141.738 146.629  1.00  0.00     0.006 C 
BRANCH   7   8
ATOM      8  C   UNL     1     142.017 141.690 147.790  1.00  0.00     0.053 C 
BRANCH   8   9
ATOM      9  C   UNL     1     141.388 142.095 149.089  1.00  0.00     0.041 C 
ATOM     10  O   UNL     1     140.850 141.228 149.827  1.00  0.00    -0.550 OA
ATOM     11  O   UNL     1     141.381 143.428 149.477  1.00  0.00    -0.550 OA
ENDBRANCH   8   9
ENDBRANCH   7   8
ENDBRANCH   6   7
ENDBRANCH   5   6
ENDBRANCH   4   5
ENDBRANCH   3   4
ENDBRANCH   2   3
ENDBRANCH   1   2
BRANCH   1  12
ATOM     12  C   UNL     1     143.378 144.452 144.800  1.00  0.00     0.000 C 
BRANCH  12  13
ATOM     13  C   UNL     1     142.075 144.909 145.478  1.00  0.00    -0.000 C 
BRANCH  13  14
ATOM     14  C   UNL     1     142.037 146.426 145.722  1.00  0.00    -0.000 C 
BRANCH  14  15
ATOM     15  C   UNL     1     140.756 147.073 145.169  1.00  0.00    -0.000 C 
BRANCH  15  16
ATOM     16  C   UNL     1     141.035 148.030 143.999  1.00  0.00    -0.000 C 
BRANCH  16  17
ATOM     17  C   UNL     1     140.584 147.461 142.646  1.00  0.00    -0.000 C 
BRANCH  17  18
ATOM     18  C   UNL     1     141.727 146.702 141.961  1.00  0.00    -0.000 C 
BRANCH  18  19
ATOM     19  C   UNL     1     143.075 147.385 142.221  1.00  0.00    -0.003 C 
ATOM     20  C   UNL     1     144.238 146.481 141.822  1.00  0.00     0.004 C 
ENDBRANCH  18  19
ENDBRANCH  17  18
ENDBRANCH  16  17
ENDBRANCH  15  16
ENDBRANCH  14  15
ENDBRANCH  13  14
ENDBRANCH  12  13
ENDBRANCH   1  12
TORSDOF 16
ENDMDL
MODEL 6
REMARK VINA RESULT:    -2.913      3.190      4.958
REMARK INTER + INTRA:          -7.989
REMARK INTER:                  -5.461
REMARK INTRA:                  -2.528
REMARK UNBOUND:                -2.351
REMARK SMILES CCCCCCCCCCCCCCCCCC(=O)[O-]
REMARK SMILES IDX 10 1 11 2 12 3 13 4 14 5 15 6 16 7 17 8 18 9 19 10 20 11
REMARK SMILES IDX 9 12 8 13 7 14 6 15 5 16 4 17 3 18 2 19 1 20
REMARK H PARENT
REMARK Flexibility Score: inf
ROOT
ATOM      1  C   UNL     1     145.368 141.749 146.944  1.00  0.00     0.000 C 
ENDROOT
BRANCH   1   2
ATOM      2  C   UNL     1     145.092 140.315 146.461  1.00  0.00     0.000 C 
BRANCH   2   3
ATOM      3  C   UNL     1     144.905 140.224 144.938  1.00  0.00     0.000 C 
BRANCH   3   4
ATOM      4  C   UNL     1     143.450 139.941 144.535  1.00  0.00     0.000 C 
BRANCH   4   5
ATOM      5  C   UNL     1     142.479 139.993 145.728  1.00  0.00     0.000 C 
BRANCH   5   6
ATOM      6  C   UNL     1     141.301 140.963 145.479  1.00  0.00     0.000 C 
BRANCH   6   7
ATOM      7  C   UNL     1     141.292 142.173 146.432  1.00  0.00     0.006 C 
BRANCH   7   8
ATOM      8  C   UNL     1     141.436 141.799 147.916  1.00  0.00     0.053 C 
BRANCH   8   9
ATOM      9  C   UNL     1     141.965 142.941 148.730  1.00  0.00     0.041 C 
ATOM     10  O   UNL     1     143.098 142.857 149.273  1.00  0.00    -0.550 OA
ATOM     11  O   UNL     1     141.204 144.089 148.902  1.00  0.00    -0.550 OA
ENDBRANCH   8   9
ENDBRANCH   7   8
ENDBRANCH   6   7
ENDBRANCH   5   6
ENDBRANCH   4   5
ENDBRANCH   3   4
ENDBRANCH   2   3
ENDBRANCH   1   2
BRANCH   1  12
ATOM     12  C   UNL     1     145.588 142.756 145.796  1.00  0.00     0.000 C 
BRANCH  12  13
ATOM     13  C   UNL     1     144.592 143.927 145.852  1.00  0.00    -0.000 C 
BRANCH  13  14
ATOM     14  C   UNL     1     143.654 143.963 144.635  1.00  0.00    -0.000 C 
BRANCH  14  15
ATOM     15  C   UNL     1     144.382 143.606 143.327  1.00  0.00    -0.000 C 
BRANCH  15  16
ATOM     16  C   UNL     1     144.249 144.703 142.260  1.00  0.00    -0.000 C 
BRANCH  16  17
ATOM     17  C   UNL     1     143.530 145.956 142.782  1.00  0.00    -0.000 C 
BRANCH  17  18
ATOM     18  C   UNL     1     142.399 146.375 141.835  1.00  0.00    -0.000 C 
BRANCH  18  19
ATOM     19  C   UNL     1     141.264 147.060 142.604  1.00  0.00    -0.003 C 
ATOM     20  C   UNL     1     141.305 146.699 144.086  1.00  0.00     0.004 C 
ENDBRANCH  18  19
ENDBRANCH  17  18
ENDBRANCH  16  17
ENDBRANCH  15  16
ENDBRANCH  14  15
ENDBRANCH  13  14
ENDBRANCH  12  13
ENDBRANCH   1  12
TORSDOF 16
ENDMDL
MODEL 7
REMARK VINA RESULT:    -2.869      5.605      7.524
REMARK INTER + INTRA:          -7.904
REMARK INTER:                  -5.642
REMARK INTRA:                  -2.262
REMARK UNBOUND:                -2.351
REMARK SMILES CCCCCCCCCCCCCCCCCC(=O)[O-]
REMARK SMILES IDX 10 1 11 2 12 3 13 4 14 5 15 6 16 7 17 8 18 9 19 10 20 11
REMARK SMILES IDX 9 12 8 13 7 14 6 15 5 16 4 17 3 18 2 19 1 20
REMARK H PARENT
REMARK Flexibility Score: inf
ROOT
ATOM      1  C   UNL     1     144.531 141.155 146.572  1.00  0.00     0.000 C 
ENDROOT
BRANCH   1   2
ATOM      2  C   UNL     1     144.563 141.409 148.090  1.00  0.00     0.000 C 
BRANCH   2   3
ATOM      3  C   UNL     1     144.401 140.121 148.913  1.00  0.00     0.000 C 
BRANCH   3   4
ATOM      4  C   UNL     1     143.535 140.325 150.166  1.00  0.00     0.000 C 
BRANCH   4   5
ATOM      5  C   UNL     1     142.237 141.098 149.876  1.00  0.00     0.000 C 
BRANCH   5   6
ATOM      6  C   UNL     1     141.934 142.156 150.962  1.00  0.00     0.000 C 
BRANCH   6   7
ATOM      7  C   UNL     1     140.455 142.192 151.388  1.00  0.00     0.006 C 
BRANCH   7   8
ATOM      8  C   UNL     1     140.173 143.112 152.586  1.00  0.00     0.053 C 
BRANCH   8   9
ATOM      9  C   UNL     1     140.820 142.606 153.841  1.00  0.00     0.041 C 
ATOM     10  O   UNL     1     141.319 143.417 154.665  1.00  0.00    -0.550 OA
ATOM     11  O   UNL     1     140.888 141.243 154.092  1.00  0.00    -0.550 OA
ENDBRANCH   8   9
ENDBRANCH   7   8
ENDBRANCH   6   7
ENDBRANCH   5   6
ENDBRANCH   4   5
ENDBRANCH   3   4
ENDBRANCH   2   3
ENDBRANCH   1   2
BRANCH   1  12
ATOM     12  C   UNL     1     143.409 140.191 146.131  1.00  0.00     0.000 C 
BRANCH  12  13
ATOM     13  C   UNL     1     142.492 140.818 145.067  1.00  0.00    -0.000 C 
BRANCH  13  14
ATOM     14  C   UNL     1     141.081 141.108 145.601  1.00  0.00    -0.000 C 
BRANCH  14  15
ATOM     15  C   UNL     1     141.037 142.378 146.469  1.00  0.00    -0.000 C 
BRANCH  15  16
ATOM     16  C   UNL     1     141.869 143.527 145.878  1.00  0.00    -0.000 C 
BRANCH  16  17
ATOM     17  C   UNL     1     141.899 144.766 146.785  1.00  0.00    -0.000 C 
BRANCH  17  18
ATOM     18  C   UNL     1     141.188 144.490 148.115  1.00  0.00    -0.000 C 
BRANCH  18  19
ATOM     19  C   UNL     1     141.773 145.352 149.241  1.00  0.00    -0.003 C 
ATOM     20  C   UNL     1     140.672 145.904 150.142  1.00  0.00     0.004 C 
ENDBRANCH  18  19
ENDBRANCH  17  18
ENDBRANCH  16  17
ENDBRANCH  15  16
ENDBRANCH  14  15
ENDBRANCH  13  14
ENDBRANCH  12  13
ENDBRANCH   1  12
TORSDOF 16
ENDMDL
MODEL 8
REMARK VINA RESULT:    -2.865      3.768      6.049
REMARK INTER + INTRA:          -7.895
REMARK INTER:                  -5.313
REMARK INTRA:                  -2.582
REMARK UNBOUND:                -2.351
REMARK SMILES CCCCCCCCCCCCCCCCCC(=O)[O-]
REMARK SMILES IDX 10 1 11 2 12 3 13 4 14 5 15 6 16 7 17 8 18 9 19 10 20 11
REMARK SMILES IDX 9 12 8 13 7 14 6 15 5 16 4 17 3 18 2 19 1 20
REMARK H PARENT
REMARK Flexibility Score: inf
ROOT
ATOM      1  C   UNL     1     144.875 140.687 146.789  1.00  0.00     0.000 C 
ENDROOT
BRANCH   1   2
ATOM      2  C   UNL     1     144.861 141.375 145.413  1.00  0.00     0.000 C 
BRANCH   2   3
ATOM      3  C   UNL     1     143.483 141.321 144.733  1.00  0.00     0.000 C 
BRANCH   3   4
ATOM      4  C   UNL     1     142.566 140.246 145.339  1.00  0.00     0.000 C 
BRANCH   4   5
ATOM      5  C   UNL     1     141.233 140.818 145.850  1.00  0.00     0.000 C 
BRANCH   5   6
ATOM      6  C   UNL     1     141.157 142.354 145.689  1.00  0.00     0.000 C 
BRANCH   6   7
ATOM      7  C   UNL     1     141.315 143.118 147.016  1.00  0.00     0.006 C 
BRANCH   7   8
ATOM      8  C   UNL     1     142.396 144.210 146.983  1.00  0.00     0.053 C 
BRANCH   8   9
ATOM      9  C   UNL     1     142.391 144.959 145.685  1.00  0.00     0.041 C 
ATOM     10  O   UNL     1     143.356 144.843 144.884  1.00  0.00    -0.550 OA
ATOM     11  O   UNL     1     141.331 145.798 145.366  1.00  0.00    -0.550 OA
ENDBRANCH   8   9
ENDBRANCH   7   8
ENDBRANCH   6   7
ENDBRANCH   5   6
ENDBRANCH   4   5
ENDBRANCH   3   4
ENDBRANCH   2   3
ENDBRANCH   1   2
BRANCH   1  12
ATOM     12  C   UNL     1     144.727 141.668 147.971  1.00  0.00     0.000 C 
BRANCH  12  13
ATOM     13  C   UNL     1     144.249 140.963 149.252  1.00  0.00    -0.000 C 
BRANCH  13  14
ATOM     14  C   UNL     1     142.933 140.196 149.047  1.00  0.00    -0.000 C 
BRANCH  14  15
ATOM     15  C   UNL     1     141.725 140.940 149.644  1.00  0.00    -0.000 C 
BRANCH  15  16
ATOM     16  C   UNL     1     142.125 141.907 150.769  1.00  0.00    -0.000 C 
BRANCH  16  17
ATOM     17  C   UNL     1     141.252 143.171 150.803  1.00  0.00    -0.000 C 
BRANCH  17  18
ATOM     18  C   UNL     1     140.115 143.026 151.821  1.00  0.00    -0.000 C 
BRANCH  18  19
ATOM     19  C   UNL     1     140.495 143.661 153.164  1.00  0.00    -0.003 C 
ATOM     20  C   UNL     1     140.606 142.605 154.261  1.00  0.00     0.004 C 
ENDBRANCH  18  19
ENDBRANCH  17  18
ENDBRANCH  16  17
ENDBRANCH  15  16
ENDBRANCH  14  15
ENDBRANCH  13  14
ENDBRANCH  12  13
ENDBRANCH   1  12
TORSDOF 16
ENDMDL
MODEL 9
REMARK VINA RESULT:    -2.799      4.418      6.588
REMARK INTER + INTRA:          -7.767
REMARK INTER:                  -5.338
REMARK INTRA:                  -2.429
REMARK UNBOUND:                -2.351
REMARK SMILES CCCCCCCCCCCCCCCCCC(=O)[O-]
REMARK SMILES IDX 10 1 11 2 12 3 13 4 14 5 15 6 16 7 17 8 18 9 19 10 20 11
REMARK SMILES IDX 9 12 8 13 7 14 6 15 5 16 4 17 3 18 2 19 1 20
REMARK H PARENT
REMARK Flexibility Score: inf
ROOT
ATOM      1  C   UNL     1     142.123 140.321 145.479  1.00  0.00     0.000 C 
ENDROOT
BRANCH   1   2
ATOM      2  C   UNL     1     141.053 141.361 145.852  1.00  0.00     0.000 C 
BRANCH   2   3
ATOM      3  C   UNL     1     141.623 142.782 145.985  1.00  0.00     0.000 C 
BRANCH   3   4
ATOM      4  C   UNL     1     141.704 143.254 147.446  1.00  0.00     0.000 C 
BRANCH   4   5
ATOM      5  C   UNL     1     143.150 143.467 147.925  1.00  0.00     0.000 C 
BRANCH   5   6
ATOM      6  C   UNL     1     143.430 142.754 149.267  1.00  0.00     0.000 C 
BRANCH   6   7
ATOM      7  C   UNL     1     142.272 141.854 149.737  1.00  0.00     0.006 C 
BRANCH   7   8
ATOM      8  C   UNL     1     141.933 142.001 151.229  1.00  0.00     0.053 C 
BRANCH   8   9
ATOM      9  C   UNL     1     142.882 141.228 152.094  1.00  0.00     0.041 C 
ATOM     10  O   UNL     1     143.022 141.534 153.308  1.00  0.00    -0.550 OA
ATOM     11  O   UNL     1     143.624 140.183 151.559  1.00  0.00    -0.550 OA
ENDBRANCH   8   9
ENDBRANCH   7   8
ENDBRANCH   6   7
ENDBRANCH   5   6
ENDBRANCH   4   5
ENDBRANCH   3   4
ENDBRANCH   2   3
ENDBRANCH   1   2
BRANCH   1  12
ATOM     12  C   UNL     1     143.039 139.927 146.657  1.00  0.00     0.000 C 
BRANCH  12  13
ATOM     13  C   UNL     1     144.529 140.107 146.318  1.00  0.00    -0.000 C 
BRANCH  13  14
ATOM     14  C   UNL     1     144.786 140.168 144.804  1.00  0.00    -0.000 C 
BRANCH  14  15
ATOM     15  C   UNL     1     145.849 141.217 144.435  1.00  0.00    -0.000 C 
BRANCH  15  16
ATOM     16  C   UNL     1     145.767 142.475 145.313  1.00  0.00    -0.000 C 
BRANCH  16  17
ATOM     17  C   UNL     1     144.881 143.571 144.701  1.00  0.00    -0.000 C 
BRANCH  17  18
ATOM     18  C   UNL     1     144.440 143.190 143.282  1.00  0.00    -0.000 C 
BRANCH  18  19
ATOM     19  C   UNL     1     144.554 144.387 142.331  1.00  0.00    -0.003 C 
ATOM     20  C   UNL     1     144.281 145.699 143.062  1.00  0.00     0.004 C 
ENDBRANCH  18  19
ENDBRANCH  17  18
ENDBRANCH  16  17
ENDBRANCH  15  16
ENDBRANCH  14  15
ENDBRANCH  13  14
ENDBRANCH  12  13
ENDBRANCH   1  12
TORSDOF 16
ENDMDL
