MODEL 1
REMARK VINA RESULT:    -3.684      0.000      0.000
REMARK INTER + INTRA:          -3.684
REMARK INTER:                  -3.684
REMARK INTRA:                   0.000
REMARK UNBOUND:                 0.000
REMARK SMILES C=C1CC[C@@H]2C[C@H]1C2(C)C
REMARK SMILES IDX 9 1 8 2 5 3 4 4 3 5 2 6 1 7 7 8 6 9 10 10
REMARK H PARENT
REMARK Flexibility Score: inf
ROOT
ATOM      1  C   UNL     1      21.941  63.038  14.247  1.00  0.00     0.012 C 
ATOM      2  C   UNL     1      20.541  63.440  14.786  1.00  0.00    -0.026 C 
ATOM      3  C   UNL     1      20.226  64.944  14.988  1.00  0.00    -0.004 C 
ATOM      4  C   UNL     1      21.486  65.719  15.493  1.00  0.00     0.008 C 
ATOM      5  C   UNL     1      22.152  65.039  16.748  1.00  0.00     0.031 C 
ATOM      6  C   UNL     1      21.513  63.682  17.084  1.00  0.00    -0.074 C 
ATOM      7  C   UNL     1      22.028  62.886  18.028  1.00  0.00     0.008 C 
ATOM      8  C   UNL     1      20.266  63.287  16.301  1.00  0.00     0.021 C 
ATOM      9  C   UNL     1      19.415  64.566  16.239  1.00  0.00     0.012 C 
ATOM     10  C   UNL     1      19.464  62.733  13.927  1.00  0.00     0.012 C 
ENDROOT
TORSDOF 0
ENDMDL
MODEL 2
REMARK VINA RESULT:    -3.662      0.955      3.188
REMARK INTER + INTRA:          -3.662
REMARK INTER:                  -3.662
REMARK INTRA:                   0.000
REMARK UNBOUND:                 0.000
REMARK SMILES C=C1CC[C@@H]2C[C@H]1C2(C)C
REMARK SMILES IDX 9 1 8 2 5 3 4 4 3 5 2 6 1 7 7 8 6 9 10 10
REMARK H PARENT
REMARK Flexibility Score: inf
ROOT
ATOM      1  C   UNL     1      20.226  63.144  17.638  1.00  0.00     0.012 C 
ATOM      2  C   UNL     1      21.441  63.571  16.768  1.00  0.00    -0.026 C 
ATOM      3  C   UNL     1      21.581  65.060  16.365  1.00  0.00    -0.004 C 
ATOM      4  C   UNL     1      20.183  65.699  16.081  1.00  0.00     0.008 C 
ATOM      5  C   UNL     1      19.322  64.848  15.072  1.00  0.00     0.031 C 
ATOM      6  C   UNL     1      19.984  63.505  14.729  1.00  0.00    -0.074 C 
ATOM      7  C   UNL     1      19.348  62.582  14.000  1.00  0.00     0.008 C 
ATOM      8  C   UNL     1      21.399  63.272  15.251  1.00  0.00     0.021 C 
ATOM      9  C   UNL     1      22.135  64.600  15.006  1.00  0.00     0.012 C 
ATOM     10  C   UNL     1      22.731  63.027  17.430  1.00  0.00     0.012 C 
ENDROOT
TORSDOF 0
ENDMDL
MODEL 3
REMARK VINA RESULT:    -3.606      1.364      2.347
REMARK INTER + INTRA:          -3.606
REMARK INTER:                  -3.606
REMARK INTRA:                   0.000
REMARK UNBOUND:                 0.000
REMARK SMILES C=C1CC[C@@H]2C[C@H]1C2(C)C
REMARK SMILES IDX 9 1 8 2 5 3 4 4 3 5 2 6 1 7 7 8 6 9 10 10
REMARK H PARENT
REMARK Flexibility Score: inf
ROOT
ATOM      1  C   UNL     1      21.581  65.978  14.687  1.00  0.00     0.012 C 
ATOM      2  C   UNL     1      20.965  64.769  13.929  1.00  0.00    -0.026 C 
ATOM      3  C   UNL     1      19.620  64.185  14.430  1.00  0.00    -0.004 C 
ATOM      4  C   UNL     1      19.535  64.228  15.990  1.00  0.00     0.008 C 
ATOM      5  C   UNL     1      20.798  63.589  16.682  1.00  0.00     0.031 C 
ATOM      6  C   UNL     1      21.896  63.225  15.671  1.00  0.00    -0.074 C 
ATOM      7  C   UNL     1      23.099  62.800  16.073  1.00  0.00     0.008 C 
ATOM      8  C   UNL     1      21.553  63.362  14.191  1.00  0.00     0.021 C 
ATOM      9  C   UNL     1      20.134  62.785  14.058  1.00  0.00     0.012 C 
ATOM     10  C   UNL     1      20.923  65.109  12.419  1.00  0.00     0.012 C 
ENDROOT
TORSDOF 0
ENDMDL
MODEL 4
REMARK VINA RESULT:    -3.563      1.219      3.490
REMARK INTER + INTRA:          -3.563
REMARK INTER:                  -3.563
REMARK INTRA:                   0.000
REMARK UNBOUND:                 0.000
REMARK SMILES C=C1CC[C@@H]2C[C@H]1C2(C)C
REMARK SMILES IDX 9 1 8 2 5 3 4 4 3 5 2 6 1 7 7 8 6 9 10 10
REMARK H PARENT
REMARK Flexibility Score: inf
ROOT
ATOM      1  C   UNL     1      20.669  65.651  13.490  1.00  0.00     0.012 C 
ATOM      2  C   UNL     1      20.903  65.083  14.917  1.00  0.00    -0.026 C 
ATOM      3  C   UNL     1      21.263  63.584  15.073  1.00  0.00    -0.004 C 
ATOM      4  C   UNL     1      20.501  62.712  14.024  1.00  0.00     0.008 C 
ATOM      5  C   UNL     1      18.950  62.991  14.017  1.00  0.00     0.031 C 
ATOM      6  C   UNL     1      18.567  64.173  14.921  1.00  0.00    -0.074 C 
ATOM      7  C   UNL     1      17.319  64.656  14.943  1.00  0.00     0.008 C 
ATOM      8  C   UNL     1      19.667  64.768  15.793  1.00  0.00     0.021 C 
ATOM      9  C   UNL     1      20.423  63.555  16.360  1.00  0.00     0.012 C 
ATOM     10  C   UNL     1      21.914  66.000  15.649  1.00  0.00     0.012 C 
ENDROOT
TORSDOF 0
ENDMDL
MODEL 5
REMARK VINA RESULT:    -3.540      1.248      3.224
REMARK INTER + INTRA:          -3.540
REMARK INTER:                  -3.540
REMARK INTRA:                   0.000
REMARK UNBOUND:                 0.000
REMARK SMILES C=C1CC[C@@H]2C[C@H]1C2(C)C
REMARK SMILES IDX 9 1 8 2 5 3 4 4 3 5 2 6 1 7 7 8 6 9 10 10
REMARK H PARENT
REMARK Flexibility Score: inf
ROOT
ATOM      1  C   UNL     1      20.266  63.495  16.987  1.00  0.00     0.012 C 
ATOM      2  C   UNL     1      20.278  64.732  16.047  1.00  0.00    -0.026 C 
ATOM      3  C   UNL     1      19.147  64.880  14.997  1.00  0.00    -0.004 C 
ATOM      4  C   UNL     1      18.734  63.489  14.417  1.00  0.00     0.008 C 
ATOM      5  C   UNL     1      19.969  62.657  13.902  1.00  0.00     0.031 C 
ATOM      6  C   UNL     1      21.308  63.330  14.241  1.00  0.00    -0.074 C 
ATOM      7  C   UNL     1      22.473  62.715  14.013  1.00  0.00     0.008 C 
ATOM      8  C   UNL     1      21.251  64.731  14.843  1.00  0.00     0.021 C 
ATOM      9  C   UNL     1      20.181  65.471  14.024  1.00  0.00     0.012 C 
ATOM     10  C   UNL     1      20.432  66.005  16.915  1.00  0.00     0.012 C 
ENDROOT
TORSDOF 0
ENDMDL
MODEL 6
REMARK VINA RESULT:    -3.533      1.438      2.369
REMARK INTER + INTRA:          -3.533
REMARK INTER:                  -3.533
REMARK INTRA:                   0.000
REMARK UNBOUND:                 0.000
REMARK SMILES C=C1CC[C@@H]2C[C@H]1C2(C)C
REMARK SMILES IDX 9 1 8 2 5 3 4 4 3 5 2 6 1 7 7 8 6 9 10 10
REMARK H PARENT
REMARK Flexibility Score: inf
ROOT
ATOM      1  C   UNL     1      22.609  64.853  15.175  1.00  0.00     0.012 C 
ATOM      2  C   UNL     1      21.752  63.763  14.475  1.00  0.00    -0.026 C 
ATOM      3  C   UNL     1      20.724  64.200  13.401  1.00  0.00    -0.004 C 
ATOM      4  C   UNL     1      20.057  65.561  13.782  1.00  0.00     0.008 C 
ATOM      5  C   UNL     1      19.478  65.561  15.248  1.00  0.00     0.031 C 
ATOM      6  C   UNL     1      19.850  64.286  16.022  1.00  0.00    -0.074 C 
ATOM      7  C   UNL     1      19.571  64.158  17.324  1.00  0.00     0.008 C 
ATOM      8  C   UNL     1      20.543  63.175  15.241  1.00  0.00     0.021 C 
ATOM      9  C   UNL     1      19.783  63.094  13.907  1.00  0.00     0.012 C 
ATOM     10  C   UNL     1      22.701  62.656  13.952  1.00  0.00     0.012 C 
ENDROOT
TORSDOF 0
ENDMDL
MODEL 7
REMARK VINA RESULT:    -3.438      1.304      2.074
REMARK INTER + INTRA:          -3.438
REMARK INTER:                  -3.438
REMARK INTRA:                   0.000
REMARK UNBOUND:                 0.000
REMARK SMILES C=C1CC[C@@H]2C[C@H]1C2(C)C
REMARK SMILES IDX 9 1 8 2 5 3 4 4 3 5 2 6 1 7 7 8 6 9 10 10
REMARK H PARENT
REMARK Flexibility Score: inf
ROOT
ATOM      1  C   UNL     1      19.496  62.653  14.074  1.00  0.00     0.012 C 
ATOM      2  C   UNL     1      19.512  64.099  14.642  1.00  0.00    -0.026 C 
ATOM      3  C   UNL     1      20.190  65.217  13.811  1.00  0.00    -0.004 C 
ATOM      4  C   UNL     1      21.457  64.677  13.071  1.00  0.00     0.008 C 
ATOM      5  C   UNL     1      22.445  63.920  14.038  1.00  0.00     0.031 C 
ATOM      6  C   UNL     1      21.859  63.740  15.447  1.00  0.00    -0.074 C 
ATOM      7  C   UNL     1      22.484  63.001  16.371  1.00  0.00     0.008 C 
ATOM      8  C   UNL     1      20.539  64.443  15.747  1.00  0.00     0.021 C 
ATOM      9  C   UNL     1      20.685  65.841  15.126  1.00  0.00     0.012 C 
ATOM     10  C   UNL     1      18.068  64.479  15.054  1.00  0.00     0.012 C 
ENDROOT
TORSDOF 0
ENDMDL
MODEL 8
REMARK VINA RESULT:    -3.394      0.954      3.118
REMARK INTER + INTRA:          -3.394
REMARK INTER:                  -3.394
REMARK INTRA:                   0.000
REMARK UNBOUND:                 0.000
REMARK SMILES C=C1CC[C@@H]2C[C@H]1C2(C)C
REMARK SMILES IDX 9 1 8 2 5 3 4 4 3 5 2 6 1 7 7 8 6 9 10 10
REMARK H PARENT
REMARK Flexibility Score: inf
ROOT
ATOM      1  C   UNL     1      21.093  65.957  14.644  1.00  0.00     0.012 C 
ATOM      2  C   UNL     1      21.002  65.154  15.971  1.00  0.00    -0.026 C 
ATOM      3  C   UNL     1      22.223  64.309  16.414  1.00  0.00    -0.004 C 
ATOM      4  C   UNL     1      22.935  63.662  15.182  1.00  0.00     0.008 C 
ATOM      5  C   UNL     1      21.935  62.885  14.245  1.00  0.00     0.031 C 
ATOM      6  C   UNL     1      20.470  63.083  14.664  1.00  0.00    -0.074 C 
ATOM      7  C   UNL     1      19.463  62.620  13.914  1.00  0.00     0.008 C 
ATOM      8  C   UNL     1      20.214  63.823  15.972  1.00  0.00     0.021 C 
ATOM      9  C   UNL     1      21.246  63.254  16.958  1.00  0.00     0.012 C 
ATOM     10  C   UNL     1      20.525  66.112  17.091  1.00  0.00     0.012 C 
ENDROOT
TORSDOF 0
ENDMDL
MODEL 9
REMARK VINA RESULT:    -3.390      1.124      2.645
REMARK INTER + INTRA:          -3.390
REMARK INTER:                  -3.390
REMARK INTRA:                   0.000
REMARK UNBOUND:                 0.000
REMARK SMILES C=C1CC[C@@H]2C[C@H]1C2(C)C
REMARK SMILES IDX 9 1 8 2 5 3 4 4 3 5 2 6 1 7 7 8 6 9 10 10
REMARK H PARENT
REMARK Flexibility Score: inf
ROOT
ATOM      1  C   UNL     1      19.634  62.802  14.224  1.00  0.00     0.012 C 
ATOM      2  C   UNL     1      20.432  64.130  14.344  1.00  0.00    -0.026 C 
ATOM      3  C   UNL     1      21.621  64.197  15.335  1.00  0.00    -0.004 C 
ATOM      4  C   UNL     1      21.322  63.370  16.627  1.00  0.00     0.008 C 
ATOM      5  C   UNL     1      19.936  63.745  17.277  1.00  0.00     0.031 C 
ATOM      6  C   UNL     1      19.123  64.711  16.402  1.00  0.00    -0.074 C 
ATOM      7  C   UNL     1      17.863  65.038  16.712  1.00  0.00     0.008 C 
ATOM      8  C   UNL     1      19.815  65.284  15.170  1.00  0.00     0.021 C 
ATOM      9  C   UNL     1      21.231  65.651  15.645  1.00  0.00     0.012 C 
ATOM     10  C   UNL     1      20.837  64.588  12.921  1.00  0.00     0.012 C 
ENDROOT
TORSDOF 0
ENDMDL
