MODEL 1
REMARK VINA RESULT:    -3.701      0.000      0.000
REMARK INTER + INTRA:         -10.791
REMARK INTER:                  -8.462
REMARK INTRA:                  -2.329
REMARK UNBOUND:                -2.329
REMARK SMILES CCCCCCCCCCCCCCCCCCCCCCCC(=O)[O-]
REMARK SMILES IDX 13 1 14 2 15 3 16 4 17 5 18 6 19 7 20 8 21 9 22 10 23 11
REMARK SMILES IDX 24 12 25 13 26 14 12 15 11 16 10 17 9 18 8 19 7 20 6 21 5 22
REMARK SMILES IDX 4 23 3 24 2 25 1 26
REMARK H PARENT
REMARK Flexibility Score: inf
ROOT
ATOM      1  C   UNL     1       2.500  23.918  14.452  1.00  0.00     0.000 C 
ENDROOT
BRANCH   1   2
ATOM      2  C   UNL     1       3.868  24.480  14.870  1.00  0.00     0.000 C 
BRANCH   2   3
ATOM      3  C   UNL     1       4.726  24.913  13.669  1.00  0.00     0.000 C 
BRANCH   3   4
ATOM      4  C   UNL     1       5.702  26.051  14.016  1.00  0.00     0.000 C 
BRANCH   4   5
ATOM      5  C   UNL     1       6.540  25.781  15.285  1.00  0.00     0.000 C 
BRANCH   5   6
ATOM      6  C   UNL     1       6.361  26.883  16.346  1.00  0.00     0.000 C 
BRANCH   6   7
ATOM      7  C   UNL     1       4.921  26.967  16.873  1.00  0.00     0.000 C 
BRANCH   7   8
ATOM      8  C   UNL     1       4.155  28.176  16.315  1.00  0.00     0.000 C 
BRANCH   8   9
ATOM      9  C   UNL     1       2.674  27.832  16.097  1.00  0.00     0.000 C 
BRANCH   9  10
ATOM     10  C   UNL     1       2.098  28.464  14.820  1.00  0.00     0.006 C 
BRANCH  10  11
ATOM     11  C   UNL     1       2.029  27.476  13.646  1.00  0.00     0.053 C 
BRANCH  11  12
ATOM     12  C   UNL     1       2.945  27.904  12.544  1.00  0.00     0.041 C 
ATOM     13  O   UNL     1       3.834  28.771  12.757  1.00  0.00    -0.550 OA
ATOM     14  O   UNL     1       2.821  27.341  11.279  1.00  0.00    -0.550 OA
ENDBRANCH  11  12
ENDBRANCH  10  11
ENDBRANCH   9  10
ENDBRANCH   8   9
ENDBRANCH   7   8
ENDBRANCH   6   7
ENDBRANCH   5   6
ENDBRANCH   4   5
ENDBRANCH   3   4
ENDBRANCH   2   3
ENDBRANCH   1   2
BRANCH   1  15
ATOM     15  C   UNL     1       1.965  22.863  15.433  1.00  0.00     0.000 C 
BRANCH  15  16
ATOM     16  C   UNL     1       1.876  21.486  14.763  1.00  0.00     0.000 C 
BRANCH  16  17
ATOM     17  C   UNL     1       2.982  20.552  15.264  1.00  0.00     0.000 C 
BRANCH  17  18
ATOM     18  C   UNL     1       2.524  19.090  15.239  1.00  0.00    -0.000 C 
BRANCH  18  19
ATOM     19  C   UNL     1       3.619  18.164  15.788  1.00  0.00    -0.000 C 
BRANCH  19  20
ATOM     20  C   UNL     1       3.109  16.745  16.086  1.00  0.00    -0.000 C 
BRANCH  20  21
ATOM     21  C   UNL     1       4.194  15.651  16.075  1.00  0.00    -0.000 C 
BRANCH  21  22
ATOM     22  C   UNL     1       5.630  16.201  15.933  1.00  0.00    -0.000 C 
BRANCH  22  23
ATOM     23  C   UNL     1       6.101  16.223  14.468  1.00  0.00    -0.000 C 
BRANCH  23  24
ATOM     24  C   UNL     1       5.307  15.258  13.569  1.00  0.00    -0.000 C 
BRANCH  24  25
ATOM     25  C   UNL     1       4.705  15.908  12.311  1.00  0.00    -0.003 C 
ATOM     26  C   UNL     1       3.180  16.024  12.370  1.00  0.00     0.004 C 
ENDBRANCH  24  25
ENDBRANCH  23  24
ENDBRANCH  22  23
ENDBRANCH  21  22
ENDBRANCH  20  21
ENDBRANCH  19  20
ENDBRANCH  18  19
ENDBRANCH  17  18
ENDBRANCH  16  17
ENDBRANCH  15  16
ENDBRANCH   1  15
TORSDOF 22
ENDMDL
MODEL 2
REMARK VINA RESULT:    -3.602      6.850     11.169
REMARK INTER + INTRA:         -10.564
REMARK INTER:                  -7.554
REMARK INTRA:                  -3.010
REMARK UNBOUND:                -2.329
REMARK SMILES CCCCCCCCCCCCCCCCCCCCCCCC(=O)[O-]
REMARK SMILES IDX 13 1 14 2 15 3 16 4 17 5 18 6 19 7 20 8 21 9 22 10 23 11
REMARK SMILES IDX 24 12 25 13 26 14 12 15 11 16 10 17 9 18 8 19 7 20 6 21 5 22
REMARK SMILES IDX 4 23 3 24 2 25 1 26
REMARK H PARENT
REMARK Flexibility Score: inf
ROOT
ATOM      1  C   UNL     1       5.017  17.069   8.416  1.00  0.00     0.000 C 
ENDROOT
BRANCH   1   2
ATOM      2  C   UNL     1       4.076  16.963   9.626  1.00  0.00     0.000 C 
BRANCH   2   3
ATOM      3  C   UNL     1       4.023  15.545  10.220  1.00  0.00     0.000 C 
BRANCH   3   4
ATOM      4  C   UNL     1       2.624  15.170  10.738  1.00  0.00     0.000 C 
BRANCH   4   5
ATOM      5  C   UNL     1       2.163  16.019  11.942  1.00  0.00     0.000 C 
BRANCH   5   6
ATOM      6  C   UNL     1       1.950  15.167  13.208  1.00  0.00     0.000 C 
BRANCH   6   7
ATOM      7  C   UNL     1       2.888  13.952  13.266  1.00  0.00     0.000 C 
BRANCH   7   8
ATOM      8  C   UNL     1       4.094  14.178  14.190  1.00  0.00     0.000 C 
BRANCH   8   9
ATOM      9  C   UNL     1       5.267  14.797  13.415  1.00  0.00     0.000 C 
BRANCH   9  10
ATOM     10  C   UNL     1       5.916  15.976  14.157  1.00  0.00     0.006 C 
BRANCH  10  11
ATOM     11  C   UNL     1       5.407  17.340  13.667  1.00  0.00     0.053 C 
BRANCH  11  12
ATOM     12  C   UNL     1       4.654  18.041  14.752  1.00  0.00     0.041 C 
ATOM     13  O   UNL     1       4.913  19.242  15.031  1.00  0.00    -0.550 OA
ATOM     14  O   UNL     1       3.661  17.369  15.455  1.00  0.00    -0.550 OA
ENDBRANCH  11  12
ENDBRANCH  10  11
ENDBRANCH   9  10
ENDBRANCH   8   9
ENDBRANCH   7   8
ENDBRANCH   6   7
ENDBRANCH   5   6
ENDBRANCH   4   5
ENDBRANCH   3   4
ENDBRANCH   2   3
ENDBRANCH   1   2
BRANCH   1  15
ATOM     15  C   UNL     1       4.263  17.216   7.085  1.00  0.00     0.000 C 
BRANCH  15  16
ATOM     16  C   UNL     1       2.782  16.851   7.250  1.00  0.00     0.000 C 
BRANCH  16  17
ATOM     17  C   UNL     1       1.875  18.015   6.839  1.00  0.00     0.000 C 
BRANCH  17  18
ATOM     18  C   UNL     1       2.500  18.824   5.696  1.00  0.00    -0.000 C 
BRANCH  18  19
ATOM     19  C   UNL     1       1.918  18.397   4.342  1.00  0.00    -0.000 C 
BRANCH  19  20
ATOM     20  C   UNL     1       2.990  17.891   3.363  1.00  0.00    -0.000 C 
BRANCH  20  21
ATOM     21  C   UNL     1       2.697  16.513   2.739  1.00  0.00    -0.000 C 
BRANCH  21  22
ATOM     22  C   UNL     1       2.192  15.464   3.754  1.00  0.00    -0.000 C 
BRANCH  22  23
ATOM     23  C   UNL     1       3.120  14.238   3.830  1.00  0.00    -0.000 C 
BRANCH  23  24
ATOM     24  C   UNL     1       4.216  14.382   4.901  1.00  0.00    -0.000 C 
BRANCH  24  25
ATOM     25  C   UNL     1       5.649  14.453   4.343  1.00  0.00    -0.003 C 
ATOM     26  C   UNL     1       5.690  14.578   2.819  1.00  0.00     0.004 C 
ENDBRANCH  24  25
ENDBRANCH  23  24
ENDBRANCH  22  23
ENDBRANCH  21  22
ENDBRANCH  20  21
ENDBRANCH  19  20
ENDBRANCH  18  19
ENDBRANCH  17  18
ENDBRANCH  16  17
ENDBRANCH  15  16
ENDBRANCH   1  15
TORSDOF 22
ENDMDL
MODEL 3
REMARK VINA RESULT:    -3.447      1.279      2.101
REMARK INTER + INTRA:         -10.210
REMARK INTER:                  -8.051
REMARK INTRA:                  -2.159
REMARK UNBOUND:                -2.329
REMARK SMILES CCCCCCCCCCCCCCCCCCCCCCCC(=O)[O-]
REMARK SMILES IDX 13 1 14 2 15 3 16 4 17 5 18 6 19 7 20 8 21 9 22 10 23 11
REMARK SMILES IDX 24 12 25 13 26 14 12 15 11 16 10 17 9 18 8 19 7 20 6 21 5 22
REMARK SMILES IDX 4 23 3 24 2 25 1 26
REMARK H PARENT
REMARK Flexibility Score: inf
ROOT
ATOM      1  C   UNL     1       2.690  23.665  14.873  1.00  0.00     0.000 C 
ENDROOT
BRANCH   1   2
ATOM      2  C   UNL     1       2.012  24.503  15.969  1.00  0.00     0.000 C 
BRANCH   2   3
ATOM      3  C   UNL     1       2.434  25.982  15.935  1.00  0.00     0.000 C 
BRANCH   3   4
ATOM      4  C   UNL     1       3.594  26.290  16.898  1.00  0.00     0.000 C 
BRANCH   4   5
ATOM      5  C   UNL     1       4.867  26.801  16.188  1.00  0.00     0.000 C 
BRANCH   5   6
ATOM      6  C   UNL     1       5.568  25.694  15.379  1.00  0.00     0.000 C 
BRANCH   6   7
ATOM      7  C   UNL     1       5.511  25.946  13.864  1.00  0.00     0.000 C 
BRANCH   7   8
ATOM      8  C   UNL     1       5.613  27.436  13.507  1.00  0.00     0.000 C 
BRANCH   8   9
ATOM      9  C   UNL     1       4.635  27.796  12.379  1.00  0.00     0.000 C 
BRANCH   9  10
ATOM     10  C   UNL     1       3.401  28.562  12.882  1.00  0.00     0.006 C 
BRANCH  10  11
ATOM     11  C   UNL     1       2.172  27.659  13.058  1.00  0.00     0.053 C 
BRANCH  11  12
ATOM     12  C   UNL     1       2.097  26.650  11.956  1.00  0.00     0.041 C 
ATOM     13  O   UNL     1       1.875  27.017  10.772  1.00  0.00    -0.550 OA
ATOM     14  O   UNL     1       2.277  25.300  12.237  1.00  0.00    -0.550 OA
ENDBRANCH  11  12
ENDBRANCH  10  11
ENDBRANCH   9  10
ENDBRANCH   8   9
ENDBRANCH   7   8
ENDBRANCH   6   7
ENDBRANCH   5   6
ENDBRANCH   4   5
ENDBRANCH   3   4
ENDBRANCH   2   3
ENDBRANCH   1   2
BRANCH   1  15
ATOM     15  C   UNL     1       1.879  22.417  14.491  1.00  0.00     0.000 C 
BRANCH  15  16
ATOM     16  C   UNL     1       1.882  21.390  15.631  1.00  0.00     0.000 C 
BRANCH  16  17
ATOM     17  C   UNL     1       1.942  19.959  15.087  1.00  0.00     0.000 C 
BRANCH  17  18
ATOM     18  C   UNL     1       3.345  19.363  15.255  1.00  0.00    -0.000 C 
BRANCH  18  19
ATOM     19  C   UNL     1       3.506  18.727  16.643  1.00  0.00    -0.000 C 
BRANCH  19  20
ATOM     20  C   UNL     1       4.718  17.787  16.733  1.00  0.00    -0.000 C 
BRANCH  20  21
ATOM     21  C   UNL     1       4.635  16.535  15.838  1.00  0.00    -0.000 C 
BRANCH  21  22
ATOM     22  C   UNL     1       6.013  15.968  15.430  1.00  0.00    -0.000 C 
BRANCH  22  23
ATOM     23  C   UNL     1       6.124  15.754  13.910  1.00  0.00    -0.000 C 
BRANCH  23  24
ATOM     24  C   UNL     1       5.134  16.618  13.109  1.00  0.00    -0.000 C 
BRANCH  24  25
ATOM     25  C   UNL     1       4.000  15.828  12.431  1.00  0.00    -0.003 C 
ATOM     26  C   UNL     1       2.615  16.414  12.708  1.00  0.00     0.004 C 
ENDBRANCH  24  25
ENDBRANCH  23  24
ENDBRANCH  22  23
ENDBRANCH  21  22
ENDBRANCH  20  21
ENDBRANCH  19  20
ENDBRANCH  18  19
ENDBRANCH  17  18
ENDBRANCH  16  17
ENDBRANCH  15  16
ENDBRANCH   1  15
TORSDOF 22
ENDMDL
MODEL 4
REMARK VINA RESULT:    -3.415      6.920     11.233
REMARK INTER + INTRA:         -10.136
REMARK INTER:                  -7.558
REMARK INTRA:                  -2.578
REMARK UNBOUND:                -2.329
REMARK SMILES CCCCCCCCCCCCCCCCCCCCCCCC(=O)[O-]
REMARK SMILES IDX 13 1 14 2 15 3 16 4 17 5 18 6 19 7 20 8 21 9 22 10 23 11
REMARK SMILES IDX 24 12 25 13 26 14 12 15 11 16 10 17 9 18 8 19 7 20 6 21 5 22
REMARK SMILES IDX 4 23 3 24 2 25 1 26
REMARK H PARENT
REMARK Flexibility Score: inf
ROOT
ATOM      1  C   UNL     1       4.577  17.367   8.952  1.00  0.00     0.000 C 
ENDROOT
BRANCH   1   2
ATOM      2  C   UNL     1       5.084  16.749   7.639  1.00  0.00     0.000 C 
BRANCH   2   3
ATOM      3  C   UNL     1       4.477  15.364   7.359  1.00  0.00     0.000 C 
BRANCH   3   4
ATOM      4  C   UNL     1       2.964  15.421   7.090  1.00  0.00     0.000 C 
BRANCH   4   5
ATOM      5  C   UNL     1       2.542  14.722   5.780  1.00  0.00     0.000 C 
BRANCH   5   6
ATOM      6  C   UNL     1       3.679  13.876   5.178  1.00  0.00     0.000 C 
BRANCH   6   7
ATOM      7  C   UNL     1       4.064  14.326   3.761  1.00  0.00     0.000 C 
BRANCH   7   8
ATOM      8  C   UNL     1       5.193  15.368   3.757  1.00  0.00     0.000 C 
BRANCH   8   9
ATOM      9  C   UNL     1       4.717  16.687   3.130  1.00  0.00     0.000 C 
BRANCH   9  10
ATOM     10  C   UNL     1       4.069  17.633   4.153  1.00  0.00     0.006 C 
BRANCH  10  11
ATOM     11  C   UNL     1       2.561  17.810   3.928  1.00  0.00     0.053 C 
BRANCH  11  12
ATOM     12  C   UNL     1       2.252  17.896   2.468  1.00  0.00     0.041 C 
ATOM     13  O   UNL     1       1.904  16.868   1.830  1.00  0.00    -0.550 OA
ATOM     14  O   UNL     1       2.348  19.116   1.808  1.00  0.00    -0.550 OA
ENDBRANCH  11  12
ENDBRANCH  10  11
ENDBRANCH   9  10
ENDBRANCH   8   9
ENDBRANCH   7   8
ENDBRANCH   6   7
ENDBRANCH   5   6
ENDBRANCH   4   5
ENDBRANCH   3   4
ENDBRANCH   2   3
ENDBRANCH   1   2
BRANCH   1  15
ATOM     15  C   UNL     1       4.021  16.318   9.929  1.00  0.00     0.000 C 
BRANCH  15  16
ATOM     16  C   UNL     1       3.233  16.986  11.062  1.00  0.00     0.000 C 
BRANCH  16  17
ATOM     17  C   UNL     1       2.413  15.958  11.848  1.00  0.00     0.000 C 
BRANCH  17  18
ATOM     18  C   UNL     1       3.183  14.642  12.005  1.00  0.00    -0.000 C 
BRANCH  18  19
ATOM     19  C   UNL     1       3.006  14.071  13.419  1.00  0.00    -0.000 C 
BRANCH  19  20
ATOM     20  C   UNL     1       4.222  14.323  14.324  1.00  0.00    -0.000 C 
BRANCH  20  21
ATOM     21  C   UNL     1       5.386  15.074  13.649  1.00  0.00    -0.000 C 
BRANCH  21  22
ATOM     22  C   UNL     1       6.104  16.076  14.580  1.00  0.00    -0.000 C 
BRANCH  22  23
ATOM     23  C   UNL     1       5.198  16.548  15.732  1.00  0.00    -0.000 C 
BRANCH  23  24
ATOM     24  C   UNL     1       5.071  18.080  15.806  1.00  0.00    -0.000 C 
BRANCH  24  25
ATOM     25  C   UNL     1       4.008  18.678  14.868  1.00  0.00    -0.003 C 
ATOM     26  C   UNL     1       2.643  18.001  15.003  1.00  0.00     0.004 C 
ENDBRANCH  24  25
ENDBRANCH  23  24
ENDBRANCH  22  23
ENDBRANCH  21  22
ENDBRANCH  20  21
ENDBRANCH  19  20
ENDBRANCH  18  19
ENDBRANCH  17  18
ENDBRANCH  16  17
ENDBRANCH  15  16
ENDBRANCH   1  15
TORSDOF 22
ENDMDL
MODEL 5
REMARK VINA RESULT:    -3.407      2.606      5.502
REMARK INTER + INTRA:         -10.119
REMARK INTER:                  -8.553
REMARK INTRA:                  -1.566
REMARK UNBOUND:                -2.329
REMARK SMILES CCCCCCCCCCCCCCCCCCCCCCCC(=O)[O-]
REMARK SMILES IDX 13 1 14 2 15 3 16 4 17 5 18 6 19 7 20 8 21 9 22 10 23 11
REMARK SMILES IDX 24 12 25 13 26 14 12 15 11 16 10 17 9 18 8 19 7 20 6 21 5 22
REMARK SMILES IDX 4 23 3 24 2 25 1 26
REMARK H PARENT
REMARK Flexibility Score: inf
ROOT
ATOM      1  C   UNL     1       4.897  18.314  14.401  1.00  0.00     0.000 C 
ENDROOT
BRANCH   1   2
ATOM      2  C   UNL     1       4.172  19.350  15.275  1.00  0.00     0.000 C 
BRANCH   2   3
ATOM      3  C   UNL     1       2.654  19.115  15.342  1.00  0.00     0.000 C 
BRANCH   3   4
ATOM      4  C   UNL     1       1.875  20.378  15.749  1.00  0.00     0.000 C 
BRANCH   4   5
ATOM      5  C   UNL     1       1.968  21.521  14.715  1.00  0.00     0.000 C 
BRANCH   5   6
ATOM      6  C   UNL     1       2.161  22.895  15.382  1.00  0.00     0.000 C 
BRANCH   6   7
ATOM      7  C   UNL     1       2.721  23.948  14.414  1.00  0.00     0.000 C 
BRANCH   7   8
ATOM      8  C   UNL     1       4.132  24.415  14.798  1.00  0.00     0.000 C 
BRANCH   8   9
ATOM      9  C   UNL     1       4.070  25.657  15.700  1.00  0.00     0.000 C 
BRANCH   9  10
ATOM     10  C   UNL     1       5.082  26.740  15.293  1.00  0.00     0.006 C 
BRANCH  10  11
ATOM     11  C   UNL     1       5.623  26.545  13.870  1.00  0.00     0.053 C 
BRANCH  11  12
ATOM     12  C   UNL     1       5.037  27.559  12.940  1.00  0.00     0.041 C 
ATOM     13  O   UNL     1       5.391  28.766  13.012  1.00  0.00    -0.550 OA
ATOM     14  O   UNL     1       4.099  27.172  11.990  1.00  0.00    -0.550 OA
ENDBRANCH  11  12
ENDBRANCH  10  11
ENDBRANCH   9  10
ENDBRANCH   8   9
ENDBRANCH   7   8
ENDBRANCH   6   7
ENDBRANCH   5   6
ENDBRANCH   4   5
ENDBRANCH   3   4
ENDBRANCH   2   3
ENDBRANCH   1   2
BRANCH   1  15
ATOM     15  C   UNL     1       4.698  16.873  14.896  1.00  0.00     0.000 C 
BRANCH  15  16
ATOM     16  C   UNL     1       5.926  16.009  14.579  1.00  0.00     0.000 C 
BRANCH  16  17
ATOM     17  C   UNL     1       5.634  15.028  13.439  1.00  0.00     0.000 C 
BRANCH  17  18
ATOM     18  C   UNL     1       4.128  14.775  13.300  1.00  0.00    -0.000 C 
BRANCH  18  19
ATOM     19  C   UNL     1       3.667  15.000  11.853  1.00  0.00    -0.000 C 
BRANCH  19  20
ATOM     20  C   UNL     1       3.328  16.469  11.554  1.00  0.00    -0.000 C 
BRANCH  20  21
ATOM     21  C   UNL     1       2.958  16.763  10.088  1.00  0.00    -0.000 C 
BRANCH  21  22
ATOM     22  C   UNL     1       3.515  15.728   9.086  1.00  0.00    -0.000 C 
BRANCH  22  23
ATOM     23  C   UNL     1       3.860  16.364   7.727  1.00  0.00    -0.000 C 
BRANCH  23  24
ATOM     24  C   UNL     1       2.622  16.591   6.841  1.00  0.00    -0.000 C 
BRANCH  24  25
ATOM     25  C   UNL     1       2.484  18.021   6.291  1.00  0.00    -0.003 C 
ATOM     26  C   UNL     1       3.374  19.030   7.019  1.00  0.00     0.004 C 
ENDBRANCH  24  25
ENDBRANCH  23  24
ENDBRANCH  22  23
ENDBRANCH  21  22
ENDBRANCH  20  21
ENDBRANCH  19  20
ENDBRANCH  18  19
ENDBRANCH  17  18
ENDBRANCH  16  17
ENDBRANCH  15  16
ENDBRANCH   1  15
TORSDOF 22
ENDMDL
MODEL 6
REMARK VINA RESULT:    -3.376      3.295      9.930
REMARK INTER + INTRA:         -10.047
REMARK INTER:                  -8.360
REMARK INTRA:                  -1.687
REMARK UNBOUND:                -2.329
REMARK SMILES CCCCCCCCCCCCCCCCCCCCCCCC(=O)[O-]
REMARK SMILES IDX 13 1 14 2 15 3 16 4 17 5 18 6 19 7 20 8 21 9 22 10 23 11
REMARK SMILES IDX 24 12 25 13 26 14 12 15 11 16 10 17 9 18 8 19 7 20 6 21 5 22
REMARK SMILES IDX 4 23 3 24 2 25 1 26
REMARK H PARENT
REMARK Flexibility Score: inf
ROOT
ATOM      1  C   UNL     1       2.872  22.446  15.028  1.00  0.00     0.000 C 
ENDROOT
BRANCH   1   2
ATOM      2  C   UNL     1       1.875  21.284  14.896  1.00  0.00     0.000 C 
BRANCH   2   3
ATOM      3  C   UNL     1       2.308  20.035  15.681  1.00  0.00     0.000 C 
BRANCH   3   4
ATOM      4  C   UNL     1       3.255  19.127  14.878  1.00  0.00     0.000 C 
BRANCH   4   5
ATOM      5  C   UNL     1       4.703  19.116  15.413  1.00  0.00     0.000 C 
BRANCH   5   6
ATOM      6  C   UNL     1       5.128  17.724  15.916  1.00  0.00     0.000 C 
BRANCH   6   7
ATOM      7  C   UNL     1       3.930  16.851  16.319  1.00  0.00     0.000 C 
BRANCH   7   8
ATOM      8  C   UNL     1       4.153  15.362  16.014  1.00  0.00     0.000 C 
BRANCH   8   9
ATOM      9  C   UNL     1       3.959  15.075  14.518  1.00  0.00     0.000 C 
BRANCH   9  10
ATOM     10  C   UNL     1       5.267  15.175  13.717  1.00  0.00     0.006 C 
BRANCH  10  11
ATOM     11  C   UNL     1       5.190  16.201  12.577  1.00  0.00     0.053 C 
BRANCH  11  12
ATOM     12  C   UNL     1       3.871  16.113  11.879  1.00  0.00     0.041 C 
ATOM     13  O   UNL     1       3.621  15.146  11.111  1.00  0.00    -0.550 OA
ATOM     14  O   UNL     1       2.912  17.100  12.077  1.00  0.00    -0.550 OA
ENDBRANCH  11  12
ENDBRANCH  10  11
ENDBRANCH   9  10
ENDBRANCH   8   9
ENDBRANCH   7   8
ENDBRANCH   6   7
ENDBRANCH   5   6
ENDBRANCH   4   5
ENDBRANCH   3   4
ENDBRANCH   2   3
ENDBRANCH   1   2
BRANCH   1  15
ATOM     15  C   UNL     1       2.223  23.818  14.788  1.00  0.00     0.000 C 
BRANCH  15  16
ATOM     16  C   UNL     1       1.882  24.013  13.305  1.00  0.00     0.000 C 
BRANCH  16  17
ATOM     17  C   UNL     1       1.946  25.491  12.910  1.00  0.00     0.000 C 
BRANCH  17  18
ATOM     18  C   UNL     1       2.533  26.341  14.043  1.00  0.00    -0.000 C 
BRANCH  18  19
ATOM     19  C   UNL     1       2.467  27.835  13.698  1.00  0.00    -0.000 C 
BRANCH  19  20
ATOM     20  C   UNL     1       3.158  28.172  12.367  1.00  0.00    -0.000 C 
BRANCH  20  21
ATOM     21  C   UNL     1       4.660  27.837  12.313  1.00  0.00    -0.000 C 
BRANCH  21  22
ATOM     22  C   UNL     1       5.305  27.642  13.704  1.00  0.00    -0.000 C 
BRANCH  22  23
ATOM     23  C   UNL     1       6.002  26.275  13.833  1.00  0.00    -0.000 C 
BRANCH  23  24
ATOM     24  C   UNL     1       6.253  25.867  15.296  1.00  0.00    -0.000 C 
BRANCH  24  25
ATOM     25  C   UNL     1       5.862  26.935  16.332  1.00  0.00    -0.003 C 
ATOM     26  C   UNL     1       4.607  26.567  17.125  1.00  0.00     0.004 C 
ENDBRANCH  24  25
ENDBRANCH  23  24
ENDBRANCH  22  23
ENDBRANCH  21  22
ENDBRANCH  20  21
ENDBRANCH  19  20
ENDBRANCH  18  19
ENDBRANCH  17  18
ENDBRANCH  16  17
ENDBRANCH  15  16
ENDBRANCH   1  15
TORSDOF 22
ENDMDL
MODEL 7
REMARK VINA RESULT:    -3.309      3.439      9.791
REMARK INTER + INTRA:          -9.895
REMARK INTER:                  -7.832
REMARK INTRA:                  -2.062
REMARK UNBOUND:                -2.329
REMARK SMILES CCCCCCCCCCCCCCCCCCCCCCCC(=O)[O-]
REMARK SMILES IDX 13 1 14 2 15 3 16 4 17 5 18 6 19 7 20 8 21 9 22 10 23 11
REMARK SMILES IDX 24 12 25 13 26 14 12 15 11 16 10 17 9 18 8 19 7 20 6 21 5 22
REMARK SMILES IDX 4 23 3 24 2 25 1 26
REMARK H PARENT
REMARK Flexibility Score: inf
ROOT
ATOM      1  C   UNL     1       4.879  18.757  14.981  1.00  0.00     0.000 C 
ENDROOT
BRANCH   1   2
ATOM      2  C   UNL     1       5.391  17.557  14.169  1.00  0.00     0.000 C 
BRANCH   2   3
ATOM      3  C   UNL     1       5.080  16.208  14.839  1.00  0.00     0.000 C 
BRANCH   3   4
ATOM      4  C   UNL     1       5.239  15.017  13.878  1.00  0.00     0.000 C 
BRANCH   4   5
ATOM      5  C   UNL     1       3.897  14.401  13.429  1.00  0.00     0.000 C 
BRANCH   5   6
ATOM      6  C   UNL     1       2.692  15.273  13.831  1.00  0.00     0.000 C 
BRANCH   6   7
ATOM      7  C   UNL     1       1.881  15.753  12.618  1.00  0.00     0.000 C 
BRANCH   7   8
ATOM      8  C   UNL     1       2.589  16.868  11.836  1.00  0.00     0.000 C 
BRANCH   8   9
ATOM      9  C   UNL     1       2.538  16.594  10.325  1.00  0.00     0.000 C 
BRANCH   9  10
ATOM     10  C   UNL     1       2.844  17.842   9.482  1.00  0.00     0.006 C 
BRANCH  10  11
ATOM     11  C   UNL     1       4.027  17.638   8.525  1.00  0.00     0.053 C 
BRANCH  11  12
ATOM     12  C   UNL     1       3.694  18.148   7.160  1.00  0.00     0.041 C 
ATOM     13  O   UNL     1       3.890  17.427   6.146  1.00  0.00    -0.550 OA
ATOM     14  O   UNL     1       3.161  19.423   7.005  1.00  0.00    -0.550 OA
ENDBRANCH  11  12
ENDBRANCH  10  11
ENDBRANCH   9  10
ENDBRANCH   8   9
ENDBRANCH   7   8
ENDBRANCH   6   7
ENDBRANCH   5   6
ENDBRANCH   4   5
ENDBRANCH   3   4
ENDBRANCH   2   3
ENDBRANCH   1   2
BRANCH   1  15
ATOM     15  C   UNL     1       3.998  18.341  16.169  1.00  0.00     0.000 C 
BRANCH  15  16
ATOM     16  C   UNL     1       2.509  18.468  15.821  1.00  0.00     0.000 C 
BRANCH  16  17
ATOM     17  C   UNL     1       2.261  19.641  14.868  1.00  0.00     0.000 C 
BRANCH  17  18
ATOM     18  C   UNL     1       1.963  20.929  15.643  1.00  0.00    -0.000 C 
BRANCH  18  19
ATOM     19  C   UNL     1       1.878  22.132  14.694  1.00  0.00    -0.000 C 
BRANCH  19  20
ATOM     20  C   UNL     1       2.973  23.179  14.954  1.00  0.00    -0.000 C 
BRANCH  20  21
ATOM     21  C   UNL     1       2.461  24.538  15.467  1.00  0.00    -0.000 C 
BRANCH  21  22
ATOM     22  C   UNL     1       3.187  25.752  14.846  1.00  0.00    -0.000 C 
BRANCH  22  23
ATOM     23  C   UNL     1       4.068  25.351  13.649  1.00  0.00    -0.000 C 
BRANCH  23  24
ATOM     24  C   UNL     1       4.048  26.390  12.515  1.00  0.00    -0.000 C 
BRANCH  24  25
ATOM     25  C   UNL     1       3.928  27.850  12.990  1.00  0.00    -0.003 C 
ATOM     26  C   UNL     1       5.280  28.557  13.093  1.00  0.00     0.004 C 
ENDBRANCH  24  25
ENDBRANCH  23  24
ENDBRANCH  22  23
ENDBRANCH  21  22
ENDBRANCH  20  21
ENDBRANCH  19  20
ENDBRANCH  18  19
ENDBRANCH  17  18
ENDBRANCH  16  17
ENDBRANCH  15  16
ENDBRANCH   1  15
TORSDOF 22
ENDMDL
