MODEL 1
REMARK VINA RESULT:    -7.868      0.000      0.000
REMARK INTER + INTRA:          -9.529
REMARK INTER:                  -9.477
REMARK INTRA:                  -0.051
REMARK UNBOUND:                -0.051
REMARK SMILES Oc1cc(O)c2c(c1)O[C@@H](c1ccc(O)c(O)c1)[C@H](O)C2
REMARK SMILES IDX 21 1 19 2 10 3 9 4 7 5 8 6 2 7 3 8 4 9 6 10 20 11 11 13
REMARK SMILES IDX 18 14 12 15 16 16 13 17 14 18 17 19 15 21 5 23 1 25
REMARK H PARENT 20 12 17 20 15 22 5 24 1 26
REMARK Flexibility Score: inf
ROOT
ATOM      1  C   UNL     1       5.748 -55.794 -30.630  1.00  0.00     0.079 C 
ATOM      2  C   UNL     1       4.824 -55.692 -29.402  1.00  0.00     0.164 C 
ATOM      3  C   UNL     1       5.376 -56.551 -28.246  1.00  0.00     0.232 C 
ATOM      4  O   UNL     1       6.711 -56.147 -27.942  1.00  0.00    -0.482 OA
ATOM      5  C   UNL     1       7.626 -55.780 -28.935  1.00  0.00     0.131 A 
ATOM      6  C   UNL     1       8.964 -55.581 -28.583  1.00  0.00     0.093 A 
ATOM      7  C   UNL     1       9.905 -55.229 -29.555  1.00  0.00     0.122 A 
ATOM      8  C   UNL     1       9.507 -55.086 -30.886  1.00  0.00     0.092 A 
ATOM      9  C   UNL     1       8.173 -55.282 -31.259  1.00  0.00     0.126 A 
ATOM     10  C   UNL     1       7.207 -55.596 -30.273  1.00  0.00     0.039 A 
ENDROOT
BRANCH   2  11
ATOM     11  O   UNL     1       3.511 -56.066 -29.737  1.00  0.00    -0.389 OA
ATOM     12  H   UNL     1       2.966 -56.029 -28.908  1.00  0.00     0.211 HD
ENDBRANCH   2  11
BRANCH   3  13
ATOM     13  C   UNL     1       4.513 -56.425 -27.012  1.00  0.00    -0.001 A 
ATOM     14  C   UNL     1       3.713 -55.286 -26.821  1.00  0.00     0.057 A 
ATOM     15  C   UNL     1       4.538 -57.419 -26.020  1.00  0.00     0.012 A 
ATOM     16  C   UNL     1       2.932 -55.150 -25.664  1.00  0.00     0.157 A 
ATOM     17  C   UNL     1       3.760 -57.286 -24.867  1.00  0.00     0.050 A 
ATOM     18  C   UNL     1       2.955 -56.156 -24.684  1.00  0.00     0.157 A 
BRANCH  16  19
ATOM     19  O   UNL     1       2.137 -54.020 -25.486  1.00  0.00    -0.504 OA
ATOM     20  H   UNL     1       1.126 -54.081 -25.453  1.00  0.00     0.293 HD
ENDBRANCH  16  19
BRANCH  18  21
ATOM     21  O   UNL     1       2.188 -56.051 -23.524  1.00  0.00    -0.504 OA
ATOM     22  H   UNL     1       1.189 -55.884 -23.552  1.00  0.00     0.293 HD
ENDBRANCH  18  21
ENDBRANCH   3  13
BRANCH   9  23
ATOM     23  O   UNL     1       7.845 -55.169 -32.612  1.00  0.00    -0.507 OA
ATOM     24  H   UNL     1       6.901 -55.031 -32.946  1.00  0.00     0.293 HD
ENDBRANCH   9  23
BRANCH   7  25
ATOM     25  O   UNL     1      11.240 -55.027 -29.211  1.00  0.00    -0.508 OA
ATOM     26  H   UNL     1      11.524 -54.893 -28.247  1.00  0.00     0.293 HD
ENDBRANCH   7  25
TORSDOF 6
ENDMDL
MODEL 2
REMARK VINA RESULT:    -7.561      1.738      7.206
REMARK INTER + INTRA:          -9.160
REMARK INTER:                  -9.176
REMARK INTRA:                   0.016
REMARK UNBOUND:                -0.051
REMARK SMILES Oc1cc(O)c2c(c1)O[C@@H](c1ccc(O)c(O)c1)[C@H](O)C2
REMARK SMILES IDX 21 1 19 2 10 3 9 4 7 5 8 6 2 7 3 8 4 9 6 10 20 11 11 13
REMARK SMILES IDX 18 14 12 15 16 16 13 17 14 18 17 19 15 21 5 23 1 25
REMARK H PARENT 20 12 17 20 15 22 5 24 1 26
REMARK Flexibility Score: inf
ROOT
ATOM      1  C   UNL     1       3.428 -57.001 -25.358  1.00  0.00     0.079 C 
ATOM      2  C   UNL     1       4.518 -56.904 -26.442  1.00  0.00     0.164 C 
ATOM      3  C   UNL     1       4.033 -56.020 -27.609  1.00  0.00     0.232 C 
ATOM      4  O   UNL     1       3.659 -54.735 -27.115  1.00  0.00    -0.482 OA
ATOM      5  C   UNL     1       2.999 -54.566 -25.892  1.00  0.00     0.131 A 
ATOM      6  C   UNL     1       2.496 -53.305 -25.563  1.00  0.00     0.093 A 
ATOM      7  C   UNL     1       1.819 -53.107 -24.356  1.00  0.00     0.122 A 
ATOM      8  C   UNL     1       1.636 -54.181 -23.480  1.00  0.00     0.092 A 
ATOM      9  C   UNL     1       2.132 -55.451 -23.793  1.00  0.00     0.126 A 
ATOM     10  C   UNL     1       2.856 -55.647 -24.993  1.00  0.00     0.039 A 
ENDROOT
BRANCH   2  11
ATOM     11  O   UNL     1       4.889 -58.185 -26.888  1.00  0.00    -0.389 OA
ATOM     12  H   UNL     1       4.310 -58.845 -26.424  1.00  0.00     0.211 HD
ENDBRANCH   2  11
BRANCH   3  13
ATOM     13  C   UNL     1       5.106 -55.869 -28.662  1.00  0.00    -0.001 A 
ATOM     14  C   UNL     1       4.764 -55.503 -29.974  1.00  0.00     0.057 A 
ATOM     15  C   UNL     1       6.450 -56.138 -28.355  1.00  0.00     0.012 A 
ATOM     16  C   UNL     1       5.752 -55.389 -30.963  1.00  0.00     0.157 A 
ATOM     17  C   UNL     1       7.436 -56.024 -29.338  1.00  0.00     0.050 A 
ATOM     18  C   UNL     1       7.094 -55.649 -30.642  1.00  0.00     0.157 A 
BRANCH  16  19
ATOM     19  O   UNL     1       5.403 -55.020 -32.261  1.00  0.00    -0.504 OA
ATOM     20  H   UNL     1       4.785 -54.239 -32.443  1.00  0.00     0.293 HD
ENDBRANCH  16  19
BRANCH  18  21
ATOM     21  O   UNL     1       8.100 -55.543 -31.602  1.00  0.00    -0.504 OA
ATOM     22  H   UNL     1       9.083 -55.585 -31.359  1.00  0.00     0.293 HD
ENDBRANCH  18  21
ENDBRANCH   3  13
BRANCH   9  23
ATOM     23  O   UNL     1       1.877 -56.493 -22.898  1.00  0.00    -0.507 OA
ATOM     24  H   UNL     1       1.391 -57.341 -23.156  1.00  0.00     0.293 HD
ENDBRANCH   9  23
BRANCH   7  25
ATOM     25  O   UNL     1       1.317 -51.852 -24.019  1.00  0.00    -0.508 OA
ATOM     26  H   UNL     1       0.332 -51.710 -23.828  1.00  0.00     0.293 HD
ENDBRANCH   7  25
TORSDOF 6
ENDMDL
MODEL 3
REMARK VINA RESULT:    -7.545      1.445      7.222
REMARK INTER + INTRA:          -9.140
REMARK INTER:                  -9.407
REMARK INTRA:                   0.266
REMARK UNBOUND:                -0.051
REMARK SMILES Oc1cc(O)c2c(c1)O[C@@H](c1ccc(O)c(O)c1)[C@H](O)C2
REMARK SMILES IDX 21 1 19 2 10 3 9 4 7 5 8 6 2 7 3 8 4 9 6 10 20 11 11 13
REMARK SMILES IDX 18 14 12 15 16 16 13 17 14 18 17 19 15 21 5 23 1 25
REMARK H PARENT 20 12 17 20 15 22 5 24 1 26
REMARK Flexibility Score: inf
ROOT
ATOM      1  C   UNL     1       4.017 -57.173 -25.694  1.00  0.00     0.079 C 
ATOM      2  C   UNL     1       5.193 -56.838 -26.633  1.00  0.00     0.164 C 
ATOM      3  C   UNL     1       4.665 -56.388 -28.010  1.00  0.00     0.232 C 
ATOM      4  O   UNL     1       3.782 -55.279 -27.847  1.00  0.00    -0.482 OA
ATOM      5  C   UNL     1       2.884 -55.188 -26.778  1.00  0.00     0.131 A 
ATOM      6  C   UNL     1       1.923 -54.173 -26.786  1.00  0.00     0.093 A 
ATOM      7  C   UNL     1       1.002 -54.065 -25.739  1.00  0.00     0.122 A 
ATOM      8  C   UNL     1       1.037 -54.983 -24.687  1.00  0.00     0.092 A 
ATOM      9  C   UNL     1       1.991 -56.006 -24.662  1.00  0.00     0.126 A 
ATOM     10  C   UNL     1       2.954 -56.094 -25.696  1.00  0.00     0.039 A 
ENDROOT
BRANCH   2  11
ATOM     11  O   UNL     1       6.061 -57.938 -26.750  1.00  0.00    -0.389 OA
ATOM     12  H   UNL     1       6.903 -57.709 -26.277  1.00  0.00     0.211 HD
ENDBRANCH   2  11
BRANCH   3  13
ATOM     13  C   UNL     1       5.800 -56.005 -28.931  1.00  0.00    -0.001 A 
ATOM     14  C   UNL     1       5.535 -55.593 -30.248  1.00  0.00     0.057 A 
ATOM     15  C   UNL     1       7.132 -56.103 -28.500  1.00  0.00     0.012 A 
ATOM     16  C   UNL     1       6.584 -55.264 -31.116  1.00  0.00     0.157 A 
ATOM     17  C   UNL     1       8.181 -55.775 -29.364  1.00  0.00     0.050 A 
ATOM     18  C   UNL     1       7.914 -55.354 -30.671  1.00  0.00     0.157 A 
BRANCH  16  19
ATOM     19  O   UNL     1       6.312 -54.850 -32.419  1.00  0.00    -0.504 OA
ATOM     20  H   UNL     1       6.962 -55.020 -33.178  1.00  0.00     0.293 HD
ENDBRANCH  16  19
BRANCH  18  21
ATOM     21  O   UNL     1       8.980 -55.032 -31.510  1.00  0.00    -0.504 OA
ATOM     22  H   UNL     1       9.106 -55.474 -32.413  1.00  0.00     0.293 HD
ENDBRANCH  18  21
ENDBRANCH   3  13
BRANCH   9  23
ATOM     23  O   UNL     1       1.946 -56.920 -23.606  1.00  0.00    -0.507 OA
ATOM     24  H   UNL     1       1.352 -57.738 -23.604  1.00  0.00     0.293 HD
ENDBRANCH   9  23
BRANCH   7  25
ATOM     25  O   UNL     1       0.042 -53.055 -25.739  1.00  0.00    -0.508 OA
ATOM     26  H   UNL     1       0.271 -52.108 -26.019  1.00  0.00     0.293 HD
ENDBRANCH   7  25
TORSDOF 6
ENDMDL
MODEL 4
REMARK VINA RESULT:    -7.302      1.969      6.681
REMARK INTER + INTRA:          -8.847
REMARK INTER:                  -9.222
REMARK INTRA:                   0.375
REMARK UNBOUND:                -0.051
REMARK SMILES Oc1cc(O)c2c(c1)O[C@@H](c1ccc(O)c(O)c1)[C@H](O)C2
REMARK SMILES IDX 21 1 19 2 10 3 9 4 7 5 8 6 2 7 3 8 4 9 6 10 20 11 11 13
REMARK SMILES IDX 18 14 12 15 16 16 13 17 14 18 17 19 15 21 5 23 1 25
REMARK H PARENT 20 12 17 20 15 22 5 24 1 26
REMARK Flexibility Score: inf
ROOT
ATOM      1  C   UNL     1       4.220 -56.431 -27.318  1.00  0.00     0.079 C 
ATOM      2  C   UNL     1       4.785 -56.284 -28.744  1.00  0.00     0.164 C 
ATOM      3  C   UNL     1       6.230 -55.747 -28.693  1.00  0.00     0.232 C 
ATOM      4  O   UNL     1       7.034 -56.609 -27.889  1.00  0.00    -0.482 OA
ATOM      5  C   UNL     1       6.553 -57.206 -26.718  1.00  0.00     0.131 A 
ATOM      6  C   UNL     1       7.448 -57.880 -25.885  1.00  0.00     0.093 A 
ATOM      7  C   UNL     1       7.000 -58.475 -24.701  1.00  0.00     0.122 A 
ATOM      8  C   UNL     1       5.651 -58.385 -24.347  1.00  0.00     0.092 A 
ATOM      9  C   UNL     1       4.740 -57.713 -25.169  1.00  0.00     0.126 A 
ATOM     10  C   UNL     1       5.179 -57.147 -26.389  1.00  0.00     0.039 A 
ENDROOT
BRANCH   2  11
ATOM     11  O   UNL     1       3.957 -55.455 -29.521  1.00  0.00    -0.389 OA
ATOM     12  H   UNL     1       4.535 -54.780 -29.963  1.00  0.00     0.211 HD
ENDBRANCH   2  11
BRANCH   3  13
ATOM     13  C   UNL     1       6.823 -55.643 -30.078  1.00  0.00    -0.001 A 
ATOM     14  C   UNL     1       8.172 -55.968 -30.297  1.00  0.00     0.057 A 
ATOM     15  C   UNL     1       6.049 -55.174 -31.152  1.00  0.00     0.012 A 
ATOM     16  C   UNL     1       8.736 -55.845 -31.574  1.00  0.00     0.157 A 
ATOM     17  C   UNL     1       6.609 -55.052 -32.427  1.00  0.00     0.050 A 
ATOM     18  C   UNL     1       7.950 -55.387 -32.644  1.00  0.00     0.157 A 
BRANCH  16  19
ATOM     19  O   UNL     1      10.074 -56.176 -31.783  1.00  0.00    -0.504 OA
ATOM     20  H   UNL     1      10.404 -57.130 -31.704  1.00  0.00     0.293 HD
ENDBRANCH  16  19
BRANCH  18  21
ATOM     21  O   UNL     1       8.481 -55.256 -33.927  1.00  0.00    -0.504 OA
ATOM     22  H   UNL     1       8.563 -56.044 -34.559  1.00  0.00     0.293 HD
ENDBRANCH  18  21
ENDBRANCH   3  13
BRANCH   9  23
ATOM     23  O   UNL     1       3.414 -57.618 -24.738  1.00  0.00    -0.507 OA
ATOM     24  H   UNL     1       3.144 -57.191 -23.863  1.00  0.00     0.293 HD
ENDBRANCH   9  23
BRANCH   7  25
ATOM     25  O   UNL     1       7.886 -59.151 -23.866  1.00  0.00    -0.508 OA
ATOM     26  H   UNL     1       8.219 -58.739 -23.001  1.00  0.00     0.293 HD
ENDBRANCH   7  25
TORSDOF 6
ENDMDL
MODEL 5
REMARK VINA RESULT:    -6.994      2.049      7.114
REMARK INTER + INTRA:          -8.477
REMARK INTER:                  -8.816
REMARK INTRA:                   0.339
REMARK UNBOUND:                -0.051
REMARK SMILES Oc1cc(O)c2c(c1)O[C@@H](c1ccc(O)c(O)c1)[C@H](O)C2
REMARK SMILES IDX 21 1 19 2 10 3 9 4 7 5 8 6 2 7 3 8 4 9 6 10 20 11 11 13
REMARK SMILES IDX 18 14 12 15 16 16 13 17 14 18 17 19 15 21 5 23 1 25
REMARK H PARENT 20 12 17 20 15 22 5 24 1 26
REMARK Flexibility Score: inf
ROOT
ATOM      1  C   UNL     1       4.589 -55.270 -29.990  1.00  0.00     0.079 C 
ATOM      2  C   UNL     1       5.765 -55.349 -30.982  1.00  0.00     0.164 C 
ATOM      3  C   UNL     1       7.085 -54.980 -30.277  1.00  0.00     0.232 C 
ATOM      4  O   UNL     1       7.282 -55.833 -29.150  1.00  0.00    -0.482 OA
ATOM      5  C   UNL     1       6.228 -56.236 -28.322  1.00  0.00     0.131 A 
ATOM      6  C   UNL     1       6.521 -56.911 -27.135  1.00  0.00     0.093 A 
ATOM      7  C   UNL     1       5.490 -57.314 -26.279  1.00  0.00     0.122 A 
ATOM      8  C   UNL     1       4.163 -57.030 -26.611  1.00  0.00     0.092 A 
ATOM      9  C   UNL     1       3.851 -56.354 -27.796  1.00  0.00     0.126 A 
ATOM     10  C   UNL     1       4.886 -55.983 -28.687  1.00  0.00     0.039 A 
ENDROOT
BRANCH   2  11
ATOM     11  O   UNL     1       5.529 -54.524 -32.095  1.00  0.00    -0.389 OA
ATOM     12  H   UNL     1       4.723 -53.977 -31.900  1.00  0.00     0.211 HD
ENDBRANCH   2  11
BRANCH   3  13
ATOM     13  C   UNL     1       8.260 -55.100 -31.219  1.00  0.00    -0.001 A 
ATOM     14  C   UNL     1       8.049 -55.365 -32.583  1.00  0.00     0.057 A 
ATOM     15  C   UNL     1       9.574 -54.999 -30.737  1.00  0.00     0.012 A 
ATOM     16  C   UNL     1       9.136 -55.508 -33.457  1.00  0.00     0.157 A 
ATOM     17  C   UNL     1      10.660 -55.140 -31.606  1.00  0.00     0.050 A 
ATOM     18  C   UNL     1      10.447 -55.392 -32.965  1.00  0.00     0.157 A 
BRANCH  16  19
ATOM     19  O   UNL     1       8.918 -55.764 -34.809  1.00  0.00    -0.504 OA
ATOM     20  H   UNL     1       8.835 -55.015 -35.486  1.00  0.00     0.293 HD
ENDBRANCH  16  19
BRANCH  18  21
ATOM     21  O   UNL     1      11.549 -55.527 -33.810  1.00  0.00    -0.504 OA
ATOM     22  H   UNL     1      11.667 -56.330 -34.416  1.00  0.00     0.293 HD
ENDBRANCH  18  21
ENDBRANCH   3  13
BRANCH   9  23
ATOM     23  O   UNL     1       2.509 -56.060 -28.049  1.00  0.00    -0.507 OA
ATOM     24  H   UNL     1       1.922 -56.619 -28.653  1.00  0.00     0.293 HD
ENDBRANCH   9  23
BRANCH   7  25
ATOM     25  O   UNL     1       5.773 -57.989 -25.095  1.00  0.00    -0.508 OA
ATOM     26  H   UNL     1       5.049 -58.470 -24.573  1.00  0.00     0.293 HD
ENDBRANCH   7  25
TORSDOF 6
ENDMDL
MODEL 6
REMARK VINA RESULT:    -6.981      2.151      3.929
REMARK INTER + INTRA:          -8.461
REMARK INTER:                  -8.830
REMARK INTRA:                   0.369
REMARK UNBOUND:                -0.051
REMARK SMILES Oc1cc(O)c2c(c1)O[C@@H](c1ccc(O)c(O)c1)[C@H](O)C2
REMARK SMILES IDX 21 1 19 2 10 3 9 4 7 5 8 6 2 7 3 8 4 9 6 10 20 11 11 13
REMARK SMILES IDX 18 14 12 15 16 16 13 17 14 18 17 19 15 21 5 23 1 25
REMARK H PARENT 20 12 17 20 15 22 5 24 1 26
REMARK Flexibility Score: inf
ROOT
ATOM      1  C   UNL     1       5.512 -56.557 -26.717  1.00  0.00     0.079 C 
ATOM      2  C   UNL     1       4.114 -56.668 -26.077  1.00  0.00     0.164 C 
ATOM      3  C   UNL     1       3.281 -55.410 -26.392  1.00  0.00     0.232 C 
ATOM      4  O   UNL     1       3.206 -55.225 -27.805  1.00  0.00    -0.482 OA
ATOM      5  C   UNL     1       4.290 -55.480 -28.653  1.00  0.00     0.131 A 
ATOM      6  C   UNL     1       4.206 -55.098 -29.994  1.00  0.00     0.093 A 
ATOM      7  C   UNL     1       5.278 -55.325 -30.862  1.00  0.00     0.122 A 
ATOM      8  C   UNL     1       6.443 -55.928 -30.381  1.00  0.00     0.092 A 
ATOM      9  C   UNL     1       6.547 -56.317 -29.042  1.00  0.00     0.126 A 
ATOM     10  C   UNL     1       5.448 -56.130 -28.168  1.00  0.00     0.039 A 
ENDROOT
BRANCH   2  11
ATOM     11  O   UNL     1       4.220 -56.880 -24.691  1.00  0.00    -0.389 OA
ATOM     12  H   UNL     1       3.807 -56.100 -24.235  1.00  0.00     0.211 HD
ENDBRANCH   2  11
BRANCH   3  13
ATOM     13  C   UNL     1       1.888 -55.519 -25.818  1.00  0.00    -0.001 A 
ATOM     14  C   UNL     1       0.907 -54.571 -26.154  1.00  0.00     0.057 A 
ATOM     15  C   UNL     1       1.571 -56.538 -24.906  1.00  0.00     0.012 A 
ATOM     16  C   UNL     1      -0.379 -54.650 -25.602  1.00  0.00     0.157 A 
ATOM     17  C   UNL     1       0.289 -56.620 -24.354  1.00  0.00     0.050 A 
ATOM     18  C   UNL     1      -0.689 -55.681 -24.699  1.00  0.00     0.157 A 
BRANCH  16  19
ATOM     19  O   UNL     1      -1.348 -53.708 -25.945  1.00  0.00    -0.504 OA
ATOM     20  H   UNL     1      -1.807 -53.139 -25.245  1.00  0.00     0.293 HD
ENDBRANCH  16  19
BRANCH  18  21
ATOM     21  O   UNL     1      -1.960 -55.788 -24.134  1.00  0.00    -0.504 OA
ATOM     22  H   UNL     1      -2.098 -56.065 -23.170  1.00  0.00     0.293 HD
ENDBRANCH  18  21
ENDBRANCH   3  13
BRANCH   9  23
ATOM     23  O   UNL     1       7.753 -56.874 -28.611  1.00  0.00    -0.507 OA
ATOM     24  H   UNL     1       7.899 -57.868 -28.501  1.00  0.00     0.293 HD
ENDBRANCH   9  23
BRANCH   7  25
ATOM     25  O   UNL     1       5.200 -54.949 -32.201  1.00  0.00    -0.508 OA
ATOM     26  H   UNL     1       5.555 -55.546 -32.940  1.00  0.00     0.293 HD
ENDBRANCH   7  25
TORSDOF 6
ENDMDL
MODEL 7
REMARK VINA RESULT:    -6.913     10.192     12.127
REMARK INTER + INTRA:          -8.379
REMARK INTER:                  -8.283
REMARK INTRA:                  -0.096
REMARK UNBOUND:                -0.051
REMARK SMILES Oc1cc(O)c2c(c1)O[C@@H](c1ccc(O)c(O)c1)[C@H](O)C2
REMARK SMILES IDX 21 1 19 2 10 3 9 4 7 5 8 6 2 7 3 8 4 9 6 10 20 11 11 13
REMARK SMILES IDX 18 14 12 15 16 16 13 17 14 18 17 19 15 21 5 23 1 25
REMARK H PARENT 20 12 17 20 15 22 5 24 1 26
REMARK Flexibility Score: inf
ROOT
ATOM      1  C   UNL     1      -4.004 -57.880 -33.053  1.00  0.00     0.079 C 
ATOM      2  C   UNL     1      -3.324 -57.025 -34.139  1.00  0.00     0.164 C 
ATOM      3  C   UNL     1      -1.794 -57.206 -34.081  1.00  0.00     0.232 C 
ATOM      4  O   UNL     1      -1.469 -58.589 -34.214  1.00  0.00    -0.482 OA
ATOM      5  C   UNL     1      -2.236 -59.599 -33.622  1.00  0.00     0.131 A 
ATOM      6  C   UNL     1      -1.754 -60.910 -33.634  1.00  0.00     0.093 A 
ATOM      7  C   UNL     1      -2.491 -61.938 -33.038  1.00  0.00     0.122 A 
ATOM      8  C   UNL     1      -3.709 -61.649 -32.418  1.00  0.00     0.092 A 
ATOM      9  C   UNL     1      -4.208 -60.342 -32.396  1.00  0.00     0.126 A 
ATOM     10  C   UNL     1      -3.488 -59.304 -33.035  1.00  0.00     0.039 A 
ENDROOT
BRANCH   2  11
ATOM     11  O   UNL     1      -3.685 -55.673 -34.002  1.00  0.00    -0.389 OA
ATOM     12  H   UNL     1      -3.259 -55.328 -33.174  1.00  0.00     0.211 HD
ENDBRANCH   2  11
BRANCH   3  13
ATOM     13  C   UNL     1      -1.109 -56.415 -35.171  1.00  0.00    -0.001 A 
ATOM     14  C   UNL     1      -0.878 -55.038 -35.009  1.00  0.00     0.057 A 
ATOM     15  C   UNL     1      -0.739 -57.033 -36.376  1.00  0.00     0.012 A 
ATOM     16  C   UNL     1      -0.270 -54.293 -36.028  1.00  0.00     0.157 A 
ATOM     17  C   UNL     1      -0.131 -56.292 -37.394  1.00  0.00     0.050 A 
ATOM     18  C   UNL     1       0.107 -54.924 -37.225  1.00  0.00     0.157 A 
BRANCH  16  19
ATOM     19  O   UNL     1      -0.040 -52.929 -35.856  1.00  0.00    -0.504 OA
ATOM     20  H   UNL     1       0.895 -52.559 -35.729  1.00  0.00     0.293 HD
ENDBRANCH  16  19
BRANCH  18  21
ATOM     21  O   UNL     1       0.716 -54.210 -38.257  1.00  0.00    -0.504 OA
ATOM     22  H   UNL     1       1.674 -53.886 -38.195  1.00  0.00     0.293 HD
ENDBRANCH  18  21
ENDBRANCH   3  13
BRANCH   9  23
ATOM     23  O   UNL     1      -5.409 -60.109 -31.722  1.00  0.00    -0.507 OA
ATOM     24  H   UNL     1      -6.315 -60.167 -32.166  1.00  0.00     0.293 HD
ENDBRANCH   9  23
BRANCH   7  25
ATOM     25  O   UNL     1      -2.019 -63.249 -33.047  1.00  0.00    -0.508 OA
ATOM     26  H   UNL     1      -2.623 -64.028 -33.281  1.00  0.00     0.293 HD
ENDBRANCH   7  25
TORSDOF 6
ENDMDL
MODEL 8
REMARK VINA RESULT:    -6.873      3.022      7.604
REMARK INTER + INTRA:          -8.331
REMARK INTER:                  -8.121
REMARK INTRA:                  -0.210
REMARK UNBOUND:                -0.051
REMARK SMILES Oc1cc(O)c2c(c1)O[C@@H](c1ccc(O)c(O)c1)[C@H](O)C2
REMARK SMILES IDX 21 1 19 2 10 3 9 4 7 5 8 6 2 7 3 8 4 9 6 10 20 11 11 13
REMARK SMILES IDX 18 14 12 15 16 16 13 17 14 18 17 19 15 21 5 23 1 25
REMARK H PARENT 20 12 17 20 15 22 5 24 1 26
REMARK Flexibility Score: inf
ROOT
ATOM      1  C   UNL     1       1.373 -54.298 -23.935  1.00  0.00     0.079 C 
ATOM      2  C   UNL     1       2.243 -55.134 -24.893  1.00  0.00     0.164 C 
ATOM      3  C   UNL     1       2.538 -54.338 -26.180  1.00  0.00     0.232 C 
ATOM      4  O   UNL     1       3.158 -53.097 -25.845  1.00  0.00    -0.482 OA
ATOM      5  C   UNL     1       2.779 -52.349 -24.725  1.00  0.00     0.131 A 
ATOM      6  C   UNL     1       3.295 -51.060 -24.566  1.00  0.00     0.093 A 
ATOM      7  C   UNL     1       2.924 -50.282 -23.465  1.00  0.00     0.122 A 
ATOM      8  C   UNL     1       2.025 -50.793 -22.526  1.00  0.00     0.092 A 
ATOM      9  C   UNL     1       1.497 -52.081 -22.669  1.00  0.00     0.126 A 
ATOM     10  C   UNL     1       1.903 -52.890 -23.757  1.00  0.00     0.039 A 
ENDROOT
BRANCH   2  11
ATOM     11  O   UNL     1       1.621 -56.362 -25.181  1.00  0.00    -0.389 OA
ATOM     12  H   UNL     1       1.829 -56.591 -26.125  1.00  0.00     0.211 HD
ENDBRANCH   2  11
BRANCH   3  13
ATOM     13  C   UNL     1       3.433 -55.119 -27.113  1.00  0.00    -0.001 A 
ATOM     14  C   UNL     1       4.461 -55.926 -26.597  1.00  0.00     0.057 A 
ATOM     15  C   UNL     1       3.281 -55.011 -28.505  1.00  0.00     0.012 A 
ATOM     16  C   UNL     1       5.313 -56.631 -27.458  1.00  0.00     0.157 A 
ATOM     17  C   UNL     1       4.129 -55.713 -29.365  1.00  0.00     0.050 A 
ATOM     18  C   UNL     1       5.145 -56.525 -28.849  1.00  0.00     0.157 A 
BRANCH  16  19
ATOM     19  O   UNL     1       6.327 -57.434 -26.937  1.00  0.00    -0.504 OA
ATOM     20  H   UNL     1       7.120 -57.720 -27.499  1.00  0.00     0.293 HD
ENDBRANCH  16  19
BRANCH  18  21
ATOM     21  O   UNL     1       5.975 -57.215 -29.732  1.00  0.00    -0.504 OA
ATOM     22  H   UNL     1       6.725 -57.814 -29.408  1.00  0.00     0.293 HD
ENDBRANCH  18  21
ENDBRANCH   3  13
BRANCH   9  23
ATOM     23  O   UNL     1       0.569 -52.519 -21.721  1.00  0.00    -0.507 OA
ATOM     24  H   UNL     1      -0.062 -53.293 -21.878  1.00  0.00     0.293 HD
ENDBRANCH   9  23
BRANCH   7  25
ATOM     25  O   UNL     1       3.435 -48.997 -23.298  1.00  0.00    -0.508 OA
ATOM     26  H   UNL     1       4.194 -48.650 -23.875  1.00  0.00     0.293 HD
ENDBRANCH   7  25
TORSDOF 6
ENDMDL
MODEL 9
REMARK VINA RESULT:    -6.716      3.113      8.549
REMARK INTER + INTRA:          -8.142
REMARK INTER:                  -7.816
REMARK INTRA:                  -0.325
REMARK UNBOUND:                -0.051
REMARK SMILES Oc1cc(O)c2c(c1)O[C@@H](c1ccc(O)c(O)c1)[C@H](O)C2
REMARK SMILES IDX 21 1 19 2 10 3 9 4 7 5 8 6 2 7 3 8 4 9 6 10 20 11 11 13
REMARK SMILES IDX 18 14 12 15 16 16 13 17 14 18 17 19 15 21 5 23 1 25
REMARK H PARENT 20 12 17 20 15 22 5 24 1 26
REMARK Flexibility Score: inf
ROOT
ATOM      1  C   UNL     1       1.171 -53.149 -24.531  1.00  0.00     0.079 C 
ATOM      2  C   UNL     1       2.188 -53.593 -25.599  1.00  0.00     0.164 C 
ATOM      3  C   UNL     1       2.423 -55.115 -25.513  1.00  0.00     0.232 C 
ATOM      4  O   UNL     1       1.179 -55.801 -25.647  1.00  0.00    -0.482 OA
ATOM      5  C   UNL     1      -0.005 -55.322 -25.074  1.00  0.00     0.131 A 
ATOM      6  C   UNL     1      -1.139 -56.138 -25.083  1.00  0.00     0.093 A 
ATOM      7  C   UNL     1      -2.333 -55.694 -24.505  1.00  0.00     0.122 A 
ATOM      8  C   UNL     1      -2.387 -54.432 -23.908  1.00  0.00     0.092 A 
ATOM      9  C   UNL     1      -1.261 -53.601 -23.888  1.00  0.00     0.126 A 
ATOM     10  C   UNL     1      -0.063 -54.027 -24.510  1.00  0.00     0.039 A 
ENDROOT
BRANCH   2  11
ATOM     11  O   UNL     1       3.392 -52.880 -25.463  1.00  0.00    -0.389 OA
ATOM     12  H   UNL     1       3.168 -51.968 -25.141  1.00  0.00     0.211 HD
ENDBRANCH   2  11
BRANCH   3  13
ATOM     13  C   UNL     1       3.379 -55.581 -26.587  1.00  0.00    -0.001 A 
ATOM     14  C   UNL     1       4.500 -56.357 -26.248  1.00  0.00     0.057 A 
ATOM     15  C   UNL     1       3.187 -55.204 -27.925  1.00  0.00     0.012 A 
ATOM     16  C   UNL     1       5.407 -56.768 -27.234  1.00  0.00     0.157 A 
ATOM     17  C   UNL     1       4.089 -55.614 -28.911  1.00  0.00     0.050 A 
ATOM     18  C   UNL     1       5.198 -56.396 -28.573  1.00  0.00     0.157 A 
BRANCH  16  19
ATOM     19  O   UNL     1       6.513 -57.543 -26.890  1.00  0.00    -0.504 OA
ATOM     20  H   UNL     1       7.248 -57.184 -26.292  1.00  0.00     0.293 HD
ENDBRANCH  16  19
BRANCH  18  21
ATOM     21  O   UNL     1       6.081 -56.791 -29.578  1.00  0.00    -0.504 OA
ATOM     22  H   UNL     1       7.084 -56.811 -29.436  1.00  0.00     0.293 HD
ENDBRANCH  18  21
ENDBRANCH   3  13
BRANCH   9  23
ATOM     23  O   UNL     1      -1.365 -52.370 -23.236  1.00  0.00    -0.507 OA
ATOM     24  H   UNL     1      -2.071 -51.681 -23.459  1.00  0.00     0.293 HD
ENDBRANCH   9  23
BRANCH   7  25
ATOM     25  O   UNL     1      -3.469 -56.500 -24.512  1.00  0.00    -0.508 OA
ATOM     26  H   UNL     1      -3.583 -57.249 -25.186  1.00  0.00     0.293 HD
ENDBRANCH   7  25
TORSDOF 6
ENDMDL
