MODEL 1
REMARK VINA RESULT:    -4.522      0.000      0.000
REMARK INTER + INTRA:          -4.522
REMARK INTER:                  -4.522
REMARK INTRA:                   0.000
REMARK UNBOUND:                 0.000
REMARK SMILES O=c1ccc2ccccc2o1
REMARK SMILES IDX 7 1 8 2 9 3 10 4 5 5 6 6 4 7 3 8 2 9 1 10 11 11
REMARK H PARENT
REMARK Flexibility Score: inf
ROOT
ATOM      1  C   UNL     1      -9.124 -15.132 -22.377  1.00  0.00     0.001 A 
ATOM      2  C   UNL     1      -8.237 -14.215 -21.801  1.00  0.00     0.004 A 
ATOM      3  C   UNL     1      -6.882 -14.536 -21.667  1.00  0.00     0.048 A 
ATOM      4  C   UNL     1      -6.409 -15.777 -22.109  1.00  0.00     0.138 A 
ATOM      5  C   UNL     1      -7.305 -16.702 -22.690  1.00  0.00     0.018 A 
ATOM      6  C   UNL     1      -8.662 -16.375 -22.821  1.00  0.00     0.012 A 
ATOM      7  C   UNL     1      -6.804 -17.934 -23.122  1.00  0.00     0.019 A 
ATOM      8  C   UNL     1      -5.446 -18.212 -22.968  1.00  0.00     0.094 A 
ATOM      9  C   UNL     1      -4.618 -17.247 -22.383  1.00  0.00     0.336 A 
ATOM     10  O   UNL     1      -3.389 -17.480 -22.236  1.00  0.00    -0.246 OA
ATOM     11  O   UNL     1      -5.120 -16.082 -21.980  1.00  0.00    -0.423 OA
ENDROOT
TORSDOF 0
ENDMDL
MODEL 2
REMARK VINA RESULT:    -4.378     20.609     22.036
REMARK INTER + INTRA:          -4.378
REMARK INTER:                  -4.378
REMARK INTRA:                   0.000
REMARK UNBOUND:                 0.000
REMARK SMILES O=c1ccc2ccccc2o1
REMARK SMILES IDX 7 1 8 2 9 3 10 4 5 5 6 6 4 7 3 8 2 9 1 10 11 11
REMARK H PARENT
REMARK Flexibility Score: inf
ROOT
ATOM      1  C   UNL     1      -4.429  -1.246  -6.938  1.00  0.00     0.001 A 
ATOM      2  C   UNL     1      -5.302  -2.177  -7.513  1.00  0.00     0.004 A 
ATOM      3  C   UNL     1      -5.720  -3.294  -6.782  1.00  0.00     0.048 A 
ATOM      4  C   UNL     1      -5.266  -3.484  -5.472  1.00  0.00     0.138 A 
ATOM      5  C   UNL     1      -4.386  -2.543  -4.892  1.00  0.00     0.018 A 
ATOM      6  C   UNL     1      -3.969  -1.426  -5.629  1.00  0.00     0.012 A 
ATOM      7  C   UNL     1      -3.949  -2.760  -3.581  1.00  0.00     0.019 A 
ATOM      8  C   UNL     1      -4.391  -3.887  -2.890  1.00  0.00     0.094 A 
ATOM      9  C   UNL     1      -5.263  -4.776  -3.529  1.00  0.00     0.336 A 
ATOM     10  O   UNL     1      -5.674  -5.800  -2.921  1.00  0.00    -0.246 OA
ATOM     11  O   UNL     1      -5.664  -4.547  -4.777  1.00  0.00    -0.423 OA
ENDROOT
TORSDOF 0
ENDMDL
MODEL 3
REMARK VINA RESULT:    -4.113     21.087     22.230
REMARK INTER + INTRA:          -4.113
REMARK INTER:                  -4.113
REMARK INTRA:                   0.000
REMARK UNBOUND:                 0.000
REMARK SMILES O=c1ccc2ccccc2o1
REMARK SMILES IDX 7 1 8 2 9 3 10 4 5 5 6 6 4 7 3 8 2 9 1 10 11 11
REMARK H PARENT
REMARK Flexibility Score: inf
ROOT
ATOM      1  C   UNL     1      -5.200  -4.575  -3.410  1.00  0.00     0.001 A 
ATOM      2  C   UNL     1      -4.209  -3.745  -2.875  1.00  0.00     0.004 A 
ATOM      3  C   UNL     1      -3.750  -2.639  -3.600  1.00  0.00     0.048 A 
ATOM      4  C   UNL     1      -4.282  -2.360  -4.864  1.00  0.00     0.138 A 
ATOM      5  C   UNL     1      -5.284  -3.200  -5.403  1.00  0.00     0.018 A 
ATOM      6  C   UNL     1      -5.739  -4.306  -4.672  1.00  0.00     0.012 A 
ATOM      7  C   UNL     1      -5.796  -2.896  -6.668  1.00  0.00     0.019 A 
ATOM      8  C   UNL     1      -5.310  -1.785  -7.356  1.00  0.00     0.094 A 
ATOM      9  C   UNL     1      -4.317  -0.999  -6.759  1.00  0.00     0.336 A 
ATOM     10  O   UNL     1      -3.865   0.008  -7.364  1.00  0.00    -0.246 OA
ATOM     11  O   UNL     1      -3.846  -1.309  -5.553  1.00  0.00    -0.423 OA
ENDROOT
TORSDOF 0
ENDMDL
MODEL 4
REMARK VINA RESULT:    -4.088     12.893     13.291
REMARK INTER + INTRA:          -4.088
REMARK INTER:                  -4.088
REMARK INTRA:                   0.000
REMARK UNBOUND:                 0.000
REMARK SMILES O=c1ccc2ccccc2o1
REMARK SMILES IDX 7 1 8 2 9 3 10 4 5 5 6 6 4 7 3 8 2 9 1 10 11 11
REMARK H PARENT
REMARK Flexibility Score: inf
ROOT
ATOM      1  C   UNL     1      -7.229 -20.057 -11.783  1.00  0.00     0.001 A 
ATOM      2  C   UNL     1      -8.219 -19.152 -11.382  1.00  0.00     0.004 A 
ATOM      3  C   UNL     1      -7.983 -18.276 -10.317  1.00  0.00     0.048 A 
ATOM      4  C   UNL     1      -6.753 -18.301  -9.648  1.00  0.00     0.138 A 
ATOM      5  C   UNL     1      -5.754 -19.215 -10.054  1.00  0.00     0.018 A 
ATOM      6  C   UNL     1      -5.997 -20.091 -11.121  1.00  0.00     0.012 A 
ATOM      7  C   UNL     1      -4.536 -19.217  -9.366  1.00  0.00     0.019 A 
ATOM      8  C   UNL     1      -4.344 -18.327  -8.311  1.00  0.00     0.094 A 
ATOM      9  C   UNL     1      -5.379 -17.451  -7.965  1.00  0.00     0.336 A 
ATOM     10  O   UNL     1      -5.224 -16.639  -7.015  1.00  0.00    -0.246 OA
ATOM     11  O   UNL     1      -6.529 -17.468  -8.635  1.00  0.00    -0.423 OA
ENDROOT
TORSDOF 0
ENDMDL
MODEL 5
REMARK VINA RESULT:    -4.084      1.488      4.237
REMARK INTER + INTRA:          -4.084
REMARK INTER:                  -4.084
REMARK INTRA:                   0.000
REMARK UNBOUND:                 0.000
REMARK SMILES O=c1ccc2ccccc2o1
REMARK SMILES IDX 7 1 8 2 9 3 10 4 5 5 6 6 4 7 3 8 2 9 1 10 11 11
REMARK H PARENT
REMARK Flexibility Score: inf
ROOT
ATOM      1  C   UNL     1      -3.335 -19.778 -22.460  1.00  0.00     0.001 A 
ATOM      2  C   UNL     1      -2.684 -18.720 -21.817  1.00  0.00     0.004 A 
ATOM      3  C   UNL     1      -3.348 -17.505 -21.611  1.00  0.00     0.048 A 
ATOM      4  C   UNL     1      -4.667 -17.345 -22.049  1.00  0.00     0.138 A 
ATOM      5  C   UNL     1      -5.325 -18.415 -22.698  1.00  0.00     0.018 A 
ATOM      6  C   UNL     1      -4.654 -19.629 -22.902  1.00  0.00     0.012 A 
ATOM      7  C   UNL     1      -6.643 -18.225 -23.125  1.00  0.00     0.019 A 
ATOM      8  C   UNL     1      -7.266 -16.998 -22.900  1.00  0.00     0.094 A 
ATOM      9  C   UNL     1      -6.552 -15.984 -22.249  1.00  0.00     0.336 A 
ATOM     10  O   UNL     1      -7.098 -14.870 -22.037  1.00  0.00    -0.246 OA
ATOM     11  O   UNL     1      -5.298 -16.190 -21.854  1.00  0.00    -0.423 OA
ENDROOT
TORSDOF 0
ENDMDL
MODEL 6
REMARK VINA RESULT:    -4.070     20.792     22.119
REMARK INTER + INTRA:          -4.070
REMARK INTER:                  -4.070
REMARK INTRA:                   0.000
REMARK UNBOUND:                 0.000
REMARK SMILES O=c1ccc2ccccc2o1
REMARK SMILES IDX 7 1 8 2 9 3 10 4 5 5 6 6 4 7 3 8 2 9 1 10 11 11
REMARK H PARENT
REMARK Flexibility Score: inf
ROOT
ATOM      1  C   UNL     1      -3.871  -3.626  -2.936  1.00  0.00     0.001 A 
ATOM      2  C   UNL     1      -4.923  -4.492  -3.253  1.00  0.00     0.004 A 
ATOM      3  C   UNL     1      -5.658  -4.306  -4.429  1.00  0.00     0.048 A 
ATOM      4  C   UNL     1      -5.343  -3.251  -5.293  1.00  0.00     0.138 A 
ATOM      5  C   UNL     1      -4.280  -2.377  -4.972  1.00  0.00     0.018 A 
ATOM      6  C   UNL     1      -3.547  -2.568  -3.792  1.00  0.00     0.012 A 
ATOM      7  C   UNL     1      -3.988  -1.332  -5.855  1.00  0.00     0.019 A 
ATOM      8  C   UNL     1      -4.747  -1.183  -7.015  1.00  0.00     0.094 A 
ATOM      9  C   UNL     1      -5.785  -2.088  -7.267  1.00  0.00     0.336 A 
ATOM     10  O   UNL     1      -6.481  -1.971  -8.310  1.00  0.00    -0.246 OA
ATOM     11  O   UNL     1      -6.042  -3.074  -6.411  1.00  0.00    -0.423 OA
ENDROOT
TORSDOF 0
ENDMDL
MODEL 7
REMARK VINA RESULT:    -3.968      1.862      4.573
REMARK INTER + INTRA:          -3.968
REMARK INTER:                  -3.968
REMARK INTRA:                   0.000
REMARK UNBOUND:                 0.000
REMARK SMILES O=c1ccc2ccccc2o1
REMARK SMILES IDX 7 1 8 2 9 3 10 4 5 5 6 6 4 7 3 8 2 9 1 10 11 11
REMARK H PARENT
REMARK Flexibility Score: inf
ROOT
ATOM      1  C   UNL     1      -3.310 -18.792 -22.221  1.00  0.00     0.001 A 
ATOM      2  C   UNL     1      -4.132 -19.750 -22.825  1.00  0.00     0.004 A 
ATOM      3  C   UNL     1      -5.465 -19.446 -23.123  1.00  0.00     0.048 A 
ATOM      4  C   UNL     1      -5.980 -18.182 -22.818  1.00  0.00     0.138 A 
ATOM      5  C   UNL     1      -5.150 -17.214 -22.208  1.00  0.00     0.018 A 
ATOM      6  C   UNL     1      -3.815 -17.525 -21.911  1.00  0.00     0.012 A 
ATOM      7  C   UNL     1      -5.693 -15.960 -21.915  1.00  0.00     0.019 A 
ATOM      8  C   UNL     1      -7.026 -15.701 -22.229  1.00  0.00     0.094 A 
ATOM      9  C   UNL     1      -7.789 -16.707 -22.833  1.00  0.00     0.336 A 
ATOM     10  O   UNL     1      -8.995 -16.492 -23.125  1.00  0.00    -0.246 OA
ATOM     11  O   UNL     1      -7.248 -17.893 -23.102  1.00  0.00    -0.423 OA
ENDROOT
TORSDOF 0
ENDMDL
MODEL 8
REMARK VINA RESULT:    -3.964      3.304      5.982
REMARK INTER + INTRA:          -3.964
REMARK INTER:                  -3.964
REMARK INTRA:                   0.000
REMARK UNBOUND:                 0.000
REMARK SMILES O=c1ccc2ccccc2o1
REMARK SMILES IDX 7 1 8 2 9 3 10 4 5 5 6 6 4 7 3 8 2 9 1 10 11 11
REMARK H PARENT
REMARK Flexibility Score: inf
ROOT
ATOM      1  C   UNL     1      -0.274 -20.124 -21.271  1.00  0.00     0.001 A 
ATOM      2  C   UNL     1      -0.474 -19.373 -20.106  1.00  0.00     0.004 A 
ATOM      3  C   UNL     1      -1.638 -18.614 -19.950  1.00  0.00     0.048 A 
ATOM      4  C   UNL     1      -2.608 -18.601 -20.959  1.00  0.00     0.138 A 
ATOM      5  C   UNL     1      -2.406 -19.360 -22.134  1.00  0.00     0.018 A 
ATOM      6  C   UNL     1      -1.237 -20.119 -22.286  1.00  0.00     0.012 A 
ATOM      7  C   UNL     1      -3.392 -19.328 -23.125  1.00  0.00     0.019 A 
ATOM      8  C   UNL     1      -4.536 -18.556 -22.927  1.00  0.00     0.094 A 
ATOM      9  C   UNL     1      -4.668 -17.831 -21.737  1.00  0.00     0.336 A 
ATOM     10  O   UNL     1      -5.694 -17.128 -21.540  1.00  0.00    -0.246 OA
ATOM     11  O   UNL     1      -3.715 -17.878 -20.810  1.00  0.00    -0.423 OA
ENDROOT
TORSDOF 0
ENDMDL
MODEL 9
REMARK VINA RESULT:    -3.791     14.289     14.795
REMARK INTER + INTRA:          -3.791
REMARK INTER:                  -3.791
REMARK INTRA:                   0.000
REMARK UNBOUND:                 0.000
REMARK SMILES O=c1ccc2ccccc2o1
REMARK SMILES IDX 7 1 8 2 9 3 10 4 5 5 6 6 4 7 3 8 2 9 1 10 11 11
REMARK H PARENT
REMARK Flexibility Score: inf
ROOT
ATOM      1  C   UNL     1      -4.641 -16.385  -5.877  1.00  0.00     0.001 A 
ATOM      2  C   UNL     1      -6.040 -16.364  -5.902  1.00  0.00     0.004 A 
ATOM      3  C   UNL     1      -6.738 -17.108  -6.860  1.00  0.00     0.048 A 
ATOM      4  C   UNL     1      -6.038 -17.876  -7.797  1.00  0.00     0.138 A 
ATOM      5  C   UNL     1      -4.625 -17.896  -7.772  1.00  0.00     0.018 A 
ATOM      6  C   UNL     1      -3.931 -17.148  -6.810  1.00  0.00     0.012 A 
ATOM      7  C   UNL     1      -3.953 -18.672  -8.721  1.00  0.00     0.019 A 
ATOM      8  C   UNL     1      -4.689 -19.397  -9.657  1.00  0.00     0.094 A 
ATOM      9  C   UNL     1      -6.087 -19.329  -9.622  1.00  0.00     0.336 A 
ATOM     10  O   UNL     1      -6.769 -19.977 -10.459  1.00  0.00    -0.246 OA
ATOM     11  O   UNL     1      -6.702 -18.583  -8.708  1.00  0.00    -0.423 OA
ENDROOT
TORSDOF 0
ENDMDL
