MODEL 1
REMARK VINA RESULT:    -2.134      0.000      0.000
REMARK INTER + INTRA:          -4.886
REMARK INTER:                  -3.257
REMARK INTRA:                  -1.629
REMARK UNBOUND:                -1.629
REMARK SMILES CCCCCCCCCC=CC(=O)[O-]
REMARK SMILES IDX 7 1 8 2 9 3 10 4 11 5 12 6 13 7 14 8 6 9 5 10 4 11 3 12 2 13
REMARK SMILES IDX 1 14
REMARK H PARENT
REMARK Flexibility Score: inf
ROOT
ATOM      1  C   UNL     1      -0.269   6.488  14.658  1.00  0.00     0.000 C 
ENDROOT
BRANCH   1   2
ATOM      2  C   UNL     1       1.135   5.873  14.775  1.00  0.00     0.004 C 
BRANCH   2   3
ATOM      3  C   UNL     1       2.214   6.894  14.394  1.00  0.00     0.027 C 
BRANCH   3   4
ATOM      4  C   UNL     1       1.755   8.298  14.666  1.00  0.00    -0.025 C 
ATOM      5  C   UNL     1       2.592   9.227  15.138  1.00  0.00     0.020 C 
BRANCH   5   6
ATOM      6  C   UNL     1       2.161  10.609  15.396  1.00  0.00     0.064 C 
ATOM      7  O   UNL     1       1.909  10.973  16.574  1.00  0.00    -0.545 OA
ATOM      8  O   UNL     1       2.027  11.523  14.356  1.00  0.00    -0.545 OA
ENDBRANCH   5   6
ENDBRANCH   3   4
ENDBRANCH   2   3
ENDBRANCH   1   2
BRANCH   1   9
ATOM      9  C   UNL     1      -1.326   5.711  15.459  1.00  0.00     0.000 C 
BRANCH   9  10
ATOM     10  C   UNL     1      -1.603   6.341  16.835  1.00  0.00     0.000 C 
BRANCH  10  11
ATOM     11  C   UNL     1      -1.313   7.853  16.871  1.00  0.00    -0.000 C 
BRANCH  11  12
ATOM     12  C   UNL     1      -0.193   8.281  17.837  1.00  0.00    -0.000 C 
BRANCH  12  13
ATOM     13  C   UNL     1       0.584   7.091  18.418  1.00  0.00    -0.003 C 
ATOM     14  C   UNL     1       2.089   7.289  18.263  1.00  0.00     0.004 C 
ENDBRANCH  12  13
ENDBRANCH  11  12
ENDBRANCH  10  11
ENDBRANCH   9  10
ENDBRANCH   1   9
TORSDOF 9
ENDMDL
MODEL 2
REMARK VINA RESULT:    -2.053      0.677      1.424
REMARK INTER + INTRA:          -4.763
REMARK INTER:                  -3.103
REMARK INTRA:                  -1.659
REMARK UNBOUND:                -1.629
REMARK SMILES CCCCCCCCCC=CC(=O)[O-]
REMARK SMILES IDX 7 1 8 2 9 3 10 4 11 5 12 6 13 7 14 8 6 9 5 10 4 11 3 12 2 13
REMARK SMILES IDX 1 14
REMARK H PARENT
REMARK Flexibility Score: inf
ROOT
ATOM      1  C   UNL     1      -1.179   6.161  15.335  1.00  0.00     0.000 C 
ENDROOT
BRANCH   1   2
ATOM      2  C   UNL     1       0.263   5.665  15.149  1.00  0.00     0.004 C 
BRANCH   2   3
ATOM      3  C   UNL     1       1.066   6.633  14.272  1.00  0.00     0.027 C 
BRANCH   3   4
ATOM      4  C   UNL     1       0.980   8.039  14.792  1.00  0.00    -0.025 C 
ATOM      5  C   UNL     1       2.071   8.796  14.943  1.00  0.00     0.020 C 
BRANCH   5   6
ATOM      6  C   UNL     1       2.001  10.179  15.438  1.00  0.00     0.064 C 
ATOM      7  O   UNL     1       2.020  11.134  14.620  1.00  0.00    -0.545 OA
ATOM      8  O   UNL     1       1.913  10.449  16.800  1.00  0.00    -0.545 OA
ENDBRANCH   5   6
ENDBRANCH   3   4
ENDBRANCH   2   3
ENDBRANCH   1   2
BRANCH   1   9
ATOM      9  C   UNL     1      -1.610   6.197  16.811  1.00  0.00     0.000 C 
BRANCH   9  10
ATOM     10  C   UNL     1      -1.771   7.631  17.343  1.00  0.00     0.000 C 
BRANCH  10  11
ATOM     11  C   UNL     1      -0.504   8.155  18.045  1.00  0.00    -0.000 C 
BRANCH  11  12
ATOM     12  C   UNL     1       0.413   7.068  18.634  1.00  0.00    -0.000 C 
BRANCH  12  13
ATOM     13  C   UNL     1       1.905   7.372  18.439  1.00  0.00    -0.003 C 
ATOM     14  C   UNL     1       2.640   6.170  17.851  1.00  0.00     0.004 C 
ENDBRANCH  12  13
ENDBRANCH  11  12
ENDBRANCH  10  11
ENDBRANCH   9  10
ENDBRANCH   1   9
TORSDOF 9
ENDMDL
MODEL 3
REMARK VINA RESULT:    -1.997      2.344      4.100
REMARK INTER + INTRA:          -4.676
REMARK INTER:                  -2.967
REMARK INTRA:                  -1.709
REMARK UNBOUND:                -1.629
REMARK SMILES CCCCCCCCCC=CC(=O)[O-]
REMARK SMILES IDX 7 1 8 2 9 3 10 4 11 5 12 6 13 7 14 8 6 9 5 10 4 11 3 12 2 13
REMARK SMILES IDX 1 14
REMARK H PARENT
REMARK Flexibility Score: inf
ROOT
ATOM      1  C   UNL     1       1.393   6.976  14.203  1.00  0.00     0.000 C 
ENDROOT
BRANCH   1   2
ATOM      2  C   UNL     1      -0.079   7.316  14.484  1.00  0.00     0.004 C 
BRANCH   2   3
ATOM      3  C   UNL     1      -0.804   6.126  15.124  1.00  0.00     0.027 C 
BRANCH   3   4
ATOM      4  C   UNL     1      -1.429   6.510  16.434  1.00  0.00    -0.025 C 
ATOM      5  C   UNL     1      -1.511   7.786  16.821  1.00  0.00     0.020 C 
BRANCH   5   6
ATOM      6  C   UNL     1      -2.133   8.179  18.094  1.00  0.00     0.064 C 
ATOM      7  O   UNL     1      -1.731   9.211  18.691  1.00  0.00    -0.545 OA
ATOM      8  O   UNL     1      -3.161   7.426  18.652  1.00  0.00    -0.545 OA
ENDBRANCH   5   6
ENDBRANCH   3   4
ENDBRANCH   2   3
ENDBRANCH   1   2
BRANCH   1   9
ATOM      9  C   UNL     1       2.358   8.079  14.667  1.00  0.00     0.000 C 
BRANCH   9  10
ATOM     10  C   UNL     1       1.622   9.302  15.241  1.00  0.00     0.000 C 
BRANCH  10  11
ATOM     11  C   UNL     1       1.794   9.444  16.765  1.00  0.00    -0.000 C 
BRANCH  11  12
ATOM     12  C   UNL     1       2.638   8.344  17.432  1.00  0.00    -0.000 C 
BRANCH  12  13
ATOM     13  C   UNL     1       1.800   7.381  18.286  1.00  0.00    -0.003 C 
ATOM     14  C   UNL     1       1.978   5.938  17.822  1.00  0.00     0.004 C 
ENDBRANCH  12  13
ENDBRANCH  11  12
ENDBRANCH  10  11
ENDBRANCH   9  10
ENDBRANCH   1   9
TORSDOF 9
ENDMDL
MODEL 4
REMARK VINA RESULT:    -1.987      1.165      2.249
REMARK INTER + INTRA:          -4.661
REMARK INTER:                  -2.988
REMARK INTRA:                  -1.674
REMARK UNBOUND:                -1.629
REMARK SMILES CCCCCCCCCC=CC(=O)[O-]
REMARK SMILES IDX 7 1 8 2 9 3 10 4 11 5 12 6 13 7 14 8 6 9 5 10 4 11 3 12 2 13
REMARK SMILES IDX 1 14
REMARK H PARENT
REMARK Flexibility Score: inf
ROOT
ATOM      1  C   UNL     1      -1.033   5.080  15.929  1.00  0.00     0.000 C 
ENDROOT
BRANCH   1   2
ATOM      2  C   UNL     1      -1.086   6.257  14.943  1.00  0.00     0.004 C 
BRANCH   2   3
ATOM      3  C   UNL     1       0.326   6.703  14.545  1.00  0.00     0.027 C 
BRANCH   3   4
ATOM      4  C   UNL     1       0.531   8.166  14.815  1.00  0.00    -0.025 C 
ATOM      5  C   UNL     1       1.681   8.629  15.314  1.00  0.00     0.020 C 
BRANCH   5   6
ATOM      6  C   UNL     1       1.902  10.060  15.571  1.00  0.00     0.064 C 
ATOM      7  O   UNL     1       2.046  10.850  14.603  1.00  0.00    -0.545 OA
ATOM      8  O   UNL     1       1.955  10.555  16.869  1.00  0.00    -0.545 OA
ENDBRANCH   5   6
ENDBRANCH   3   4
ENDBRANCH   2   3
ENDBRANCH   1   2
BRANCH   1   9
ATOM      9  C   UNL     1       0.397   4.759  16.394  1.00  0.00     0.000 C 
BRANCH   9  10
ATOM     10  C   UNL     1       0.596   5.002  17.900  1.00  0.00     0.000 C 
BRANCH  10  11
ATOM     11  C   UNL     1      -0.372   6.056  18.469  1.00  0.00    -0.000 C 
BRANCH  11  12
ATOM     12  C   UNL     1       0.211   7.474  18.604  1.00  0.00    -0.000 C 
BRANCH  12  13
ATOM     13  C   UNL     1      -0.781   8.571  18.194  1.00  0.00    -0.003 C 
ATOM     14  C   UNL     1      -2.188   8.004  18.020  1.00  0.00     0.004 C 
ENDBRANCH  12  13
ENDBRANCH  11  12
ENDBRANCH  10  11
ENDBRANCH   9  10
ENDBRANCH   1   9
TORSDOF 9
ENDMDL
MODEL 5
REMARK VINA RESULT:    -1.922      3.180      4.707
REMARK INTER + INTRA:          -4.562
REMARK INTER:                  -2.930
REMARK INTRA:                  -1.632
REMARK UNBOUND:                -1.629
REMARK SMILES CCCCCCCCCC=CC(=O)[O-]
REMARK SMILES IDX 7 1 8 2 9 3 10 4 11 5 12 6 13 7 14 8 6 9 5 10 4 11 3 12 2 13
REMARK SMILES IDX 1 14
REMARK H PARENT
REMARK Flexibility Score: inf
ROOT
ATOM      1  C   UNL     1       2.443   8.117  14.844  1.00  0.00     0.000 C 
ENDROOT
BRANCH   1   2
ATOM      2  C   UNL     1       1.349   7.217  14.248  1.00  0.00     0.004 C 
BRANCH   2   3
ATOM      3  C   UNL     1      -0.047   7.741  14.607  1.00  0.00     0.027 C 
BRANCH   3   4
ATOM      4  C   UNL     1      -0.841   6.707  15.351  1.00  0.00    -0.025 C 
ATOM      5  C   UNL     1      -0.493   5.417  15.340  1.00  0.00     0.020 C 
BRANCH   5   6
ATOM      6  C   UNL     1      -1.253   4.395  16.075  1.00  0.00     0.064 C 
ATOM      7  O   UNL     1      -1.963   4.735  17.057  1.00  0.00    -0.545 OA
ATOM      8  O   UNL     1      -1.199   3.056  15.703  1.00  0.00    -0.545 OA
ENDBRANCH   5   6
ENDBRANCH   3   4
ENDBRANCH   2   3
ENDBRANCH   1   2
BRANCH   1   9
ATOM      9  C   UNL     1       1.987   9.576  15.010  1.00  0.00     0.000 C 
BRANCH   9  10
ATOM     10  C   UNL     1       2.096  10.065  16.465  1.00  0.00     0.000 C 
BRANCH  10  11
ATOM     11  C   UNL     1       2.138   8.911  17.483  1.00  0.00    -0.000 C 
BRANCH  11  12
ATOM     12  C   UNL     1       0.795   8.588  18.161  1.00  0.00    -0.000 C 
BRANCH  12  13
ATOM     13  C   UNL     1       0.697   7.131  18.635  1.00  0.00    -0.003 C 
ATOM     14  C   UNL     1       1.847   6.295  18.080  1.00  0.00     0.004 C 
ENDBRANCH  12  13
ENDBRANCH  11  12
ENDBRANCH  10  11
ENDBRANCH   9  10
ENDBRANCH   1   9
TORSDOF 9
ENDMDL
MODEL 6
REMARK VINA RESULT:    -1.896      2.803      4.374
REMARK INTER + INTRA:          -4.522
REMARK INTER:                  -3.187
REMARK INTRA:                  -1.335
REMARK UNBOUND:                -1.629
REMARK SMILES CCCCCCCCCC=CC(=O)[O-]
REMARK SMILES IDX 7 1 8 2 9 3 10 4 11 5 12 6 13 7 14 8 6 9 5 10 4 11 3 12 2 13
REMARK SMILES IDX 1 14
REMARK H PARENT
REMARK Flexibility Score: inf
ROOT
ATOM      1  C   UNL     1      -1.506   5.321  15.695  1.00  0.00     0.000 C 
ENDROOT
BRANCH   1   2
ATOM      2  C   UNL     1      -2.003   5.456  17.142  1.00  0.00     0.004 C 
BRANCH   2   3
ATOM      3  C   UNL     1      -1.375   6.677  17.825  1.00  0.00     0.027 C 
BRANCH   3   4
ATOM      4  C   UNL     1      -2.166   7.923  17.550  1.00  0.00    -0.025 C 
ATOM      5  C   UNL     1      -2.568   8.728  18.538  1.00  0.00     0.020 C 
BRANCH   5   6
ATOM      6  C   UNL     1      -3.332   9.958  18.283  1.00  0.00     0.064 C 
ATOM      7  O   UNL     1      -3.156  10.963  19.020  1.00  0.00    -0.545 OA
ATOM      8  O   UNL     1      -4.247  10.029  17.239  1.00  0.00    -0.545 OA
ENDBRANCH   5   6
ENDBRANCH   3   4
ENDBRANCH   2   3
ENDBRANCH   1   2
BRANCH   1   9
ATOM      9  C   UNL     1      -0.004   5.004  15.609  1.00  0.00     0.000 C 
BRANCH   9  10
ATOM     10  C   UNL     1       0.754   5.980  14.693  1.00  0.00     0.000 C 
BRANCH  10  11
ATOM     11  C   UNL     1       0.002   7.307  14.481  1.00  0.00    -0.000 C 
BRANCH  11  12
ATOM     12  C   UNL     1       0.698   8.552  15.061  1.00  0.00    -0.000 C 
BRANCH  12  13
ATOM     13  C   UNL     1       1.738   8.210  16.137  1.00  0.00    -0.003 C 
ATOM     14  C   UNL     1       1.536   9.063  17.387  1.00  0.00     0.004 C 
ENDBRANCH  12  13
ENDBRANCH  11  12
ENDBRANCH  10  11
ENDBRANCH   9  10
ENDBRANCH   1   9
TORSDOF 9
ENDMDL
MODEL 7
REMARK VINA RESULT:    -1.894      1.444      2.583
REMARK INTER + INTRA:          -4.519
REMARK INTER:                  -3.258
REMARK INTRA:                  -1.261
REMARK UNBOUND:                -1.629
REMARK SMILES CCCCCCCCCC=CC(=O)[O-]
REMARK SMILES IDX 7 1 8 2 9 3 10 4 11 5 12 6 13 7 14 8 6 9 5 10 4 11 3 12 2 13
REMARK SMILES IDX 1 14
REMARK H PARENT
REMARK Flexibility Score: inf
ROOT
ATOM      1  C   UNL     1       1.506   7.380  14.477  1.00  0.00     0.000 C 
ENDROOT
BRANCH   1   2
ATOM      2  C   UNL     1       2.286   8.287  15.441  1.00  0.00     0.004 C 
BRANCH   2   3
ATOM      3  C   UNL     1       2.492   9.681  14.837  1.00  0.00     0.027 C 
BRANCH   3   4
ATOM      4  C   UNL     1       2.215  10.758  15.845  1.00  0.00    -0.025 C 
ATOM      5  C   UNL     1       1.858  10.465  17.099  1.00  0.00     0.020 C 
BRANCH   5   6
ATOM      6  C   UNL     1       1.597  11.509  18.102  1.00  0.00     0.064 C 
ATOM      7  O   UNL     1       1.175  12.635  17.732  1.00  0.00    -0.545 OA
ATOM      8  O   UNL     1       1.811  11.271  19.456  1.00  0.00    -0.545 OA
ENDBRANCH   5   6
ENDBRANCH   3   4
ENDBRANCH   2   3
ENDBRANCH   1   2
BRANCH   1   9
ATOM      9  C   UNL     1      -0.016   7.582  14.571  1.00  0.00     0.000 C 
BRANCH   9  10
ATOM     10  C   UNL     1      -0.754   6.306  15.010  1.00  0.00     0.000 C 
BRANCH  10  11
ATOM     11  C   UNL     1      -1.308   6.399  16.444  1.00  0.00    -0.000 C 
BRANCH  11  12
ATOM     12  C   UNL     1      -1.541   7.829  16.964  1.00  0.00    -0.000 C 
BRANCH  12  13
ATOM     13  C   UNL     1      -0.760   8.133  18.250  1.00  0.00    -0.003 C 
ATOM     14  C   UNL     1       0.389   7.148  18.443  1.00  0.00     0.004 C 
ENDBRANCH  12  13
ENDBRANCH  11  12
ENDBRANCH  10  11
ENDBRANCH   9  10
ENDBRANCH   1   9
TORSDOF 9
ENDMDL
MODEL 8
REMARK VINA RESULT:    -1.844      2.970      4.921
REMARK INTER + INTRA:          -4.443
REMARK INTER:                  -2.928
REMARK INTRA:                  -1.515
REMARK UNBOUND:                -1.629
REMARK SMILES CCCCCCCCCC=CC(=O)[O-]
REMARK SMILES IDX 7 1 8 2 9 3 10 4 11 5 12 6 13 7 14 8 6 9 5 10 4 11 3 12 2 13
REMARK SMILES IDX 1 14
REMARK H PARENT
REMARK Flexibility Score: inf
ROOT
ATOM      1  C   UNL     1       1.539   8.020  17.072  1.00  0.00     0.000 C 
ENDROOT
BRANCH   1   2
ATOM      2  C   UNL     1       0.401   8.580  17.939  1.00  0.00     0.004 C 
BRANCH   2   3
ATOM      3  C   UNL     1      -0.416   7.446  18.572  1.00  0.00     0.027 C 
BRANCH   3   4
ATOM      4  C   UNL     1      -1.890   7.708  18.459  1.00  0.00    -0.025 C 
ATOM      5  C   UNL     1      -2.368   8.945  18.295  1.00  0.00     0.020 C 
BRANCH   5   6
ATOM      6  C   UNL     1      -3.808   9.216  18.169  1.00  0.00     0.064 C 
ATOM      7  O   UNL     1      -4.620   8.638  18.937  1.00  0.00    -0.545 OA
ATOM      8  O   UNL     1      -4.289  10.103  17.212  1.00  0.00    -0.545 OA
ENDBRANCH   5   6
ENDBRANCH   3   4
ENDBRANCH   2   3
ENDBRANCH   1   2
BRANCH   1   9
ATOM      9  C   UNL     1       1.434   8.454  15.601  1.00  0.00     0.000 C 
BRANCH   9  10
ATOM     10  C   UNL     1       0.055   8.146  14.993  1.00  0.00     0.000 C 
BRANCH  10  11
ATOM     11  C   UNL     1      -0.114   6.664  14.611  1.00  0.00    -0.000 C 
BRANCH  11  12
ATOM     12  C   UNL     1      -1.300   5.948  15.282  1.00  0.00    -0.000 C 
BRANCH  12  13
ATOM     13  C   UNL     1      -0.877   4.703  16.075  1.00  0.00    -0.003 C 
ATOM     14  C   UNL     1       0.641   4.550  16.090  1.00  0.00     0.004 C 
ENDBRANCH  12  13
ENDBRANCH  11  12
ENDBRANCH  10  11
ENDBRANCH   9  10
ENDBRANCH   1   9
TORSDOF 9
ENDMDL
MODEL 9
REMARK VINA RESULT:    -1.834      1.186      2.950
REMARK INTER + INTRA:          -4.428
REMARK INTER:                  -2.756
REMARK INTRA:                  -1.672
REMARK UNBOUND:                -1.629
REMARK SMILES CCCCCCCCCC=CC(=O)[O-]
REMARK SMILES IDX 7 1 8 2 9 3 10 4 11 5 12 6 13 7 14 8 6 9 5 10 4 11 3 12 2 13
REMARK SMILES IDX 1 14
REMARK H PARENT
REMARK Flexibility Score: inf
ROOT
ATOM      1  C   UNL     1       1.233   5.244  17.786  1.00  0.00     0.000 C 
ENDROOT
BRANCH   1   2
ATOM      2  C   UNL     1       1.821   6.646  18.015  1.00  0.00     0.004 C 
BRANCH   2   3
ATOM      3  C   UNL     1       0.719   7.648  18.381  1.00  0.00     0.027 C 
BRANCH   3   4
ATOM      4  C   UNL     1       0.809   8.888  17.538  1.00  0.00    -0.025 C 
ATOM      5  C   UNL     1       1.987   9.371  17.131  1.00  0.00     0.020 C 
BRANCH   5   6
ATOM      6  C   UNL     1       2.090  10.576  16.293  1.00  0.00     0.064 C 
ATOM      7  O   UNL     1       2.359  11.682  16.827  1.00  0.00    -0.545 OA
ATOM      8  O   UNL     1       1.895  10.511  14.918  1.00  0.00    -0.545 OA
ENDBRANCH   5   6
ENDBRANCH   3   4
ENDBRANCH   2   3
ENDBRANCH   1   2
BRANCH   1   9
ATOM      9  C   UNL     1      -0.286   5.268  17.549  1.00  0.00     0.000 C 
BRANCH   9  10
ATOM     10  C   UNL     1      -0.659   4.946  16.092  1.00  0.00     0.000 C 
BRANCH  10  11
ATOM     11  C   UNL     1      -1.199   6.170  15.328  1.00  0.00    -0.000 C 
BRANCH  11  12
ATOM     12  C   UNL     1      -0.134   7.000  14.589  1.00  0.00    -0.000 C 
BRANCH  12  13
ATOM     13  C   UNL     1       1.113   6.184  14.221  1.00  0.00    -0.003 C 
ATOM     14  C   UNL     1       2.370   7.048  14.272  1.00  0.00     0.004 C 
ENDBRANCH  12  13
ENDBRANCH  11  12
ENDBRANCH  10  11
ENDBRANCH   9  10
ENDBRANCH   1   9
TORSDOF 9
ENDMDL
