MODEL 1
REMARK VINA RESULT:    -3.401      0.000      0.000
REMARK INTER + INTRA:          -3.973
REMARK INTER:                  -3.898
REMARK INTRA:                  -0.075
REMARK UNBOUND:                -0.075
REMARK SMILES CC(C)[C@H]([NH3+])C(=O)[O-]
REMARK SMILES IDX 4 1 5 2 6 6 7 7 8 8 2 9 1 10 3 11
REMARK H PARENT 5 3 5 4 5 5
REMARK Flexibility Score: inf
ROOT
ATOM      1  C   UNL     1       4.434   7.128  -0.162  1.00  0.00     0.230 C 
ENDROOT
BRANCH   1   2
ATOM      2  N   UNL     1       3.430   6.627  -1.112  1.00  0.00    -0.350 N 
ATOM      3  H   UNL     1       3.848   6.549  -2.069  1.00  0.00     0.345 HD
ATOM      4  H   UNL     1       3.078   5.687  -0.817  1.00  0.00     0.345 HD
ATOM      5  H   UNL     1       2.630   7.297  -1.180  1.00  0.00     0.345 HD
ENDBRANCH   1   2
BRANCH   1   6
ATOM      6  C   UNL     1       5.370   6.005   0.214  1.00  0.00     0.099 C 
ATOM      7  O   UNL     1       4.946   5.024   0.880  1.00  0.00    -0.544 OA
ATOM      8  O   UNL     1       6.703   6.045  -0.175  1.00  0.00    -0.544 OA
ENDBRANCH   1   6
BRANCH   1   9
ATOM      9  C   UNL     1       3.772   7.743   1.110  1.00  0.00     0.047 C 
ATOM     10  C   UNL     1       4.795   8.541   1.940  1.00  0.00     0.014 C 
ATOM     11  C   UNL     1       2.589   8.658   0.755  1.00  0.00     0.014 C 
ENDBRANCH   1   9
TORSDOF 3
ENDMDL
MODEL 2
REMARK VINA RESULT:    -3.254      3.940      4.587
REMARK INTER + INTRA:          -3.805
REMARK INTER:                  -3.809
REMARK INTRA:                   0.004
REMARK UNBOUND:                -0.075
REMARK SMILES CC(C)[C@H]([NH3+])C(=O)[O-]
REMARK SMILES IDX 4 1 5 2 6 6 7 7 8 8 2 9 1 10 3 11
REMARK H PARENT 5 3 5 4 5 5
REMARK Flexibility Score: inf
ROOT
ATOM      1  C   UNL     1       7.078   3.704   1.811  1.00  0.00     0.230 C 
ENDROOT
BRANCH   1   2
ATOM      2  N   UNL     1       7.253   2.886   0.602  1.00  0.00    -0.350 N 
ATOM      3  H   UNL     1       6.385   2.919   0.017  1.00  0.00     0.345 HD
ATOM      4  H   UNL     1       8.060   3.233   0.033  1.00  0.00     0.345 HD
ATOM      5  H   UNL     1       7.410   1.886   0.861  1.00  0.00     0.345 HD
ENDBRANCH   1   2
BRANCH   1   6
ATOM      6  C   UNL     1       7.135   2.813   3.027  1.00  0.00     0.099 C 
ATOM      7  O   UNL     1       6.526   1.712   3.034  1.00  0.00    -0.544 OA
ATOM      8  O   UNL     1       7.861   3.202   4.146  1.00  0.00    -0.544 OA
ENDBRANCH   1   6
BRANCH   1   9
ATOM      9  C   UNL     1       5.741   4.508   1.778  1.00  0.00     0.047 C 
ATOM     10  C   UNL     1       5.550   5.323   3.070  1.00  0.00     0.014 C 
ATOM     11  C   UNL     1       5.673   5.457   0.570  1.00  0.00     0.014 C 
ENDBRANCH   1   9
TORSDOF 3
ENDMDL
MODEL 3
REMARK VINA RESULT:    -3.251      3.603      4.437
REMARK INTER + INTRA:          -3.801
REMARK INTER:                  -3.743
REMARK INTRA:                  -0.058
REMARK UNBOUND:                -0.075
REMARK SMILES CC(C)[C@H]([NH3+])C(=O)[O-]
REMARK SMILES IDX 4 1 5 2 6 6 7 7 8 8 2 9 1 10 3 11
REMARK H PARENT 5 3 5 4 5 5
REMARK Flexibility Score: inf
ROOT
ATOM      1  C   UNL     1       1.864   8.371  -0.083  1.00  0.00     0.230 C 
ENDROOT
BRANCH   1   2
ATOM      2  N   UNL     1       2.713   7.375  -0.753  1.00  0.00    -0.350 N 
ATOM      3  H   UNL     1       2.142   6.539  -1.022  1.00  0.00     0.345 HD
ATOM      4  H   UNL     1       3.150   7.778  -1.613  1.00  0.00     0.345 HD
ATOM      5  H   UNL     1       3.460   7.040  -0.103  1.00  0.00     0.345 HD
ENDBRANCH   1   2
BRANCH   1   6
ATOM      6  C   UNL     1       1.118   9.170  -1.124  1.00  0.00     0.099 C 
ATOM      7  O   UNL     1       1.729   9.638  -2.121  1.00  0.00    -0.544 OA
ATOM      8  O   UNL     1      -0.247   9.393  -0.989  1.00  0.00    -0.544 OA
ENDBRANCH   1   6
BRANCH   1   9
ATOM      9  C   UNL     1       2.696   9.312   0.842  1.00  0.00     0.047 C 
ATOM     10  C   UNL     1       1.782  10.115   1.786  1.00  0.00     0.014 C 
ATOM     11  C   UNL     1       3.721   8.531   1.680  1.00  0.00     0.014 C 
ENDBRANCH   1   9
TORSDOF 3
ENDMDL
MODEL 4
REMARK VINA RESULT:    -3.229      2.920      4.004
REMARK INTER + INTRA:          -3.776
REMARK INTER:                  -3.707
REMARK INTRA:                  -0.070
REMARK UNBOUND:                -0.075
REMARK SMILES CC(C)[C@H]([NH3+])C(=O)[O-]
REMARK SMILES IDX 4 1 5 2 6 6 7 7 8 8 2 9 1 10 3 11
REMARK H PARENT 5 3 5 4 5 5
REMARK Flexibility Score: inf
ROOT
ATOM      1  C   UNL     1       5.696   6.024   2.495  1.00  0.00     0.230 C 
ENDROOT
BRANCH   1   2
ATOM      2  N   UNL     1       5.095   5.104   3.473  1.00  0.00    -0.350 N 
ATOM      3  H   UNL     1       4.344   5.594   4.013  1.00  0.00     0.345 HD
ATOM      4  H   UNL     1       4.681   4.272   2.993  1.00  0.00     0.345 HD
ATOM      5  H   UNL     1       5.814   4.790   4.163  1.00  0.00     0.345 HD
ENDBRANCH   1   2
BRANCH   1   6
ATOM      6  C   UNL     1       4.804   7.230   2.333  1.00  0.00     0.099 C 
ATOM      7  O   UNL     1       3.737   7.144   1.670  1.00  0.00    -0.544 OA
ATOM      8  O   UNL     1       5.153   8.442   2.916  1.00  0.00    -0.544 OA
ENDBRANCH   1   6
BRANCH   1   9
ATOM      9  C   UNL     1       5.940   5.329   1.120  1.00  0.00     0.047 C 
ATOM     10  C   UNL     1       6.845   6.186   0.216  1.00  0.00     0.014 C 
ATOM     11  C   UNL     1       6.569   3.936   1.285  1.00  0.00     0.014 C 
ENDBRANCH   1   9
TORSDOF 3
ENDMDL
MODEL 5
REMARK VINA RESULT:    -3.227      3.680      5.054
REMARK INTER + INTRA:          -3.774
REMARK INTER:                  -3.735
REMARK INTRA:                  -0.039
REMARK UNBOUND:                -0.075
REMARK SMILES CC(C)[C@H]([NH3+])C(=O)[O-]
REMARK SMILES IDX 4 1 5 2 6 6 7 7 8 8 2 9 1 10 3 11
REMARK H PARENT 5 3 5 4 5 5
REMARK Flexibility Score: inf
ROOT
ATOM      1  C   UNL     1       6.621   4.331   2.291  1.00  0.00     0.230 C 
ENDROOT
BRANCH   1   2
ATOM      2  N   UNL     1       5.589   4.405   3.336  1.00  0.00    -0.350 N 
ATOM      3  H   UNL     1       4.721   3.913   3.019  1.00  0.00     0.345 HD
ATOM      4  H   UNL     1       5.926   3.963   4.222  1.00  0.00     0.345 HD
ATOM      5  H   UNL     1       5.328   5.401   3.517  1.00  0.00     0.345 HD
ENDBRANCH   1   2
BRANCH   1   6
ATOM      6  C   UNL     1       6.058   4.864   0.997  1.00  0.00     0.099 C 
ATOM      7  O   UNL     1       4.835   4.722   0.732  1.00  0.00    -0.544 OA
ATOM      8  O   UNL     1       6.885   5.515   0.090  1.00  0.00    -0.544 OA
ENDBRANCH   1   6
BRANCH   1   9
ATOM      9  C   UNL     1       7.153   2.877   2.104  1.00  0.00     0.047 C 
ATOM     10  C   UNL     1       8.607   2.877   1.595  1.00  0.00     0.014 C 
ATOM     11  C   UNL     1       7.078   2.067   3.409  1.00  0.00     0.014 C 
ENDBRANCH   1   9
TORSDOF 3
ENDMDL
MODEL 6
REMARK VINA RESULT:    -3.185      3.410      4.384
REMARK INTER + INTRA:          -3.726
REMARK INTER:                  -3.657
REMARK INTRA:                  -0.068
REMARK UNBOUND:                -0.075
REMARK SMILES CC(C)[C@H]([NH3+])C(=O)[O-]
REMARK SMILES IDX 4 1 5 2 6 6 7 7 8 8 2 9 1 10 3 11
REMARK H PARENT 5 3 5 4 5 5
REMARK Flexibility Score: inf
ROOT
ATOM      1  C   UNL     1       5.786   4.177   2.203  1.00  0.00     0.230 C 
ENDROOT
BRANCH   1   2
ATOM      2  N   UNL     1       5.278   4.841   3.412  1.00  0.00    -0.350 N 
ATOM      3  H   UNL     1       6.072   5.074   4.054  1.00  0.00     0.345 HD
ATOM      4  H   UNL     1       4.770   5.720   3.166  1.00  0.00     0.345 HD
ATOM      5  H   UNL     1       4.639   4.199   3.935  1.00  0.00     0.345 HD
ENDBRANCH   1   2
BRANCH   1   6
ATOM      6  C   UNL     1       6.728   3.067   2.602  1.00  0.00     0.099 C 
ATOM      7  O   UNL     1       7.138   2.244   1.743  1.00  0.00    -0.544 OA
ATOM      8  O   UNL     1       7.150   2.950   3.921  1.00  0.00    -0.544 OA
ENDBRANCH   1   6
BRANCH   1   9
ATOM      9  C   UNL     1       6.495   5.183   1.244  1.00  0.00     0.047 C 
ATOM     10  C   UNL     1       5.470   6.032   0.470  1.00  0.00     0.014 C 
ATOM     11  C   UNL     1       7.452   6.118   2.001  1.00  0.00     0.014 C 
ENDBRANCH   1   9
TORSDOF 3
ENDMDL
MODEL 7
REMARK VINA RESULT:    -3.164     11.430     12.720
REMARK INTER + INTRA:          -3.701
REMARK INTER:                  -3.646
REMARK INTRA:                  -0.055
REMARK UNBOUND:                -0.075
REMARK SMILES CC(C)[C@H]([NH3+])C(=O)[O-]
REMARK SMILES IDX 4 1 5 2 6 6 7 7 8 8 2 9 1 10 3 11
REMARK H PARENT 5 3 5 4 5 5
REMARK Flexibility Score: inf
ROOT
ATOM      1  C   UNL     1       6.906  -4.628   2.874  1.00  0.00     0.230 C 
ENDROOT
BRANCH   1   2
ATOM      2  N   UNL     1       5.648  -4.592   3.635  1.00  0.00    -0.350 N 
ATOM      3  H   UNL     1       5.432  -3.610   3.927  1.00  0.00     0.345 HD
ATOM      4  H   UNL     1       4.855  -4.957   3.058  1.00  0.00     0.345 HD
ATOM      5  H   UNL     1       5.737  -5.159   4.508  1.00  0.00     0.345 HD
ENDBRANCH   1   2
BRANCH   1   6
ATOM      6  C   UNL     1       6.713  -3.913   1.559  1.00  0.00     0.099 C 
ATOM      7  O   UNL     1       6.427  -4.564   0.521  1.00  0.00    -0.544 OA
ATOM      8  O   UNL     1       6.848  -2.532   1.488  1.00  0.00    -0.544 OA
ENDBRANCH   1   6
BRANCH   1   9
ATOM      9  C   UNL     1       7.400  -6.089   2.640  1.00  0.00     0.047 C 
ATOM     10  C   UNL     1       8.700  -6.368   3.416  1.00  0.00     0.014 C 
ATOM     11  C   UNL     1       6.339  -7.124   3.048  1.00  0.00     0.014 C 
ENDBRANCH   1   9
TORSDOF 3
ENDMDL
MODEL 8
REMARK VINA RESULT:    -3.111      3.890      5.299
REMARK INTER + INTRA:          -3.641
REMARK INTER:                  -3.585
REMARK INTRA:                  -0.056
REMARK UNBOUND:                -0.075
REMARK SMILES CC(C)[C@H]([NH3+])C(=O)[O-]
REMARK SMILES IDX 4 1 5 2 6 6 7 7 8 8 2 9 1 10 3 11
REMARK H PARENT 5 3 5 4 5 5
REMARK Flexibility Score: inf
ROOT
ATOM      1  C   UNL     1       6.064   3.741   2.133  1.00  0.00     0.230 C 
ENDROOT
BRANCH   1   2
ATOM      2  N   UNL     1       6.150   4.044   0.697  1.00  0.00    -0.350 N 
ATOM      3  H   UNL     1       5.828   3.220   0.136  1.00  0.00     0.345 HD
ATOM      4  H   UNL     1       5.559   4.872   0.456  1.00  0.00     0.345 HD
ATOM      5  H   UNL     1       7.143   4.230   0.425  1.00  0.00     0.345 HD
ENDBRANCH   1   2
BRANCH   1   6
ATOM      6  C   UNL     1       5.724   5.003   2.888  1.00  0.00     0.099 C 
ATOM      7  O   UNL     1       4.801   5.755   2.481  1.00  0.00    -0.544 OA
ATOM      8  O   UNL     1       6.428   5.341   4.038  1.00  0.00    -0.544 OA
ENDBRANCH   1   6
BRANCH   1   9
ATOM      9  C   UNL     1       7.386   3.114   2.674  1.00  0.00     0.047 C 
ATOM     10  C   UNL     1       7.104   1.849   3.505  1.00  0.00     0.014 C 
ATOM     11  C   UNL     1       8.360   2.762   1.537  1.00  0.00     0.014 C 
ENDBRANCH   1   9
TORSDOF 3
ENDMDL
MODEL 9
REMARK VINA RESULT:    -3.056      3.070      3.723
REMARK INTER + INTRA:          -3.578
REMARK INTER:                  -3.544
REMARK INTRA:                  -0.034
REMARK UNBOUND:                -0.075
REMARK SMILES CC(C)[C@H]([NH3+])C(=O)[O-]
REMARK SMILES IDX 4 1 5 2 6 6 7 7 8 8 2 9 1 10 3 11
REMARK H PARENT 5 3 5 4 5 5
REMARK Flexibility Score: inf
ROOT
ATOM      1  C   UNL     1       3.209   8.788   0.743  1.00  0.00     0.230 C 
ENDROOT
BRANCH   1   2
ATOM      2  N   UNL     1       2.517   9.225   1.965  1.00  0.00    -0.350 N 
ATOM      3  H   UNL     1       1.716   8.584   2.174  1.00  0.00     0.345 HD
ATOM      4  H   UNL     1       3.172   9.228   2.780  1.00  0.00     0.345 HD
ATOM      5  H   UNL     1       2.117  10.182   1.832  1.00  0.00     0.345 HD
ENDBRANCH   1   2
BRANCH   1   6
ATOM      6  C   UNL     1       2.205   8.655  -0.376  1.00  0.00     0.099 C 
ATOM      7  O   UNL     1       1.123   8.041  -0.187  1.00  0.00    -0.544 OA
ATOM      8  O   UNL     1       2.469   9.212  -1.621  1.00  0.00    -0.544 OA
ENDBRANCH   1   6
BRANCH   1   9
ATOM      9  C   UNL     1       3.973   7.445   0.959  1.00  0.00     0.047 C 
ATOM     10  C   UNL     1       4.700   7.005  -0.325  1.00  0.00     0.014 C 
ATOM     11  C   UNL     1       4.994   7.546   2.105  1.00  0.00     0.014 C 
ENDBRANCH   1   9
TORSDOF 3
ENDMDL
