MODEL 1
REMARK VINA RESULT:    -5.079      0.000      0.000
REMARK INTER + INTRA:          -5.920
REMARK INTER:                  -5.821
REMARK INTRA:                  -0.099
REMARK UNBOUND:                -0.099
REMARK SMILES COc1cc(C(=O)[O-])ccc1O
REMARK SMILES IDX 5 1 9 2 4 3 10 4 3 5 11 6 6 7 7 8 8 9 2 10 1 11 12 12
REMARK H PARENT 12 13
REMARK Flexibility Score: inf
ROOT
ATOM      1  C   UNL     1     -13.430  54.738  20.868  1.00  0.00     0.001 A 
ATOM      2  C   UNL     1     -13.693  56.107  21.041  1.00  0.00     0.014 A 
ATOM      3  C   UNL     1     -14.464  53.895  20.424  1.00  0.00     0.060 A 
ATOM      4  C   UNL     1     -14.963  56.622  20.776  1.00  0.00     0.051 A 
ATOM      5  C   UNL     1     -15.748  54.409  20.155  1.00  0.00     0.161 A 
ATOM      6  C   UNL     1     -15.989  55.783  20.335  1.00  0.00     0.157 A 
ENDROOT
BRANCH   1   7
ATOM      7  C   UNL     1     -12.084  54.189  21.148  1.00  0.00     0.072 C 
ATOM      8  O   UNL     1     -11.064  54.679  20.594  1.00  0.00    -0.545 OA
ATOM      9  O   UNL     1     -11.926  53.123  22.027  1.00  0.00    -0.545 OA
ENDBRANCH   1   7
BRANCH   5  10
ATOM     10  O   UNL     1     -16.799  53.591  19.710  1.00  0.00    -0.493 OA
ATOM     11  C   UNL     1     -16.976  53.163  18.364  1.00  0.00     0.278 C 
ENDBRANCH   5  10
BRANCH   6  12
ATOM     12  O   UNL     1     -17.245  56.335  20.081  1.00  0.00    -0.504 OA
ATOM     13  H   UNL     1     -17.414  56.956  19.298  1.00  0.00     0.293 HD
ENDBRANCH   6  12
TORSDOF 3
ENDMDL
MODEL 2
REMARK VINA RESULT:    -4.979      2.013      2.728
REMARK INTER + INTRA:          -5.805
REMARK INTER:                  -5.723
REMARK INTRA:                  -0.083
REMARK UNBOUND:                -0.099
REMARK SMILES COc1cc(C(=O)[O-])ccc1O
REMARK SMILES IDX 5 1 9 2 4 3 10 4 3 5 11 6 6 7 7 8 8 9 2 10 1 11 12 12
REMARK H PARENT 12 13
REMARK Flexibility Score: inf
ROOT
ATOM      1  C   UNL     1     -12.122  54.945  20.653  1.00  0.00     0.001 A 
ATOM      2  C   UNL     1     -11.586  55.275  19.398  1.00  0.00     0.014 A 
ATOM      3  C   UNL     1     -13.377  55.466  21.018  1.00  0.00     0.060 A 
ATOM      4  C   UNL     1     -12.288  56.109  18.526  1.00  0.00     0.051 A 
ATOM      5  C   UNL     1     -14.090  56.308  20.142  1.00  0.00     0.161 A 
ATOM      6  C   UNL     1     -13.534  56.626  18.889  1.00  0.00     0.157 A 
ENDROOT
BRANCH   1   7
ATOM      7  C   UNL     1     -11.380  54.062  21.580  1.00  0.00     0.072 C 
ATOM      8  O   UNL     1     -10.133  54.179  21.717  1.00  0.00    -0.545 OA
ATOM      9  O   UNL     1     -12.048  53.088  22.315  1.00  0.00    -0.545 OA
ENDBRANCH   1   7
BRANCH   5  10
ATOM     10  O   UNL     1     -15.344  56.842  20.479  1.00  0.00    -0.493 OA
ATOM     11  C   UNL     1     -16.386  56.115  21.123  1.00  0.00     0.278 C 
ENDBRANCH   5  10
BRANCH   6  12
ATOM     12  O   UNL     1     -14.206  57.455  17.991  1.00  0.00    -0.504 OA
ATOM     13  H   UNL     1     -14.984  58.040  18.274  1.00  0.00     0.293 HD
ENDBRANCH   6  12
TORSDOF 3
ENDMDL
MODEL 3
REMARK VINA RESULT:    -4.979      1.531      4.435
REMARK INTER + INTRA:          -5.805
REMARK INTER:                  -5.727
REMARK INTRA:                  -0.079
REMARK UNBOUND:                -0.099
REMARK SMILES COc1cc(C(=O)[O-])ccc1O
REMARK SMILES IDX 5 1 9 2 4 3 10 4 3 5 11 6 6 7 7 8 8 9 2 10 1 11 12 12
REMARK H PARENT 12 13
REMARK Flexibility Score: inf
ROOT
ATOM      1  C   UNL     1     -14.999  54.442  19.386  1.00  0.00     0.001 A 
ATOM      2  C   UNL     1     -14.638  55.490  18.524  1.00  0.00     0.014 A 
ATOM      3  C   UNL     1     -14.115  54.070  20.415  1.00  0.00     0.060 A 
ATOM      4  C   UNL     1     -13.420  56.152  18.685  1.00  0.00     0.051 A 
ATOM      5  C   UNL     1     -12.884  54.734  20.583  1.00  0.00     0.161 A 
ATOM      6  C   UNL     1     -12.543  55.781  19.708  1.00  0.00     0.157 A 
ENDROOT
BRANCH   1   7
ATOM      7  C   UNL     1     -16.290  53.738  19.217  1.00  0.00     0.072 C 
ATOM      8  O   UNL     1     -16.510  53.040  18.191  1.00  0.00    -0.545 OA
ATOM      9  O   UNL     1     -17.280  53.836  20.189  1.00  0.00    -0.545 OA
ENDBRANCH   1   7
BRANCH   5  10
ATOM     10  O   UNL     1     -11.983  54.385  21.601  1.00  0.00    -0.493 OA
ATOM     11  C   UNL     1     -11.721  53.052  22.027  1.00  0.00     0.278 C 
ENDBRANCH   5  10
BRANCH   6  12
ATOM     12  O   UNL     1     -11.335  56.466  19.838  1.00  0.00    -0.504 OA
ATOM     13  H   UNL     1     -11.286  57.411  20.200  1.00  0.00     0.293 HD
ENDBRANCH   6  12
TORSDOF 3
ENDMDL
MODEL 4
REMARK VINA RESULT:    -4.951      2.107      2.506
REMARK INTER + INTRA:          -5.773
REMARK INTER:                  -5.670
REMARK INTRA:                  -0.103
REMARK UNBOUND:                -0.099
REMARK SMILES COc1cc(C(=O)[O-])ccc1O
REMARK SMILES IDX 5 1 9 2 4 3 10 4 3 5 11 6 6 7 7 8 8 9 2 10 1 11 12 12
REMARK H PARENT 12 13
REMARK Flexibility Score: inf
ROOT
ATOM      1  C   UNL     1     -12.013  54.466  20.398  1.00  0.00     0.001 A 
ATOM      2  C   UNL     1     -11.624  55.607  19.678  1.00  0.00     0.014 A 
ATOM      3  C   UNL     1     -13.161  53.762  19.994  1.00  0.00     0.060 A 
ATOM      4  C   UNL     1     -12.367  56.037  18.577  1.00  0.00     0.051 A 
ATOM      5  C   UNL     1     -13.915  54.190  18.883  1.00  0.00     0.161 A 
ATOM      6  C   UNL     1     -13.507  55.336  18.176  1.00  0.00     0.157 A 
ENDROOT
BRANCH   1   7
ATOM      7  C   UNL     1     -11.228  54.009  21.567  1.00  0.00     0.072 C 
ATOM      8  O   UNL     1     -11.661  53.087  22.309  1.00  0.00    -0.545 OA
ATOM      9  O   UNL     1     -10.000  54.590  21.863  1.00  0.00    -0.545 OA
ENDBRANCH   1   7
BRANCH   5  10
ATOM     10  O   UNL     1     -15.065  53.507  18.455  1.00  0.00    -0.493 OA
ATOM     11  C   UNL     1     -16.365  53.688  19.007  1.00  0.00     0.278 C 
ENDBRANCH   5  10
BRANCH   6  12
ATOM     12  O   UNL     1     -14.223  55.795  17.070  1.00  0.00    -0.504 OA
ATOM     13  H   UNL     1     -14.335  56.782  16.871  1.00  0.00     0.293 HD
ENDBRANCH   6  12
TORSDOF 3
ENDMDL
MODEL 5
REMARK VINA RESULT:    -4.936      2.650      3.435
REMARK INTER + INTRA:          -5.756
REMARK INTER:                  -5.679
REMARK INTRA:                  -0.077
REMARK UNBOUND:                -0.099
REMARK SMILES COc1cc(C(=O)[O-])ccc1O
REMARK SMILES IDX 5 1 9 2 4 3 10 4 3 5 11 6 6 7 7 8 8 9 2 10 1 11 12 12
REMARK H PARENT 12 13
REMARK Flexibility Score: inf
ROOT
ATOM      1  C   UNL     1     -12.871  56.108  18.824  1.00  0.00     0.001 A 
ATOM      2  C   UNL     1     -12.594  55.584  20.097  1.00  0.00     0.014 A 
ATOM      3  C   UNL     1     -14.115  56.723  18.594  1.00  0.00     0.060 A 
ATOM      4  C   UNL     1     -13.540  55.671  21.119  1.00  0.00     0.051 A 
ATOM      5  C   UNL     1     -15.074  56.814  19.623  1.00  0.00     0.161 A 
ATOM      6  C   UNL     1     -14.775  56.282  20.890  1.00  0.00     0.157 A 
ENDROOT
BRANCH   1   7
ATOM      7  C   UNL     1     -11.870  56.017  17.737  1.00  0.00     0.072 C 
ATOM      8  O   UNL     1     -11.232  54.948  17.542  1.00  0.00    -0.545 OA
ATOM      9  O   UNL     1     -11.619  57.110  16.915  1.00  0.00    -0.545 OA
ENDBRANCH   1   7
BRANCH   5  10
ATOM     10  O   UNL     1     -16.324  57.422  19.423  1.00  0.00    -0.493 OA
ATOM     11  C   UNL     1     -16.805  57.889  18.167  1.00  0.00     0.278 C 
ENDBRANCH   5  10
BRANCH   6  12
ATOM     12  O   UNL     1     -15.695  56.351  21.937  1.00  0.00    -0.504 OA
ATOM     13  H   UNL     1     -15.754  57.153  22.552  1.00  0.00     0.293 HD
ENDBRANCH   6  12
TORSDOF 3
ENDMDL
MODEL 6
REMARK VINA RESULT:    -4.919      1.667      1.874
REMARK INTER + INTRA:          -5.736
REMARK INTER:                  -5.636
REMARK INTRA:                  -0.101
REMARK UNBOUND:                -0.099
REMARK SMILES COc1cc(C(=O)[O-])ccc1O
REMARK SMILES IDX 5 1 9 2 4 3 10 4 3 5 11 6 6 7 7 8 8 9 2 10 1 11 12 12
REMARK H PARENT 12 13
REMARK Flexibility Score: inf
ROOT
ATOM      1  C   UNL     1     -14.035  54.889  19.603  1.00  0.00     0.001 A 
ATOM      2  C   UNL     1     -14.215  56.198  20.080  1.00  0.00     0.014 A 
ATOM      3  C   UNL     1     -15.042  53.934  19.832  1.00  0.00     0.060 A 
ATOM      4  C   UNL     1     -15.376  56.545  20.772  1.00  0.00     0.051 A 
ATOM      5  C   UNL     1     -16.216  54.279  20.529  1.00  0.00     0.161 A 
ATOM      6  C   UNL     1     -16.376  55.596  20.998  1.00  0.00     0.157 A 
ENDROOT
BRANCH   1   7
ATOM      7  C   UNL     1     -12.804  54.518  18.870  1.00  0.00     0.072 C 
ATOM      8  O   UNL     1     -12.844  53.669  17.939  1.00  0.00    -0.545 OA
ATOM      9  O   UNL     1     -11.584  55.101  19.195  1.00  0.00    -0.545 OA
ENDBRANCH   1   7
BRANCH   5  10
ATOM     10  O   UNL     1     -17.239  53.347  20.772  1.00  0.00    -0.493 OA
ATOM     11  C   UNL     1     -18.255  53.000  19.837  1.00  0.00     0.278 C 
ENDBRANCH   5  10
BRANCH   6  12
ATOM     12  O   UNL     1     -17.523  55.980  21.693  1.00  0.00    -0.504 OA
ATOM     13  H   UNL     1     -17.488  56.316  22.648  1.00  0.00     0.293 HD
ENDBRANCH   6  12
TORSDOF 3
ENDMDL
MODEL 7
REMARK VINA RESULT:    -4.885      2.220      3.267
REMARK INTER + INTRA:          -5.697
REMARK INTER:                  -5.596
REMARK INTRA:                  -0.102
REMARK UNBOUND:                -0.099
REMARK SMILES COc1cc(C(=O)[O-])ccc1O
REMARK SMILES IDX 5 1 9 2 4 3 10 4 3 5 11 6 6 7 7 8 8 9 2 10 1 11 12 12
REMARK H PARENT 12 13
REMARK Flexibility Score: inf
ROOT
ATOM      1  C   UNL     1     -12.526  54.298  20.564  1.00  0.00     0.001 A 
ATOM      2  C   UNL     1     -13.566  53.428  20.197  1.00  0.00     0.014 A 
ATOM      3  C   UNL     1     -12.472  55.579  19.987  1.00  0.00     0.060 A 
ATOM      4  C   UNL     1     -14.530  53.829  19.271  1.00  0.00     0.051 A 
ATOM      5  C   UNL     1     -13.443  55.990  19.053  1.00  0.00     0.161 A 
ATOM      6  C   UNL     1     -14.476  55.103  18.699  1.00  0.00     0.157 A 
ENDROOT
BRANCH   1   7
ATOM      7  C   UNL     1     -11.501  53.875  21.545  1.00  0.00     0.072 C 
ATOM      8  O   UNL     1     -11.709  52.892  22.306  1.00  0.00    -0.545 OA
ATOM      9  O   UNL     1     -10.293  54.556  21.642  1.00  0.00    -0.545 OA
ENDBRANCH   1   7
BRANCH   5  10
ATOM     10  O   UNL     1     -13.415  57.263  18.461  1.00  0.00    -0.493 OA
ATOM     11  C   UNL     1     -12.641  57.605  17.316  1.00  0.00     0.278 C 
ENDBRANCH   5  10
BRANCH   6  12
ATOM     12  O   UNL     1     -15.458  55.468  17.778  1.00  0.00    -0.504 OA
ATOM     13  H   UNL     1     -16.189  54.830  17.487  1.00  0.00     0.293 HD
ENDBRANCH   6  12
TORSDOF 3
ENDMDL
MODEL 8
REMARK VINA RESULT:    -4.877      1.644      4.472
REMARK INTER + INTRA:          -5.689
REMARK INTER:                  -5.607
REMARK INTRA:                  -0.082
REMARK UNBOUND:                -0.099
REMARK SMILES COc1cc(C(=O)[O-])ccc1O
REMARK SMILES IDX 5 1 9 2 4 3 10 4 3 5 11 6 6 7 7 8 8 9 2 10 1 11 12 12
REMARK H PARENT 12 13
REMARK Flexibility Score: inf
ROOT
ATOM      1  C   UNL     1     -16.712  54.254  20.170  1.00  0.00     0.001 A 
ATOM      2  C   UNL     1     -16.938  55.533  20.704  1.00  0.00     0.014 A 
ATOM      3  C   UNL     1     -15.393  53.778  20.069  1.00  0.00     0.060 A 
ATOM      4  C   UNL     1     -15.866  56.322  21.127  1.00  0.00     0.051 A 
ATOM      5  C   UNL     1     -14.307  54.570  20.494  1.00  0.00     0.161 A 
ATOM      6  C   UNL     1     -14.556  55.848  21.026  1.00  0.00     0.157 A 
ENDROOT
BRANCH   1   7
ATOM      7  C   UNL     1     -17.846  53.415  19.720  1.00  0.00     0.072 C 
ATOM      8  O   UNL     1     -18.360  52.563  20.494  1.00  0.00    -0.545 OA
ATOM      9  O   UNL     1     -18.363  53.555  18.437  1.00  0.00    -0.545 OA
ENDBRANCH   1   7
BRANCH   5  10
ATOM     10  O   UNL     1     -12.980  54.122  20.406  1.00  0.00    -0.493 OA
ATOM     11  C   UNL     1     -12.298  53.405  21.430  1.00  0.00     0.278 C 
ENDBRANCH   5  10
BRANCH   6  12
ATOM     12  O   UNL     1     -13.511  56.665  21.459  1.00  0.00    -0.504 OA
ATOM     13  H   UNL     1     -13.657  57.428  22.111  1.00  0.00     0.293 HD
ENDBRANCH   6  12
TORSDOF 3
ENDMDL
MODEL 9
REMARK VINA RESULT:    -4.842      2.992      4.365
REMARK INTER + INTRA:          -5.648
REMARK INTER:                  -5.561
REMARK INTRA:                  -0.087
REMARK UNBOUND:                -0.099
REMARK SMILES COc1cc(C(=O)[O-])ccc1O
REMARK SMILES IDX 5 1 9 2 4 3 10 4 3 5 11 6 6 7 7 8 8 9 2 10 1 11 12 12
REMARK H PARENT 12 13
REMARK Flexibility Score: inf
ROOT
ATOM      1  C   UNL     1     -14.311  56.974  18.057  1.00  0.00     0.001 A 
ATOM      2  C   UNL     1     -15.632  57.314  18.387  1.00  0.00     0.014 A 
ATOM      3  C   UNL     1     -13.482  56.412  19.045  1.00  0.00     0.060 A 
ATOM      4  C   UNL     1     -16.117  57.098  19.679  1.00  0.00     0.051 A 
ATOM      5  C   UNL     1     -13.966  56.191  20.350  1.00  0.00     0.161 A 
ATOM      6  C   UNL     1     -15.293  56.539  20.659  1.00  0.00     0.157 A 
ENDROOT
BRANCH   1   7
ATOM      7  C   UNL     1     -13.794  57.202  16.689  1.00  0.00     0.072 C 
ATOM      8  O   UNL     1     -12.970  56.400  16.172  1.00  0.00    -0.545 OA
ATOM      9  O   UNL     1     -14.211  58.305  15.951  1.00  0.00    -0.545 OA
ENDBRANCH   1   7
BRANCH   5  10
ATOM     10  O   UNL     1     -13.162  55.631  21.356  1.00  0.00    -0.493 OA
ATOM     11  C   UNL     1     -12.412  54.429  21.217  1.00  0.00     0.278 C 
ENDBRANCH   5  10
BRANCH   6  12
ATOM     12  O   UNL     1     -15.812  56.338  21.938  1.00  0.00    -0.504 OA
ATOM     13  H   UNL     1     -16.637  56.825  22.269  1.00  0.00     0.293 HD
ENDBRANCH   6  12
TORSDOF 3
ENDMDL
