MODEL 1
REMARK VINA RESULT:    -3.965      0.000      0.000
REMARK INTER + INTRA:          -4.050
REMARK INTER:                  -4.892
REMARK INTRA:                   0.842
REMARK UNBOUND:                 0.842
REMARK SMILES CC1=CC=CC(C)(C)CC1=O
REMARK SMILES IDX 1 1 2 2 3 3 10 4 11 5 9 6 4 8 5 9 6 10 7 11 8 12
REMARK H PARENT
REMARK Flexibility Score: 80.00
ROOT
ATOM      1  C   UNL     1      27.778  51.556   8.771  1.00  0.00     0.048 C 
ATOM      2  C   UNL     1      26.346  52.039   8.732  1.00  0.00    -0.008 C 
ATOM      3  C   UNL     1      25.532  51.521   7.787  1.00  0.00     0.007 C 
ENDROOT
BRANCH   2   4
ATOM      4  C   UNL     1      25.940  53.010   9.782  1.00  0.00     0.159 C 
ATOM      5  O   UNL     1      26.818  53.439  10.580  1.00  0.00    -0.295 OA
BRANCH   4   6
ATOM      6  C   UNL     1      24.534  53.491   9.984  1.00  0.00     0.091 CG0
ATOM      7  G   UNL     1      23.872  54.050   8.703  1.00  0.00     0.000 G0
ENDBRANCH   4   6
ENDBRANCH   2   4
BRANCH   3   8
ATOM      8  C   UNL     1      24.107  51.808   7.505  1.00  0.00    -0.003 C 
ATOM      9  C   UNL     1      23.388  52.881   7.852  1.00  0.00    -0.020 C 
BRANCH   9  10
ATOM     10  C   UNL     1      23.867  54.043   8.689  1.00  0.00    -0.010 CG0
ATOM     11  C   UNL     1      24.795  54.957   7.858  1.00  0.00     0.016 C 
ATOM     12  C   UNL     1      22.634  54.875   9.113  1.00  0.00     0.016 C 
ATOM     13  G   UNL     1      24.547  53.506   9.969  1.00  0.00     0.000 G0
ENDBRANCH   9  10
ENDBRANCH   3   8
TORSDOF 0
ENDMDL
MODEL 2
REMARK VINA RESULT:    -3.866      1.789      3.435
REMARK INTER + INTRA:          -3.928
REMARK INTER:                  -4.771
REMARK INTRA:                   0.843
REMARK UNBOUND:                 0.842
REMARK SMILES CC1=CC=CC(C)(C)CC1=O
REMARK SMILES IDX 1 1 2 2 3 3 10 4 11 5 9 6 4 8 5 9 6 10 7 11 8 12
REMARK H PARENT
REMARK Flexibility Score: 80.00
ROOT
ATOM      1  C   UNL     1      24.076  52.576   7.004  1.00  0.00     0.048 C 
ATOM      2  C   UNL     1      25.143  52.720   8.066  1.00  0.00    -0.008 C 
ATOM      3  C   UNL     1      26.169  51.842   8.051  1.00  0.00     0.007 C 
ENDROOT
BRANCH   2   4
ATOM      4  C   UNL     1      24.997  53.859   9.010  1.00  0.00     0.159 C 
ATOM      5  O   UNL     1      23.953  54.565   8.948  1.00  0.00    -0.295 OA
BRANCH   4   6
ATOM      6  C   UNL     1      26.036  54.255  10.017  1.00  0.00     0.091 CG0
ATOM      7  G   UNL     1      26.493  53.098  10.935  1.00  0.00     0.000 G0
ENDBRANCH   4   6
ENDBRANCH   2   4
BRANCH   3   8
ATOM      8  C   UNL     1      27.334  51.732   8.958  1.00  0.00    -0.003 C 
ATOM      9  C   UNL     1      27.480  52.227  10.192  1.00  0.00    -0.020 C 
BRANCH   9  10
ATOM     10  C   UNL     1      26.484  53.089  10.930  1.00  0.00    -0.010 CG0
ATOM     11  C   UNL     1      25.309  52.229  11.447  1.00  0.00     0.016 C 
ATOM     12  C   UNL     1      27.195  53.709  12.155  1.00  0.00     0.016 C 
ATOM     13  G   UNL     1      26.022  54.241  10.009  1.00  0.00     0.000 G0
ENDBRANCH   9  10
ENDBRANCH   3   8
TORSDOF 0
ENDMDL
MODEL 3
REMARK VINA RESULT:    -3.836      8.411      9.904
REMARK INTER + INTRA:          -3.891
REMARK INTER:                  -4.737
REMARK INTRA:                   0.847
REMARK UNBOUND:                 0.842
REMARK SMILES CC1=CC=CC(C)(C)CC1=O
REMARK SMILES IDX 1 1 2 2 3 3 10 4 11 5 9 6 4 8 5 9 6 10 7 11 8 12
REMARK H PARENT
REMARK Flexibility Score: 80.00
ROOT
ATOM      1  C   UNL     1      24.137  53.673  20.586  1.00  0.00     0.048 C 
ATOM      2  C   UNL     1      25.268  53.508  19.597  1.00  0.00    -0.008 C 
ATOM      3  C   UNL     1      26.286  54.393  19.651  1.00  0.00     0.007 C 
ENDROOT
BRANCH   2   4
ATOM      4  C   UNL     1      25.187  52.343  18.677  1.00  0.00     0.159 C 
ATOM      5  O   UNL     1      24.145  51.631  18.696  1.00  0.00    -0.295 OA
BRANCH   4   6
ATOM      6  C   UNL     1      26.287  51.928  17.746  1.00  0.00     0.091 CG0
ATOM      7  G   UNL     1      26.791  53.064  16.827  1.00  0.00     0.000 G0
ENDBRANCH   4   6
ENDBRANCH   2   4
BRANCH   3   8
ATOM      8  C   UNL     1      27.505  54.487  18.814  1.00  0.00    -0.003 C 
ATOM      9  C   UNL     1      27.731  53.956  17.607  1.00  0.00    -0.020 C 
BRANCH   9  10
ATOM     10  C   UNL     1      26.788  53.063  16.835  1.00  0.00    -0.010 CG0
ATOM     11  C   UNL     1      25.640  53.897  16.223  1.00  0.00     0.016 C 
ATOM     12  C   UNL     1      27.578  52.415  15.675  1.00  0.00     0.016 C 
ATOM     13  G   UNL     1      26.279  51.934  17.760  1.00  0.00     0.000 G0
ENDBRANCH   9  10
ENDBRANCH   3   8
TORSDOF 0
ENDMDL
MODEL 4
REMARK VINA RESULT:    -3.789      5.162      6.606
REMARK INTER + INTRA:          -3.833
REMARK INTER:                  -4.663
REMARK INTRA:                   0.830
REMARK UNBOUND:                 0.842
REMARK SMILES CC1=CC=CC(C)(C)CC1=O
REMARK SMILES IDX 1 1 2 2 3 3 10 4 11 5 9 6 4 8 5 9 6 10 7 11 8 12
REMARK H PARENT
REMARK Flexibility Score: 80.00
ROOT
ATOM      1  C   UNL     1      29.603  58.999  12.228  1.00  0.00     0.048 C 
ATOM      2  C   UNL     1      29.244  57.618  11.728  1.00  0.00    -0.008 C 
ATOM      3  C   UNL     1      27.937  57.334  11.545  1.00  0.00     0.007 C 
ENDROOT
BRANCH   2   4
ATOM      4  C   UNL     1      30.376  56.702  11.428  1.00  0.00     0.159 C 
ATOM      5  O   UNL     1      31.549  57.084  11.694  1.00  0.00    -0.295 OA
BRANCH   4   6
ATOM      6  C   UNL     1      30.221  55.356  10.786  1.00  0.00     0.091 CG0
ATOM      7  G   UNL     1      29.197  54.439  11.493  1.00  0.00     0.000 G0
ENDBRANCH   4   6
ENDBRANCH   2   4
BRANCH   3   8
ATOM      8  C   UNL     1      27.297  56.081  11.083  1.00  0.00    -0.003 C 
ATOM      9  C   UNL     1      27.799  54.841  11.075  1.00  0.00    -0.020 C 
BRANCH   9  10
ATOM     10  C   UNL     1      29.197  54.443  11.486  1.00  0.00    -0.010 CG0
ATOM     11  C   UNL     1      29.322  54.441  13.027  1.00  0.00     0.016 C 
ATOM     12  C   UNL     1      29.457  53.003  10.986  1.00  0.00     0.016 C 
ATOM     13  G   UNL     1      30.219  55.381  10.804  1.00  0.00     0.000 G0
ENDBRANCH   9  10
ENDBRANCH   3   8
TORSDOF 0
ENDMDL
MODEL 5
REMARK VINA RESULT:    -3.774      1.790      3.045
REMARK INTER + INTRA:          -3.815
REMARK INTER:                  -4.663
REMARK INTRA:                   0.849
REMARK UNBOUND:                 0.842
REMARK SMILES CC1=CC=CC(C)(C)CC1=O
REMARK SMILES IDX 1 1 2 2 3 3 10 4 11 5 9 6 4 8 5 9 6 10 7 11 8 12
REMARK H PARENT
REMARK Flexibility Score: 80.00
ROOT
ATOM      1  C   UNL     1      24.489  56.466   6.933  1.00  0.00     0.048 C 
ATOM      2  C   UNL     1      24.793  55.167   7.644  1.00  0.00    -0.008 C 
ATOM      3  C   UNL     1      24.896  54.048   6.895  1.00  0.00     0.007 C 
ENDROOT
BRANCH   2   4
ATOM      4  C   UNL     1      25.008  55.243   9.113  1.00  0.00     0.159 C 
ATOM      5  O   UNL     1      24.855  56.356   9.689  1.00  0.00    -0.295 OA
BRANCH   4   6
ATOM      6  C   UNL     1      25.439  54.084   9.962  1.00  0.00     0.091 CG0
ATOM      7  G   UNL     1      24.583  52.812   9.766  1.00  0.00     0.000 G0
ENDBRANCH   4   6
ENDBRANCH   2   4
BRANCH   3   8
ATOM      8  C   UNL     1      25.170  52.653   7.310  1.00  0.00    -0.003 C 
ATOM      9  C   UNL     1      25.019  52.097   8.517  1.00  0.00    -0.020 C 
BRANCH   9  10
ATOM     10  C   UNL     1      24.585  52.807   9.778  1.00  0.00    -0.010 CG0
ATOM     11  C   UNL     1      23.066  53.086   9.740  1.00  0.00     0.016 C 
ATOM     12  C   UNL     1      24.869  51.875  10.979  1.00  0.00     0.016 C 
ATOM     13  G   UNL     1      25.426  54.092   9.957  1.00  0.00     0.000 G0
ENDBRANCH   9  10
ENDBRANCH   3   8
TORSDOF 0
ENDMDL
MODEL 6
REMARK VINA RESULT:    -3.743      7.026      8.361
REMARK INTER + INTRA:          -3.776
REMARK INTER:                  -4.636
REMARK INTRA:                   0.859
REMARK UNBOUND:                 0.842
REMARK SMILES CC1=CC=CC(C)(C)CC1=O
REMARK SMILES IDX 1 1 2 2 3 3 10 4 11 5 9 6 4 8 5 9 6 10 7 11 8 12
REMARK H PARENT
REMARK Flexibility Score: 80.00
ROOT
ATOM      1  C   UNL     1      29.828  47.135  15.725  1.00  0.00     0.048 C 
ATOM      2  C   UNL     1      29.130  48.475  15.671  1.00  0.00    -0.008 C 
ATOM      3  C   UNL     1      29.530  49.429  16.538  1.00  0.00     0.007 C 
ENDROOT
BRANCH   2   4
ATOM      4  C   UNL     1      28.089  48.644  14.623  1.00  0.00     0.159 C 
ATOM      5  O   UNL     1      27.781  47.649  13.911  1.00  0.00    -0.295 OA
BRANCH   4   6
ATOM      6  C   UNL     1      27.402  49.943  14.323  1.00  0.00     0.091 CG0
ATOM      7  G   UNL     1      26.779  50.623  15.563  1.00  0.00     0.000 G0
ENDBRANCH   4   6
ENDBRANCH   2   4
BRANCH   3   8
ATOM      8  C   UNL     1      29.030  50.811  16.723  1.00  0.00    -0.003 C 
ATOM      9  C   UNL     1      27.858  51.331  16.343  1.00  0.00    -0.020 C 
BRANCH   9  10
ATOM     10  C   UNL     1      26.779  50.621  15.561  1.00  0.00    -0.010 CG0
ATOM     11  C   UNL     1      26.025  49.625  16.471  1.00  0.00     0.016 C 
ATOM     12  C   UNL     1      25.764  51.677  15.068  1.00  0.00     0.016 C 
ATOM     13  G   UNL     1      27.406  49.942  14.322  1.00  0.00     0.000 G0
ENDBRANCH   9  10
ENDBRANCH   3   8
TORSDOF 0
ENDMDL
MODEL 7
REMARK VINA RESULT:    -3.741      4.917      5.955
REMARK INTER + INTRA:          -3.774
REMARK INTER:                  -4.624
REMARK INTRA:                   0.851
REMARK UNBOUND:                 0.842
REMARK SMILES CC1=CC=CC(C)(C)CC1=O
REMARK SMILES IDX 1 1 2 2 3 3 10 4 11 5 9 6 4 8 5 9 6 10 7 11 8 12
REMARK H PARENT
REMARK Flexibility Score: 80.00
ROOT
ATOM      1  C   UNL     1      29.775  59.022  11.754  1.00  0.00     0.048 C 
ATOM      2  C   UNL     1      29.102  57.674  11.886  1.00  0.00    -0.008 C 
ATOM      3  C   UNL     1      29.540  56.672  11.095  1.00  0.00     0.007 C 
ENDROOT
BRANCH   2   4
ATOM      4  C   UNL     1      28.042  57.555  12.922  1.00  0.00     0.159 C 
ATOM      5  O   UNL     1      27.710  58.587  13.568  1.00  0.00    -0.295 OA
BRANCH   4   6
ATOM      6  C   UNL     1      27.362  56.269  13.284  1.00  0.00     0.091 CG0
ATOM      7  G   UNL     1      26.781  55.504  12.073  1.00  0.00     0.000 G0
ENDBRANCH   4   6
ENDBRANCH   2   4
BRANCH   3   8
ATOM      8  C   UNL     1      29.071  55.271  10.996  1.00  0.00    -0.003 C 
ATOM      9  C   UNL     1      27.897  54.755  11.376  1.00  0.00    -0.020 C 
BRANCH   9  10
ATOM     10  C   UNL     1      26.781  55.497  12.073  1.00  0.00    -0.010 CG0
ATOM     11  C   UNL     1      26.038  56.410  11.071  1.00  0.00     0.016 C 
ATOM     12  C   UNL     1      25.770  54.458  12.610  1.00  0.00     0.016 C 
ATOM     13  G   UNL     1      27.357  56.275  13.278  1.00  0.00     0.000 G0
ENDBRANCH   9  10
ENDBRANCH   3   8
TORSDOF 0
ENDMDL
MODEL 8
REMARK VINA RESULT:    -3.614      4.736      6.070
REMARK INTER + INTRA:          -3.617
REMARK INTER:                  -4.463
REMARK INTRA:                   0.846
REMARK UNBOUND:                 0.842
REMARK SMILES CC1=CC=CC(C)(C)CC1=O
REMARK SMILES IDX 1 1 2 2 3 3 10 4 11 5 9 6 4 8 5 9 6 10 7 11 8 12
REMARK H PARENT
REMARK Flexibility Score: 80.00
ROOT
ATOM      1  C   UNL     1      29.756  58.998  12.000  1.00  0.00     0.048 C 
ATOM      2  C   UNL     1      28.644  57.974  11.950  1.00  0.00    -0.008 C 
ATOM      3  C   UNL     1      27.597  58.141  12.786  1.00  0.00     0.007 C 
ENDROOT
BRANCH   2   4
ATOM      4  C   UNL     1      28.776  56.894  10.937  1.00  0.00     0.159 C 
ATOM      5  O   UNL     1      29.839  56.827  10.261  1.00  0.00    -0.295 OA
BRANCH   4   6
ATOM      6  C   UNL     1      27.704  55.890  10.634  1.00  0.00     0.091 CG0
ATOM      7  G   UNL     1      27.169  55.148  11.880  1.00  0.00     0.000 G0
ENDBRANCH   4   6
ENDBRANCH   2   4
BRANCH   3   8
ATOM      8  C   UNL     1      26.387  57.306  12.966  1.00  0.00    -0.003 C 
ATOM      9  C   UNL     1      26.195  56.029  12.614  1.00  0.00    -0.020 C 
BRANCH   9  10
ATOM     10  C   UNL     1      27.176  55.151  11.875  1.00  0.00    -0.010 CG0
ATOM     11  C   UNL     1      28.304  54.688  12.825  1.00  0.00     0.016 C 
ATOM     12  C   UNL     1      26.424  53.894  11.381  1.00  0.00     0.016 C 
ATOM     13  G   UNL     1      27.710  55.908  10.637  1.00  0.00     0.000 G0
ENDBRANCH   9  10
ENDBRANCH   3   8
TORSDOF 0
ENDMDL
MODEL 9
REMARK VINA RESULT:    -3.605      8.240      9.484
REMARK INTER + INTRA:          -3.606
REMARK INTER:                  -4.464
REMARK INTRA:                   0.857
REMARK UNBOUND:                 0.842
REMARK SMILES CC1=CC=CC(C)(C)CC1=O
REMARK SMILES IDX 1 1 2 2 3 3 10 4 11 5 9 6 4 8 5 9 6 10 7 11 8 12
REMARK H PARENT
REMARK Flexibility Score: 80.00
ROOT
ATOM      1  C   UNL     1      28.584  54.147  17.590  1.00  0.00     0.048 C 
ATOM      2  C   UNL     1      27.125  54.044  17.973  1.00  0.00    -0.008 C 
ATOM      3  C   UNL     1      26.805  54.173  19.278  1.00  0.00     0.007 C 
ENDROOT
BRANCH   2   4
ATOM      4  C   UNL     1      26.154  53.863  16.861  1.00  0.00     0.159 C 
ATOM      5  O   UNL     1      26.599  53.699  15.692  1.00  0.00    -0.295 OA
BRANCH   4   6
ATOM      6  C   UNL     1      24.665  53.901  17.031  1.00  0.00     0.091 CG0
ATOM      7  G   UNL     1      24.134  52.945  18.124  1.00  0.00     0.000 G0
ENDBRANCH   4   6
ENDBRANCH   2   4
BRANCH   3   8
ATOM      8  C   UNL     1      25.482  54.108  19.940  1.00  0.00    -0.003 C 
ATOM      9  C   UNL     1      24.347  53.566  19.483  1.00  0.00    -0.020 C 
BRANCH   9  10
ATOM     10  C   UNL     1      24.142  52.941  18.124  1.00  0.00    -0.010 CG0
ATOM     11  C   UNL     1      24.806  51.547  18.069  1.00  0.00     0.016 C 
ATOM     12  C   UNL     1      22.623  52.753  17.902  1.00  0.00     0.016 C 
ATOM     13  G   UNL     1      24.672  53.899  17.033  1.00  0.00     0.000 G0
ENDBRANCH   9  10
ENDBRANCH   3   8
TORSDOF 0
ENDMDL
