MODEL 1
REMARK VINA RESULT:    -3.070      0.000      0.000
REMARK INTER + INTRA:          -7.646
REMARK INTER:                  -5.403
REMARK INTRA:                  -2.243
REMARK UNBOUND:                -2.243
REMARK SMILES CCCCCCCCCCCCCCC(=O)[O-]
REMARK SMILES IDX 9 1 10 2 11 3 12 4 13 5 14 6 15 7 16 8 17 9 8 10 7 11 6 12
REMARK SMILES IDX 5 13 4 14 3 15 2 16 1 17
REMARK H PARENT
REMARK Flexibility Score: inf
ROOT
ATOM      1  C   UNL     1      18.936   0.664  40.328  1.00  0.00     0.000 C 
ENDROOT
BRANCH   1   2
ATOM      2  C   UNL     1      17.669   1.221  39.662  1.00  0.00     0.000 C 
BRANCH   2   3
ATOM      3  C   UNL     1      17.923   2.527  38.887  1.00  0.00     0.000 C 
BRANCH   3   4
ATOM      4  C   UNL     1      16.784   3.560  38.959  1.00  0.00     0.000 C 
BRANCH   4   5
ATOM      5  C   UNL     1      15.427   2.932  39.318  1.00  0.00     0.006 C 
BRANCH   5   6
ATOM      6  C   UNL     1      14.559   2.678  38.077  1.00  0.00     0.053 C 
BRANCH   6   7
ATOM      7  C   UNL     1      14.351   1.215  37.831  1.00  0.00     0.041 C 
ATOM      8  O   UNL     1      15.147   0.577  37.093  1.00  0.00    -0.550 OA
ATOM      9  O   UNL     1      13.262   0.562  38.395  1.00  0.00    -0.550 OA
ENDBRANCH   6   7
ENDBRANCH   5   6
ENDBRANCH   4   5
ENDBRANCH   3   4
ENDBRANCH   2   3
ENDBRANCH   1   2
BRANCH   1  10
ATOM     10  C   UNL     1      19.918   1.795  40.668  1.00  0.00     0.000 C 
BRANCH  10  11
ATOM     11  C   UNL     1      20.346   1.790  42.147  1.00  0.00    -0.000 C 
BRANCH  11  12
ATOM     12  C   UNL     1      19.853   0.580  42.967  1.00  0.00    -0.000 C 
BRANCH  12  13
ATOM     13  C   UNL     1      18.880   0.922  44.110  1.00  0.00    -0.000 C 
BRANCH  13  14
ATOM     14  C   UNL     1      17.421   0.579  43.770  1.00  0.00    -0.000 C 
BRANCH  14  15
ATOM     15  C   UNL     1      16.671   1.757  43.126  1.00  0.00    -0.000 C 
BRANCH  15  16
ATOM     16  C   UNL     1      17.123   3.116  43.680  1.00  0.00    -0.003 C 
ATOM     17  C   UNL     1      17.438   4.092  42.551  1.00  0.00     0.004 C 
ENDBRANCH  15  16
ENDBRANCH  14  15
ENDBRANCH  13  14
ENDBRANCH  12  13
ENDBRANCH  11  12
ENDBRANCH  10  11
ENDBRANCH   1  10
TORSDOF 13
ENDMDL
MODEL 2
REMARK VINA RESULT:    -3.059      2.331      3.678
REMARK INTER + INTRA:          -7.628
REMARK INTER:                  -5.098
REMARK INTRA:                  -2.529
REMARK UNBOUND:                -2.243
REMARK SMILES CCCCCCCCCCCCCCC(=O)[O-]
REMARK SMILES IDX 9 1 10 2 11 3 12 4 13 5 14 6 15 7 16 8 17 9 8 10 7 11 6 12
REMARK SMILES IDX 5 13 4 14 3 15 2 16 1 17
REMARK H PARENT
REMARK Flexibility Score: inf
ROOT
ATOM      1  C   UNL     1      16.447   4.242  37.618  1.00  0.00     0.000 C 
ENDROOT
BRANCH   1   2
ATOM      2  C   UNL     1      15.091   3.668  37.185  1.00  0.00     0.000 C 
BRANCH   2   3
ATOM      3  C   UNL     1      14.350   2.951  38.329  1.00  0.00     0.000 C 
BRANCH   3   4
ATOM      4  C   UNL     1      14.708   1.465  38.509  1.00  0.00     0.000 C 
BRANCH   4   5
ATOM      5  C   UNL     1      14.337   0.607  37.287  1.00  0.00     0.006 C 
BRANCH   5   6
ATOM      6  C   UNL     1      15.570   0.192  36.473  1.00  0.00     0.053 C 
BRANCH   6   7
ATOM      7  C   UNL     1      15.414   0.516  35.019  1.00  0.00     0.041 C 
ATOM      8  O   UNL     1      16.033   1.491  34.517  1.00  0.00    -0.550 OA
ATOM      9  O   UNL     1      14.564  -0.242  34.223  1.00  0.00    -0.550 OA
ENDBRANCH   6   7
ENDBRANCH   5   6
ENDBRANCH   4   5
ENDBRANCH   3   4
ENDBRANCH   2   3
ENDBRANCH   1   2
BRANCH   1  10
ATOM     10  C   UNL     1      17.601   3.363  37.110  1.00  0.00     0.000 C 
BRANCH  10  11
ATOM     11  C   UNL     1      18.541   2.900  38.238  1.00  0.00    -0.000 C 
BRANCH  11  12
ATOM     12  C   UNL     1      18.461   1.398  38.580  1.00  0.00    -0.000 C 
BRANCH  12  13
ATOM     13  C   UNL     1      18.016   1.082  40.020  1.00  0.00    -0.000 C 
BRANCH  13  14
ATOM     14  C   UNL     1      17.979   2.330  40.917  1.00  0.00    -0.000 C 
BRANCH  14  15
ATOM     15  C   UNL     1      16.583   2.594  41.503  1.00  0.00    -0.000 C 
BRANCH  15  16
ATOM     16  C   UNL     1      16.138   4.055  41.333  1.00  0.00    -0.003 C 
ATOM     17  C   UNL     1      17.337   4.972  41.116  1.00  0.00     0.004 C 
ENDBRANCH  15  16
ENDBRANCH  14  15
ENDBRANCH  13  14
ENDBRANCH  12  13
ENDBRANCH  11  12
ENDBRANCH  10  11
ENDBRANCH   1  10
TORSDOF 13
ENDMDL
MODEL 3
REMARK VINA RESULT:    -3.003      1.492      3.336
REMARK INTER + INTRA:          -7.529
REMARK INTER:                  -5.948
REMARK INTRA:                  -1.580
REMARK UNBOUND:                -2.243
REMARK SMILES CCCCCCCCCCCCCCC(=O)[O-]
REMARK SMILES IDX 9 1 10 2 11 3 12 4 13 5 14 6 15 7 16 8 17 9 8 10 7 11 6 12
REMARK SMILES IDX 5 13 4 14 3 15 2 16 1 17
REMARK H PARENT
REMARK Flexibility Score: inf
ROOT
ATOM      1  C   UNL     1      16.765   1.635  43.242  1.00  0.00     0.000 C 
ENDROOT
BRANCH   1   2
ATOM      2  C   UNL     1      16.434   1.631  41.743  1.00  0.00     0.000 C 
BRANCH   2   3
ATOM      3  C   UNL     1      16.858   2.929  41.032  1.00  0.00     0.000 C 
BRANCH   3   4
ATOM      4  C   UNL     1      15.753   3.610  40.204  1.00  0.00     0.000 C 
BRANCH   4   5
ATOM      5  C   UNL     1      15.818   3.254  38.709  1.00  0.00     0.006 C 
BRANCH   5   6
ATOM      6  C   UNL     1      14.503   2.650  38.199  1.00  0.00     0.053 C 
BRANCH   6   7
ATOM      7  C   UNL     1      14.509   1.153  38.278  1.00  0.00     0.041 C 
ATOM      8  O   UNL     1      13.425   0.520  38.378  1.00  0.00    -0.550 OA
ATOM      9  O   UNL     1      15.712   0.460  38.267  1.00  0.00    -0.550 OA
ENDBRANCH   6   7
ENDBRANCH   5   6
ENDBRANCH   4   5
ENDBRANCH   3   4
ENDBRANCH   2   3
ENDBRANCH   1   2
BRANCH   1  10
ATOM     10  C   UNL     1      17.486   2.931  43.641  1.00  0.00     0.000 C 
BRANCH  10  11
ATOM     11  C   UNL     1      18.833   2.676  44.340  1.00  0.00    -0.000 C 
BRANCH  11  12
ATOM     12  C   UNL     1      19.717   1.597  43.681  1.00  0.00    -0.000 C 
BRANCH  12  13
ATOM     13  C   UNL     1      20.395   2.025  42.366  1.00  0.00    -0.000 C 
BRANCH  13  14
ATOM     14  C   UNL     1      20.368   0.920  41.297  1.00  0.00    -0.000 C 
BRANCH  14  15
ATOM     15  C   UNL     1      19.479  -0.268  41.698  1.00  0.00    -0.000 C 
BRANCH  15  16
ATOM     16  C   UNL     1      20.218  -1.612  41.613  1.00  0.00    -0.003 C 
ATOM     17  C   UNL     1      19.263  -2.741  41.240  1.00  0.00     0.004 C 
ENDBRANCH  15  16
ENDBRANCH  14  15
ENDBRANCH  13  14
ENDBRANCH  12  13
ENDBRANCH  11  12
ENDBRANCH  10  11
ENDBRANCH   1  10
TORSDOF 13
ENDMDL
MODEL 4
REMARK VINA RESULT:    -2.995      2.215      4.095
REMARK INTER + INTRA:          -7.515
REMARK INTER:                  -6.439
REMARK INTRA:                  -1.076
REMARK UNBOUND:                -2.243
REMARK SMILES CCCCCCCCCCCCCCC(=O)[O-]
REMARK SMILES IDX 9 1 10 2 11 3 12 4 13 5 14 6 15 7 16 8 17 9 8 10 7 11 6 12
REMARK SMILES IDX 5 13 4 14 3 15 2 16 1 17
REMARK H PARENT
REMARK Flexibility Score: inf
ROOT
ATOM      1  C   UNL     1      15.703   3.173  39.442  1.00  0.00     0.000 C 
ENDROOT
BRANCH   1   2
ATOM      2  C   UNL     1      14.989   2.895  38.112  1.00  0.00     0.000 C 
BRANCH   2   3
ATOM      3  C   UNL     1      14.131   1.616  38.148  1.00  0.00     0.000 C 
BRANCH   3   4
ATOM      4  C   UNL     1      14.429   0.599  37.032  1.00  0.00     0.000 C 
BRANCH   4   5
ATOM      5  C   UNL     1      15.551   1.059  36.086  1.00  0.00     0.006 C 
BRANCH   5   6
ATOM      6  C   UNL     1      15.831   0.035  34.977  1.00  0.00     0.053 C 
BRANCH   6   7
ATOM      7  C   UNL     1      15.111   0.377  33.708  1.00  0.00     0.041 C 
ATOM      8  O   UNL     1      14.088  -0.272  33.366  1.00  0.00    -0.550 OA
ATOM      9  O   UNL     1      15.586   1.394  32.889  1.00  0.00    -0.550 OA
ENDBRANCH   6   7
ENDBRANCH   5   6
ENDBRANCH   4   5
ENDBRANCH   3   4
ENDBRANCH   2   3
ENDBRANCH   1   2
BRANCH   1  10
ATOM     10  C   UNL     1      16.083   1.862  40.145  1.00  0.00     0.000 C 
BRANCH  10  11
ATOM     11  C   UNL     1      16.775   2.088  41.502  1.00  0.00    -0.000 C 
BRANCH  11  12
ATOM     12  C   UNL     1      17.340   3.507  41.719  1.00  0.00    -0.000 C 
BRANCH  12  13
ATOM     13  C   UNL     1      18.845   3.659  41.432  1.00  0.00    -0.000 C 
BRANCH  13  14
ATOM     14  C   UNL     1      19.565   2.306  41.305  1.00  0.00    -0.000 C 
BRANCH  14  15
ATOM     15  C   UNL     1      20.492   2.017  42.496  1.00  0.00    -0.000 C 
BRANCH  15  16
ATOM     16  C   UNL     1      19.719   1.621  43.763  1.00  0.00    -0.003 C 
ATOM     17  C   UNL     1      19.508   0.113  43.829  1.00  0.00     0.004 C 
ENDBRANCH  15  16
ENDBRANCH  14  15
ENDBRANCH  13  14
ENDBRANCH  12  13
ENDBRANCH  11  12
ENDBRANCH  10  11
ENDBRANCH   1  10
TORSDOF 13
ENDMDL
MODEL 5
REMARK VINA RESULT:    -2.987      1.333      2.553
REMARK INTER + INTRA:          -7.499
REMARK INTER:                  -5.170
REMARK INTRA:                  -2.329
REMARK UNBOUND:                -2.243
REMARK SMILES CCCCCCCCCCCCCCC(=O)[O-]
REMARK SMILES IDX 9 1 10 2 11 3 12 4 13 5 14 6 15 7 16 8 17 9 8 10 7 11 6 12
REMARK SMILES IDX 5 13 4 14 3 15 2 16 1 17
REMARK H PARENT
REMARK Flexibility Score: inf
ROOT
ATOM      1  C   UNL     1      19.901   0.805  42.249  1.00  0.00     0.000 C 
ENDROOT
BRANCH   1   2
ATOM      2  C   UNL     1      19.787   2.325  42.065  1.00  0.00     0.000 C 
BRANCH   2   3
ATOM      3  C   UNL     1      18.806   2.722  40.946  1.00  0.00     0.000 C 
BRANCH   3   4
ATOM      4  C   UNL     1      17.880   1.592  40.459  1.00  0.00     0.000 C 
BRANCH   4   5
ATOM      5  C   UNL     1      16.389   1.918  40.644  1.00  0.00     0.006 C 
BRANCH   5   6
ATOM      6  C   UNL     1      15.868   2.881  39.569  1.00  0.00     0.053 C 
BRANCH   6   7
ATOM      7  C   UNL     1      15.186   2.154  38.451  1.00  0.00     0.041 C 
ATOM      8  O   UNL     1      14.731   0.994  38.634  1.00  0.00    -0.550 OA
ATOM      9  O   UNL     1      15.078   2.746  37.198  1.00  0.00    -0.550 OA
ENDBRANCH   6   7
ENDBRANCH   5   6
ENDBRANCH   4   5
ENDBRANCH   3   4
ENDBRANCH   2   3
ENDBRANCH   1   2
BRANCH   1  10
ATOM     10  C   UNL     1      19.453   0.388  43.657  1.00  0.00     0.000 C 
BRANCH  10  11
ATOM     11  C   UNL     1      18.093  -0.333  43.664  1.00  0.00    -0.000 C 
BRANCH  11  12
ATOM     12  C   UNL     1      16.879   0.564  43.983  1.00  0.00    -0.000 C 
BRANCH  12  13
ATOM     13  C   UNL     1      17.208   1.850  44.764  1.00  0.00    -0.000 C 
BRANCH  13  14
ATOM     14  C   UNL     1      16.235   2.999  44.453  1.00  0.00    -0.000 C 
BRANCH  14  15
ATOM     15  C   UNL     1      16.900   4.138  43.663  1.00  0.00    -0.000 C 
BRANCH  15  16
ATOM     16  C   UNL     1      15.906   4.894  42.769  1.00  0.00    -0.003 C 
ATOM     17  C   UNL     1      16.631   5.852  41.830  1.00  0.00     0.004 C 
ENDBRANCH  15  16
ENDBRANCH  14  15
ENDBRANCH  13  14
ENDBRANCH  12  13
ENDBRANCH  11  12
ENDBRANCH  10  11
ENDBRANCH   1  10
TORSDOF 13
ENDMDL
MODEL 6
REMARK VINA RESULT:    -2.957      1.163      3.301
REMARK INTER + INTRA:          -7.447
REMARK INTER:                  -5.512
REMARK INTRA:                  -1.935
REMARK UNBOUND:                -2.243
REMARK SMILES CCCCCCCCCCCCCCC(=O)[O-]
REMARK SMILES IDX 9 1 10 2 11 3 12 4 13 5 14 6 15 7 16 8 17 9 8 10 7 11 6 12
REMARK SMILES IDX 5 13 4 14 3 15 2 16 1 17
REMARK H PARENT
REMARK Flexibility Score: inf
ROOT
ATOM      1  C   UNL     1      17.260   5.075  43.520  1.00  0.00     0.000 C 
ENDROOT
BRANCH   1   2
ATOM      2  C   UNL     1      17.608   4.591  42.106  1.00  0.00     0.000 C 
BRANCH   2   3
ATOM      3  C   UNL     1      16.382   4.076  41.328  1.00  0.00     0.000 C 
BRANCH   3   4
ATOM      4  C   UNL     1      16.667   3.631  39.882  1.00  0.00     0.000 C 
BRANCH   4   5
ATOM      5  C   UNL     1      15.446   2.988  39.202  1.00  0.00     0.006 C 
BRANCH   5   6
ATOM      6  C   UNL     1      15.506   1.455  39.233  1.00  0.00     0.053 C 
BRANCH   6   7
ATOM      7  C   UNL     1      14.732   0.844  38.105  1.00  0.00     0.041 C 
ATOM      8  O   UNL     1      13.481   0.723  38.187  1.00  0.00    -0.550 OA
ATOM      9  O   UNL     1      15.395   0.383  36.974  1.00  0.00    -0.550 OA
ENDBRANCH   6   7
ENDBRANCH   5   6
ENDBRANCH   4   5
ENDBRANCH   3   4
ENDBRANCH   2   3
ENDBRANCH   1   2
BRANCH   1  10
ATOM     10  C   UNL     1      17.480   3.958  44.551  1.00  0.00     0.000 C 
BRANCH  10  11
ATOM     11  C   UNL     1      16.176   3.235  44.937  1.00  0.00    -0.000 C 
BRANCH  11  12
ATOM     12  C   UNL     1      16.211   1.700  44.787  1.00  0.00    -0.000 C 
BRANCH  12  13
ATOM     13  C   UNL     1      16.524   1.192  43.368  1.00  0.00    -0.000 C 
BRANCH  13  14
ATOM     14  C   UNL     1      17.965   0.675  43.226  1.00  0.00    -0.000 C 
BRANCH  14  15
ATOM     15  C   UNL     1      18.443   0.655  41.765  1.00  0.00    -0.000 C 
BRANCH  15  16
ATOM     16  C   UNL     1      19.576   1.658  41.502  1.00  0.00    -0.003 C 
ATOM     17  C   UNL     1      20.300   2.021  42.794  1.00  0.00     0.004 C 
ENDBRANCH  15  16
ENDBRANCH  14  15
ENDBRANCH  13  14
ENDBRANCH  12  13
ENDBRANCH  11  12
ENDBRANCH  10  11
ENDBRANCH   1  10
TORSDOF 13
ENDMDL
MODEL 7
REMARK VINA RESULT:    -2.940      3.917      5.864
REMARK INTER + INTRA:          -7.418
REMARK INTER:                  -5.316
REMARK INTRA:                  -2.102
REMARK UNBOUND:                -2.243
REMARK SMILES CCCCCCCCCCCCCCC(=O)[O-]
REMARK SMILES IDX 9 1 10 2 11 3 12 4 13 5 14 6 15 7 16 8 17 9 8 10 7 11 6 12
REMARK SMILES IDX 5 13 4 14 3 15 2 16 1 17
REMARK H PARENT
REMARK Flexibility Score: inf
ROOT
ATOM      1  C   UNL     1      19.186  -0.011  43.499  1.00  0.00     0.000 C 
ENDROOT
BRANCH   1   2
ATOM      2  C   UNL     1      17.678  -0.195  43.724  1.00  0.00     0.000 C 
BRANCH   2   3
ATOM      3  C   UNL     1      16.917   1.141  43.810  1.00  0.00     0.000 C 
BRANCH   3   4
ATOM      4  C   UNL     1      16.104   1.347  45.101  1.00  0.00     0.000 C 
BRANCH   4   5
ATOM      5  C   UNL     1      15.777   2.825  45.374  1.00  0.00     0.006 C 
BRANCH   5   6
ATOM      6  C   UNL     1      16.978   3.743  45.109  1.00  0.00     0.053 C 
BRANCH   6   7
ATOM      7  C   UNL     1      17.862   3.867  46.312  1.00  0.00     0.041 C 
ATOM      8  O   UNL     1      17.366   3.836  47.469  1.00  0.00    -0.550 OA
ATOM      9  O   UNL     1      19.231   4.044  46.155  1.00  0.00    -0.550 OA
ENDBRANCH   6   7
ENDBRANCH   5   6
ENDBRANCH   4   5
ENDBRANCH   3   4
ENDBRANCH   2   3
ENDBRANCH   1   2
BRANCH   1  10
ATOM     10  C   UNL     1      19.639   1.388  43.942  1.00  0.00     0.000 C 
BRANCH  10  11
ATOM     11  C   UNL     1      20.240   2.214  42.790  1.00  0.00    -0.000 C 
BRANCH  11  12
ATOM     12  C   UNL     1      20.733   1.392  41.582  1.00  0.00    -0.000 C 
BRANCH  12  13
ATOM     13  C   UNL     1      19.968   1.641  40.270  1.00  0.00    -0.000 C 
BRANCH  13  14
ATOM     14  C   UNL     1      18.742   2.551  40.460  1.00  0.00    -0.000 C 
BRANCH  14  15
ATOM     15  C   UNL     1      17.415   1.805  40.247  1.00  0.00    -0.000 C 
BRANCH  15  16
ATOM     16  C   UNL     1      16.191   2.675  40.571  1.00  0.00    -0.003 C 
ATOM     17  C   UNL     1      16.588   3.894  41.397  1.00  0.00     0.004 C 
ENDBRANCH  15  16
ENDBRANCH  14  15
ENDBRANCH  13  14
ENDBRANCH  12  13
ENDBRANCH  11  12
ENDBRANCH  10  11
ENDBRANCH   1  10
TORSDOF 13
ENDMDL
MODEL 8
REMARK VINA RESULT:    -2.933      1.183      2.724
REMARK INTER + INTRA:          -7.405
REMARK INTER:                  -5.207
REMARK INTRA:                  -2.198
REMARK UNBOUND:                -2.243
REMARK SMILES CCCCCCCCCCCCCCC(=O)[O-]
REMARK SMILES IDX 9 1 10 2 11 3 12 4 13 5 14 6 15 7 16 8 17 9 8 10 7 11 6 12
REMARK SMILES IDX 5 13 4 14 3 15 2 16 1 17
REMARK H PARENT
REMARK Flexibility Score: inf
ROOT
ATOM      1  C   UNL     1      20.346   1.920  42.535  1.00  0.00     0.000 C 
ENDROOT
BRANCH   1   2
ATOM      2  C   UNL     1      20.544   1.313  41.139  1.00  0.00     0.000 C 
BRANCH   2   3
ATOM      3  C   UNL     1      19.287   0.594  40.613  1.00  0.00     0.000 C 
BRANCH   3   4
ATOM      4  C   UNL     1      18.694   1.182  39.319  1.00  0.00     0.000 C 
BRANCH   4   5
ATOM      5  C   UNL     1      17.388   0.490  38.891  1.00  0.00     0.006 C 
BRANCH   5   6
ATOM      6  C   UNL     1      16.534   1.379  37.978  1.00  0.00     0.053 C 
BRANCH   6   7
ATOM      7  C   UNL     1      15.215   0.745  37.656  1.00  0.00     0.041 C 
ATOM      8  O   UNL     1      15.045   0.163  36.552  1.00  0.00    -0.550 OA
ATOM      9  O   UNL     1      14.166   0.819  38.563  1.00  0.00    -0.550 OA
ENDBRANCH   6   7
ENDBRANCH   5   6
ENDBRANCH   4   5
ENDBRANCH   3   4
ENDBRANCH   2   3
ENDBRANCH   1   2
BRANCH   1  10
ATOM     10  C   UNL     1      19.601   0.943  43.456  1.00  0.00     0.000 C 
BRANCH  10  11
ATOM     11  C   UNL     1      18.453   1.611  44.234  1.00  0.00    -0.000 C 
BRANCH  11  12
ATOM     12  C   UNL     1      17.037   1.149  43.833  1.00  0.00    -0.000 C 
BRANCH  12  13
ATOM     13  C   UNL     1      16.563   1.631  42.450  1.00  0.00    -0.000 C 
BRANCH  13  14
ATOM     14  C   UNL     1      16.768   3.141  42.245  1.00  0.00    -0.000 C 
BRANCH  14  15
ATOM     15  C   UNL     1      16.143   3.649  40.935  1.00  0.00    -0.000 C 
BRANCH  15  16
ATOM     16  C   UNL     1      17.132   4.464  40.087  1.00  0.00    -0.003 C 
ATOM     17  C   UNL     1      18.457   4.652  40.819  1.00  0.00     0.004 C 
ENDBRANCH  15  16
ENDBRANCH  14  15
ENDBRANCH  13  14
ENDBRANCH  12  13
ENDBRANCH  11  12
ENDBRANCH  10  11
ENDBRANCH   1  10
TORSDOF 13
ENDMDL
MODEL 9
REMARK VINA RESULT:    -2.918      1.516      2.337
REMARK INTER + INTRA:          -7.379
REMARK INTER:                  -5.746
REMARK INTRA:                  -1.632
REMARK UNBOUND:                -2.243
REMARK SMILES CCCCCCCCCCCCCCC(=O)[O-]
REMARK SMILES IDX 9 1 10 2 11 3 12 4 13 5 14 6 15 7 16 8 17 9 8 10 7 11 6 12
REMARK SMILES IDX 5 13 4 14 3 15 2 16 1 17
REMARK H PARENT
REMARK Flexibility Score: inf
ROOT
ATOM      1  C   UNL     1      18.828   0.476  42.020  1.00  0.00     0.000 C 
ENDROOT
BRANCH   1   2
ATOM      2  C   UNL     1      18.356   1.812  41.429  1.00  0.00     0.000 C 
BRANCH   2   3
ATOM      3  C   UNL     1      16.825   1.973  41.456  1.00  0.00     0.000 C 
BRANCH   3   4
ATOM      4  C   UNL     1      16.120   1.734  40.108  1.00  0.00     0.000 C 
BRANCH   4   5
ATOM      5  C   UNL     1      15.927   3.025  39.296  1.00  0.00     0.006 C 
BRANCH   5   6
ATOM      6  C   UNL     1      14.621   3.013  38.490  1.00  0.00     0.053 C 
BRANCH   6   7
ATOM      7  C   UNL     1      14.430   1.721  37.756  1.00  0.00     0.041 C 
ATOM      8  O   UNL     1      15.151   1.445  36.761  1.00  0.00    -0.550 OA
ATOM      9  O   UNL     1      13.438   0.833  38.154  1.00  0.00    -0.550 OA
ENDBRANCH   6   7
ENDBRANCH   5   6
ENDBRANCH   4   5
ENDBRANCH   3   4
ENDBRANCH   2   3
ENDBRANCH   1   2
BRANCH   1  10
ATOM     10  C   UNL     1      19.382   0.670  43.440  1.00  0.00     0.000 C 
BRANCH  10  11
ATOM     11  C   UNL     1      19.736   2.136  43.748  1.00  0.00    -0.000 C 
BRANCH  11  12
ATOM     12  C   UNL     1      19.718   2.512  45.244  1.00  0.00    -0.000 C 
BRANCH  12  13
ATOM     13  C   UNL     1      18.615   3.506  45.651  1.00  0.00    -0.000 C 
BRANCH  13  14
ATOM     14  C   UNL     1      17.594   3.753  44.528  1.00  0.00    -0.000 C 
BRANCH  14  15
ATOM     15  C   UNL     1      16.166   3.348  44.928  1.00  0.00    -0.000 C 
BRANCH  15  16
ATOM     16  C   UNL     1      16.123   2.012  45.685  1.00  0.00    -0.003 C 
ATOM     17  C   UNL     1      15.890   0.847  44.729  1.00  0.00     0.004 C 
ENDBRANCH  15  16
ENDBRANCH  14  15
ENDBRANCH  13  14
ENDBRANCH  12  13
ENDBRANCH  11  12
ENDBRANCH  10  11
ENDBRANCH   1  10
TORSDOF 13
ENDMDL
