MODEL 1
REMARK VINA RESULT:    -3.524      0.000      0.000
REMARK INTER + INTRA:          -4.656
REMARK INTER:                  -4.554
REMARK INTRA:                  -0.103
REMARK UNBOUND:                -0.103
REMARK SMILES CCCCCCC(=O)[O-]
REMARK SMILES IDX 5 1 6 2 7 3 8 4 9 5 4 6 3 7 2 8 1 9
REMARK H PARENT
REMARK Flexibility Score: inf
ROOT
ATOM      1  C   UNL     1     -24.018  28.341   8.321  1.00  0.00     0.006 C 
ENDROOT
BRANCH   1   2
ATOM      2  C   UNL     1     -23.832  27.086   7.458  1.00  0.00     0.053 C 
BRANCH   2   3
ATOM      3  C   UNL     1     -23.606  25.863   8.294  1.00  0.00     0.041 C 
ATOM      4  O   UNL     1     -24.117  24.763   7.957  1.00  0.00    -0.550 OA
ATOM      5  O   UNL     1     -22.861  25.947   9.463  1.00  0.00    -0.550 OA
ENDBRANCH   2   3
ENDBRANCH   1   2
BRANCH   1   6
ATOM      6  C   UNL     1     -23.920  29.633   7.494  1.00  0.00     0.000 C 
BRANCH   6   7
ATOM      7  C   UNL     1     -23.279  30.762   8.316  1.00  0.00    -0.000 C 
BRANCH   7   8
ATOM      8  C   UNL     1     -22.296  31.606   7.492  1.00  0.00    -0.003 C 
ATOM      9  C   UNL     1     -20.888  31.624   8.087  1.00  0.00     0.004 C 
ENDBRANCH   7   8
ENDBRANCH   6   7
ENDBRANCH   1   6
TORSDOF 5
ENDMDL
MODEL 2
REMARK VINA RESULT:    -3.258      3.904      5.866
REMARK INTER + INTRA:          -4.313
REMARK INTER:                  -3.999
REMARK INTRA:                  -0.314
REMARK UNBOUND:                -0.103
REMARK SMILES CCCCCCC(=O)[O-]
REMARK SMILES IDX 5 1 6 2 7 3 8 4 9 5 4 6 3 7 2 8 1 9
REMARK H PARENT
REMARK Flexibility Score: inf
ROOT
ATOM      1  C   UNL     1     -22.848  25.916  11.226  1.00  0.00     0.006 C 
ENDROOT
BRANCH   1   2
ATOM      2  C   UNL     1     -23.186  26.121   9.743  1.00  0.00     0.053 C 
BRANCH   2   3
ATOM      3  C   UNL     1     -22.682  24.993   8.895  1.00  0.00     0.041 C 
ATOM      4  O   UNL     1     -23.486  24.144   8.429  1.00  0.00    -0.550 OA
ATOM      5  O   UNL     1     -21.322  24.861   8.649  1.00  0.00    -0.550 OA
ENDBRANCH   2   3
ENDBRANCH   1   2
BRANCH   1   6
ATOM      6  C   UNL     1     -23.659  24.771  11.853  1.00  0.00     0.000 C 
BRANCH   6   7
ATOM      7  C   UNL     1     -22.758  23.868  12.709  1.00  0.00    -0.000 C 
BRANCH   7   8
ATOM      8  C   UNL     1     -21.274  23.988  12.334  1.00  0.00    -0.003 C 
ATOM      9  C   UNL     1     -20.356  24.029  13.556  1.00  0.00     0.004 C 
ENDBRANCH   7   8
ENDBRANCH   6   7
ENDBRANCH   1   6
TORSDOF 5
ENDMDL
MODEL 3
REMARK VINA RESULT:    -3.125      3.446      4.915
REMARK INTER + INTRA:          -4.141
REMARK INTER:                  -3.998
REMARK INTRA:                  -0.143
REMARK UNBOUND:                -0.103
REMARK SMILES CCCCCCC(=O)[O-]
REMARK SMILES IDX 5 1 6 2 7 3 8 4 9 5 4 6 3 7 2 8 1 9
REMARK H PARENT
REMARK Flexibility Score: inf
ROOT
ATOM      1  C   UNL     1     -22.250  25.368  10.508  1.00  0.00     0.006 C 
ENDROOT
BRANCH   1   2
ATOM      2  C   UNL     1     -22.393  23.886  10.879  1.00  0.00     0.053 C 
BRANCH   2   3
ATOM      3  C   UNL     1     -22.017  23.630  12.306  1.00  0.00     0.041 C 
ATOM      4  O   UNL     1     -20.813  23.432  12.618  1.00  0.00    -0.550 OA
ATOM      5  O   UNL     1     -23.000  23.577  13.286  1.00  0.00    -0.550 OA
ENDBRANCH   2   3
ENDBRANCH   1   2
BRANCH   1   6
ATOM      6  C   UNL     1     -23.465  25.890   9.724  1.00  0.00     0.000 C 
BRANCH   6   7
ATOM      7  C   UNL     1     -23.400  25.447   8.254  1.00  0.00    -0.000 C 
BRANCH   7   8
ATOM      8  C   UNL     1     -23.516  26.626   7.277  1.00  0.00    -0.003 C 
ATOM      9  C   UNL     1     -24.125  27.871   7.921  1.00  0.00     0.004 C 
ENDBRANCH   7   8
ENDBRANCH   6   7
ENDBRANCH   1   6
TORSDOF 5
ENDMDL
MODEL 4
REMARK VINA RESULT:    -3.083      6.142      7.984
REMARK INTER + INTRA:          -4.086
REMARK INTER:                  -3.973
REMARK INTRA:                  -0.113
REMARK UNBOUND:                -0.103
REMARK SMILES CCCCCCC(=O)[O-]
REMARK SMILES IDX 5 1 6 2 7 3 8 4 9 5 4 6 3 7 2 8 1 9
REMARK H PARENT
REMARK Flexibility Score: inf
ROOT
ATOM      1  C   UNL     1     -21.386  24.004  12.861  1.00  0.00     0.006 C 
ENDROOT
BRANCH   1   2
ATOM      2  C   UNL     1     -21.826  23.467  11.493  1.00  0.00     0.053 C 
BRANCH   2   3
ATOM      3  C   UNL     1     -22.454  24.536  10.650  1.00  0.00     0.041 C 
ATOM      4  O   UNL     1     -22.603  25.698  11.111  1.00  0.00    -0.550 OA
ATOM      5  O   UNL     1     -22.904  24.238   9.371  1.00  0.00    -0.550 OA
ENDBRANCH   2   3
ENDBRANCH   1   2
BRANCH   1   6
ATOM      6  C   UNL     1     -19.929  23.639  13.188  1.00  0.00     0.000 C 
BRANCH   6   7
ATOM      7  C   UNL     1     -19.512  24.214  14.549  1.00  0.00    -0.000 C 
BRANCH   7   8
ATOM      8  C   UNL     1     -19.981  23.346  15.726  1.00  0.00    -0.003 C 
ATOM      9  C   UNL     1     -19.118  23.525  16.975  1.00  0.00     0.004 C 
ENDBRANCH   7   8
ENDBRANCH   6   7
ENDBRANCH   1   6
TORSDOF 5
ENDMDL
MODEL 5
REMARK VINA RESULT:    -2.997      3.817      5.440
REMARK INTER + INTRA:          -3.975
REMARK INTER:                  -3.804
REMARK INTRA:                  -0.170
REMARK UNBOUND:                -0.103
REMARK SMILES CCCCCCC(=O)[O-]
REMARK SMILES IDX 5 1 6 2 7 3 8 4 9 5 4 6 3 7 2 8 1 9
REMARK H PARENT
REMARK Flexibility Score: inf
ROOT
ATOM      1  C   UNL     1     -23.969  24.400  11.333  1.00  0.00     0.006 C 
ENDROOT
BRANCH   1   2
ATOM      2  C   UNL     1     -23.667  23.718  12.674  1.00  0.00     0.053 C 
BRANCH   2   3
ATOM      3  C   UNL     1     -22.210  23.406  12.825  1.00  0.00     0.041 C 
ATOM      4  O   UNL     1     -21.620  23.650  13.910  1.00  0.00    -0.550 OA
ATOM      5  O   UNL     1     -21.497  22.877  11.757  1.00  0.00    -0.550 OA
ENDBRANCH   2   3
ENDBRANCH   1   2
BRANCH   1   6
ATOM      6  C   UNL     1     -23.245  25.748  11.191  1.00  0.00     0.000 C 
BRANCH   6   7
ATOM      7  C   UNL     1     -22.749  25.954   9.752  1.00  0.00    -0.000 C 
BRANCH   7   8
ATOM      8  C   UNL     1     -23.769  26.697   8.876  1.00  0.00    -0.003 C 
ATOM      9  C   UNL     1     -23.449  26.602   7.384  1.00  0.00     0.004 C 
ENDBRANCH   7   8
ENDBRANCH   6   7
ENDBRANCH   1   6
TORSDOF 5
ENDMDL
MODEL 6
REMARK VINA RESULT:    -2.975     13.551     14.552
REMARK INTER + INTRA:          -3.947
REMARK INTER:                  -3.775
REMARK INTRA:                  -0.173
REMARK UNBOUND:                -0.103
REMARK SMILES CCCCCCC(=O)[O-]
REMARK SMILES IDX 5 1 6 2 7 3 8 4 9 5 4 6 3 7 2 8 1 9
REMARK H PARENT
REMARK Flexibility Score: inf
ROOT
ATOM      1  C   UNL     1     -20.970  32.505  22.597  1.00  0.00     0.006 C 
ENDROOT
BRANCH   1   2
ATOM      2  C   UNL     1     -22.018  32.808  21.517  1.00  0.00     0.053 C 
BRANCH   2   3
ATOM      3  C   UNL     1     -21.974  34.242  21.084  1.00  0.00     0.041 C 
ATOM      4  O   UNL     1     -21.364  35.095  21.782  1.00  0.00    -0.550 OA
ATOM      5  O   UNL     1     -22.634  34.641  19.930  1.00  0.00    -0.550 OA
ENDBRANCH   2   3
ENDBRANCH   1   2
BRANCH   1   6
ATOM      6  C   UNL     1     -20.305  31.135  22.391  1.00  0.00     0.000 C 
BRANCH   6   7
ATOM      7  C   UNL     1     -20.858  30.440  21.138  1.00  0.00    -0.000 C 
BRANCH   7   8
ATOM      8  C   UNL     1     -19.766  29.717  20.334  1.00  0.00    -0.003 C 
ATOM      9  C   UNL     1     -20.336  28.839  19.220  1.00  0.00     0.004 C 
ENDBRANCH   7   8
ENDBRANCH   6   7
ENDBRANCH   1   6
TORSDOF 5
ENDMDL
MODEL 7
REMARK VINA RESULT:    -2.938     12.932     13.543
REMARK INTER + INTRA:          -3.899
REMARK INTER:                  -3.644
REMARK INTRA:                  -0.255
REMARK UNBOUND:                -0.103
REMARK SMILES CCCCCCC(=O)[O-]
REMARK SMILES IDX 5 1 6 2 7 3 8 4 9 5 4 6 3 7 2 8 1 9
REMARK H PARENT
REMARK Flexibility Score: inf
ROOT
ATOM      1  C   UNL     1     -19.672  29.712  20.266  1.00  0.00     0.006 C 
ENDROOT
BRANCH   1   2
ATOM      2  C   UNL     1     -20.441  28.787  19.312  1.00  0.00     0.053 C 
BRANCH   2   3
ATOM      3  C   UNL     1     -21.909  28.776  19.610  1.00  0.00     0.041 C 
ATOM      4  O   UNL     1     -22.438  29.742  20.220  1.00  0.00    -0.550 OA
ATOM      5  O   UNL     1     -22.685  27.683  19.244  1.00  0.00    -0.550 OA
ENDBRANCH   2   3
ENDBRANCH   1   2
BRANCH   1   6
ATOM      6  C   UNL     1     -19.049  28.945  21.443  1.00  0.00     0.000 C 
BRANCH   6   7
ATOM      7  C   UNL     1     -18.927  29.845  22.681  1.00  0.00    -0.000 C 
BRANCH   7   8
ATOM      8  C   UNL     1     -19.902  31.032  22.646  1.00  0.00    -0.003 C 
ATOM      9  C   UNL     1     -19.347  32.274  23.343  1.00  0.00     0.004 C 
ENDBRANCH   7   8
ENDBRANCH   6   7
ENDBRANCH   1   6
TORSDOF 5
ENDMDL
MODEL 8
REMARK VINA RESULT:    -2.935      5.586      7.487
REMARK INTER + INTRA:          -3.895
REMARK INTER:                  -3.708
REMARK INTRA:                  -0.187
REMARK UNBOUND:                -0.103
REMARK SMILES CCCCCCC(=O)[O-]
REMARK SMILES IDX 5 1 6 2 7 3 8 4 9 5 4 6 3 7 2 8 1 9
REMARK H PARENT
REMARK Flexibility Score: inf
ROOT
ATOM      1  C   UNL     1     -21.090  23.827  12.568  1.00  0.00     0.006 C 
ENDROOT
BRANCH   1   2
ATOM      2  C   UNL     1     -20.220  23.031  13.551  1.00  0.00     0.053 C 
BRANCH   2   3
ATOM      3  C   UNL     1     -20.423  23.482  14.965  1.00  0.00     0.041 C 
ATOM      4  O   UNL     1     -21.576  23.479  15.471  1.00  0.00    -0.550 OA
ATOM      5  O   UNL     1     -19.344  23.937  15.712  1.00  0.00    -0.550 OA
ENDBRANCH   2   3
ENDBRANCH   1   2
BRANCH   1   6
ATOM      6  C   UNL     1     -21.907  22.911  11.644  1.00  0.00     0.000 C 
BRANCH   6   7
ATOM      7  C   UNL     1     -22.762  23.736  10.671  1.00  0.00    -0.000 C 
BRANCH   7   8
ATOM      8  C   UNL     1     -22.055  25.018  10.205  1.00  0.00    -0.003 C 
ATOM      9  C   UNL     1     -22.929  26.264  10.354  1.00  0.00     0.004 C 
ENDBRANCH   7   8
ENDBRANCH   6   7
ENDBRANCH   1   6
TORSDOF 5
ENDMDL
