MODEL 1
REMARK VINA RESULT:    -3.577      0.000      0.000
REMARK INTER + INTRA:          -5.741
REMARK INTER:                  -5.250
REMARK INTRA:                  -0.491
REMARK UNBOUND:                -0.491
REMARK SMILES C=C1C=C[C@@H](C(C)C)CCC(C)=CCC1
REMARK SMILES IDX 3 1 4 2 5 3 9 4 10 5 11 6 12 7 13 8 6 10 7 11 8 12 2 13 1 14
REMARK SMILES IDX 15 15 14 16
REMARK H PARENT
REMARK Flexibility Score: 70.00
ROOT
ATOM      1  C   UNL     1     137.724 140.481 133.884  1.00  0.00    -0.001 C 
ATOM      2  C   UNL     1     137.506 140.121 135.168  1.00  0.00    -0.023 C 
ENDROOT
BRANCH   2   3
ATOM      3  C   UNL     1     136.279 139.511 135.846  1.00  0.00     0.014 C 
BRANCH   3   4
ATOM      4  C   UNL     1     135.110 140.477 136.161  1.00  0.00     0.012 C 
BRANCH   4   5
ATOM      5  C   UNL     1     134.007 140.418 135.088  1.00  0.00     0.031 C 
BRANCH   5   6
ATOM      6  C   UNL     1     133.701 138.990 134.687  1.00  0.00    -0.077 C 
ATOM      7  C   UNL     1     133.026 138.097 135.697  1.00  0.00     0.039 C 
ATOM      8  C   UNL     1     133.960 138.485 133.459  1.00  0.00    -0.028 CG0
ATOM      9  G   UNL     1     134.589 139.234 132.306  1.00  0.00     0.000 G0
ENDBRANCH   5   6
ENDBRANCH   4   5
ENDBRANCH   3   4
BRANCH   3  10
ATOM     10  C   UNL     1     136.696 138.573 137.019  1.00  0.00    -0.010 C 
ATOM     11  C   UNL     1     135.984 138.918 138.338  1.00  0.00     0.008 C 
ATOM     12  C   UNL     1     138.210 138.498 137.241  1.00  0.00     0.008 C 
ENDBRANCH   3  10
ENDBRANCH   2   3
BRANCH   1  13
ATOM     13  C   UNL     1     136.777 140.477 132.746  1.00  0.00    -0.055 C 
ATOM     14  C   UNL     1     136.763 141.495 131.880  1.00  0.00     0.012 C 
BRANCH  13  15
ATOM     15  C   UNL     1     136.132 139.168 132.344  1.00  0.00     0.039 C 
BRANCH  15  16
ATOM     16  C   UNL     1     134.604 139.236 132.288  1.00  0.00     0.032 CG0
ATOM     17  G   UNL     1     133.962 138.489 133.435  1.00  0.00     0.000 G0
ENDBRANCH  15  16
ENDBRANCH  13  15
ENDBRANCH   1  13
TORSDOF 1
ENDMDL
MODEL 2
REMARK VINA RESULT:    -3.576      5.955      7.383
REMARK INTER + INTRA:          -5.740
REMARK INTER:                  -5.282
REMARK INTRA:                  -0.458
REMARK UNBOUND:                -0.491
REMARK SMILES C=C1C=C[C@@H](C(C)C)CCC(C)=CCC1
REMARK SMILES IDX 3 1 4 2 5 3 9 4 10 5 11 6 12 7 13 8 6 10 7 11 8 12 2 13 1 14
REMARK SMILES IDX 15 15 14 16
REMARK H PARENT
REMARK Flexibility Score: 70.00
ROOT
ATOM      1  C   UNL     1     134.882 132.070 133.996  1.00  0.00    -0.001 C 
ATOM      2  C   UNL     1     135.104 132.402 135.287  1.00  0.00    -0.023 C 
ENDROOT
BRANCH   2   3
ATOM      3  C   UNL     1     136.308 133.060 135.962  1.00  0.00     0.014 C 
BRANCH   3   4
ATOM      4  C   UNL     1     137.516 132.141 136.273  1.00  0.00     0.012 C 
BRANCH   4   5
ATOM      5  C   UNL     1     138.585 132.200 135.166  1.00  0.00     0.031 C 
BRANCH   5   6
ATOM      6  C   UNL     1     138.910 133.630 134.787  1.00  0.00    -0.077 C 
ATOM      7  C   UNL     1     139.630 134.487 135.796  1.00  0.00     0.039 C 
ATOM      8  C   UNL     1     138.629 134.166 133.577  1.00  0.00    -0.028 CG0
ATOM      9  G   UNL     1     137.956 133.455 132.426  1.00  0.00     0.000 G0
ENDBRANCH   5   6
ENDBRANCH   4   5
ENDBRANCH   3   4
BRANCH   3  10
ATOM     10  C   UNL     1     135.857 133.979 137.138  1.00  0.00    -0.010 C 
ATOM     11  C   UNL     1     136.447 133.545 138.491  1.00  0.00     0.008 C 
ATOM     12  C   UNL     1     134.337 134.136 137.251  1.00  0.00     0.008 C 
ENDBRANCH   3  10
ENDBRANCH   2   3
BRANCH   1  13
ATOM     13  C   UNL     1     135.805 132.163 132.842  1.00  0.00    -0.055 C 
ATOM     14  C   UNL     1     135.813 131.205 131.910  1.00  0.00     0.012 C 
BRANCH  13  15
ATOM     15  C   UNL     1     136.427 133.504 132.516  1.00  0.00     0.039 C 
BRANCH  15  16
ATOM     16  C   UNL     1     137.953 133.457 132.413  1.00  0.00     0.032 CG0
ATOM     17  G   UNL     1     138.620 134.150 133.579  1.00  0.00     0.000 G0
ENDBRANCH  15  16
ENDBRANCH  13  15
ENDBRANCH   1  13
TORSDOF 1
ENDMDL
MODEL 3
REMARK VINA RESULT:    -3.511      4.210      5.939
REMARK INTER + INTRA:          -5.643
REMARK INTER:                  -5.145
REMARK INTRA:                  -0.499
REMARK UNBOUND:                -0.491
REMARK SMILES C=C1C=C[C@@H](C(C)C)CCC(C)=CCC1
REMARK SMILES IDX 3 1 4 2 5 3 9 4 10 5 11 6 12 7 13 8 6 10 7 11 8 12 2 13 1 14
REMARK SMILES IDX 15 15 14 16
REMARK H PARENT
REMARK Flexibility Score: 70.00
ROOT
ATOM      1  C   UNL     1     131.851 135.991 135.290  1.00  0.00    -0.001 C 
ATOM      2  C   UNL     1     132.039 135.154 136.333  1.00  0.00    -0.023 C 
ENDROOT
BRANCH   2   3
ATOM      3  C   UNL     1     133.296 134.816 137.135  1.00  0.00     0.014 C 
BRANCH   3   4
ATOM      4  C   UNL     1     133.841 133.373 136.994  1.00  0.00     0.012 C 
BRANCH   4   5
ATOM      5  C   UNL     1     133.388 132.711 135.679  1.00  0.00     0.031 C 
BRANCH   5   6
ATOM      6  C   UNL     1     134.461 132.806 134.614  1.00  0.00    -0.077 C 
ATOM      7  C   UNL     1     135.650 131.886 134.718  1.00  0.00     0.039 C 
ATOM      8  C   UNL     1     134.388 133.640 133.551  1.00  0.00    -0.028 CG0
ATOM      9  G   UNL     1     133.260 134.601 133.251  1.00  0.00     0.000 G0
ENDBRANCH   5   6
ENDBRANCH   4   5
ENDBRANCH   3   4
BRANCH   3  10
ATOM     10  C   UNL     1     133.183 135.339 138.600  1.00  0.00    -0.010 C 
ATOM     11  C   UNL     1     133.753 136.758 138.770  1.00  0.00     0.008 C 
ATOM     12  C   UNL     1     133.796 134.396 139.640  1.00  0.00     0.008 C 
ENDBRANCH   3  10
ENDBRANCH   2   3
BRANCH   1  13
ATOM     13  C   UNL     1     132.854 136.776 134.537  1.00  0.00    -0.055 C 
ATOM     14  C   UNL     1     133.249 137.971 134.988  1.00  0.00     0.012 C 
BRANCH  13  15
ATOM     15  C   UNL     1     133.708 136.066 133.508  1.00  0.00     0.039 C 
BRANCH  15  16
ATOM     16  C   UNL     1     133.273 134.621 133.250  1.00  0.00     0.032 CG0
ATOM     17  G   UNL     1     134.385 133.637 133.530  1.00  0.00     0.000 G0
ENDBRANCH  15  16
ENDBRANCH  13  15
ENDBRANCH   1  13
TORSDOF 1
ENDMDL
MODEL 4
REMARK VINA RESULT:    -3.492      4.912      6.727
REMARK INTER + INTRA:          -5.616
REMARK INTER:                  -5.067
REMARK INTRA:                  -0.549
REMARK UNBOUND:                -0.491
REMARK SMILES C=C1C=C[C@@H](C(C)C)CCC(C)=CCC1
REMARK SMILES IDX 3 1 4 2 5 3 9 4 10 5 11 6 12 7 13 8 6 10 7 11 8 12 2 13 1 14
REMARK SMILES IDX 15 15 14 16
REMARK H PARENT
REMARK Flexibility Score: 70.00
ROOT
ATOM      1  C   UNL     1     140.806 135.534 134.478  1.00  0.00    -0.001 C 
ATOM      2  C   UNL     1     140.247 134.371 134.878  1.00  0.00    -0.023 C 
ENDROOT
BRANCH   2   3
ATOM      3  C   UNL     1     138.944 134.089 135.627  1.00  0.00     0.014 C 
BRANCH   3   4
ATOM      4  C   UNL     1     139.016 134.104 137.174  1.00  0.00     0.012 C 
BRANCH   4   5
ATOM      5  C   UNL     1     138.135 135.211 137.783  1.00  0.00     0.031 C 
BRANCH   5   6
ATOM      6  C   UNL     1     138.937 136.115 138.697  1.00  0.00    -0.077 C 
ATOM      7  C   UNL     1     139.177 135.660 140.114  1.00  0.00     0.039 C 
ATOM      8  C   UNL     1     139.485 137.286 138.299  1.00  0.00    -0.028 CG0
ATOM      9  G   UNL     1     139.392 137.884 136.914  1.00  0.00     0.000 G0
ENDBRANCH   5   6
ENDBRANCH   4   5
ENDBRANCH   3   4
BRANCH   3  10
ATOM     10  C   UNL     1     138.198 132.864 135.012  1.00  0.00    -0.010 C 
ATOM     11  C   UNL     1     137.356 133.239 133.781  1.00  0.00     0.008 C 
ATOM     12  C   UNL     1     137.344 132.092 136.022  1.00  0.00     0.008 C 
ENDBRANCH   3  10
ENDBRANCH   2   3
BRANCH   1  13
ATOM     13  C   UNL     1     140.355 136.919 134.739  1.00  0.00    -0.055 C 
ATOM     14  C   UNL     1     139.410 137.473 133.973  1.00  0.00     0.012 C 
BRANCH  13  15
ATOM     15  C   UNL     1     140.661 137.540 136.085  1.00  0.00     0.039 C 
BRANCH  15  16
ATOM     16  C   UNL     1     139.409 137.871 136.901  1.00  0.00     0.032 CG0
ATOM     17  G   UNL     1     139.481 137.305 138.301  1.00  0.00     0.000 G0
ENDBRANCH  15  16
ENDBRANCH  13  15
ENDBRANCH   1  13
TORSDOF 1
ENDMDL
MODEL 5
REMARK VINA RESULT:    -3.477      2.646      5.277
REMARK INTER + INTRA:          -5.593
REMARK INTER:                  -5.092
REMARK INTRA:                  -0.501
REMARK UNBOUND:                -0.491
REMARK SMILES C=C1C=C[C@@H](C(C)C)CCC(C)=CCC1
REMARK SMILES IDX 3 1 4 2 5 3 9 4 10 5 11 6 12 7 13 8 6 10 7 11 8 12 2 13 1 14
REMARK SMILES IDX 15 15 14 16
REMARK H PARENT
REMARK Flexibility Score: 70.00
ROOT
ATOM      1  C   UNL     1     132.069 136.782 134.891  1.00  0.00    -0.001 C 
ATOM      2  C   UNL     1     132.485 138.055 135.073  1.00  0.00    -0.023 C 
ENDROOT
BRANCH   2   3
ATOM      3  C   UNL     1     133.666 138.622 135.862  1.00  0.00     0.014 C 
BRANCH   3   4
ATOM      4  C   UNL     1     133.533 138.620 137.405  1.00  0.00     0.012 C 
BRANCH   4   5
ATOM      5  C   UNL     1     134.142 137.354 138.036  1.00  0.00     0.031 C 
BRANCH   5   6
ATOM      6  C   UNL     1     135.512 137.056 137.463  1.00  0.00    -0.077 C 
ATOM      7  C   UNL     1     136.627 138.031 137.742  1.00  0.00     0.039 C 
ATOM      8  C   UNL     1     135.800 135.941 136.753  1.00  0.00    -0.028 CG0
ATOM      9  G   UNL     1     134.833 134.831 136.411  1.00  0.00     0.000 G0
ENDBRANCH   5   6
ENDBRANCH   4   5
ENDBRANCH   3   4
BRANCH   3  10
ATOM     10  C   UNL     1     134.159 139.965 135.243  1.00  0.00    -0.010 C 
ATOM     11  C   UNL     1     135.073 139.757 134.023  1.00  0.00     0.008 C 
ATOM     12  C   UNL     1     134.832 140.899 136.253  1.00  0.00     0.008 C 
ENDBRANCH   3  10
ENDBRANCH   2   3
BRANCH   1  13
ATOM     13  C   UNL     1     132.594 135.538 135.497  1.00  0.00    -0.055 C 
ATOM     14  C   UNL     1     131.754 134.635 136.011  1.00  0.00     0.012 C 
BRANCH  13  15
ATOM     15  C   UNL     1     134.011 135.116 135.174  1.00  0.00     0.039 C 
BRANCH  15  16
ATOM     16  C   UNL     1     134.851 134.806 136.415  1.00  0.00     0.032 CG0
ATOM     17  G   UNL     1     135.787 135.941 136.762  1.00  0.00     0.000 G0
ENDBRANCH  15  16
ENDBRANCH  13  15
ENDBRANCH   1  13
TORSDOF 1
ENDMDL
MODEL 6
REMARK VINA RESULT:    -3.387      3.191      6.163
REMARK INTER + INTRA:          -5.462
REMARK INTER:                  -4.903
REMARK INTRA:                  -0.560
REMARK UNBOUND:                -0.491
REMARK SMILES C=C1C=C[C@@H](C(C)C)CCC(C)=CCC1
REMARK SMILES IDX 3 1 4 2 5 3 9 4 10 5 11 6 12 7 13 8 6 10 7 11 8 12 2 13 1 14
REMARK SMILES IDX 15 15 14 16
REMARK H PARENT
REMARK Flexibility Score: 70.00
ROOT
ATOM      1  C   UNL     1     132.154 135.250 136.277  1.00  0.00    -0.001 C 
ATOM      2  C   UNL     1     132.079 136.184 135.303  1.00  0.00    -0.023 C 
ENDROOT
BRANCH   2   3
ATOM      3  C   UNL     1     133.154 136.762 134.381  1.00  0.00     0.014 C 
BRANCH   3   4
ATOM      4  C   UNL     1     133.554 138.239 134.625  1.00  0.00     0.012 C 
BRANCH   4   5
ATOM      5  C   UNL     1     133.147 138.723 136.029  1.00  0.00     0.031 C 
BRANCH   5   6
ATOM      6  C   UNL     1     134.339 138.773 136.963  1.00  0.00    -0.077 C 
ATOM      7  C   UNL     1     135.294 139.931 136.836  1.00  0.00     0.039 C 
ATOM      8  C   UNL     1     134.568 137.858 137.933  1.00  0.00    -0.028 CG0
ATOM      9  G   UNL     1     133.704 136.657 138.243  1.00  0.00     0.000 G0
ENDBRANCH   5   6
ENDBRANCH   4   5
ENDBRANCH   3   4
BRANCH   3  10
ATOM     10  C   UNL     1     132.875 136.390 132.893  1.00  0.00    -0.010 C 
ATOM     11  C   UNL     1     131.452 136.766 132.443  1.00  0.00     0.008 C 
ATOM     12  C   UNL     1     133.164 134.923 132.559  1.00  0.00     0.008 C 
ENDBRANCH   3  10
ENDBRANCH   2   3
BRANCH   1  13
ATOM     13  C   UNL     1     133.350 134.565 136.815  1.00  0.00    -0.055 C 
ATOM     14  C   UNL     1     133.748 133.400 136.295  1.00  0.00     0.012 C 
BRANCH  13  15
ATOM     15  C   UNL     1     134.327 135.362 137.653  1.00  0.00     0.039 C 
BRANCH  15  16
ATOM     16  C   UNL     1     133.723 136.639 138.241  1.00  0.00     0.032 CG0
ATOM     17  G   UNL     1     134.575 137.854 137.949  1.00  0.00     0.000 G0
ENDBRANCH  15  16
ENDBRANCH  13  15
ENDBRANCH   1  13
TORSDOF 1
ENDMDL
MODEL 7
REMARK VINA RESULT:    -3.374      2.325      5.324
REMARK INTER + INTRA:          -5.443
REMARK INTER:                  -5.118
REMARK INTRA:                  -0.325
REMARK UNBOUND:                -0.491
REMARK SMILES C=C1C=C[C@@H](C(C)C)CCC(C)=CCC1
REMARK SMILES IDX 3 1 4 2 5 3 9 4 10 5 11 6 12 7 13 8 6 10 7 11 8 12 2 13 1 14
REMARK SMILES IDX 15 15 14 16
REMARK H PARENT
REMARK Flexibility Score: 70.00
ROOT
ATOM      1  C   UNL     1     135.177 140.442 136.318  1.00  0.00    -0.001 C 
ATOM      2  C   UNL     1     136.018 140.608 135.274  1.00  0.00    -0.023 C 
ENDROOT
BRANCH   2   3
ATOM      3  C   UNL     1     136.795 139.591 134.439  1.00  0.00     0.014 C 
BRANCH   3   4
ATOM      4  C   UNL     1     138.341 139.678 134.503  1.00  0.00     0.012 C 
BRANCH   4   5
ATOM      5  C   UNL     1     138.846 139.917 135.939  1.00  0.00     0.031 C 
BRANCH   5   6
ATOM      6  C   UNL     1     139.179 138.611 136.631  1.00  0.00    -0.077 C 
ATOM      7  C   UNL     1     140.490 137.946 136.302  1.00  0.00     0.039 C 
ATOM      8  C   UNL     1     138.384 138.034 137.561  1.00  0.00    -0.028 CG0
ATOM      9  G   UNL     1     137.059 138.570 138.054  1.00  0.00     0.000 G0
ENDBRANCH   5   6
ENDBRANCH   4   5
ENDBRANCH   3   4
BRANCH   3  10
ATOM     10  C   UNL     1     136.200 139.473 133.002  1.00  0.00    -0.010 C 
ATOM     11  C   UNL     1     136.365 140.764 132.182  1.00  0.00     0.008 C 
ATOM     12  C   UNL     1     134.738 139.014 132.976  1.00  0.00     0.008 C 
ENDBRANCH   3  10
ENDBRANCH   2   3
BRANCH   1  13
ATOM     13  C   UNL     1     134.829 139.197 137.040  1.00  0.00    -0.055 C 
ATOM     14  C   UNL     1     133.548 138.868 137.233  1.00  0.00     0.012 C 
BRANCH  13  15
ATOM     15  C   UNL     1     135.888 138.127 137.193  1.00  0.00     0.039 C 
BRANCH  15  16
ATOM     16  C   UNL     1     137.065 138.557 138.073  1.00  0.00     0.032 CG0
ATOM     17  G   UNL     1     138.381 138.021 137.558  1.00  0.00     0.000 G0
ENDBRANCH  15  16
ENDBRANCH  13  15
ENDBRANCH   1  13
TORSDOF 1
ENDMDL
MODEL 8
REMARK VINA RESULT:    -3.357      1.508      2.453
REMARK INTER + INTRA:          -5.418
REMARK INTER:                  -4.919
REMARK INTRA:                  -0.499
REMARK UNBOUND:                -0.491
REMARK SMILES C=C1C=C[C@@H](C(C)C)CCC(C)=CCC1
REMARK SMILES IDX 3 1 4 2 5 3 9 4 10 5 11 6 12 7 13 8 6 10 7 11 8 12 2 13 1 14
REMARK SMILES IDX 15 15 14 16
REMARK H PARENT
REMARK Flexibility Score: 70.00
ROOT
ATOM      1  C   UNL     1     135.502 140.628 135.841  1.00  0.00    -0.001 C 
ATOM      2  C   UNL     1     134.774 140.008 136.795  1.00  0.00    -0.023 C 
ENDROOT
BRANCH   2   3
ATOM      3  C   UNL     1     134.761 138.552 137.260  1.00  0.00     0.014 C 
BRANCH   3   4
ATOM      4  C   UNL     1     133.701 137.627 136.610  1.00  0.00     0.012 C 
BRANCH   4   5
ATOM      5  C   UNL     1     132.793 138.391 135.629  1.00  0.00     0.031 C 
BRANCH   5   6
ATOM      6  C   UNL     1     132.862 137.798 134.236  1.00  0.00    -0.077 C 
ATOM      7  C   UNL     1     132.015 136.589 133.936  1.00  0.00     0.039 C 
ATOM      8  C   UNL     1     133.608 138.322 133.237  1.00  0.00    -0.028 CG0
ATOM      9  G   UNL     1     134.484 139.550 133.331  1.00  0.00     0.000 G0
ENDBRANCH   5   6
ENDBRANCH   4   5
ENDBRANCH   3   4
BRANCH   3  10
ATOM     10  C   UNL     1     134.854 138.459 138.814  1.00  0.00    -0.010 C 
ATOM     11  C   UNL     1     133.538 137.996 139.462  1.00  0.00     0.008 C 
ATOM     12  C   UNL     1     135.346 139.748 139.480  1.00  0.00     0.008 C 
ENDBRANCH   3  10
ENDBRANCH   2   3
BRANCH   1  13
ATOM     13  C   UNL     1     136.458 140.042 134.875  1.00  0.00    -0.055 C 
ATOM     14  C   UNL     1     137.759 139.973 135.175  1.00  0.00     0.012 C 
BRANCH  13  15
ATOM     15  C   UNL     1     135.920 139.174 133.758  1.00  0.00     0.039 C 
BRANCH  15  16
ATOM     16  C   UNL     1     134.499 139.549 133.328  1.00  0.00     0.032 CG0
ATOM     17  G   UNL     1     133.600 138.337 133.231  1.00  0.00     0.000 G0
ENDBRANCH  15  16
ENDBRANCH  13  15
ENDBRANCH   1  13
TORSDOF 1
ENDMDL
MODEL 9
REMARK VINA RESULT:    -3.306      3.331      5.129
REMARK INTER + INTRA:          -5.343
REMARK INTER:                  -4.752
REMARK INTRA:                  -0.591
REMARK UNBOUND:                -0.491
REMARK SMILES C=C1C=C[C@@H](C(C)C)CCC(C)=CCC1
REMARK SMILES IDX 3 1 4 2 5 3 9 4 10 5 11 6 12 7 13 8 6 10 7 11 8 12 2 13 1 14
REMARK SMILES IDX 15 15 14 16
REMARK H PARENT
REMARK Flexibility Score: 70.00
ROOT
ATOM      1  C   UNL     1     139.584 137.184 138.084  1.00  0.00    -0.001 C 
ATOM      2  C   UNL     1     138.865 136.041 138.078  1.00  0.00    -0.023 C 
ENDROOT
BRANCH   2   3
ATOM      3  C   UNL     1     138.336 135.194 136.920  1.00  0.00     0.014 C 
BRANCH   3   4
ATOM      4  C   UNL     1     136.819 135.298 136.623  1.00  0.00     0.012 C 
BRANCH   4   5
ATOM      5  C   UNL     1     136.521 136.289 135.483  1.00  0.00     0.031 C 
BRANCH   5   6
ATOM      6  C   UNL     1     136.008 137.610 136.019  1.00  0.00    -0.077 C 
ATOM      7  C   UNL     1     134.641 137.637 136.653  1.00  0.00     0.039 C 
ATOM      8  C   UNL     1     136.727 138.756 135.998  1.00  0.00    -0.028 CG0
ATOM      9  G   UNL     1     138.126 138.917 135.447  1.00  0.00     0.000 G0
ENDBRANCH   5   6
ENDBRANCH   4   5
ENDBRANCH   3   4
BRANCH   3  10
ATOM     10  C   UNL     1     138.898 133.741 136.986  1.00  0.00    -0.010 C 
ATOM     11  C   UNL     1     139.718 133.364 135.741  1.00  0.00     0.008 C 
ATOM     12  C   UNL     1     137.829 132.678 137.256  1.00  0.00     0.008 C 
ENDBRANCH   3  10
ENDBRANCH   2   3
BRANCH   1  13
ATOM     13  C   UNL     1     140.001 138.025 136.940  1.00  0.00    -0.055 C 
ATOM     14  C   UNL     1     140.877 137.558 136.046  1.00  0.00     0.012 C 
BRANCH  13  15
ATOM     15  C   UNL     1     139.148 139.220 136.569  1.00  0.00     0.039 C 
BRANCH  15  16
ATOM     16  C   UNL     1     138.135 138.923 135.461  1.00  0.00     0.032 CG0
ATOM     17  G   UNL     1     136.732 138.767 136.004  1.00  0.00     0.000 G0
ENDBRANCH  15  16
ENDBRANCH  13  15
ENDBRANCH   1  13
TORSDOF 1
ENDMDL
