MODEL 1
REMARK VINA RESULT:    -4.058      0.000      0.000
REMARK INTER + INTRA:          -4.176
REMARK INTER:                  -4.176
REMARK INTRA:                   0.000
REMARK UNBOUND:                 0.000
REMARK SMILES Nc1ncnc2nc[nH]c12
REMARK SMILES IDX 8 1 7 2 6 3 5 4 4 5 3 6 2 7 10 8 9 9 1 11
REMARK H PARENT 9 10 1 12 1 13
REMARK Flexibility Score: inf
ROOT
ATOM      1  C   UNL     1      86.109   9.992  -7.709  1.00  0.00     0.199 A 
ATOM      2  N   UNL     1      84.904   9.951  -7.077  1.00  0.00    -0.217 NA
ATOM      3  C   UNL     1      84.741   8.636  -6.858  1.00  0.00     0.182 A 
ATOM      4  N   UNL     1      83.686   8.043  -6.248  1.00  0.00    -0.215 NA
ATOM      5  C   UNL     1      83.699   6.681  -6.118  1.00  0.00     0.226 A 
ATOM      6  N   UNL     1      84.754   5.946  -6.593  1.00  0.00    -0.217 NA
ATOM      7  C   UNL     1      85.818   6.542  -7.208  1.00  0.00     0.152 A 
ATOM      8  C   UNL     1      85.791   7.929  -7.334  1.00  0.00     0.127 A 
ATOM      9  N   UNL     1      86.676   8.771  -7.881  1.00  0.00    -0.340 N 
ATOM     10  H   UNL     1      87.590   8.553  -8.336  1.00  0.00     0.168 HD
ENDROOT
BRANCH   7  11
ATOM     11  N   UNL     1      86.907   5.756  -7.697  1.00  0.00    -0.382 N 
ATOM     12  H   UNL     1      87.474   6.062  -8.517  1.00  0.00     0.158 HD
ATOM     13  H   UNL     1      87.150   4.854  -7.229  1.00  0.00     0.158 HD
ENDBRANCH   7  11
TORSDOF 1
ENDMDL
MODEL 2
REMARK VINA RESULT:    -3.837      1.063      3.018
REMARK INTER + INTRA:          -3.949
REMARK INTER:                  -3.949
REMARK INTRA:                   0.000
REMARK UNBOUND:                 0.000
REMARK SMILES Nc1ncnc2nc[nH]c12
REMARK SMILES IDX 8 1 7 2 6 3 5 4 4 5 3 6 2 7 10 8 9 9 1 11
REMARK H PARENT 9 10 1 12 1 13
REMARK Flexibility Score: inf
ROOT
ATOM      1  C   UNL     1      86.072   5.037  -7.975  1.00  0.00     0.199 A 
ATOM      2  N   UNL     1      84.946   5.026  -7.210  1.00  0.00    -0.217 NA
ATOM      3  C   UNL     1      84.751   6.334  -6.970  1.00  0.00     0.182 A 
ATOM      4  N   UNL     1      83.748   6.881  -6.243  1.00  0.00    -0.215 NA
ATOM      5  C   UNL     1      83.717   8.242  -6.109  1.00  0.00     0.226 A 
ATOM      6  N   UNL     1      84.678   9.022  -6.699  1.00  0.00    -0.217 NA
ATOM      7  C   UNL     1      85.690   8.471  -7.434  1.00  0.00     0.152 A 
ATOM      8  C   UNL     1      85.709   7.085  -7.561  1.00  0.00     0.127 A 
ATOM      9  N   UNL     1      86.562   6.281  -8.207  1.00  0.00    -0.340 N 
ATOM     10  H   UNL     1      87.408   6.537  -8.762  1.00  0.00     0.168 HD
ENDROOT
BRANCH   7  11
ATOM     11  N   UNL     1      86.681   9.303  -8.040  1.00  0.00    -0.382 N 
ATOM     12  H   UNL     1      86.796  10.303  -7.763  1.00  0.00     0.158 HD
ATOM     13  H   UNL     1      87.311   8.912  -8.776  1.00  0.00     0.158 HD
ENDBRANCH   7  11
TORSDOF 1
ENDMDL
MODEL 3
REMARK VINA RESULT:    -3.664     14.841     15.428
REMARK INTER + INTRA:          -3.771
REMARK INTER:                  -3.771
REMARK INTRA:                   0.000
REMARK UNBOUND:                 0.000
REMARK SMILES Nc1ncnc2nc[nH]c12
REMARK SMILES IDX 8 1 7 2 6 3 5 4 4 5 3 6 2 7 10 8 9 9 1 11
REMARK H PARENT 9 10 1 12 1 13
REMARK Flexibility Score: inf
ROOT
ATOM      1  C   UNL     1      90.198   3.639   8.496  1.00  0.00     0.199 A 
ATOM      2  N   UNL     1      89.078   3.926   7.778  1.00  0.00    -0.217 NA
ATOM      3  C   UNL     1      89.468   4.987   7.052  1.00  0.00     0.182 A 
ATOM      4  N   UNL     1      88.718   5.673   6.157  1.00  0.00    -0.215 NA
ATOM      5  C   UNL     1      89.293   6.734   5.512  1.00  0.00     0.226 A 
ATOM      6  N   UNL     1      90.593   7.084   5.771  1.00  0.00    -0.217 NA
ATOM      7  C   UNL     1      91.351   6.393   6.674  1.00  0.00     0.152 A 
ATOM      8  C   UNL     1      90.752   5.317   7.322  1.00  0.00     0.127 A 
ATOM      9  N   UNL     1      91.239   4.472   8.239  1.00  0.00    -0.340 N 
ATOM     10  H   UNL     1      92.191   4.448   8.665  1.00  0.00     0.168 HD
ENDROOT
BRANCH   7  11
ATOM     11  N   UNL     1      92.703   6.777   6.929  1.00  0.00    -0.382 N 
ATOM     12  H   UNL     1      93.156   6.594   7.851  1.00  0.00     0.158 HD
ATOM     13  H   UNL     1      93.260   7.250   6.183  1.00  0.00     0.158 HD
ENDBRANCH   7  11
TORSDOF 1
ENDMDL
MODEL 4
REMARK VINA RESULT:    -3.646     14.322     14.964
REMARK INTER + INTRA:          -3.753
REMARK INTER:                  -3.753
REMARK INTRA:                   0.000
REMARK UNBOUND:                 0.000
REMARK SMILES Nc1ncnc2nc[nH]c12
REMARK SMILES IDX 8 1 7 2 6 3 5 4 4 5 3 6 2 7 10 8 9 9 1 11
REMARK H PARENT 9 10 1 12 1 13
REMARK Flexibility Score: inf
ROOT
ATOM      1  C   UNL     1      88.896   6.720   5.677  1.00  0.00     0.199 A 
ATOM      2  N   UNL     1      90.036   6.378   6.339  1.00  0.00    -0.217 NA
ATOM      3  C   UNL     1      89.684   5.230   6.941  1.00  0.00     0.182 A 
ATOM      4  N   UNL     1      90.466   4.463   7.738  1.00  0.00    -0.215 NA
ATOM      5  C   UNL     1      89.927   3.321   8.264  1.00  0.00     0.226 A 
ATOM      6  N   UNL     1      88.630   2.971   7.986  1.00  0.00    -0.217 NA
ATOM      7  C   UNL     1      87.840   3.744   7.182  1.00  0.00     0.152 A 
ATOM      8  C   UNL     1      88.403   4.903   6.654  1.00  0.00     0.127 A 
ATOM      9  N   UNL     1      87.880   5.837   5.851  1.00  0.00    -0.340 N 
ATOM     10  H   UNL     1      86.920   5.887   5.446  1.00  0.00     0.168 HD
ENDROOT
BRANCH   7  11
ATOM     11  N   UNL     1      86.492   3.360   6.906  1.00  0.00    -0.382 N 
ATOM     12  H   UNL     1      86.242   2.372   6.682  1.00  0.00     0.158 HD
ATOM     13  H   UNL     1      85.731   4.076   6.928  1.00  0.00     0.158 HD
ENDBRANCH   7  11
TORSDOF 1
ENDMDL
MODEL 5
REMARK VINA RESULT:    -3.625     14.667     15.374
REMARK INTER + INTRA:          -3.731
REMARK INTER:                  -3.731
REMARK INTRA:                   0.000
REMARK UNBOUND:                 0.000
REMARK SMILES Nc1ncnc2nc[nH]c12
REMARK SMILES IDX 8 1 7 2 6 3 5 4 4 5 3 6 2 7 10 8 9 9 1 11
REMARK H PARENT 9 10 1 12 1 13
REMARK Flexibility Score: inf
ROOT
ATOM      1  C   UNL     1      91.054   4.206   8.576  1.00  0.00     0.199 A 
ATOM      2  N   UNL     1      90.015   3.361   8.822  1.00  0.00    -0.217 NA
ATOM      3  C   UNL     1      89.107   3.751   7.912  1.00  0.00     0.182 A 
ATOM      4  N   UNL     1      87.872   3.226   7.725  1.00  0.00    -0.215 NA
ATOM      5  C   UNL     1      87.086   3.761   6.742  1.00  0.00     0.226 A 
ATOM      6  N   UNL     1      87.544   4.798   5.971  1.00  0.00    -0.217 NA
ATOM      7  C   UNL     1      88.790   5.328   6.157  1.00  0.00     0.152 A 
ATOM      8  C   UNL     1      89.578   4.774   7.162  1.00  0.00     0.127 A 
ATOM      9  N   UNL     1      90.817   5.082   7.566  1.00  0.00    -0.340 N 
ATOM     10  H   UNL     1      91.459   5.818   7.201  1.00  0.00     0.168 HD
ENDROOT
BRANCH   7  11
ATOM     11  N   UNL     1      89.247   6.409   5.342  1.00  0.00    -0.382 N 
ATOM     12  H   UNL     1      88.902   6.538   4.366  1.00  0.00     0.158 HD
ATOM     13  H   UNL     1      89.940   7.092   5.723  1.00  0.00     0.158 HD
ENDBRANCH   7  11
TORSDOF 1
ENDMDL
MODEL 6
REMARK VINA RESULT:    -3.596     14.370     14.874
REMARK INTER + INTRA:          -3.701
REMARK INTER:                  -3.701
REMARK INTRA:                   0.000
REMARK UNBOUND:                 0.000
REMARK SMILES Nc1ncnc2nc[nH]c12
REMARK SMILES IDX 8 1 7 2 6 3 5 4 4 5 3 6 2 7 10 8 9 9 1 11
REMARK H PARENT 9 10 1 12 1 13
REMARK Flexibility Score: inf
ROOT
ATOM      1  C   UNL     1      87.890   6.313   5.690  1.00  0.00     0.199 A 
ATOM      2  N   UNL     1      88.889   7.216   5.492  1.00  0.00    -0.217 NA
ATOM      3  C   UNL     1      89.926   6.638   6.122  1.00  0.00     0.182 A 
ATOM      4  N   UNL     1      91.183   7.130   6.228  1.00  0.00    -0.215 NA
ATOM      5  C   UNL     1      92.109   6.393   6.914  1.00  0.00     0.226 A 
ATOM      6  N   UNL     1      91.764   5.190   7.475  1.00  0.00    -0.217 NA
ATOM      7  C   UNL     1      90.496   4.692   7.369  1.00  0.00     0.152 A 
ATOM      8  C   UNL     1      89.565   5.454   6.668  1.00  0.00     0.127 A 
ATOM      9  N   UNL     1      88.272   5.225   6.406  1.00  0.00    -0.340 N 
ATOM     10  H   UNL     1      87.685   4.407   6.681  1.00  0.00     0.168 HD
ENDROOT
BRANCH   7  11
ATOM     11  N   UNL     1      90.158   3.437   7.962  1.00  0.00    -0.382 N 
ATOM     12  H   UNL     1      89.541   2.752   7.473  1.00  0.00     0.158 HD
ATOM     13  H   UNL     1      90.534   3.187   8.904  1.00  0.00     0.158 HD
ENDBRANCH   7  11
TORSDOF 1
ENDMDL
MODEL 7
REMARK VINA RESULT:    -3.582     14.582     15.003
REMARK INTER + INTRA:          -3.687
REMARK INTER:                  -3.687
REMARK INTRA:                   0.000
REMARK UNBOUND:                 0.000
REMARK SMILES Nc1ncnc2nc[nH]c12
REMARK SMILES IDX 8 1 7 2 6 3 5 4 4 5 3 6 2 7 10 8 9 9 1 11
REMARK H PARENT 9 10 1 12 1 13
REMARK Flexibility Score: inf
ROOT
ATOM      1  C   UNL     1      88.512   6.880   5.500  1.00  0.00     0.199 A 
ATOM      2  N   UNL     1      88.090   5.779   6.182  1.00  0.00    -0.217 NA
ATOM      3  C   UNL     1      89.215   5.371   6.792  1.00  0.00     0.182 A 
ATOM      4  N   UNL     1      89.348   4.298   7.607  1.00  0.00    -0.215 NA
ATOM      5  C   UNL     1      90.582   4.039   8.137  1.00  0.00     0.226 A 
ATOM      6  N   UNL     1      91.649   4.850   7.845  1.00  0.00    -0.217 NA
ATOM      7  C   UNL     1      91.516   5.933   7.023  1.00  0.00     0.152 A 
ATOM      8  C   UNL     1      90.254   6.183   6.491  1.00  0.00     0.127 A 
ATOM      9  N   UNL     1      89.831   7.152   5.670  1.00  0.00    -0.340 N 
ATOM     10  H   UNL     1      90.376   7.937   5.251  1.00  0.00     0.168 HD
ENDROOT
BRANCH   7  11
ATOM     11  N   UNL     1      92.641   6.764   6.732  1.00  0.00    -0.382 N 
ATOM     12  H   UNL     1      93.205   6.633   5.864  1.00  0.00     0.158 HD
ATOM     13  H   UNL     1      92.913   7.524   7.395  1.00  0.00     0.158 HD
ENDBRANCH   7  11
TORSDOF 1
ENDMDL
MODEL 8
REMARK VINA RESULT:    -3.532     14.783     15.602
REMARK INTER + INTRA:          -3.636
REMARK INTER:                  -3.636
REMARK INTRA:                   0.000
REMARK UNBOUND:                 0.000
REMARK SMILES Nc1ncnc2nc[nH]c12
REMARK SMILES IDX 8 1 7 2 6 3 5 4 4 5 3 6 2 7 10 8 9 9 1 11
REMARK H PARENT 9 10 1 12 1 13
REMARK Flexibility Score: inf
ROOT
ATOM      1  C   UNL     1      86.811   3.720   6.776  1.00  0.00     0.199 A 
ATOM      2  N   UNL     1      87.476   2.962   7.691  1.00  0.00    -0.217 NA
ATOM      3  C   UNL     1      88.651   3.605   7.795  1.00  0.00     0.182 A 
ATOM      4  N   UNL     1      89.694   3.259   8.587  1.00  0.00    -0.215 NA
ATOM      5  C   UNL     1      90.815   4.042   8.556  1.00  0.00     0.226 A 
ATOM      6  N   UNL     1      90.872   5.145   7.743  1.00  0.00    -0.217 NA
ATOM      7  C   UNL     1      89.821   5.495   6.943  1.00  0.00     0.152 A 
ATOM      8  C   UNL     1      88.687   4.689   6.986  1.00  0.00     0.127 A 
ATOM      9  N   UNL     1      87.526   4.783   6.326  1.00  0.00    -0.340 N 
ATOM     10  H   UNL     1      87.227   5.498   5.628  1.00  0.00     0.168 HD
ENDROOT
BRANCH   7  11
ATOM     11  N   UNL     1      89.902   6.648   6.103  1.00  0.00    -0.382 N 
ATOM     12  H   UNL     1      89.361   7.515   6.315  1.00  0.00     0.158 HD
ATOM     13  H   UNL     1      90.514   6.634   5.257  1.00  0.00     0.158 HD
ENDBRANCH   7  11
TORSDOF 1
ENDMDL
MODEL 9
REMARK VINA RESULT:    -3.526     15.742     16.522
REMARK INTER + INTRA:          -3.629
REMARK INTER:                  -3.629
REMARK INTRA:                   0.000
REMARK UNBOUND:                 0.000
REMARK SMILES Nc1ncnc2nc[nH]c12
REMARK SMILES IDX 8 1 7 2 6 3 5 4 4 5 3 6 2 7 10 8 9 9 1 11
REMARK H PARENT 9 10 1 12 1 13
REMARK Flexibility Score: inf
ROOT
ATOM      1  C   UNL     1      90.423   3.386   8.970  1.00  0.00     0.199 A 
ATOM      2  N   UNL     1      90.128   4.507   9.684  1.00  0.00    -0.217 NA
ATOM      3  C   UNL     1      88.886   4.796   9.262  1.00  0.00     0.182 A 
ATOM      4  N   UNL     1      88.117   5.835   9.667  1.00  0.00    -0.215 NA
ATOM      5  C   UNL     1      86.871   5.967   9.118  1.00  0.00     0.226 A 
ATOM      6  N   UNL     1      86.421   5.067   8.186  1.00  0.00    -0.217 NA
ATOM      7  C   UNL     1      87.196   4.018   7.778  1.00  0.00     0.152 A 
ATOM      8  C   UNL     1      88.462   3.897   8.345  1.00  0.00     0.127 A 
ATOM      9  N   UNL     1      89.423   2.989   8.142  1.00  0.00    -0.340 N 
ATOM     10  H   UNL     1      89.419   2.165   7.501  1.00  0.00     0.168 HD
ENDROOT
BRANCH   7  11
ATOM     11  N   UNL     1      86.707   3.092   6.806  1.00  0.00    -0.382 N 
ATOM     12  H   UNL     1      86.033   3.385   6.065  1.00  0.00     0.158 HD
ATOM     13  H   UNL     1      87.027   2.097   6.826  1.00  0.00     0.158 HD
ENDBRANCH   7  11
TORSDOF 1
ENDMDL
