MODEL 1
REMARK VINA RESULT:    -3.605      0.000      0.000
REMARK INTER + INTRA:          -5.153
REMARK INTER:                  -4.869
REMARK INTRA:                  -0.283
REMARK UNBOUND:                -0.283
REMARK SMILES CCCCCCCC(=O)[O-]
REMARK SMILES IDX 5 1 6 2 7 3 8 4 9 5 10 6 4 7 3 8 2 9 1 10
REMARK H PARENT
REMARK Flexibility Score: inf
ROOT
ATOM      1  C   UNL     1       7.568  33.394  -2.233  1.00  0.00     0.000 C 
ENDROOT
BRANCH   1   2
ATOM      2  C   UNL     1       8.104  34.112  -0.986  1.00  0.00     0.006 C 
BRANCH   2   3
ATOM      3  C   UNL     1       8.958  33.168  -0.135  1.00  0.00     0.053 C 
BRANCH   3   4
ATOM      4  C   UNL     1      10.145  32.693  -0.910  1.00  0.00     0.041 C 
ATOM      5  O   UNL     1      10.252  31.478  -1.224  1.00  0.00    -0.550 OA
ATOM      6  O   UNL     1      11.111  33.599  -1.328  1.00  0.00    -0.550 OA
ENDBRANCH   3   4
ENDBRANCH   2   3
ENDBRANCH   1   2
BRANCH   1   7
ATOM      7  C   UNL     1       6.105  33.753  -2.548  1.00  0.00     0.000 C 
BRANCH   7   8
ATOM      8  C   UNL     1       5.445  34.739  -1.563  1.00  0.00    -0.000 C 
BRANCH   8   9
ATOM      9  C   UNL     1       3.906  34.744  -1.582  1.00  0.00    -0.003 C 
ATOM     10  C   UNL     1       3.315  33.497  -2.239  1.00  0.00     0.004 C 
ENDBRANCH   8   9
ENDBRANCH   7   8
ENDBRANCH   1   7
TORSDOF 6
ENDMDL
MODEL 2
REMARK VINA RESULT:    -3.602      3.345      5.495
REMARK INTER + INTRA:          -5.149
REMARK INTER:                  -4.887
REMARK INTRA:                  -0.262
REMARK UNBOUND:                -0.283
REMARK SMILES CCCCCCCC(=O)[O-]
REMARK SMILES IDX 5 1 6 2 7 3 8 4 9 5 10 6 4 7 3 8 2 9 1 10
REMARK H PARENT
REMARK Flexibility Score: inf
ROOT
ATOM      1  C   UNL     1       7.740  33.166  -2.556  1.00  0.00     0.000 C 
ENDROOT
BRANCH   1   2
ATOM      2  C   UNL     1       6.252  33.282  -2.917  1.00  0.00     0.006 C 
BRANCH   2   3
ATOM      3  C   UNL     1       5.603  34.467  -2.197  1.00  0.00     0.053 C 
BRANCH   3   4
ATOM      4  C   UNL     1       4.181  34.157  -1.852  1.00  0.00     0.041 C 
ATOM      5  O   UNL     1       3.596  33.182  -2.393  1.00  0.00    -0.550 OA
ATOM      6  O   UNL     1       3.516  34.916  -0.898  1.00  0.00    -0.550 OA
ENDBRANCH   3   4
ENDBRANCH   2   3
ENDBRANCH   1   2
BRANCH   1   7
ATOM      7  C   UNL     1       8.054  33.681  -1.140  1.00  0.00     0.000 C 
BRANCH   7   8
ATOM      8  C   UNL     1       9.414  33.234  -0.566  1.00  0.00    -0.000 C 
BRANCH   8   9
ATOM      9  C   UNL     1       9.689  31.722  -0.651  1.00  0.00    -0.003 C 
ATOM     10  C   UNL     1      10.855  31.381  -1.578  1.00  0.00     0.004 C 
ENDBRANCH   8   9
ENDBRANCH   7   8
ENDBRANCH   1   7
TORSDOF 6
ENDMDL
MODEL 3
REMARK VINA RESULT:    -3.554      3.196      4.851
REMARK INTER + INTRA:          -5.084
REMARK INTER:                  -4.871
REMARK INTRA:                  -0.213
REMARK UNBOUND:                -0.283
REMARK SMILES CCCCCCCC(=O)[O-]
REMARK SMILES IDX 5 1 6 2 7 3 8 4 9 5 10 6 4 7 3 8 2 9 1 10
REMARK H PARENT
REMARK Flexibility Score: inf
ROOT
ATOM      1  C   UNL     1      10.356  34.963  -0.201  1.00  0.00     0.000 C 
ENDROOT
BRANCH   1   2
ATOM      2  C   UNL     1       9.218  34.007   0.184  1.00  0.00     0.006 C 
BRANCH   2   3
ATOM      3  C   UNL     1       8.957  32.989  -0.929  1.00  0.00     0.053 C 
BRANCH   3   4
ATOM      4  C   UNL     1       9.919  31.848  -0.832  1.00  0.00     0.041 C 
ATOM      5  O   UNL     1       9.865  31.055   0.146  1.00  0.00    -0.550 OA
ATOM      6  O   UNL     1      10.845  31.630  -1.844  1.00  0.00    -0.550 OA
ENDBRANCH   3   4
ENDBRANCH   2   3
ENDBRANCH   1   2
BRANCH   1   7
ATOM      7  C   UNL     1       9.957  35.954  -1.310  1.00  0.00     0.000 C 
BRANCH   7   8
ATOM      8  C   UNL     1       9.774  37.414  -0.849  1.00  0.00    -0.000 C 
BRANCH   8   9
ATOM      9  C   UNL     1      11.083  38.179  -0.581  1.00  0.00    -0.003 C 
ATOM     10  C   UNL     1      11.030  39.632  -1.054  1.00  0.00     0.004 C 
ENDBRANCH   8   9
ENDBRANCH   7   8
ENDBRANCH   1   7
TORSDOF 6
ENDMDL
MODEL 4
REMARK VINA RESULT:    -3.551      1.867      2.223
REMARK INTER + INTRA:          -5.081
REMARK INTER:                  -4.833
REMARK INTRA:                  -0.248
REMARK UNBOUND:                -0.283
REMARK SMILES CCCCCCCC(=O)[O-]
REMARK SMILES IDX 5 1 6 2 7 3 8 4 9 5 10 6 4 7 3 8 2 9 1 10
REMARK H PARENT
REMARK Flexibility Score: inf
ROOT
ATOM      1  C   UNL     1       6.932  33.369  -2.938  1.00  0.00     0.000 C 
ENDROOT
BRANCH   1   2
ATOM      2  C   UNL     1       8.148  33.350  -2.001  1.00  0.00     0.006 C 
BRANCH   2   3
ATOM      3  C   UNL     1       7.871  34.153  -0.727  1.00  0.00     0.053 C 
BRANCH   3   4
ATOM      4  C   UNL     1       9.064  34.974  -0.355  1.00  0.00     0.041 C 
ATOM      5  O   UNL     1       9.710  35.592  -1.242  1.00  0.00    -0.550 OA
ATOM      6  O   UNL     1       9.435  35.097   0.978  1.00  0.00    -0.550 OA
ENDBRANCH   3   4
ENDBRANCH   2   3
ENDBRANCH   1   2
BRANCH   1   7
ATOM      7  C   UNL     1       5.730  34.125  -2.345  1.00  0.00     0.000 C 
BRANCH   7   8
ATOM      8  C   UNL     1       4.368  33.422  -2.508  1.00  0.00    -0.000 C 
BRANCH   8   9
ATOM      9  C   UNL     1       3.149  34.260  -2.082  1.00  0.00    -0.003 C 
ATOM     10  C   UNL     1       3.195  35.691  -2.617  1.00  0.00     0.004 C 
ENDBRANCH   8   9
ENDBRANCH   7   8
ENDBRANCH   1   7
TORSDOF 6
ENDMDL
MODEL 5
REMARK VINA RESULT:    -3.497      3.578      5.180
REMARK INTER + INTRA:          -5.007
REMARK INTER:                  -4.502
REMARK INTRA:                  -0.505
REMARK UNBOUND:                -0.283
REMARK SMILES CCCCCCCC(=O)[O-]
REMARK SMILES IDX 5 1 6 2 7 3 8 4 9 5 10 6 4 7 3 8 2 9 1 10
REMARK H PARENT
REMARK Flexibility Score: inf
ROOT
ATOM      1  C   UNL     1      10.074  36.092  -1.341  1.00  0.00     0.000 C 
ENDROOT
BRANCH   1   2
ATOM      2  C   UNL     1      10.407  34.999  -0.315  1.00  0.00     0.006 C 
BRANCH   2   3
ATOM      3  C   UNL     1       9.135  34.300   0.174  1.00  0.00     0.053 C 
BRANCH   3   4
ATOM      4  C   UNL     1       8.484  33.552  -0.945  1.00  0.00     0.041 C 
ATOM      5  O   UNL     1       7.311  33.839  -1.302  1.00  0.00    -0.550 OA
ATOM      6  O   UNL     1       9.190  32.569  -1.627  1.00  0.00    -0.550 OA
ENDBRANCH   3   4
ENDBRANCH   2   3
ENDBRANCH   1   2
BRANCH   1   7
ATOM      7  C   UNL     1      10.133  37.510  -0.746  1.00  0.00     0.000 C 
BRANCH   7   8
ATOM      8  C   UNL     1      11.263  37.744   0.277  1.00  0.00    -0.000 C 
BRANCH   8   9
ATOM      9  C   UNL     1      10.799  38.253   1.653  1.00  0.00    -0.003 C 
ATOM     10  C   UNL     1       9.382  37.801   2.007  1.00  0.00     0.004 C 
ENDBRANCH   8   9
ENDBRANCH   7   8
ENDBRANCH   1   7
TORSDOF 6
ENDMDL
MODEL 6
REMARK VINA RESULT:    -3.474      3.519      5.197
REMARK INTER + INTRA:          -4.976
REMARK INTER:                  -4.552
REMARK INTRA:                  -0.424
REMARK UNBOUND:                -0.283
REMARK SMILES CCCCCCCC(=O)[O-]
REMARK SMILES IDX 5 1 6 2 7 3 8 4 9 5 10 6 4 7 3 8 2 9 1 10
REMARK H PARENT
REMARK Flexibility Score: inf
ROOT
ATOM      1  C   UNL     1       8.130  33.309  -2.080  1.00  0.00     0.000 C 
ENDROOT
BRANCH   1   2
ATOM      2  C   UNL     1       6.756  33.451  -2.751  1.00  0.00     0.006 C 
BRANCH   2   3
ATOM      3  C   UNL     1       5.883  34.463  -2.004  1.00  0.00     0.053 C 
BRANCH   3   4
ATOM      4  C   UNL     1       4.438  34.247  -2.326  1.00  0.00     0.041 C 
ATOM      5  O   UNL     1       4.010  33.089  -2.573  1.00  0.00    -0.550 OA
ATOM      6  O   UNL     1       3.554  35.317  -2.305  1.00  0.00    -0.550 OA
ENDBRANCH   3   4
ENDBRANCH   2   3
ENDBRANCH   1   2
BRANCH   1   7
ATOM      7  C   UNL     1       8.172  33.921  -0.667  1.00  0.00     0.000 C 
BRANCH   7   8
ATOM      8  C   UNL     1       9.512  34.577  -0.277  1.00  0.00    -0.000 C 
BRANCH   8   9
ATOM      9  C   UNL     1       9.936  35.764  -1.161  1.00  0.00    -0.003 C 
ATOM     10  C   UNL     1       8.947  36.928  -1.109  1.00  0.00     0.004 C 
ENDBRANCH   8   9
ENDBRANCH   7   8
ENDBRANCH   1   7
TORSDOF 6
ENDMDL
MODEL 7
REMARK VINA RESULT:    -3.452      3.088      4.845
REMARK INTER + INTRA:          -4.947
REMARK INTER:                  -4.530
REMARK INTRA:                  -0.417
REMARK UNBOUND:                -0.283
REMARK SMILES CCCCCCCC(=O)[O-]
REMARK SMILES IDX 5 1 6 2 7 3 8 4 9 5 10 6 4 7 3 8 2 9 1 10
REMARK H PARENT
REMARK Flexibility Score: inf
ROOT
ATOM      1  C   UNL     1      10.656  33.989  -1.086  1.00  0.00     0.000 C 
ENDROOT
BRANCH   1   2
ATOM      2  C   UNL     1       9.424  33.152  -1.458  1.00  0.00     0.006 C 
BRANCH   2   3
ATOM      3  C   UNL     1       8.143  33.792  -0.917  1.00  0.00     0.053 C 
BRANCH   3   4
ATOM      4  C   UNL     1       7.064  33.760  -1.952  1.00  0.00     0.041 C 
ATOM      5  O   UNL     1       5.921  34.218  -1.691  1.00  0.00    -0.550 OA
ATOM      6  O   UNL     1       7.334  33.267  -3.223  1.00  0.00    -0.550 OA
ENDBRANCH   3   4
ENDBRANCH   2   3
ENDBRANCH   1   2
BRANCH   1   7
ATOM      7  C   UNL     1      10.346  35.083  -0.048  1.00  0.00     0.000 C 
BRANCH   7   8
ATOM      8  C   UNL     1      11.158  36.385  -0.204  1.00  0.00    -0.000 C 
BRANCH   8   9
ATOM      9  C   UNL     1      10.406  37.543  -0.883  1.00  0.00    -0.003 C 
ATOM     10  C   UNL     1       8.890  37.448  -0.711  1.00  0.00     0.004 C 
ENDBRANCH   8   9
ENDBRANCH   7   8
ENDBRANCH   1   7
TORSDOF 6
ENDMDL
MODEL 8
REMARK VINA RESULT:    -3.447      2.769      3.819
REMARK INTER + INTRA:          -4.940
REMARK INTER:                  -4.676
REMARK INTRA:                  -0.264
REMARK UNBOUND:                -0.283
REMARK SMILES CCCCCCCC(=O)[O-]
REMARK SMILES IDX 5 1 6 2 7 3 8 4 9 5 10 6 4 7 3 8 2 9 1 10
REMARK H PARENT
REMARK Flexibility Score: inf
ROOT
ATOM      1  C   UNL     1      10.336  33.834  -1.413  1.00  0.00     0.000 C 
ENDROOT
BRANCH   1   2
ATOM      2  C   UNL     1      10.263  34.862  -0.275  1.00  0.00     0.006 C 
BRANCH   2   3
ATOM      3  C   UNL     1      11.085  36.110  -0.610  1.00  0.00     0.053 C 
BRANCH   3   4
ATOM      4  C   UNL     1      10.185  37.255  -0.947  1.00  0.00     0.041 C 
ATOM      5  O   UNL     1      10.658  38.414  -1.087  1.00  0.00    -0.550 OA
ATOM      6  O   UNL     1       8.829  37.036  -1.153  1.00  0.00    -0.550 OA
ENDBRANCH   3   4
ENDBRANCH   2   3
ENDBRANCH   1   2
BRANCH   1   7
ATOM      7  C   UNL     1       9.076  32.954  -1.506  1.00  0.00     0.000 C 
BRANCH   7   8
ATOM      8  C   UNL     1       7.740  33.699  -1.307  1.00  0.00    -0.000 C 
BRANCH   8   9
ATOM      9  C   UNL     1       6.782  33.648  -2.510  1.00  0.00    -0.003 C 
ATOM     10  C   UNL     1       5.385  34.173  -2.181  1.00  0.00     0.004 C 
ENDBRANCH   8   9
ENDBRANCH   7   8
ENDBRANCH   1   7
TORSDOF 6
ENDMDL
MODEL 9
REMARK VINA RESULT:    -3.381      1.842      2.562
REMARK INTER + INTRA:          -4.851
REMARK INTER:                  -4.300
REMARK INTRA:                  -0.551
REMARK UNBOUND:                -0.283
REMARK SMILES CCCCCCCC(=O)[O-]
REMARK SMILES IDX 5 1 6 2 7 3 8 4 9 5 10 6 4 7 3 8 2 9 1 10
REMARK H PARENT
REMARK Flexibility Score: inf
ROOT
ATOM      1  C   UNL     1       8.441  36.601  -0.756  1.00  0.00     0.000 C 
ENDROOT
BRANCH   1   2
ATOM      2  C   UNL     1       9.780  36.078  -1.295  1.00  0.00     0.006 C 
BRANCH   2   3
ATOM      3  C   UNL     1      10.482  35.197  -0.258  1.00  0.00     0.053 C 
BRANCH   3   4
ATOM      4  C   UNL     1      10.211  33.751  -0.528  1.00  0.00     0.041 C 
ATOM      5  O   UNL     1       9.259  33.165   0.052  1.00  0.00    -0.550 OA
ATOM      6  O   UNL     1      10.979  33.062  -1.457  1.00  0.00    -0.550 OA
ENDBRANCH   3   4
ENDBRANCH   2   3
ENDBRANCH   1   2
BRANCH   1   7
ATOM      7  C   UNL     1       7.241  36.182  -1.625  1.00  0.00     0.000 C 
BRANCH   7   8
ATOM      8  C   UNL     1       6.502  34.913  -1.152  1.00  0.00    -0.000 C 
BRANCH   8   9
ATOM      9  C   UNL     1       6.121  33.929  -2.272  1.00  0.00    -0.003 C 
ATOM     10  C   UNL     1       7.337  33.282  -2.934  1.00  0.00     0.004 C 
ENDBRANCH   8   9
ENDBRANCH   7   8
ENDBRANCH   1   7
TORSDOF 6
ENDMDL
