MODEL 1
REMARK VINA RESULT:    -6.563      0.000      0.000
REMARK INTER + INTRA:          -7.782
REMARK INTER:                  -7.714
REMARK INTRA:                  -0.068
REMARK UNBOUND:                -0.068
REMARK SMILES O=c1c(O)c(-c2ccc(O)cc2)oc2cc(O)cc(O)c12
REMARK SMILES IDX 5 1 3 2 2 3 1 4 21 5 19 6 18 7 16 8 15 9 14 10 13 11 6 12
REMARK SMILES IDX 7 13 8 14 9 15 12 16 11 17 10 18 4 20 20 22 17 24
REMARK H PARENT 10 19 4 21 20 23 17 25
REMARK Flexibility Score: inf
ROOT
ATOM      1  C   UNL     1      45.314  45.543   9.884  1.00  0.00     0.180 A 
ATOM      2  C   UNL     1      45.663  44.717  10.969  1.00  0.00     0.208 A 
ATOM      3  C   UNL     1      45.615  43.324  10.805  1.00  0.00     0.238 A 
ATOM      4  O   UNL     1      45.936  42.574  11.767  1.00  0.00    -0.285 OA
ATOM      5  C   UNL     1      45.202  42.781   9.571  1.00  0.00     0.111 A 
ATOM      6  C   UNL     1      45.122  41.390   9.324  1.00  0.00     0.134 A 
ATOM      7  C   UNL     1      44.692  40.928   8.071  1.00  0.00     0.093 A 
ATOM      8  C   UNL     1      44.340  41.832   7.062  1.00  0.00     0.123 A 
ATOM      9  C   UNL     1      44.418  43.205   7.300  1.00  0.00     0.094 A 
ATOM     10  C   UNL     1      44.845  43.684   8.541  1.00  0.00     0.146 A 
ATOM     11  O   UNL     1      44.915  44.996   8.739  1.00  0.00    -0.452 OA
ENDROOT
BRANCH   1  12
ATOM     12  C   UNL     1      45.358  47.020   9.972  1.00  0.00     0.021 A 
ATOM     13  C   UNL     1      44.218  47.768   9.633  1.00  0.00     0.016 A 
ATOM     14  C   UNL     1      44.244  49.165   9.689  1.00  0.00     0.047 A 
ATOM     15  C   UNL     1      45.415  49.832  10.070  1.00  0.00     0.115 A 
ATOM     16  C   UNL     1      46.537  47.699  10.334  1.00  0.00     0.016 A 
ATOM     17  C   UNL     1      46.560  49.095  10.388  1.00  0.00     0.047 A 
BRANCH  15  18
ATOM     18  O   UNL     1      45.453  51.223  10.129  1.00  0.00    -0.508 OA
ATOM     19  H   UNL     1      45.265  51.722  10.991  1.00  0.00     0.293 HD
ENDBRANCH  15  18
ENDBRANCH   1  12
BRANCH   2  20
ATOM     20  O   UNL     1      46.022  45.279  12.197  1.00  0.00    -0.502 OA
ATOM     21  H   UNL     1      45.731  46.209  12.474  1.00  0.00     0.293 HD
ENDBRANCH   2  20
BRANCH   6  22
ATOM     22  O   UNL     1      45.465  40.464  10.311  1.00  0.00    -0.507 OA
ATOM     23  H   UNL     1      44.987  40.434  11.204  1.00  0.00     0.293 HD
ENDBRANCH   6  22
BRANCH   8  24
ATOM     24  O   UNL     1      43.913  41.374   5.817  1.00  0.00    -0.508 OA
ATOM     25  H   UNL     1      43.365  40.528   5.724  1.00  0.00     0.293 HD
ENDBRANCH   8  24
TORSDOF 5
ENDMDL
MODEL 2
REMARK VINA RESULT:    -6.291      3.532      8.309
REMARK INTER + INTRA:          -7.463
REMARK INTER:                  -7.517
REMARK INTRA:                   0.054
REMARK UNBOUND:                -0.068
REMARK SMILES O=c1c(O)c(-c2ccc(O)cc2)oc2cc(O)cc(O)c12
REMARK SMILES IDX 5 1 3 2 2 3 1 4 21 5 19 6 18 7 16 8 15 9 14 10 13 11 6 12
REMARK SMILES IDX 7 13 8 14 9 15 12 16 11 17 10 18 4 20 20 22 17 24
REMARK H PARENT 10 19 4 21 20 23 17 25
REMARK Flexibility Score: inf
ROOT
ATOM      1  C   UNL     1      45.303  39.018  10.092  1.00  0.00     0.180 A 
ATOM      2  C   UNL     1      45.719  39.867  11.136  1.00  0.00     0.208 A 
ATOM      3  C   UNL     1      45.674  41.256  10.939  1.00  0.00     0.238 A 
ATOM      4  O   UNL     1      46.034  42.027  11.870  1.00  0.00    -0.285 OA
ATOM      5  C   UNL     1      45.234  41.771   9.702  1.00  0.00     0.111 A 
ATOM      6  C   UNL     1      45.163  43.156   9.421  1.00  0.00     0.134 A 
ATOM      7  C   UNL     1      44.724  43.590   8.161  1.00  0.00     0.093 A 
ATOM      8  C   UNL     1      44.356  42.664   7.178  1.00  0.00     0.123 A 
ATOM      9  C   UNL     1      44.424  41.297   7.451  1.00  0.00     0.094 A 
ATOM     10  C   UNL     1      44.858  40.845   8.700  1.00  0.00     0.146 A 
ATOM     11  O   UNL     1      44.908  39.539   8.934  1.00  0.00    -0.452 OA
ENDROOT
BRANCH   1  12
ATOM     12  C   UNL     1      45.303  37.544  10.230  1.00  0.00     0.021 A 
ATOM     13  C   UNL     1      46.470  36.889  10.660  1.00  0.00     0.016 A 
ATOM     14  C   UNL     1      46.498  35.496  10.776  1.00  0.00     0.047 A 
ATOM     15  C   UNL     1      45.366  34.740  10.450  1.00  0.00     0.115 A 
ATOM     16  C   UNL     1      44.176  36.775   9.885  1.00  0.00     0.016 A 
ATOM     17  C   UNL     1      44.209  35.382  10.001  1.00  0.00     0.047 A 
BRANCH  15  18
ATOM     18  O   UNL     1      45.383  33.351  10.562  1.00  0.00    -0.508 OA
ATOM     19  H   UNL     1      45.565  32.893  11.448  1.00  0.00     0.293 HD
ENDBRANCH  15  18
ENDBRANCH   1  12
BRANCH   2  20
ATOM     20  O   UNL     1      46.197  39.331  12.334  1.00  0.00    -0.502 OA
ATOM     21  H   UNL     1      47.186  39.273  12.547  1.00  0.00     0.293 HD
ENDBRANCH   2  20
BRANCH   6  22
ATOM     22  O   UNL     1      45.524  44.104  10.380  1.00  0.00    -0.507 OA
ATOM     23  H   UNL     1      44.887  44.835  10.674  1.00  0.00     0.293 HD
ENDBRANCH   6  22
BRANCH   8  24
ATOM     24  O   UNL     1      43.920  43.094   5.926  1.00  0.00    -0.508 OA
ATOM     25  H   UNL     1      43.747  42.441   5.172  1.00  0.00     0.293 HD
ENDBRANCH   8  24
TORSDOF 5
ENDMDL
MODEL 3
REMARK VINA RESULT:    -6.269      5.259      7.550
REMARK INTER + INTRA:          -7.437
REMARK INTER:                  -7.439
REMARK INTRA:                   0.002
REMARK UNBOUND:                -0.068
REMARK SMILES O=c1c(O)c(-c2ccc(O)cc2)oc2cc(O)cc(O)c12
REMARK SMILES IDX 5 1 3 2 2 3 1 4 21 5 19 6 18 7 16 8 15 9 14 10 13 11 6 12
REMARK SMILES IDX 7 13 8 14 9 15 12 16 11 17 10 18 4 20 20 22 17 24
REMARK H PARENT 10 19 4 21 20 23 17 25
REMARK Flexibility Score: inf
ROOT
ATOM      1  C   UNL     1      45.047  38.991   9.588  1.00  0.00     0.180 A 
ATOM      2  C   UNL     1      44.279  37.910   9.115  1.00  0.00     0.208 A 
ATOM      3  C   UNL     1      43.483  38.091   7.973  1.00  0.00     0.238 A 
ATOM      4  O   UNL     1      42.798  37.126   7.535  1.00  0.00    -0.285 OA
ATOM      5  C   UNL     1      43.453  39.348   7.337  1.00  0.00     0.111 A 
ATOM      6  C   UNL     1      42.675  39.615   6.185  1.00  0.00     0.134 A 
ATOM      7  C   UNL     1      42.691  40.896   5.615  1.00  0.00     0.093 A 
ATOM      8  C   UNL     1      43.470  41.915   6.176  1.00  0.00     0.123 A 
ATOM      9  C   UNL     1      44.239  41.657   7.311  1.00  0.00     0.094 A 
ATOM     10  C   UNL     1      44.237  40.387   7.893  1.00  0.00     0.146 A 
ATOM     11  O   UNL     1      44.983  40.167   8.970  1.00  0.00    -0.452 OA
ENDROOT
BRANCH   1  12
ATOM     12  C   UNL     1      45.926  38.874  10.774  1.00  0.00     0.021 A 
ATOM     13  C   UNL     1      45.876  39.862  11.772  1.00  0.00     0.016 A 
ATOM     14  C   UNL     1      46.713  39.783  12.889  1.00  0.00     0.047 A 
ATOM     15  C   UNL     1      47.619  38.723  13.016  1.00  0.00     0.115 A 
ATOM     16  C   UNL     1      46.854  37.823  10.898  1.00  0.00     0.016 A 
ATOM     17  C   UNL     1      47.689  37.747  12.017  1.00  0.00     0.047 A 
BRANCH  15  18
ATOM     18  O   UNL     1      48.457  38.633  14.125  1.00  0.00    -0.508 OA
ATOM     19  H   UNL     1      48.259  39.139  14.981  1.00  0.00     0.293 HD
ENDBRANCH  15  18
ENDBRANCH   1  12
BRANCH   2  20
ATOM     20  O   UNL     1      44.288  36.688   9.793  1.00  0.00    -0.502 OA
ATOM     21  H   UNL     1      45.131  36.139   9.912  1.00  0.00     0.293 HD
ENDBRANCH   2  20
BRANCH   6  22
ATOM     22  O   UNL     1      41.888  38.620   5.603  1.00  0.00    -0.507 OA
ATOM     23  H   UNL     1      42.240  38.025   4.862  1.00  0.00     0.293 HD
ENDBRANCH   6  22
BRANCH   8  24
ATOM     24  O   UNL     1      43.486  43.188   5.610  1.00  0.00    -0.508 OA
ATOM     25  H   UNL     1      42.964  43.401   4.769  1.00  0.00     0.293 HD
ENDBRANCH   8  24
TORSDOF 5
ENDMDL
MODEL 4
REMARK VINA RESULT:    -6.255      5.160     10.592
REMARK INTER + INTRA:          -7.420
REMARK INTER:                  -7.315
REMARK INTRA:                  -0.106
REMARK UNBOUND:                -0.068
REMARK SMILES O=c1c(O)c(-c2ccc(O)cc2)oc2cc(O)cc(O)c12
REMARK SMILES IDX 5 1 3 2 2 3 1 4 21 5 19 6 18 7 16 8 15 9 14 10 13 11 6 12
REMARK SMILES IDX 7 13 8 14 9 15 12 16 11 17 10 18 4 20 20 22 17 24
REMARK H PARENT 10 19 4 21 20 23 17 25
REMARK Flexibility Score: inf
ROOT
ATOM      1  C   UNL     1      41.383  38.786   4.928  1.00  0.00     0.180 A 
ATOM      2  C   UNL     1      40.433  39.617   4.303  1.00  0.00     0.208 A 
ATOM      3  C   UNL     1      40.594  41.009   4.380  1.00  0.00     0.238 A 
ATOM      4  O   UNL     1      39.755  41.763   3.815  1.00  0.00    -0.285 OA
ATOM      5  C   UNL     1      41.686  41.547   5.092  1.00  0.00     0.111 A 
ATOM      6  C   UNL     1      41.918  42.937   5.220  1.00  0.00     0.134 A 
ATOM      7  C   UNL     1      43.023  43.393   5.954  1.00  0.00     0.093 A 
ATOM      8  C   UNL     1      43.898  42.486   6.562  1.00  0.00     0.123 A 
ATOM      9  C   UNL     1      43.673  41.114   6.438  1.00  0.00     0.094 A 
ATOM     10  C   UNL     1      42.579  40.639   5.710  1.00  0.00     0.146 A 
ATOM     11  O   UNL     1      42.392  39.328   5.603  1.00  0.00    -0.452 OA
ENDROOT
BRANCH   1  12
ATOM     12  C   UNL     1      41.293  37.309   4.876  1.00  0.00     0.021 A 
ATOM     13  C   UNL     1      41.257  36.576   6.074  1.00  0.00     0.016 A 
ATOM     14  C   UNL     1      41.194  35.180   6.049  1.00  0.00     0.047 A 
ATOM     15  C   UNL     1      41.181  34.498   4.825  1.00  0.00     0.115 A 
ATOM     16  C   UNL     1      41.301  36.616   3.651  1.00  0.00     0.016 A 
ATOM     17  C   UNL     1      41.239  35.220   3.630  1.00  0.00     0.047 A 
BRANCH  15  18
ATOM     18  O   UNL     1      41.118  33.107   4.788  1.00  0.00    -0.508 OA
ATOM     19  H   UNL     1      40.359  32.599   5.227  1.00  0.00     0.293 HD
ENDBRANCH  15  18
ENDBRANCH   1  12
BRANCH   2  20
ATOM     20  O   UNL     1      39.333  39.060   3.646  1.00  0.00    -0.502 OA
ATOM     21  H   UNL     1      38.504  39.599   3.424  1.00  0.00     0.293 HD
ENDBRANCH   2  20
BRANCH   6  22
ATOM     22  O   UNL     1      41.063  43.866   4.626  1.00  0.00    -0.507 OA
ATOM     23  H   UNL     1      40.837  43.829   3.639  1.00  0.00     0.293 HD
ENDBRANCH   6  22
BRANCH   8  24
ATOM     24  O   UNL     1      44.996  42.939   7.291  1.00  0.00    -0.508 OA
ATOM     25  H   UNL     1      45.016  42.893   8.303  1.00  0.00     0.293 HD
ENDBRANCH   8  24
TORSDOF 5
ENDMDL
MODEL 5
REMARK VINA RESULT:    -6.209      5.056      8.243
REMARK INTER + INTRA:          -7.367
REMARK INTER:                  -7.114
REMARK INTRA:                  -0.252
REMARK UNBOUND:                -0.068
REMARK SMILES O=c1c(O)c(-c2ccc(O)cc2)oc2cc(O)cc(O)c12
REMARK SMILES IDX 5 1 3 2 2 3 1 4 21 5 19 6 18 7 16 8 15 9 14 10 13 11 6 12
REMARK SMILES IDX 7 13 8 14 9 15 12 16 11 17 10 18 4 20 20 22 17 24
REMARK H PARENT 10 19 4 21 20 23 17 25
REMARK Flexibility Score: inf
ROOT
ATOM      1  C   UNL     1      50.596  47.623  11.739  1.00  0.00     0.180 A 
ATOM      2  C   UNL     1      50.754  48.991  12.032  1.00  0.00     0.208 A 
ATOM      3  C   UNL     1      49.610  49.799  12.133  1.00  0.00     0.238 A 
ATOM      4  O   UNL     1      49.738  51.025  12.406  1.00  0.00    -0.285 OA
ATOM      5  C   UNL     1      48.336  49.235  11.922  1.00  0.00     0.111 A 
ATOM      6  C   UNL     1      47.136  49.980  12.001  1.00  0.00     0.134 A 
ATOM      7  C   UNL     1      45.906  49.346  11.768  1.00  0.00     0.093 A 
ATOM      8  C   UNL     1      45.856  47.982  11.456  1.00  0.00     0.123 A 
ATOM      9  C   UNL     1      47.037  47.243  11.378  1.00  0.00     0.094 A 
ATOM     10  C   UNL     1      48.271  47.856  11.608  1.00  0.00     0.146 A 
ATOM     11  O   UNL     1      49.380  47.128  11.532  1.00  0.00    -0.452 OA
ENDROOT
BRANCH   1  12
ATOM     12  C   UNL     1      51.751  46.702  11.635  1.00  0.00     0.021 A 
ATOM     13  C   UNL     1      52.153  46.237  10.372  1.00  0.00     0.016 A 
ATOM     14  C   UNL     1      53.226  45.350  10.252  1.00  0.00     0.047 A 
ATOM     15  C   UNL     1      53.903  44.906  11.395  1.00  0.00     0.115 A 
ATOM     16  C   UNL     1      52.422  46.235  12.780  1.00  0.00     0.016 A 
ATOM     17  C   UNL     1      53.495  45.348  12.657  1.00  0.00     0.047 A 
BRANCH  15  18
ATOM     18  O   UNL     1      54.974  44.022  11.288  1.00  0.00    -0.508 OA
ATOM     19  H   UNL     1      55.575  43.820  12.079  1.00  0.00     0.293 HD
ENDBRANCH  15  18
ENDBRANCH   1  12
BRANCH   2  20
ATOM     20  O   UNL     1      52.030  49.538  12.189  1.00  0.00    -0.502 OA
ATOM     21  H   UNL     1      52.402  49.798  13.095  1.00  0.00     0.293 HD
ENDBRANCH   2  20
BRANCH   6  22
ATOM     22  O   UNL     1      47.153  51.341  12.309  1.00  0.00    -0.507 OA
ATOM     23  H   UNL     1      47.784  51.985  11.847  1.00  0.00     0.293 HD
ENDBRANCH   6  22
BRANCH   8  24
ATOM     24  O   UNL     1      44.634  47.353  11.224  1.00  0.00    -0.508 OA
ATOM     25  H   UNL     1      44.573  46.353  11.074  1.00  0.00     0.293 HD
ENDBRANCH   8  24
TORSDOF 5
ENDMDL
MODEL 6
REMARK VINA RESULT:    -6.004      4.881      9.732
REMARK INTER + INTRA:          -7.125
REMARK INTER:                  -7.304
REMARK INTRA:                   0.179
REMARK UNBOUND:                -0.068
REMARK SMILES O=c1c(O)c(-c2ccc(O)cc2)oc2cc(O)cc(O)c12
REMARK SMILES IDX 5 1 3 2 2 3 1 4 21 5 19 6 18 7 16 8 15 9 14 10 13 11 6 12
REMARK SMILES IDX 7 13 8 14 9 15 12 16 11 17 10 18 4 20 20 22 17 24
REMARK H PARENT 10 19 4 21 20 23 17 25
REMARK Flexibility Score: inf
ROOT
ATOM      1  C   UNL     1      43.426  37.465   8.222  1.00  0.00     0.180 A 
ATOM      2  C   UNL     1      42.520  37.408   7.146  1.00  0.00     0.208 A 
ATOM      3  C   UNL     1      42.331  38.553   6.357  1.00  0.00     0.238 A 
ATOM      4  O   UNL     1      41.529  38.511   5.383  1.00  0.00    -0.285 OA
ATOM      5  C   UNL     1      43.033  39.737   6.666  1.00  0.00     0.111 A 
ATOM      6  C   UNL     1      42.897  40.934   5.924  1.00  0.00     0.134 A 
ATOM      7  C   UNL     1      43.624  42.073   6.301  1.00  0.00     0.093 A 
ATOM      8  C   UNL     1      44.482  42.036   7.406  1.00  0.00     0.123 A 
ATOM      9  C   UNL     1      44.620  40.857   8.140  1.00  0.00     0.094 A 
ATOM     10  C   UNL     1      43.906  39.712   7.780  1.00  0.00     0.146 A 
ATOM     11  O   UNL     1      44.060  38.602   8.493  1.00  0.00    -0.452 OA
ENDROOT
BRANCH   1  12
ATOM     12  C   UNL     1      43.694  36.294   9.088  1.00  0.00     0.021 A 
ATOM     13  C   UNL     1      42.622  35.499   9.527  1.00  0.00     0.016 A 
ATOM     14  C   UNL     1      42.850  34.402  10.363  1.00  0.00     0.047 A 
ATOM     15  C   UNL     1      44.150  34.095  10.782  1.00  0.00     0.115 A 
ATOM     16  C   UNL     1      44.995  35.991   9.531  1.00  0.00     0.016 A 
ATOM     17  C   UNL     1      45.219  34.894  10.367  1.00  0.00     0.047 A 
BRANCH  15  18
ATOM     18  O   UNL     1      44.389  33.004  11.615  1.00  0.00    -0.508 OA
ATOM     19  H   UNL     1      45.312  32.815  11.990  1.00  0.00     0.293 HD
ENDBRANCH  15  18
ENDBRANCH   1  12
BRANCH   2  20
ATOM     20  O   UNL     1      41.799  36.239   6.890  1.00  0.00    -0.502 OA
ATOM     21  H   UNL     1      41.985  35.369   7.377  1.00  0.00     0.293 HD
ENDBRANCH   2  20
BRANCH   6  22
ATOM     22  O   UNL     1      42.048  41.002   4.818  1.00  0.00    -0.507 OA
ATOM     23  H   UNL     1      42.211  40.448   3.986  1.00  0.00     0.293 HD
ENDBRANCH   6  22
BRANCH   8  24
ATOM     24  O   UNL     1      45.204  43.168   7.781  1.00  0.00    -0.508 OA
ATOM     25  H   UNL     1      46.019  43.103   8.378  1.00  0.00     0.293 HD
ENDBRANCH   8  24
TORSDOF 5
ENDMDL
MODEL 7
REMARK VINA RESULT:    -5.922      4.899      9.840
REMARK INTER + INTRA:          -7.030
REMARK INTER:                  -7.036
REMARK INTRA:                   0.006
REMARK UNBOUND:                -0.068
REMARK SMILES O=c1c(O)c(-c2ccc(O)cc2)oc2cc(O)cc(O)c12
REMARK SMILES IDX 5 1 3 2 2 3 1 4 21 5 19 6 18 7 16 8 15 9 14 10 13 11 6 12
REMARK SMILES IDX 7 13 8 14 9 15 12 16 11 17 10 18 4 20 20 22 17 24
REMARK H PARENT 10 19 4 21 20 23 17 25
REMARK Flexibility Score: inf
ROOT
ATOM      1  C   UNL     1      42.470  37.675   7.035  1.00  0.00     0.180 A 
ATOM      2  C   UNL     1      43.402  37.575   8.086  1.00  0.00     0.208 A 
ATOM      3  C   UNL     1      44.150  38.710   8.438  1.00  0.00     0.238 A 
ATOM      4  O   UNL     1      44.981  38.635   9.385  1.00  0.00    -0.285 OA
ATOM      5  C   UNL     1      43.970  39.913   7.727  1.00  0.00     0.111 A 
ATOM      6  C   UNL     1      44.686  41.099   8.016  1.00  0.00     0.134 A 
ATOM      7  C   UNL     1      44.456  42.255   7.254  1.00  0.00     0.093 A 
ATOM      8  C   UNL     1      43.524  42.245   6.210  1.00  0.00     0.123 A 
ATOM      9  C   UNL     1      42.815  41.078   5.922  1.00  0.00     0.094 A 
ATOM     10  C   UNL     1      43.030  39.917   6.669  1.00  0.00     0.146 A 
ATOM     11  O   UNL     1      42.337  38.822   6.376  1.00  0.00    -0.452 OA
ENDROOT
BRANCH   1  12
ATOM     12  C   UNL     1      41.630  36.529   6.617  1.00  0.00     0.021 A 
ATOM     13  C   UNL     1      41.520  36.214   5.252  1.00  0.00     0.016 A 
ATOM     14  C   UNL     1      40.715  35.151   4.834  1.00  0.00     0.047 A 
ATOM     15  C   UNL     1      39.999  34.398   5.773  1.00  0.00     0.115 A 
ATOM     16  C   UNL     1      40.892  35.781   7.553  1.00  0.00     0.016 A 
ATOM     17  C   UNL     1      40.087  34.719   7.130  1.00  0.00     0.047 A 
BRANCH  15  18
ATOM     18  O   UNL     1      39.194  33.336   5.367  1.00  0.00    -0.508 OA
ATOM     19  H   UNL     1      39.486  32.700   4.634  1.00  0.00     0.293 HD
ENDBRANCH  15  18
ENDBRANCH   1  12
BRANCH   2  20
ATOM     20  O   UNL     1      43.598  36.358   8.743  1.00  0.00    -0.502 OA
ATOM     21  H   UNL     1      44.232  35.648   8.394  1.00  0.00     0.293 HD
ENDBRANCH   2  20
BRANCH   6  22
ATOM     22  O   UNL     1      45.622  41.139   9.050  1.00  0.00    -0.507 OA
ATOM     23  H   UNL     1      46.616  41.050   8.875  1.00  0.00     0.293 HD
ENDBRANCH   6  22
BRANCH   8  24
ATOM     24  O   UNL     1      43.296  43.393   5.453  1.00  0.00    -0.508 OA
ATOM     25  H   UNL     1      43.746  43.535   4.557  1.00  0.00     0.293 HD
ENDBRANCH   8  24
TORSDOF 5
ENDMDL
MODEL 8
REMARK VINA RESULT:    -5.852      4.123      9.450
REMARK INTER + INTRA:          -6.947
REMARK INTER:                  -6.812
REMARK INTRA:                  -0.134
REMARK UNBOUND:                -0.068
REMARK SMILES O=c1c(O)c(-c2ccc(O)cc2)oc2cc(O)cc(O)c12
REMARK SMILES IDX 5 1 3 2 2 3 1 4 21 5 19 6 18 7 16 8 15 9 14 10 13 11 6 12
REMARK SMILES IDX 7 13 8 14 9 15 12 16 11 17 10 18 4 20 20 22 17 24
REMARK H PARENT 10 19 4 21 20 23 17 25
REMARK Flexibility Score: inf
ROOT
ATOM      1  C   UNL     1      43.560  37.929   8.578  1.00  0.00     0.180 A 
ATOM      2  C   UNL     1      43.014  38.096   7.291  1.00  0.00     0.208 A 
ATOM      3  C   UNL     1      43.104  39.352   6.673  1.00  0.00     0.238 A 
ATOM      4  O   UNL     1      42.628  39.510   5.515  1.00  0.00    -0.285 OA
ATOM      5  C   UNL     1      43.719  40.422   7.354  1.00  0.00     0.111 A 
ATOM      6  C   UNL     1      43.848  41.720   6.804  1.00  0.00     0.134 A 
ATOM      7  C   UNL     1      44.465  42.735   7.550  1.00  0.00     0.093 A 
ATOM      8  C   UNL     1      44.954  42.476   8.836  1.00  0.00     0.123 A 
ATOM      9  C   UNL     1      44.830  41.198   9.382  1.00  0.00     0.094 A 
ATOM     10  C   UNL     1      44.219  40.174   8.654  1.00  0.00     0.146 A 
ATOM     11  O   UNL     1      44.120  38.965   9.197  1.00  0.00    -0.452 OA
ENDROOT
BRANCH   1  12
ATOM     12  C   UNL     1      43.521  36.631   9.289  1.00  0.00     0.021 A 
ATOM     13  C   UNL     1      42.285  36.106   9.703  1.00  0.00     0.016 A 
ATOM     14  C   UNL     1      42.227  34.892  10.394  1.00  0.00     0.047 A 
ATOM     15  C   UNL     1      43.404  34.196  10.693  1.00  0.00     0.115 A 
ATOM     16  C   UNL     1      44.701  35.935   9.610  1.00  0.00     0.016 A 
ATOM     17  C   UNL     1      44.639  34.722  10.302  1.00  0.00     0.047 A 
BRANCH  15  18
ATOM     18  O   UNL     1      43.358  32.985  11.380  1.00  0.00    -0.508 OA
ATOM     19  H   UNL     1      42.771  32.862  12.197  1.00  0.00     0.293 HD
ENDBRANCH  15  18
ENDBRANCH   1  12
BRANCH   2  20
ATOM     20  O   UNL     1      42.365  37.033   6.657  1.00  0.00    -0.502 OA
ATOM     21  H   UNL     1      42.110  37.060   5.676  1.00  0.00     0.293 HD
ENDBRANCH   2  20
BRANCH   6  22
ATOM     22  O   UNL     1      43.369  42.008   5.525  1.00  0.00    -0.507 OA
ATOM     23  H   UNL     1      43.837  41.673   4.691  1.00  0.00     0.293 HD
ENDBRANCH   6  22
BRANCH   8  24
ATOM     24  O   UNL     1      45.566  43.484   9.577  1.00  0.00    -0.508 OA
ATOM     25  H   UNL     1      45.958  43.305  10.494  1.00  0.00     0.293 HD
ENDBRANCH   8  24
TORSDOF 5
ENDMDL
MODEL 9
REMARK VINA RESULT:    -5.773     10.673     12.580
REMARK INTER + INTRA:          -6.854
REMARK INTER:                  -6.563
REMARK INTRA:                  -0.291
REMARK UNBOUND:                -0.068
REMARK SMILES O=c1c(O)c(-c2ccc(O)cc2)oc2cc(O)cc(O)c12
REMARK SMILES IDX 5 1 3 2 2 3 1 4 21 5 19 6 18 7 16 8 15 9 14 10 13 11 6 12
REMARK SMILES IDX 7 13 8 14 9 15 12 16 11 17 10 18 4 20 20 22 17 24
REMARK H PARENT 10 19 4 21 20 23 17 25
REMARK Flexibility Score: inf
ROOT
ATOM      1  C   UNL     1      48.844  34.065   8.835  1.00  0.00     0.180 A 
ATOM      2  C   UNL     1      49.561  34.860   9.749  1.00  0.00     0.208 A 
ATOM      3  C   UNL     1      48.925  35.280  10.928  1.00  0.00     0.238 A 
ATOM      4  O   UNL     1      49.561  35.985  11.759  1.00  0.00    -0.285 OA
ATOM      5  C   UNL     1      47.584  34.917  11.164  1.00  0.00     0.111 A 
ATOM      6  C   UNL     1      46.869  35.302  12.323  1.00  0.00     0.134 A 
ATOM      7  C   UNL     1      45.532  34.908  12.481  1.00  0.00     0.093 A 
ATOM      8  C   UNL     1      44.897  34.137  11.500  1.00  0.00     0.123 A 
ATOM      9  C   UNL     1      45.598  33.754  10.355  1.00  0.00     0.094 A 
ATOM     10  C   UNL     1      46.931  34.136  10.181  1.00  0.00     0.146 A 
ATOM     11  O   UNL     1      47.575  33.753   9.084  1.00  0.00    -0.452 OA
ENDROOT
BRANCH   1  12
ATOM     12  C   UNL     1      49.450  33.567   7.580  1.00  0.00     0.021 A 
ATOM     13  C   UNL     1      50.159  32.353   7.588  1.00  0.00     0.016 A 
ATOM     14  C   UNL     1      50.759  31.875   6.419  1.00  0.00     0.047 A 
ATOM     15  C   UNL     1      50.669  32.610   5.231  1.00  0.00     0.115 A 
ATOM     16  C   UNL     1      49.383  34.310   6.387  1.00  0.00     0.016 A 
ATOM     17  C   UNL     1      49.984  33.829   5.220  1.00  0.00     0.047 A 
BRANCH  15  18
ATOM     18  O   UNL     1      51.262  32.143   4.061  1.00  0.00    -0.508 OA
ATOM     19  H   UNL     1      51.337  32.727   3.235  1.00  0.00     0.293 HD
ENDBRANCH  15  18
ENDBRANCH   1  12
BRANCH   2  20
ATOM     20  O   UNL     1      50.874  35.249   9.469  1.00  0.00    -0.502 OA
ATOM     21  H   UNL     1      51.665  34.631   9.609  1.00  0.00     0.293 HD
ENDBRANCH   2  20
BRANCH   6  22
ATOM     22  O   UNL     1      47.475  36.071  13.318  1.00  0.00    -0.507 OA
ATOM     23  H   UNL     1      47.491  35.775  14.287  1.00  0.00     0.293 HD
ENDBRANCH   6  22
BRANCH   8  24
ATOM     24  O   UNL     1      43.569  33.746  11.656  1.00  0.00    -0.508 OA
ATOM     25  H   UNL     1      42.817  34.218  11.170  1.00  0.00     0.293 HD
ENDBRANCH   8  24
TORSDOF 5
ENDMDL
