MODEL 1
REMARK VINA RESULT:    -3.243      0.000      0.000
REMARK INTER + INTRA:          -4.526
REMARK INTER:                  -4.380
REMARK INTRA:                  -0.146
REMARK UNBOUND:                -0.146
REMARK SMILES [NH3+]CCCC[C@H]([NH3+])C(=O)[O-]
REMARK SMILES IDX 4 1 3 2 2 3 1 4 5 8 6 9 7 10 8 14 9 15 10 16
REMARK H PARENT 1 5 1 6 1 7 7 11 7 12 7 13
REMARK Flexibility Score: inf
ROOT
ATOM      1  C   UNL     1      19.109  20.308   6.736  1.00  0.00     0.012 C 
ENDROOT
BRANCH   1   2
ATOM      2  C   UNL     1      17.667  20.221   7.259  1.00  0.00     0.061 C 
BRANCH   2   3
ATOM      3  C   UNL     1      17.500  19.153   8.354  1.00  0.00     0.258 C 
BRANCH   3   4
ATOM      4  N   UNL     1      18.765  18.488   8.676  1.00  0.00    -0.358 N 
ATOM      5  H   UNL     1      19.399  19.140   9.192  1.00  0.00     0.344 HD
ATOM      6  H   UNL     1      19.231  18.150   7.803  1.00  0.00     0.344 HD
ATOM      7  H   UNL     1      18.568  17.661   9.284  1.00  0.00     0.344 HD
ENDBRANCH   3   4
ENDBRANCH   2   3
ENDBRANCH   1   2
BRANCH   1   8
ATOM      8  C   UNL     1      19.674  21.726   6.921  1.00  0.00     0.072 C 
BRANCH   8   9
ATOM      9  C   UNL     1      20.232  22.320   5.608  1.00  0.00     0.227 C 
BRANCH   9  10
ATOM     10  N   UNL     1      20.234  21.331   4.520  1.00  0.00    -0.350 N 
ATOM     11  H   UNL     1      20.521  20.396   4.884  1.00  0.00     0.345 HD
ATOM     12  H   UNL     1      19.268  21.233   4.128  1.00  0.00     0.345 HD
ATOM     13  H   UNL     1      20.885  21.622   3.755  1.00  0.00     0.345 HD
ENDBRANCH   9  10
BRANCH   9  14
ATOM     14  C   UNL     1      21.630  22.829   5.842  1.00  0.00     0.099 C 
ATOM     15  O   UNL     1      22.486  22.094   6.401  1.00  0.00    -0.544 OA
ATOM     16  O   UNL     1      21.990  24.104   5.423  1.00  0.00    -0.544 OA
ENDBRANCH   9  14
ENDBRANCH   8   9
ENDBRANCH   1   8
TORSDOF 7
ENDMDL
MODEL 2
REMARK VINA RESULT:    -3.147     10.356     11.148
REMARK INTER + INTRA:          -4.397
REMARK INTER:                  -4.236
REMARK INTRA:                  -0.160
REMARK UNBOUND:                -0.146
REMARK SMILES [NH3+]CCCC[C@H]([NH3+])C(=O)[O-]
REMARK SMILES IDX 4 1 3 2 2 3 1 4 5 8 6 9 7 10 8 14 9 15 10 16
REMARK H PARENT 1 5 1 6 1 7 7 11 7 12 7 13
REMARK Flexibility Score: inf
ROOT
ATOM      1  C   UNL     1      22.749  26.412  14.511  1.00  0.00     0.012 C 
ENDROOT
BRANCH   1   2
ATOM      2  C   UNL     1      21.944  26.889  13.293  1.00  0.00     0.061 C 
BRANCH   2   3
ATOM      3  C   UNL     1      21.569  25.736  12.345  1.00  0.00     0.258 C 
BRANCH   3   4
ATOM      4  N   UNL     1      22.542  24.643  12.391  1.00  0.00    -0.358 N 
ATOM      5  H   UNL     1      23.517  25.020  12.361  1.00  0.00     0.344 HD
ATOM      6  H   UNL     1      22.388  23.984  11.595  1.00  0.00     0.344 HD
ATOM      7  H   UNL     1      22.415  24.113  13.284  1.00  0.00     0.344 HD
ENDBRANCH   3   4
ENDBRANCH   2   3
ENDBRANCH   1   2
BRANCH   1   8
ATOM      8  C   UNL     1      22.072  26.848  15.820  1.00  0.00     0.072 C 
BRANCH   8   9
ATOM      9  C   UNL     1      21.146  25.757  16.403  1.00  0.00     0.227 C 
BRANCH   9  10
ATOM     10  N   UNL     1      19.738  25.992  16.051  1.00  0.00    -0.350 N 
ATOM     11  H   UNL     1      19.499  25.485  15.170  1.00  0.00     0.345 HD
ATOM     12  H   UNL     1      19.116  25.620  16.805  1.00  0.00     0.345 HD
ATOM     13  H   UNL     1      19.551  27.014  15.927  1.00  0.00     0.345 HD
ENDBRANCH   9  10
BRANCH   9  14
ATOM     14  C   UNL     1      21.301  25.716  17.901  1.00  0.00     0.099 C 
ATOM     15  O   UNL     1      20.319  25.974  18.646  1.00  0.00    -0.544 OA
ATOM     16  O   UNL     1      22.522  25.372  18.468  1.00  0.00    -0.544 OA
ENDBRANCH   9  14
ENDBRANCH   8   9
ENDBRANCH   1   8
TORSDOF 7
ENDMDL
MODEL 3
REMARK VINA RESULT:    -3.116      3.605      4.564
REMARK INTER + INTRA:          -4.355
REMARK INTER:                  -4.227
REMARK INTRA:                  -0.128
REMARK UNBOUND:                -0.146
REMARK SMILES [NH3+]CCCC[C@H]([NH3+])C(=O)[O-]
REMARK SMILES IDX 4 1 3 2 2 3 1 4 5 8 6 9 7 10 8 14 9 15 10 16
REMARK H PARENT 1 5 1 6 1 7 7 11 7 12 7 13
REMARK Flexibility Score: inf
ROOT
ATOM      1  C   UNL     1      20.791  25.174   8.123  1.00  0.00     0.012 C 
ENDROOT
BRANCH   1   2
ATOM      2  C   UNL     1      21.005  24.518   9.495  1.00  0.00     0.061 C 
BRANCH   2   3
ATOM      3  C   UNL     1      22.070  25.243  10.336  1.00  0.00     0.258 C 
BRANCH   3   4
ATOM      4  N   UNL     1      22.555  24.418  11.445  1.00  0.00    -0.358 N 
ATOM      5  H   UNL     1      22.127  23.464  11.405  1.00  0.00     0.344 HD
ATOM      6  H   UNL     1      22.334  24.872  12.360  1.00  0.00     0.344 HD
ATOM      7  H   UNL     1      23.593  24.323  11.368  1.00  0.00     0.344 HD
ENDBRANCH   3   4
ENDBRANCH   2   3
ENDBRANCH   1   2
BRANCH   1   8
ATOM      8  C   UNL     1      20.042  24.225   7.173  1.00  0.00     0.072 C 
BRANCH   8   9
ATOM      9  C   UNL     1      20.890  23.820   5.946  1.00  0.00     0.227 C 
BRANCH   9  10
ATOM     10  N   UNL     1      20.113  23.887   4.700  1.00  0.00    -0.350 N 
ATOM     11  H   UNL     1      19.901  22.924   4.356  1.00  0.00     0.345 HD
ATOM     12  H   UNL     1      19.199  24.364   4.877  1.00  0.00     0.345 HD
ATOM     13  H   UNL     1      20.637  24.413   3.963  1.00  0.00     0.345 HD
ENDBRANCH   9  10
BRANCH   9  14
ATOM     14  C   UNL     1      21.425  22.426   6.145  1.00  0.00     0.099 C 
ATOM     15  O   UNL     1      22.619  22.251   6.502  1.00  0.00    -0.544 OA
ATOM     16  O   UNL     1      20.596  21.325   5.956  1.00  0.00    -0.544 OA
ENDBRANCH   9  14
ENDBRANCH   8   9
ENDBRANCH   1   8
TORSDOF 7
ENDMDL
MODEL 4
REMARK VINA RESULT:    -3.081      6.594      7.242
REMARK INTER + INTRA:          -4.308
REMARK INTER:                  -3.803
REMARK INTRA:                  -0.504
REMARK UNBOUND:                -0.146
REMARK SMILES [NH3+]CCCC[C@H]([NH3+])C(=O)[O-]
REMARK SMILES IDX 4 1 3 2 2 3 1 4 5 8 6 9 7 10 8 14 9 15 10 16
REMARK H PARENT 1 5 1 6 1 7 7 11 7 12 7 13
REMARK Flexibility Score: inf
ROOT
ATOM      1  C   UNL     1      20.322  26.519  12.621  1.00  0.00     0.012 C 
ENDROOT
BRANCH   1   2
ATOM      2  C   UNL     1      21.620  26.927  13.334  1.00  0.00     0.061 C 
BRANCH   2   3
ATOM      3  C   UNL     1      22.310  25.740  14.028  1.00  0.00     0.258 C 
BRANCH   3   4
ATOM      4  N   UNL     1      22.159  24.493  13.274  1.00  0.00    -0.358 N 
ATOM      5  H   UNL     1      21.654  23.779  13.847  1.00  0.00     0.344 HD
ATOM      6  H   UNL     1      23.094  24.126  12.986  1.00  0.00     0.344 HD
ATOM      7  H   UNL     1      21.602  24.684  12.410  1.00  0.00     0.344 HD
ENDBRANCH   3   4
ENDBRANCH   2   3
ENDBRANCH   1   2
BRANCH   1   8
ATOM      8  C   UNL     1      20.444  26.721  11.103  1.00  0.00     0.072 C 
BRANCH   8   9
ATOM      9  C   UNL     1      20.085  25.449  10.302  1.00  0.00     0.227 C 
BRANCH   9  10
ATOM     10  N   UNL     1      19.340  24.482  11.121  1.00  0.00    -0.350 N 
ATOM     11  H   UNL     1      19.673  23.512  10.926  1.00  0.00     0.345 HD
ATOM     12  H   UNL     1      19.507  24.673  12.136  1.00  0.00     0.345 HD
ATOM     13  H   UNL     1      18.314  24.543  10.926  1.00  0.00     0.345 HD
ENDBRANCH   9  10
BRANCH   9  14
ATOM     14  C   UNL     1      21.346  24.814   9.778  1.00  0.00     0.099 C 
ATOM     15  O   UNL     1      22.467  25.155  10.241  1.00  0.00    -0.544 OA
ATOM     16  O   UNL     1      21.280  23.833   8.796  1.00  0.00    -0.544 OA
ENDBRANCH   9  14
ENDBRANCH   8   9
ENDBRANCH   1   8
TORSDOF 7
ENDMDL
MODEL 5
REMARK VINA RESULT:    -3.071      2.400      3.070
REMARK INTER + INTRA:          -4.295
REMARK INTER:                  -3.794
REMARK INTRA:                  -0.501
REMARK UNBOUND:                -0.146
REMARK SMILES [NH3+]CCCC[C@H]([NH3+])C(=O)[O-]
REMARK SMILES IDX 4 1 3 2 2 3 1 4 5 8 6 9 7 10 8 14 9 15 10 16
REMARK H PARENT 1 5 1 6 1 7 7 11 7 12 7 13
REMARK Flexibility Score: inf
ROOT
ATOM      1  C   UNL     1      20.755  21.902   4.637  1.00  0.00     0.012 C 
ENDROOT
BRANCH   1   2
ATOM      2  C   UNL     1      19.315  21.574   5.059  1.00  0.00     0.061 C 
BRANCH   2   3
ATOM      3  C   UNL     1      19.171  20.142   5.602  1.00  0.00     0.258 C 
BRANCH   3   4
ATOM      4  N   UNL     1      19.148  20.105   7.066  1.00  0.00    -0.358 N 
ATOM      5  H   UNL     1      18.202  19.817   7.409  1.00  0.00     0.344 HD
ATOM      6  H   UNL     1      19.402  21.040   7.458  1.00  0.00     0.344 HD
ATOM      7  H   UNL     1      19.851  19.407   7.399  1.00  0.00     0.344 HD
ENDBRANCH   3   4
ENDBRANCH   2   3
ENDBRANCH   1   2
BRANCH   1   8
ATOM      8  C   UNL     1      21.502  22.634   5.764  1.00  0.00     0.072 C 
BRANCH   8   9
ATOM      9  C   UNL     1      20.633  23.709   6.455  1.00  0.00     0.227 C 
BRANCH   9  10
ATOM     10  N   UNL     1      21.145  25.064   6.210  1.00  0.00    -0.350 N 
ATOM     11  H   UNL     1      22.004  25.233   6.780  1.00  0.00     0.345 HD
ATOM     12  H   UNL     1      21.412  25.167   5.203  1.00  0.00     0.345 HD
ATOM     13  H   UNL     1      20.423  25.783   6.447  1.00  0.00     0.345 HD
ENDBRANCH   9  10
BRANCH   9  14
ATOM     14  C   UNL     1      20.583  23.437   7.935  1.00  0.00     0.099 C 
ATOM     15  O   UNL     1      21.493  23.871   8.690  1.00  0.00    -0.544 OA
ATOM     16  O   UNL     1      19.520  22.726   8.481  1.00  0.00    -0.544 OA
ENDBRANCH   9  14
ENDBRANCH   8   9
ENDBRANCH   1   8
TORSDOF 7
ENDMDL
MODEL 6
REMARK VINA RESULT:    -3.002      7.956      8.430
REMARK INTER + INTRA:          -4.202
REMARK INTER:                  -4.096
REMARK INTRA:                  -0.105
REMARK UNBOUND:                -0.146
REMARK SMILES [NH3+]CCCC[C@H]([NH3+])C(=O)[O-]
REMARK SMILES IDX 4 1 3 2 2 3 1 4 5 8 6 9 7 10 8 14 9 15 10 16
REMARK H PARENT 1 5 1 6 1 7 7 11 7 12 7 13
REMARK Flexibility Score: inf
ROOT
ATOM      1  C   UNL     1      22.207  25.204  14.133  1.00  0.00     0.012 C 
ENDROOT
BRANCH   1   2
ATOM      2  C   UNL     1      21.959  26.294  15.186  1.00  0.00     0.061 C 
BRANCH   2   3
ATOM      3  C   UNL     1      20.970  25.848  16.276  1.00  0.00     0.258 C 
BRANCH   3   4
ATOM      4  N   UNL     1      21.621  25.058  17.324  1.00  0.00    -0.358 N 
ATOM      5  H   UNL     1      22.618  24.865  17.070  1.00  0.00     0.344 HD
ATOM      6  H   UNL     1      21.109  24.160  17.475  1.00  0.00     0.344 HD
ATOM      7  H   UNL     1      21.602  25.600  18.218  1.00  0.00     0.344 HD
ENDBRANCH   3   4
ENDBRANCH   2   3
ENDBRANCH   1   2
BRANCH   1   8
ATOM      8  C   UNL     1      22.758  25.813  12.833  1.00  0.00     0.072 C 
BRANCH   8   9
ATOM      9  C   UNL     1      21.667  26.003  11.755  1.00  0.00     0.227 C 
BRANCH   9  10
ATOM     10  N   UNL     1      20.480  25.181  12.031  1.00  0.00    -0.350 N 
ATOM     11  H   UNL     1      20.214  24.637  11.181  1.00  0.00     0.345 HD
ATOM     12  H   UNL     1      20.693  24.493  12.790  1.00  0.00     0.345 HD
ATOM     13  H   UNL     1      19.675  25.779  12.328  1.00  0.00     0.345 HD
ENDBRANCH   9  10
BRANCH   9  14
ATOM     14  C   UNL     1      22.232  25.654  10.404  1.00  0.00     0.099 C 
ATOM     15  O   UNL     1      22.089  24.492   9.938  1.00  0.00    -0.544 OA
ATOM     16  O   UNL     1      22.894  26.617   9.652  1.00  0.00    -0.544 OA
ENDBRANCH   9  14
ENDBRANCH   8   9
ENDBRANCH   1   8
TORSDOF 7
ENDMDL
MODEL 7
REMARK VINA RESULT:    -2.975      1.520      1.739
REMARK INTER + INTRA:          -4.164
REMARK INTER:                  -4.077
REMARK INTRA:                  -0.087
REMARK UNBOUND:                -0.146
REMARK SMILES [NH3+]CCCC[C@H]([NH3+])C(=O)[O-]
REMARK SMILES IDX 4 1 3 2 2 3 1 4 5 8 6 9 7 10 8 14 9 15 10 16
REMARK H PARENT 1 5 1 6 1 7 7 11 7 12 7 13
REMARK Flexibility Score: inf
ROOT
ATOM      1  C   UNL     1      19.783  21.255   6.067  1.00  0.00     0.012 C 
ENDROOT
BRANCH   1   2
ATOM      2  C   UNL     1      18.994  21.185   7.383  1.00  0.00     0.061 C 
BRANCH   2   3
ATOM      3  C   UNL     1      18.154  19.902   7.501  1.00  0.00     0.258 C 
BRANCH   3   4
ATOM      4  N   UNL     1      18.790  18.901   8.361  1.00  0.00    -0.358 N 
ATOM      5  H   UNL     1      18.479  17.938   8.093  1.00  0.00     0.344 HD
ATOM      6  H   UNL     1      18.563  19.085   9.364  1.00  0.00     0.344 HD
ATOM      7  H   UNL     1      19.827  18.962   8.243  1.00  0.00     0.344 HD
ENDBRANCH   3   4
ENDBRANCH   2   3
ENDBRANCH   1   2
BRANCH   1   8
ATOM      8  C   UNL     1      21.036  22.130   6.226  1.00  0.00     0.072 C 
BRANCH   8   9
ATOM      9  C   UNL     1      21.158  23.201   5.119  1.00  0.00     0.227 C 
BRANCH   9  10
ATOM     10  N   UNL     1      22.062  22.772   4.042  1.00  0.00    -0.350 N 
ATOM     11  H   UNL     1      21.626  21.996   3.495  1.00  0.00     0.345 HD
ATOM     12  H   UNL     1      22.230  23.566   3.381  1.00  0.00     0.345 HD
ATOM     13  H   UNL     1      22.978  22.451   4.431  1.00  0.00     0.345 HD
ENDBRANCH   9  10
BRANCH   9  14
ATOM     14  C   UNL     1      21.652  24.490   5.721  1.00  0.00     0.099 C 
ATOM     15  O   UNL     1      21.309  24.817   6.887  1.00  0.00    -0.544 OA
ATOM     16  O   UNL     1      22.509  25.316   5.001  1.00  0.00    -0.544 OA
ENDBRANCH   9  14
ENDBRANCH   8   9
ENDBRANCH   1   8
TORSDOF 7
ENDMDL
MODEL 8
REMARK VINA RESULT:    -2.938      2.889      4.399
REMARK INTER + INTRA:          -4.115
REMARK INTER:                  -3.586
REMARK INTRA:                  -0.530
REMARK UNBOUND:                -0.146
REMARK SMILES [NH3+]CCCC[C@H]([NH3+])C(=O)[O-]
REMARK SMILES IDX 4 1 3 2 2 3 1 4 5 8 6 9 7 10 8 14 9 15 10 16
REMARK H PARENT 1 5 1 6 1 7 7 11 7 12 7 13
REMARK Flexibility Score: inf
ROOT
ATOM      1  C   UNL     1      19.654  21.486   4.372  1.00  0.00     0.012 C 
ENDROOT
BRANCH   1   2
ATOM      2  C   UNL     1      20.953  22.274   4.595  1.00  0.00     0.061 C 
BRANCH   2   3
ATOM      3  C   UNL     1      21.347  22.355   6.080  1.00  0.00     0.258 C 
BRANCH   3   4
ATOM      4  N   UNL     1      20.661  23.446   6.776  1.00  0.00    -0.358 N 
ATOM      5  H   UNL     1      20.628  23.257   7.805  1.00  0.00     0.344 HD
ATOM      6  H   UNL     1      19.693  23.565   6.402  1.00  0.00     0.344 HD
ATOM      7  H   UNL     1      21.187  24.334   6.616  1.00  0.00     0.344 HD
ENDBRANCH   3   4
ENDBRANCH   2   3
ENDBRANCH   1   2
BRANCH   1   8
ATOM      8  C   UNL     1      19.532  20.334   5.382  1.00  0.00     0.072 C 
BRANCH   8   9
ATOM      9  C   UNL     1      18.215  20.388   6.190  1.00  0.00     0.227 C 
BRANCH   9  10
ATOM     10  N   UNL     1      17.382  21.534   5.799  1.00  0.00    -0.350 N 
ATOM     11  H   UNL     1      16.465  21.498   6.296  1.00  0.00     0.345 HD
ATOM     12  H   UNL     1      17.854  22.426   6.075  1.00  0.00     0.345 HD
ATOM     13  H   UNL     1      17.219  21.539   4.765  1.00  0.00     0.345 HD
ENDBRANCH   9  10
BRANCH   9  14
ATOM     14  C   UNL     1      18.532  20.460   7.661  1.00  0.00     0.099 C 
ATOM     15  O   UNL     1      18.656  21.578   8.228  1.00  0.00    -0.544 OA
ATOM     16  O   UNL     1      18.667  19.294   8.406  1.00  0.00    -0.544 OA
ENDBRANCH   9  14
ENDBRANCH   8   9
ENDBRANCH   1   8
TORSDOF 7
ENDMDL
MODEL 9
REMARK VINA RESULT:    -1.561      1.851      2.363
REMARK INTER + INTRA:          -2.255
REMARK INTER:                  -1.770
REMARK INTRA:                  -0.485
REMARK UNBOUND:                -0.146
REMARK SMILES [NH3+]CCCC[C@H]([NH3+])C(=O)[O-]
REMARK SMILES IDX 4 1 3 2 2 3 1 4 5 8 6 9 7 10 8 14 9 15 10 16
REMARK H PARENT 1 5 1 6 1 7 7 11 7 12 7 13
REMARK Flexibility Score: inf
ROOT
ATOM      1  C   UNL     1      19.846  21.102   3.875  1.00  0.00     0.012 C 
ENDROOT
BRANCH   1   2
ATOM      2  C   UNL     1      19.128  19.972   4.628  1.00  0.00     0.061 C 
BRANCH   2   3
ATOM      3  C   UNL     1      18.425  20.467   5.904  1.00  0.00     0.258 C 
BRANCH   3   4
ATOM      4  N   UNL     1      19.097  20.007   7.121  1.00  0.00    -0.358 N 
ATOM      5  H   UNL     1      19.354  18.996   7.036  1.00  0.00     0.344 HD
ATOM      6  H   UNL     1      18.483  20.152   7.954  1.00  0.00     0.344 HD
ATOM      7  H   UNL     1      19.971  20.563   7.257  1.00  0.00     0.344 HD
ENDBRANCH   3   4
ENDBRANCH   2   3
ENDBRANCH   1   2
BRANCH   1   8
ATOM      8  C   UNL     1      19.649  22.448   4.589  1.00  0.00     0.072 C 
BRANCH   8   9
ATOM      9  C   UNL     1      20.987  23.130   4.955  1.00  0.00     0.227 C 
BRANCH   9  10
ATOM     10  N   UNL     1      22.042  22.817   3.980  1.00  0.00    -0.350 N 
ATOM     11  H   UNL     1      21.646  22.269   3.185  1.00  0.00     0.345 HD
ATOM     12  H   UNL     1      22.435  23.703   3.586  1.00  0.00     0.345 HD
ATOM     13  H   UNL     1      22.813  22.271   4.430  1.00  0.00     0.345 HD
ENDBRANCH   9  10
BRANCH   9  14
ATOM     14  C   UNL     1      21.413  22.693   6.332  1.00  0.00     0.099 C 
ATOM     15  O   UNL     1      20.613  22.782   7.300  1.00  0.00    -0.544 OA
ATOM     16  O   UNL     1      22.683  22.168   6.537  1.00  0.00    -0.544 OA
ENDBRANCH   9  14
ENDBRANCH   8   9
ENDBRANCH   1   8
TORSDOF 7
ENDMDL
