MODEL 1
REMARK VINA RESULT:    -4.182      0.000      0.000
REMARK INTER + INTRA:         -16.243
REMARK INTER:                 -10.540
REMARK INTRA:                  -5.704
REMARK UNBOUND:                -5.704
REMARK SMILES CCCCCCCCCCCCCCCCCCCCCCCCCCCC(=O)[O-]
REMARK SMILES IDX 15 1 16 2 17 3 18 4 19 5 20 6 21 7 22 8 23 9 24 10 25 11
REMARK SMILES IDX 26 12 27 13 28 14 29 15 30 16 14 17 13 18 12 19 11 20 10 21
REMARK SMILES IDX 9 22 8 23 7 24 6 25 5 26 4 27 3 28 2 29 1 30
REMARK H PARENT
REMARK Flexibility Score: inf
ROOT
ATOM      1  C   UNL     1      55.867  38.490  51.129  1.00  0.00     0.000 C 
ENDROOT
BRANCH   1   2
ATOM      2  C   UNL     1      54.624  38.108  50.304  1.00  0.00     0.000 C 
BRANCH   2   3
ATOM      3  C   UNL     1      53.311  38.608  50.924  1.00  0.00     0.000 C 
BRANCH   3   4
ATOM      4  C   UNL     1      53.508  39.985  51.574  1.00  0.00     0.000 C 
BRANCH   4   5
ATOM      5  C   UNL     1      52.180  40.711  51.846  1.00  0.00     0.000 C 
BRANCH   5   6
ATOM      6  C   UNL     1      52.311  42.222  52.117  1.00  0.00     0.000 C 
BRANCH   6   7
ATOM      7  C   UNL     1      53.727  42.802  51.931  1.00  0.00     0.000 C 
BRANCH   7   8
ATOM      8  C   UNL     1      54.366  43.389  53.204  1.00  0.00     0.000 C 
BRANCH   8   9
ATOM      9  C   UNL     1      55.729  42.756  53.534  1.00  0.00     0.000 C 
BRANCH   9  10
ATOM     10  C   UNL     1      55.605  41.291  53.983  1.00  0.00     0.000 C 
BRANCH  10  11
ATOM     11  C   UNL     1      56.926  40.518  53.852  1.00  0.00     0.000 C 
BRANCH  11  12
ATOM     12  C   UNL     1      57.046  39.450  54.948  1.00  0.00     0.006 C 
BRANCH  12  13
ATOM     13  C   UNL     1      57.498  38.093  54.394  1.00  0.00     0.053 C 
BRANCH  13  14
ATOM     14  C   UNL     1      58.981  38.040  54.185  1.00  0.00     0.041 C 
ATOM     15  O   UNL     1      59.464  38.177  53.030  1.00  0.00    -0.550 OA
ATOM     16  O   UNL     1      59.828  37.824  55.265  1.00  0.00    -0.550 OA
ENDBRANCH  13  14
ENDBRANCH  12  13
ENDBRANCH  11  12
ENDBRANCH  10  11
ENDBRANCH   9  10
ENDBRANCH   8   9
ENDBRANCH   7   8
ENDBRANCH   6   7
ENDBRANCH   5   6
ENDBRANCH   4   5
ENDBRANCH   3   4
ENDBRANCH   2   3
ENDBRANCH   1   2
BRANCH   1  17
ATOM     17  C   UNL     1      57.192  38.517  50.345  1.00  0.00     0.000 C 
BRANCH  17  18
ATOM     18  C   UNL     1      57.471  39.812  49.558  1.00  0.00     0.000 C 
BRANCH  18  19
ATOM     19  C   UNL     1      56.778  41.064  50.137  1.00  0.00     0.000 C 
BRANCH  19  20
ATOM     20  C   UNL     1      55.712  41.642  49.194  1.00  0.00     0.000 C 
BRANCH  20  21
ATOM     21  C   UNL     1      56.243  41.759  47.761  1.00  0.00     0.000 C 
BRANCH  21  22
ATOM     22  C   UNL     1      55.246  41.159  46.757  1.00  0.00    -0.000 C 
BRANCH  22  23
ATOM     23  C   UNL     1      54.557  39.893  47.288  1.00  0.00    -0.000 C 
BRANCH  23  24
ATOM     24  C   UNL     1      53.080  39.800  46.864  1.00  0.00    -0.000 C 
BRANCH  24  25
ATOM     25  C   UNL     1      52.114  40.286  47.960  1.00  0.00    -0.000 C 
BRANCH  25  26
ATOM     26  C   UNL     1      52.217  41.788  48.296  1.00  0.00    -0.000 C 
BRANCH  26  27
ATOM     27  C   UNL     1      51.964  42.739  47.110  1.00  0.00    -0.000 C 
BRANCH  27  28
ATOM     28  C   UNL     1      52.549  44.156  47.273  1.00  0.00    -0.000 C 
BRANCH  28  29
ATOM     29  C   UNL     1      53.243  44.419  48.622  1.00  0.00    -0.003 C 
ATOM     30  C   UNL     1      54.602  45.102  48.469  1.00  0.00     0.004 C 
ENDBRANCH  28  29
ENDBRANCH  27  28
ENDBRANCH  26  27
ENDBRANCH  25  26
ENDBRANCH  24  25
ENDBRANCH  23  24
ENDBRANCH  22  23
ENDBRANCH  21  22
ENDBRANCH  20  21
ENDBRANCH  19  20
ENDBRANCH  18  19
ENDBRANCH  17  18
ENDBRANCH   1  17
TORSDOF 26
ENDMDL
MODEL 2
REMARK VINA RESULT:    -4.158      3.679      5.772
REMARK INTER + INTRA:         -16.181
REMARK INTER:                 -11.439
REMARK INTRA:                  -4.742
REMARK UNBOUND:                -5.704
REMARK SMILES CCCCCCCCCCCCCCCCCCCCCCCCCCCC(=O)[O-]
REMARK SMILES IDX 15 1 16 2 17 3 18 4 19 5 20 6 21 7 22 8 23 9 24 10 25 11
REMARK SMILES IDX 26 12 27 13 28 14 29 15 30 16 14 17 13 18 12 19 11 20 10 21
REMARK SMILES IDX 9 22 8 23 7 24 6 25 5 26 4 27 3 28 2 29 1 30
REMARK H PARENT
REMARK Flexibility Score: inf
ROOT
ATOM      1  C   UNL     1      52.144  41.330  50.774  1.00  0.00     0.000 C 
ENDROOT
BRANCH   1   2
ATOM      2  C   UNL     1      52.232  41.104  52.296  1.00  0.00     0.000 C 
BRANCH   2   3
ATOM      3  C   UNL     1      52.997  42.216  53.028  1.00  0.00     0.000 C 
BRANCH   3   4
ATOM      4  C   UNL     1      53.903  41.624  54.117  1.00  0.00     0.000 C 
BRANCH   4   5
ATOM      5  C   UNL     1      54.622  40.342  53.662  1.00  0.00     0.000 C 
BRANCH   5   6
ATOM      6  C   UNL     1      56.149  40.348  53.866  1.00  0.00     0.000 C 
BRANCH   6   7
ATOM      7  C   UNL     1      56.729  39.077  54.518  1.00  0.00     0.000 C 
BRANCH   7   8
ATOM      8  C   UNL     1      56.268  38.816  55.964  1.00  0.00     0.000 C 
BRANCH   8   9
ATOM      9  C   UNL     1      56.471  40.033  56.885  1.00  0.00     0.000 C 
BRANCH   9  10
ATOM     10  C   UNL     1      55.201  40.395  57.670  1.00  0.00     0.000 C 
BRANCH  10  11
ATOM     11  C   UNL     1      54.071  39.372  57.476  1.00  0.00     0.000 C 
BRANCH  11  12
ATOM     12  C   UNL     1      52.699  40.060  57.500  1.00  0.00     0.006 C 
BRANCH  12  13
ATOM     13  C   UNL     1      51.574  39.103  57.913  1.00  0.00     0.053 C 
BRANCH  13  14
ATOM     14  C   UNL     1      50.483  39.812  58.657  1.00  0.00     0.041 C 
ATOM     15  O   UNL     1      50.739  40.853  59.317  1.00  0.00    -0.550 OA
ATOM     16  O   UNL     1      49.187  39.313  58.634  1.00  0.00    -0.550 OA
ENDBRANCH  13  14
ENDBRANCH  12  13
ENDBRANCH  11  12
ENDBRANCH  10  11
ENDBRANCH   9  10
ENDBRANCH   8   9
ENDBRANCH   7   8
ENDBRANCH   6   7
ENDBRANCH   5   6
ENDBRANCH   4   5
ENDBRANCH   3   4
ENDBRANCH   2   3
ENDBRANCH   1   2
BRANCH   1  17
ATOM     17  C   UNL     1      52.237  40.055  49.916  1.00  0.00     0.000 C 
BRANCH  17  18
ATOM     18  C   UNL     1      51.808  40.214  48.444  1.00  0.00     0.000 C 
BRANCH  18  19
ATOM     19  C   UNL     1      52.982  40.240  47.443  1.00  0.00     0.000 C 
BRANCH  19  20
ATOM     20  C   UNL     1      53.130  41.595  46.735  1.00  0.00     0.000 C 
BRANCH  20  21
ATOM     21  C   UNL     1      52.123  42.616  47.277  1.00  0.00     0.000 C 
BRANCH  21  22
ATOM     22  C   UNL     1      52.412  44.019  46.717  1.00  0.00    -0.000 C 
BRANCH  22  23
ATOM     23  C   UNL     1      53.023  44.962  47.764  1.00  0.00    -0.000 C 
BRANCH  23  24
ATOM     24  C   UNL     1      53.263  44.270  49.117  1.00  0.00    -0.000 C 
BRANCH  24  25
ATOM     25  C   UNL     1      54.721  44.384  49.595  1.00  0.00    -0.000 C 
BRANCH  25  26
ATOM     26  C   UNL     1      55.244  43.165  50.381  1.00  0.00    -0.000 C 
BRANCH  26  27
ATOM     27  C   UNL     1      55.593  41.937  49.519  1.00  0.00    -0.000 C 
BRANCH  27  28
ATOM     28  C   UNL     1      56.054  40.695  50.308  1.00  0.00    -0.000 C 
BRANCH  28  29
ATOM     29  C   UNL     1      55.770  39.348  49.620  1.00  0.00    -0.003 C 
ATOM     30  C   UNL     1      55.520  38.212  50.612  1.00  0.00     0.004 C 
ENDBRANCH  28  29
ENDBRANCH  27  28
ENDBRANCH  26  27
ENDBRANCH  25  26
ENDBRANCH  24  25
ENDBRANCH  23  24
ENDBRANCH  22  23
ENDBRANCH  21  22
ENDBRANCH  20  21
ENDBRANCH  19  20
ENDBRANCH  18  19
ENDBRANCH  17  18
ENDBRANCH   1  17
TORSDOF 26
ENDMDL
MODEL 3
REMARK VINA RESULT:    -4.139      1.487      3.536
REMARK INTER + INTRA:         -16.135
REMARK INTER:                 -10.562
REMARK INTRA:                  -5.572
REMARK UNBOUND:                -5.704
REMARK SMILES CCCCCCCCCCCCCCCCCCCCCCCCCCCC(=O)[O-]
REMARK SMILES IDX 15 1 16 2 17 3 18 4 19 5 20 6 21 7 22 8 23 9 24 10 25 11
REMARK SMILES IDX 26 12 27 13 28 14 29 15 30 16 14 17 13 18 12 19 11 20 10 21
REMARK SMILES IDX 9 22 8 23 7 24 6 25 5 26 4 27 3 28 2 29 1 30
REMARK H PARENT
REMARK Flexibility Score: inf
ROOT
ATOM      1  C   UNL     1      53.432  39.944  51.883  1.00  0.00     0.000 C 
ENDROOT
BRANCH   1   2
ATOM      2  C   UNL     1      52.206  40.850  51.656  1.00  0.00     0.000 C 
BRANCH   2   3
ATOM      3  C   UNL     1      52.281  42.172  52.432  1.00  0.00     0.000 C 
BRANCH   3   4
ATOM      4  C   UNL     1      53.563  42.235  53.274  1.00  0.00     0.000 C 
BRANCH   4   5
ATOM      5  C   UNL     1      54.474  43.413  52.886  1.00  0.00     0.000 C 
BRANCH   5   6
ATOM      6  C   UNL     1      55.962  43.052  52.716  1.00  0.00     0.000 C 
BRANCH   6   7
ATOM      7  C   UNL     1      56.323  41.588  53.032  1.00  0.00     0.000 C 
BRANCH   7   8
ATOM      8  C   UNL     1      57.080  41.372  54.356  1.00  0.00     0.000 C 
BRANCH   8   9
ATOM      9  C   UNL     1      56.886  39.958  54.930  1.00  0.00     0.000 C 
BRANCH   9  10
ATOM     10  C   UNL     1      56.751  38.889  53.833  1.00  0.00     0.000 C 
BRANCH  10  11
ATOM     11  C   UNL     1      57.949  37.928  53.792  1.00  0.00     0.000 C 
BRANCH  11  12
ATOM     12  C   UNL     1      58.151  37.366  52.378  1.00  0.00     0.006 C 
BRANCH  12  13
ATOM     13  C   UNL     1      58.878  38.354  51.455  1.00  0.00     0.053 C 
BRANCH  13  14
ATOM     14  C   UNL     1      59.375  37.690  50.207  1.00  0.00     0.041 C 
ATOM     15  O   UNL     1      59.224  36.450  50.046  1.00  0.00    -0.550 OA
ATOM     16  O   UNL     1      60.019  38.438  49.230  1.00  0.00    -0.550 OA
ENDBRANCH  13  14
ENDBRANCH  12  13
ENDBRANCH  11  12
ENDBRANCH  10  11
ENDBRANCH   9  10
ENDBRANCH   8   9
ENDBRANCH   7   8
ENDBRANCH   6   7
ENDBRANCH   5   6
ENDBRANCH   4   5
ENDBRANCH   3   4
ENDBRANCH   2   3
ENDBRANCH   1   2
BRANCH   1  17
ATOM     17  C   UNL     1      53.535  38.731  50.939  1.00  0.00     0.000 C 
BRANCH  17  18
ATOM     18  C   UNL     1      54.966  38.249  50.635  1.00  0.00     0.000 C 
BRANCH  18  19
ATOM     19  C   UNL     1      55.503  38.691  49.257  1.00  0.00     0.000 C 
BRANCH  19  20
ATOM     20  C   UNL     1      56.469  39.881  49.350  1.00  0.00     0.000 C 
BRANCH  20  21
ATOM     21  C   UNL     1      55.708  41.203  49.511  1.00  0.00     0.000 C 
BRANCH  21  22
ATOM     22  C   UNL     1      56.395  42.329  48.722  1.00  0.00    -0.000 C 
BRANCH  22  23
ATOM     23  C   UNL     1      55.405  43.383  48.206  1.00  0.00    -0.000 C 
BRANCH  23  24
ATOM     24  C   UNL     1      54.551  43.994  49.331  1.00  0.00    -0.000 C 
BRANCH  24  25
ATOM     25  C   UNL     1      53.050  43.694  49.170  1.00  0.00    -0.000 C 
BRANCH  25  26
ATOM     26  C   UNL     1      52.555  43.625  47.711  1.00  0.00    -0.000 C 
BRANCH  26  27
ATOM     27  C   UNL     1      51.866  42.304  47.321  1.00  0.00    -0.000 C 
BRANCH  27  28
ATOM     28  C   UNL     1      52.394  41.051  48.047  1.00  0.00    -0.000 C 
BRANCH  28  29
ATOM     29  C   UNL     1      52.906  39.933  47.122  1.00  0.00    -0.003 C 
ATOM     30  C   UNL     1      54.160  40.330  46.344  1.00  0.00     0.004 C 
ENDBRANCH  28  29
ENDBRANCH  27  28
ENDBRANCH  26  27
ENDBRANCH  25  26
ENDBRANCH  24  25
ENDBRANCH  23  24
ENDBRANCH  22  23
ENDBRANCH  21  22
ENDBRANCH  20  21
ENDBRANCH  19  20
ENDBRANCH  18  19
ENDBRANCH  17  18
ENDBRANCH   1  17
TORSDOF 26
ENDMDL
MODEL 4
REMARK VINA RESULT:    -4.121      1.884      2.216
REMARK INTER + INTRA:         -16.088
REMARK INTER:                 -10.379
REMARK INTRA:                  -5.709
REMARK UNBOUND:                -5.704
REMARK SMILES CCCCCCCCCCCCCCCCCCCCCCCCCCCC(=O)[O-]
REMARK SMILES IDX 15 1 16 2 17 3 18 4 19 5 20 6 21 7 22 8 23 9 24 10 25 11
REMARK SMILES IDX 26 12 27 13 28 14 29 15 30 16 14 17 13 18 12 19 11 20 10 21
REMARK SMILES IDX 9 22 8 23 7 24 6 25 5 26 4 27 3 28 2 29 1 30
REMARK H PARENT
REMARK Flexibility Score: inf
ROOT
ATOM      1  C   UNL     1      55.892  38.496  51.176  1.00  0.00     0.000 C 
ENDROOT
BRANCH   1   2
ATOM      2  C   UNL     1      54.643  38.131  50.352  1.00  0.00     0.000 C 
BRANCH   2   3
ATOM      3  C   UNL     1      53.343  38.698  50.942  1.00  0.00     0.000 C 
BRANCH   3   4
ATOM      4  C   UNL     1      53.420  40.227  51.051  1.00  0.00     0.000 C 
BRANCH   4   5
ATOM      5  C   UNL     1      52.099  40.858  51.525  1.00  0.00     0.000 C 
BRANCH   5   6
ATOM      6  C   UNL     1      52.246  42.231  52.208  1.00  0.00     0.000 C 
BRANCH   6   7
ATOM      7  C   UNL     1      53.688  42.763  52.312  1.00  0.00     0.000 C 
BRANCH   7   8
ATOM      8  C   UNL     1      54.274  42.792  53.736  1.00  0.00     0.000 C 
BRANCH   8   9
ATOM      9  C   UNL     1      53.908  41.544  54.558  1.00  0.00     0.000 C 
BRANCH   9  10
ATOM     10  C   UNL     1      54.847  40.359  54.279  1.00  0.00     0.000 C 
BRANCH  10  11
ATOM     11  C   UNL     1      56.318  40.786  54.150  1.00  0.00     0.000 C 
BRANCH  11  12
ATOM     12  C   UNL     1      57.100  40.443  55.426  1.00  0.00     0.006 C 
BRANCH  12  13
ATOM     13  C   UNL     1      57.484  41.693  56.229  1.00  0.00     0.053 C 
BRANCH  13  14
ATOM     14  C   UNL     1      56.680  41.815  57.488  1.00  0.00     0.041 C 
ATOM     15  O   UNL     1      55.633  41.133  57.640  1.00  0.00    -0.550 OA
ATOM     16  O   UNL     1      57.078  42.697  58.485  1.00  0.00    -0.550 OA
ENDBRANCH  13  14
ENDBRANCH  12  13
ENDBRANCH  11  12
ENDBRANCH  10  11
ENDBRANCH   9  10
ENDBRANCH   8   9
ENDBRANCH   7   8
ENDBRANCH   6   7
ENDBRANCH   5   6
ENDBRANCH   4   5
ENDBRANCH   3   4
ENDBRANCH   2   3
ENDBRANCH   1   2
BRANCH   1  17
ATOM     17  C   UNL     1      57.225  38.441  50.407  1.00  0.00     0.000 C 
BRANCH  17  18
ATOM     18  C   UNL     1      57.709  39.783  49.826  1.00  0.00     0.000 C 
BRANCH  18  19
ATOM     19  C   UNL     1      57.133  41.026  50.537  1.00  0.00     0.000 C 
BRANCH  19  20
ATOM     20  C   UNL     1      56.203  41.850  49.634  1.00  0.00     0.000 C 
BRANCH  20  21
ATOM     21  C   UNL     1      56.699  41.852  48.183  1.00  0.00     0.000 C 
BRANCH  21  22
ATOM     22  C   UNL     1      55.540  41.590  47.208  1.00  0.00    -0.000 C 
BRANCH  22  23
ATOM     23  C   UNL     1      54.878  40.221  47.426  1.00  0.00    -0.000 C 
BRANCH  23  24
ATOM     24  C   UNL     1      53.562  40.068  46.644  1.00  0.00    -0.000 C 
BRANCH  24  25
ATOM     25  C   UNL     1      52.320  40.122  47.551  1.00  0.00    -0.000 C 
BRANCH  25  26
ATOM     26  C   UNL     1      51.929  41.533  48.034  1.00  0.00    -0.000 C 
BRANCH  26  27
ATOM     27  C   UNL     1      51.977  42.627  46.950  1.00  0.00    -0.000 C 
BRANCH  27  28
ATOM     28  C   UNL     1      52.626  43.954  47.390  1.00  0.00    -0.000 C 
BRANCH  28  29
ATOM     29  C   UNL     1      53.043  44.013  48.870  1.00  0.00    -0.003 C 
ATOM     30  C   UNL     1      54.340  44.791  49.094  1.00  0.00     0.004 C 
ENDBRANCH  28  29
ENDBRANCH  27  28
ENDBRANCH  26  27
ENDBRANCH  25  26
ENDBRANCH  24  25
ENDBRANCH  23  24
ENDBRANCH  22  23
ENDBRANCH  21  22
ENDBRANCH  20  21
ENDBRANCH  19  20
ENDBRANCH  18  19
ENDBRANCH  17  18
ENDBRANCH   1  17
TORSDOF 26
ENDMDL
MODEL 5
REMARK VINA RESULT:    -4.069      1.606      3.607
REMARK INTER + INTRA:         -15.957
REMARK INTER:                 -10.643
REMARK INTRA:                  -5.314
REMARK UNBOUND:                -5.704
REMARK SMILES CCCCCCCCCCCCCCCCCCCCCCCCCCCC(=O)[O-]
REMARK SMILES IDX 15 1 16 2 17 3 18 4 19 5 20 6 21 7 22 8 23 9 24 10 25 11
REMARK SMILES IDX 26 12 27 13 28 14 29 15 30 16 14 17 13 18 12 19 11 20 10 21
REMARK SMILES IDX 9 22 8 23 7 24 6 25 5 26 4 27 3 28 2 29 1 30
REMARK H PARENT
REMARK Flexibility Score: inf
ROOT
ATOM      1  C   UNL     1      55.103  39.477  48.296  1.00  0.00     0.000 C 
ENDROOT
BRANCH   1   2
ATOM      2  C   UNL     1      54.836  38.551  49.497  1.00  0.00     0.000 C 
BRANCH   2   3
ATOM      3  C   UNL     1      54.232  39.285  50.703  1.00  0.00     0.000 C 
BRANCH   3   4
ATOM      4  C   UNL     1      52.711  39.081  50.756  1.00  0.00     0.000 C 
BRANCH   4   5
ATOM      5  C   UNL     1      51.949  40.370  51.108  1.00  0.00     0.000 C 
BRANCH   5   6
ATOM      6  C   UNL     1      52.840  41.604  51.350  1.00  0.00     0.000 C 
BRANCH   6   7
ATOM      7  C   UNL     1      52.618  42.320  52.696  1.00  0.00     0.000 C 
BRANCH   7   8
ATOM      8  C   UNL     1      53.831  42.320  53.645  1.00  0.00     0.000 C 
BRANCH   8   9
ATOM      9  C   UNL     1      54.361  40.905  53.936  1.00  0.00     0.000 C 
BRANCH   9  10
ATOM     10  C   UNL     1      55.868  40.773  53.665  1.00  0.00     0.000 C 
BRANCH  10  11
ATOM     11  C   UNL     1      56.384  39.341  53.872  1.00  0.00     0.000 C 
BRANCH  11  12
ATOM     12  C   UNL     1      57.151  38.852  52.635  1.00  0.00     0.006 C 
BRANCH  12  13
ATOM     13  C   UNL     1      58.066  37.661  52.949  1.00  0.00     0.053 C 
BRANCH  13  14
ATOM     14  C   UNL     1      58.413  36.883  51.715  1.00  0.00     0.041 C 
ATOM     15  O   UNL     1      58.926  35.738  51.812  1.00  0.00    -0.550 OA
ATOM     16  O   UNL     1      58.185  37.432  50.460  1.00  0.00    -0.550 OA
ENDBRANCH  13  14
ENDBRANCH  12  13
ENDBRANCH  11  12
ENDBRANCH  10  11
ENDBRANCH   9  10
ENDBRANCH   8   9
ENDBRANCH   7   8
ENDBRANCH   6   7
ENDBRANCH   5   6
ENDBRANCH   4   5
ENDBRANCH   3   4
ENDBRANCH   2   3
ENDBRANCH   1   2
BRANCH   1  17
ATOM     17  C   UNL     1      54.239  39.202  47.051  1.00  0.00     0.000 C 
BRANCH  17  18
ATOM     18  C   UNL     1      53.385  40.388  46.562  1.00  0.00     0.000 C 
BRANCH  18  19
ATOM     19  C   UNL     1      52.291  40.832  47.556  1.00  0.00     0.000 C 
BRANCH  19  20
ATOM     20  C   UNL     1      52.355  42.332  47.879  1.00  0.00     0.000 C 
BRANCH  20  21
ATOM     21  C   UNL     1      52.110  43.180  46.625  1.00  0.00     0.000 C 
BRANCH  21  22
ATOM     22  C   UNL     1      52.166  44.679  46.959  1.00  0.00    -0.000 C 
BRANCH  22  23
ATOM     23  C   UNL     1      53.263  45.020  47.978  1.00  0.00    -0.000 C 
BRANCH  23  24
ATOM     24  C   UNL     1      54.428  45.808  47.354  1.00  0.00    -0.000 C 
BRANCH  24  25
ATOM     25  C   UNL     1      55.789  45.117  47.551  1.00  0.00    -0.000 C 
BRANCH  25  26
ATOM     26  C   UNL     1      55.803  43.609  47.231  1.00  0.00    -0.000 C 
BRANCH  26  27
ATOM     27  C   UNL     1      56.434  42.719  48.319  1.00  0.00    -0.000 C 
BRANCH  27  28
ATOM     28  C   UNL     1      55.626  42.613  49.627  1.00  0.00    -0.000 C 
BRANCH  28  29
ATOM     29  C   UNL     1      56.298  43.250  50.857  1.00  0.00    -0.003 C 
ATOM     30  C   UNL     1      55.651  44.571  51.274  1.00  0.00     0.004 C 
ENDBRANCH  28  29
ENDBRANCH  27  28
ENDBRANCH  26  27
ENDBRANCH  25  26
ENDBRANCH  24  25
ENDBRANCH  23  24
ENDBRANCH  22  23
ENDBRANCH  21  22
ENDBRANCH  20  21
ENDBRANCH  19  20
ENDBRANCH  18  19
ENDBRANCH  17  18
ENDBRANCH   1  17
TORSDOF 26
ENDMDL
MODEL 6
REMARK VINA RESULT:    -4.025      1.984      4.964
REMARK INTER + INTRA:         -15.847
REMARK INTER:                 -10.348
REMARK INTRA:                  -5.499
REMARK UNBOUND:                -5.704
REMARK SMILES CCCCCCCCCCCCCCCCCCCCCCCCCCCC(=O)[O-]
REMARK SMILES IDX 15 1 16 2 17 3 18 4 19 5 20 6 21 7 22 8 23 9 24 10 25 11
REMARK SMILES IDX 26 12 27 13 28 14 29 15 30 16 14 17 13 18 12 19 11 20 10 21
REMARK SMILES IDX 9 22 8 23 7 24 6 25 5 26 4 27 3 28 2 29 1 30
REMARK H PARENT
REMARK Flexibility Score: inf
ROOT
ATOM      1  C   UNL     1      55.548  43.097  49.404  1.00  0.00     0.000 C 
ENDROOT
BRANCH   1   2
ATOM      2  C   UNL     1      56.575  42.931  50.540  1.00  0.00     0.000 C 
BRANCH   2   3
ATOM      3  C   UNL     1      57.233  41.544  50.562  1.00  0.00     0.000 C 
BRANCH   3   4
ATOM      4  C   UNL     1      58.030  41.302  49.273  1.00  0.00     0.000 C 
BRANCH   4   5
ATOM      5  C   UNL     1      58.861  40.008  49.321  1.00  0.00     0.000 C 
BRANCH   5   6
ATOM      6  C   UNL     1      58.083  38.754  49.763  1.00  0.00     0.000 C 
BRANCH   6   7
ATOM      7  C   UNL     1      58.909  37.709  50.540  1.00  0.00     0.000 C 
BRANCH   7   8
ATOM      8  C   UNL     1      58.414  37.417  51.969  1.00  0.00     0.000 C 
BRANCH   8   9
ATOM      9  C   UNL     1      57.065  38.087  52.283  1.00  0.00     0.000 C 
BRANCH   9  10
ATOM     10  C   UNL     1      57.088  38.862  53.610  1.00  0.00     0.000 C 
BRANCH  10  11
ATOM     11  C   UNL     1      56.170  40.094  53.592  1.00  0.00     0.000 C 
BRANCH  11  12
ATOM     12  C   UNL     1      55.996  40.667  55.006  1.00  0.00     0.006 C 
BRANCH  12  13
ATOM     13  C   UNL     1      54.628  40.324  55.610  1.00  0.00     0.053 C 
BRANCH  13  14
ATOM     14  C   UNL     1      54.760  39.600  56.915  1.00  0.00     0.041 C 
ATOM     15  O   UNL     1      54.299  40.107  57.972  1.00  0.00    -0.550 OA
ATOM     16  O   UNL     1      55.407  38.371  56.967  1.00  0.00    -0.550 OA
ENDBRANCH  13  14
ENDBRANCH  12  13
ENDBRANCH  11  12
ENDBRANCH  10  11
ENDBRANCH   9  10
ENDBRANCH   8   9
ENDBRANCH   7   8
ENDBRANCH   6   7
ENDBRANCH   5   6
ENDBRANCH   4   5
ENDBRANCH   3   4
ENDBRANCH   2   3
ENDBRANCH   1   2
BRANCH   1  17
ATOM     17  C   UNL     1      54.377  44.049  49.711  1.00  0.00     0.000 C 
BRANCH  17  18
ATOM     18  C   UNL     1      53.146  43.902  48.796  1.00  0.00     0.000 C 
BRANCH  18  19
ATOM     19  C   UNL     1      53.267  42.773  47.750  1.00  0.00     0.000 C 
BRANCH  19  20
ATOM     20  C   UNL     1      51.982  41.940  47.624  1.00  0.00     0.000 C 
BRANCH  20  21
ATOM     21  C   UNL     1      52.268  40.446  47.817  1.00  0.00     0.000 C 
BRANCH  21  22
ATOM     22  C   UNL     1      53.216  39.926  46.725  1.00  0.00    -0.000 C 
BRANCH  22  23
ATOM     23  C   UNL     1      54.454  39.220  47.299  1.00  0.00    -0.000 C 
BRANCH  23  24
ATOM     24  C   UNL     1      54.734  39.610  48.761  1.00  0.00    -0.000 C 
BRANCH  24  25
ATOM     25  C   UNL     1      54.412  38.478  49.753  1.00  0.00    -0.000 C 
BRANCH  25  26
ATOM     26  C   UNL     1      53.664  38.923  51.026  1.00  0.00    -0.000 C 
BRANCH  26  27
ATOM     27  C   UNL     1      53.637  40.445  51.265  1.00  0.00    -0.000 C 
BRANCH  27  28
ATOM     28  C   UNL     1      52.231  41.058  51.414  1.00  0.00    -0.000 C 
BRANCH  28  29
ATOM     29  C   UNL     1      52.183  42.388  52.187  1.00  0.00    -0.003 C 
ATOM     30  C   UNL     1      53.491  42.704  52.912  1.00  0.00     0.004 C 
ENDBRANCH  28  29
ENDBRANCH  27  28
ENDBRANCH  26  27
ENDBRANCH  25  26
ENDBRANCH  24  25
ENDBRANCH  23  24
ENDBRANCH  22  23
ENDBRANCH  21  22
ENDBRANCH  20  21
ENDBRANCH  19  20
ENDBRANCH  18  19
ENDBRANCH  17  18
ENDBRANCH   1  17
TORSDOF 26
ENDMDL
MODEL 7
REMARK VINA RESULT:    -4.022      1.831      4.451
REMARK INTER + INTRA:         -15.839
REMARK INTER:                 -10.749
REMARK INTRA:                  -5.090
REMARK UNBOUND:                -5.704
REMARK SMILES CCCCCCCCCCCCCCCCCCCCCCCCCCCC(=O)[O-]
REMARK SMILES IDX 15 1 16 2 17 3 18 4 19 5 20 6 21 7 22 8 23 9 24 10 25 11
REMARK SMILES IDX 26 12 27 13 28 14 29 15 30 16 14 17 13 18 12 19 11 20 10 21
REMARK SMILES IDX 9 22 8 23 7 24 6 25 5 26 4 27 3 28 2 29 1 30
REMARK H PARENT
REMARK Flexibility Score: inf
ROOT
ATOM      1  C   UNL     1      53.795  39.459  50.624  1.00  0.00     0.000 C 
ENDROOT
BRANCH   1   2
ATOM      2  C   UNL     1      54.670  38.203  50.453  1.00  0.00     0.000 C 
BRANCH   2   3
ATOM      3  C   UNL     1      56.018  38.494  49.777  1.00  0.00     0.000 C 
BRANCH   3   4
ATOM      4  C   UNL     1      56.192  40.001  49.541  1.00  0.00     0.000 C 
BRANCH   4   5
ATOM      5  C   UNL     1      57.277  40.623  50.437  1.00  0.00     0.000 C 
BRANCH   5   6
ATOM      6  C   UNL     1      56.749  41.330  51.700  1.00  0.00     0.000 C 
BRANCH   6   7
ATOM      7  C   UNL     1      57.243  40.743  53.036  1.00  0.00     0.000 C 
BRANCH   7   8
ATOM      8  C   UNL     1      56.602  39.401  53.438  1.00  0.00     0.000 C 
BRANCH   8   9
ATOM      9  C   UNL     1      57.376  38.681  54.556  1.00  0.00     0.000 C 
BRANCH   9  10
ATOM     10  C   UNL     1      58.114  37.431  54.050  1.00  0.00     0.000 C 
BRANCH  10  11
ATOM     11  C   UNL     1      58.146  37.341  52.517  1.00  0.00     0.000 C 
BRANCH  11  12
ATOM     12  C   UNL     1      59.581  37.487  51.990  1.00  0.00     0.006 C 
BRANCH  12  13
ATOM     13  C   UNL     1      59.621  37.930  50.522  1.00  0.00     0.053 C 
BRANCH  13  14
ATOM     14  C   UNL     1      60.178  36.861  49.632  1.00  0.00     0.041 C 
ATOM     15  O   UNL     1      61.116  37.125  48.833  1.00  0.00    -0.550 OA
ATOM     16  O   UNL     1      59.651  35.576  49.672  1.00  0.00    -0.550 OA
ENDBRANCH  13  14
ENDBRANCH  12  13
ENDBRANCH  11  12
ENDBRANCH  10  11
ENDBRANCH   9  10
ENDBRANCH   8   9
ENDBRANCH   7   8
ENDBRANCH   6   7
ENDBRANCH   5   6
ENDBRANCH   4   5
ENDBRANCH   3   4
ENDBRANCH   2   3
ENDBRANCH   1   2
BRANCH   1  17
ATOM     17  C   UNL     1      52.343  39.319  50.132  1.00  0.00     0.000 C 
BRANCH  17  18
ATOM     18  C   UNL     1      51.972  40.179  48.909  1.00  0.00     0.000 C 
BRANCH  18  19
ATOM     19  C   UNL     1      52.998  40.117  47.758  1.00  0.00     0.000 C 
BRANCH  19  20
ATOM     20  C   UNL     1      53.050  41.415  46.938  1.00  0.00     0.000 C 
BRANCH  20  21
ATOM     21  C   UNL     1      51.887  42.347  47.299  1.00  0.00     0.000 C 
BRANCH  21  22
ATOM     22  C   UNL     1      52.033  43.703  46.591  1.00  0.00    -0.000 C 
BRANCH  22  23
ATOM     23  C   UNL     1      53.284  44.474  47.035  1.00  0.00    -0.000 C 
BRANCH  23  24
ATOM     24  C   UNL     1      53.292  44.772  48.545  1.00  0.00    -0.000 C 
BRANCH  24  25
ATOM     25  C   UNL     1      54.398  44.010  49.297  1.00  0.00    -0.000 C 
BRANCH  25  26
ATOM     26  C   UNL     1      53.892  42.972  50.319  1.00  0.00    -0.000 C 
BRANCH  26  27
ATOM     27  C   UNL     1      52.633  43.390  51.102  1.00  0.00    -0.000 C 
BRANCH  27  28
ATOM     28  C   UNL     1      52.184  42.400  52.195  1.00  0.00    -0.000 C 
BRANCH  28  29
ATOM     29  C   UNL     1      53.311  41.900  53.117  1.00  0.00    -0.003 C 
ATOM     30  C   UNL     1      54.155  43.034  53.698  1.00  0.00     0.004 C 
ENDBRANCH  28  29
ENDBRANCH  27  28
ENDBRANCH  26  27
ENDBRANCH  25  26
ENDBRANCH  24  25
ENDBRANCH  23  24
ENDBRANCH  22  23
ENDBRANCH  21  22
ENDBRANCH  20  21
ENDBRANCH  19  20
ENDBRANCH  18  19
ENDBRANCH  17  18
ENDBRANCH   1  17
TORSDOF 26
ENDMDL
MODEL 8
REMARK VINA RESULT:    -4.021      1.850      4.201
REMARK INTER + INTRA:         -15.837
REMARK INTER:                 -10.081
REMARK INTRA:                  -5.756
REMARK UNBOUND:                -5.704
REMARK SMILES CCCCCCCCCCCCCCCCCCCCCCCCCCCC(=O)[O-]
REMARK SMILES IDX 15 1 16 2 17 3 18 4 19 5 20 6 21 7 22 8 23 9 24 10 25 11
REMARK SMILES IDX 26 12 27 13 28 14 29 15 30 16 14 17 13 18 12 19 11 20 10 21
REMARK SMILES IDX 9 22 8 23 7 24 6 25 5 26 4 27 3 28 2 29 1 30
REMARK H PARENT
REMARK Flexibility Score: inf
ROOT
ATOM      1  C   UNL     1      55.397  40.201  48.486  1.00  0.00     0.000 C 
ENDROOT
BRANCH   1   2
ATOM      2  C   UNL     1      55.165  40.022  49.998  1.00  0.00     0.000 C 
BRANCH   2   3
ATOM      3  C   UNL     1      54.317  38.789  50.338  1.00  0.00     0.000 C 
BRANCH   3   4
ATOM      4  C   UNL     1      53.094  39.187  51.176  1.00  0.00     0.000 C 
BRANCH   4   5
ATOM      5  C   UNL     1      52.980  40.707  51.381  1.00  0.00     0.000 C 
BRANCH   5   6
ATOM      6  C   UNL     1      52.622  41.144  52.814  1.00  0.00     0.000 C 
BRANCH   6   7
ATOM      7  C   UNL     1      53.815  41.585  53.684  1.00  0.00     0.000 C 
BRANCH   7   8
ATOM      8  C   UNL     1      54.696  40.439  54.215  1.00  0.00     0.000 C 
BRANCH   8   9
ATOM      9  C   UNL     1      56.085  40.398  53.555  1.00  0.00     0.000 C 
BRANCH   9  10
ATOM     10  C   UNL     1      56.620  38.965  53.396  1.00  0.00     0.000 C 
BRANCH  10  11
ATOM     11  C   UNL     1      57.693  38.851  52.303  1.00  0.00     0.000 C 
BRANCH  11  12
ATOM     12  C   UNL     1      57.671  37.457  51.659  1.00  0.00     0.006 C 
BRANCH  12  13
ATOM     13  C   UNL     1      58.681  36.500  52.305  1.00  0.00     0.053 C 
BRANCH  13  14
ATOM     14  C   UNL     1      59.517  35.796  51.280  1.00  0.00     0.041 C 
ATOM     15  O   UNL     1      60.389  34.961  51.638  1.00  0.00    -0.550 OA
ATOM     16  O   UNL     1      59.344  36.074  49.930  1.00  0.00    -0.550 OA
ENDBRANCH  13  14
ENDBRANCH  12  13
ENDBRANCH  11  12
ENDBRANCH  10  11
ENDBRANCH   9  10
ENDBRANCH   8   9
ENDBRANCH   7   8
ENDBRANCH   6   7
ENDBRANCH   5   6
ENDBRANCH   4   5
ENDBRANCH   3   4
ENDBRANCH   2   3
ENDBRANCH   1   2
BRANCH   1  17
ATOM     17  C   UNL     1      54.575  39.264  47.582  1.00  0.00     0.000 C 
BRANCH  17  18
ATOM     18  C   UNL     1      53.424  39.933  46.806  1.00  0.00     0.000 C 
BRANCH  18  19
ATOM     19  C   UNL     1      52.126  40.103  47.624  1.00  0.00     0.000 C 
BRANCH  19  20
ATOM     20  C   UNL     1      51.937  41.535  48.147  1.00  0.00     0.000 C 
BRANCH  20  21
ATOM     21  C   UNL     1      52.192  42.567  47.042  1.00  0.00     0.000 C 
BRANCH  21  22
ATOM     22  C   UNL     1      52.793  43.856  47.627  1.00  0.00    -0.000 C 
BRANCH  22  23
ATOM     23  C   UNL     1      53.153  43.723  49.114  1.00  0.00    -0.000 C 
BRANCH  23  24
ATOM     24  C   UNL     1      54.671  43.771  49.362  1.00  0.00    -0.000 C 
BRANCH  24  25
ATOM     25  C   UNL     1      55.040  43.570  50.843  1.00  0.00    -0.000 C 
BRANCH  25  26
ATOM     26  C   UNL     1      56.548  43.648  51.152  1.00  0.00    -0.000 C 
BRANCH  26  27
ATOM     27  C   UNL     1      57.471  43.189  50.007  1.00  0.00    -0.000 C 
BRANCH  27  28
ATOM     28  C   UNL     1      58.301  41.924  50.304  1.00  0.00    -0.000 C 
BRANCH  28  29
ATOM     29  C   UNL     1      59.053  41.344  49.092  1.00  0.00    -0.003 C 
ATOM     30  C   UNL     1      59.094  39.816  49.092  1.00  0.00     0.004 C 
ENDBRANCH  28  29
ENDBRANCH  27  28
ENDBRANCH  26  27
ENDBRANCH  25  26
ENDBRANCH  24  25
ENDBRANCH  23  24
ENDBRANCH  22  23
ENDBRANCH  21  22
ENDBRANCH  20  21
ENDBRANCH  19  20
ENDBRANCH  18  19
ENDBRANCH  17  18
ENDBRANCH   1  17
TORSDOF 26
ENDMDL
MODEL 9
REMARK VINA RESULT:    -4.020      1.987      3.402
REMARK INTER + INTRA:         -15.835
REMARK INTER:                 -10.409
REMARK INTRA:                  -5.426
REMARK UNBOUND:                -5.704
REMARK SMILES CCCCCCCCCCCCCCCCCCCCCCCCCCCC(=O)[O-]
REMARK SMILES IDX 15 1 16 2 17 3 18 4 19 5 20 6 21 7 22 8 23 9 24 10 25 11
REMARK SMILES IDX 26 12 27 13 28 14 29 15 30 16 14 17 13 18 12 19 11 20 10 21
REMARK SMILES IDX 9 22 8 23 7 24 6 25 5 26 4 27 3 28 2 29 1 30
REMARK H PARENT
REMARK Flexibility Score: inf
ROOT
ATOM      1  C   UNL     1      53.310  39.968  51.891  1.00  0.00     0.000 C 
ENDROOT
BRANCH   1   2
ATOM      2  C   UNL     1      51.985  40.748  51.798  1.00  0.00     0.000 C 
BRANCH   2   3
ATOM      3  C   UNL     1      52.153  42.255  52.037  1.00  0.00     0.000 C 
BRANCH   3   4
ATOM      4  C   UNL     1      53.483  42.751  51.453  1.00  0.00     0.000 C 
BRANCH   4   5
ATOM      5  C   UNL     1      54.383  43.422  52.506  1.00  0.00     0.000 C 
BRANCH   5   6
ATOM      6  C   UNL     1      55.888  43.406  52.176  1.00  0.00     0.000 C 
BRANCH   6   7
ATOM      7  C   UNL     1      56.446  42.044  51.718  1.00  0.00     0.000 C 
BRANCH   7   8
ATOM      8  C   UNL     1      57.940  41.818  52.013  1.00  0.00     0.000 C 
BRANCH   8   9
ATOM      9  C   UNL     1      58.181  40.739  53.084  1.00  0.00     0.000 C 
BRANCH   9  10
ATOM     10  C   UNL     1      57.682  39.353  52.645  1.00  0.00     0.000 C 
BRANCH  10  11
ATOM     11  C   UNL     1      56.956  38.601  53.771  1.00  0.00     0.000 C 
BRANCH  11  12
ATOM     12  C   UNL     1      56.904  39.449  55.050  1.00  0.00     0.006 C 
BRANCH  12  13
ATOM     13  C   UNL     1      55.471  39.644  55.562  1.00  0.00     0.053 C 
BRANCH  13  14
ATOM     14  C   UNL     1      54.993  41.050  55.362  1.00  0.00     0.041 C 
ATOM     15  O   UNL     1      53.778  41.279  55.125  1.00  0.00    -0.550 OA
ATOM     16  O   UNL     1      55.894  42.106  55.422  1.00  0.00    -0.550 OA
ENDBRANCH  13  14
ENDBRANCH  12  13
ENDBRANCH  11  12
ENDBRANCH  10  11
ENDBRANCH   9  10
ENDBRANCH   8   9
ENDBRANCH   7   8
ENDBRANCH   6   7
ENDBRANCH   5   6
ENDBRANCH   4   5
ENDBRANCH   3   4
ENDBRANCH   2   3
ENDBRANCH   1   2
BRANCH   1  17
ATOM     17  C   UNL     1      53.499  38.866  50.832  1.00  0.00     0.000 C 
BRANCH  17  18
ATOM     18  C   UNL     1      54.959  38.468  50.543  1.00  0.00     0.000 C 
BRANCH  18  19
ATOM     19  C   UNL     1      55.569  39.159  49.305  1.00  0.00     0.000 C 
BRANCH  19  20
ATOM     20  C   UNL     1      54.858  38.774  47.999  1.00  0.00     0.000 C 
BRANCH  20  21
ATOM     21  C   UNL     1      54.520  40.016  47.165  1.00  0.00     0.000 C 
BRANCH  21  22
ATOM     22  C   UNL     1      53.053  39.984  46.708  1.00  0.00    -0.000 C 
BRANCH  22  23
ATOM     23  C   UNL     1      52.075  40.396  47.818  1.00  0.00    -0.000 C 
BRANCH  23  24
ATOM     24  C   UNL     1      52.184  41.888  48.180  1.00  0.00    -0.000 C 
BRANCH  24  25
ATOM     25  C   UNL     1      51.951  42.814  46.972  1.00  0.00    -0.000 C 
BRANCH  25  26
ATOM     26  C   UNL     1      52.738  44.139  47.010  1.00  0.00    -0.000 C 
BRANCH  26  27
ATOM     27  C   UNL     1      53.239  44.559  48.405  1.00  0.00    -0.000 C 
BRANCH  27  28
ATOM     28  C   UNL     1      54.766  44.728  48.528  1.00  0.00    -0.000 C 
BRANCH  28  29
ATOM     29  C   UNL     1      55.570  43.417  48.462  1.00  0.00    -0.003 C 
ATOM     30  C   UNL     1      57.082  43.644  48.457  1.00  0.00     0.004 C 
ENDBRANCH  28  29
ENDBRANCH  27  28
ENDBRANCH  26  27
ENDBRANCH  25  26
ENDBRANCH  24  25
ENDBRANCH  23  24
ENDBRANCH  22  23
ENDBRANCH  21  22
ENDBRANCH  20  21
ENDBRANCH  19  20
ENDBRANCH  18  19
ENDBRANCH  17  18
ENDBRANCH   1  17
TORSDOF 26
ENDMDL
