MODEL 1
REMARK VINA RESULT:    -6.102      0.000      0.000
REMARK INTER + INTRA:          -6.102
REMARK INTER:                  -6.102
REMARK INTRA:                   0.000
REMARK UNBOUND:                 0.000
REMARK SMILES Cc1cccc2ccccc12
REMARK SMILES IDX 1 1 2 2 3 3 4 4 5 5 6 6 7 7 8 8 9 9 10 10 11 11
REMARK H PARENT
REMARK Flexibility Score: inf
ROOT
ATOM      1  C   UNL     1      -7.264   0.204 -36.617  1.00  0.00     0.045 C 
ATOM      2  C   UNL     1      -6.824   1.323 -37.527  1.00  0.00    -0.043 A 
ATOM      3  C   UNL     1      -6.192   2.445 -36.966  1.00  0.00     0.004 A 
ATOM      4  C   UNL     1      -5.769   3.503 -37.770  1.00  0.00     0.001 A 
ATOM      5  C   UNL     1      -5.967   3.462 -39.148  1.00  0.00     0.009 A 
ATOM      6  C   UNL     1      -6.594   2.357 -39.739  1.00  0.00    -0.018 A 
ATOM      7  C   UNL     1      -6.793   2.323 -41.128  1.00  0.00     0.009 A 
ATOM      8  C   UNL     1      -7.416   1.225 -41.723  1.00  0.00     0.001 A 
ATOM      9  C   UNL     1      -7.848   0.155 -40.940  1.00  0.00     0.001 A 
ATOM     10  C   UNL     1      -7.660   0.173 -39.556  1.00  0.00     0.009 A 
ATOM     11  C   UNL     1      -7.032   1.272 -38.931  1.00  0.00    -0.015 A 
ENDROOT
TORSDOF 0
ENDMDL
MODEL 2
REMARK VINA RESULT:    -5.886      0.795      2.556
REMARK INTER + INTRA:          -5.886
REMARK INTER:                  -5.886
REMARK INTRA:                   0.000
REMARK UNBOUND:                 0.000
REMARK SMILES Cc1cccc2ccccc12
REMARK SMILES IDX 1 1 2 2 3 3 4 4 5 5 6 6 7 7 8 8 9 9 10 10 11 11
REMARK H PARENT
REMARK Flexibility Score: inf
ROOT
ATOM      1  C   UNL     1      -6.103   3.950 -37.676  1.00  0.00     0.045 C 
ATOM      2  C   UNL     1      -6.602   2.534 -37.808  1.00  0.00    -0.043 A 
ATOM      3  C   UNL     1      -6.757   1.758 -36.647  1.00  0.00     0.004 A 
ATOM      4  C   UNL     1      -7.216   0.443 -36.722  1.00  0.00     0.001 A 
ATOM      5  C   UNL     1      -7.527  -0.123 -37.956  1.00  0.00     0.009 A 
ATOM      6  C   UNL     1      -7.383   0.624 -39.133  1.00  0.00    -0.018 A 
ATOM      7  C   UNL     1      -7.698   0.047 -40.374  1.00  0.00     0.009 A 
ATOM      8  C   UNL     1      -7.557   0.785 -41.549  1.00  0.00     0.001 A 
ATOM      9  C   UNL     1      -7.101   2.102 -41.499  1.00  0.00     0.001 A 
ATOM     10  C   UNL     1      -6.782   2.692 -40.273  1.00  0.00     0.009 A 
ATOM     11  C   UNL     1      -6.917   1.965 -39.071  1.00  0.00    -0.015 A 
ENDROOT
TORSDOF 0
ENDMDL
MODEL 3
REMARK VINA RESULT:    -5.834      0.841      3.244
REMARK INTER + INTRA:          -5.834
REMARK INTER:                  -5.834
REMARK INTRA:                   0.000
REMARK UNBOUND:                 0.000
REMARK SMILES Cc1cccc2ccccc12
REMARK SMILES IDX 1 1 2 2 3 3 4 4 5 5 6 6 7 7 8 8 9 9 10 10 11 11
REMARK H PARENT
REMARK Flexibility Score: inf
ROOT
ATOM      1  C   UNL     1      -7.536   1.343 -41.792  1.00  0.00     0.045 C 
ATOM      2  C   UNL     1      -6.844   1.876 -40.563  1.00  0.00    -0.043 A 
ATOM      3  C   UNL     1      -5.913   2.918 -40.707  1.00  0.00     0.004 A 
ATOM      4  C   UNL     1      -5.248   3.441 -39.597  1.00  0.00     0.001 A 
ATOM      5  C   UNL     1      -5.501   2.934 -38.324  1.00  0.00     0.009 A 
ATOM      6  C   UNL     1      -6.423   1.895 -38.147  1.00  0.00    -0.018 A 
ATOM      7  C   UNL     1      -6.672   1.388 -36.862  1.00  0.00     0.009 A 
ATOM      8  C   UNL     1      -7.590   0.354 -36.678  1.00  0.00     0.001 A 
ATOM      9  C   UNL     1      -8.266  -0.185 -37.772  1.00  0.00     0.001 A 
ATOM     10  C   UNL     1      -8.030   0.306 -39.059  1.00  0.00     0.009 A 
ATOM     11  C   UNL     1      -7.107   1.352 -39.270  1.00  0.00    -0.015 A 
ENDROOT
TORSDOF 0
ENDMDL
MODEL 4
REMARK VINA RESULT:    -5.818      0.786      3.379
REMARK INTER + INTRA:          -5.818
REMARK INTER:                  -5.818
REMARK INTRA:                   0.000
REMARK UNBOUND:                 0.000
REMARK SMILES Cc1cccc2ccccc12
REMARK SMILES IDX 1 1 2 2 3 3 4 4 5 5 6 6 7 7 8 8 9 9 10 10 11 11
REMARK H PARENT
REMARK Flexibility Score: inf
ROOT
ATOM      1  C   UNL     1      -8.421  -0.349 -38.271  1.00  0.00     0.045 C 
ATOM      2  C   UNL     1      -7.735   0.651 -39.167  1.00  0.00    -0.043 A 
ATOM      3  C   UNL     1      -7.789   0.464 -40.558  1.00  0.00     0.004 A 
ATOM      4  C   UNL     1      -7.168   1.364 -41.425  1.00  0.00     0.001 A 
ATOM      5  C   UNL     1      -6.482   2.466 -40.920  1.00  0.00     0.009 A 
ATOM      6  C   UNL     1      -6.409   2.681 -39.538  1.00  0.00    -0.018 A 
ATOM      7  C   UNL     1      -5.715   3.792 -39.036  1.00  0.00     0.009 A 
ATOM      8  C   UNL     1      -5.638   4.012 -37.660  1.00  0.00     0.001 A 
ATOM      9  C   UNL     1      -6.251   3.127 -36.774  1.00  0.00     0.001 A 
ATOM     10  C   UNL     1      -6.945   2.014 -37.256  1.00  0.00     0.009 A 
ATOM     11  C   UNL     1      -7.036   1.771 -38.643  1.00  0.00    -0.015 A 
ENDROOT
TORSDOF 0
ENDMDL
MODEL 5
REMARK VINA RESULT:    -5.789      0.882      3.835
REMARK INTER + INTRA:          -5.789
REMARK INTER:                  -5.789
REMARK INTRA:                   0.000
REMARK UNBOUND:                 0.000
REMARK SMILES Cc1cccc2ccccc12
REMARK SMILES IDX 1 1 2 2 3 3 4 4 5 5 6 6 7 7 8 8 9 9 10 10 11 11
REMARK H PARENT
REMARK Flexibility Score: inf
ROOT
ATOM      1  C   UNL     1      -7.277   0.740 -41.623  1.00  0.00     0.045 C 
ATOM      2  C   UNL     1      -7.491   0.854 -40.135  1.00  0.00    -0.043 A 
ATOM      3  C   UNL     1      -8.334  -0.073 -39.498  1.00  0.00     0.004 A 
ATOM      4  C   UNL     1      -8.560  -0.005 -38.123  1.00  0.00     0.001 A 
ATOM      5  C   UNL     1      -7.951   0.988 -37.358  1.00  0.00     0.009 A 
ATOM      6  C   UNL     1      -7.105   1.927 -37.963  1.00  0.00    -0.018 A 
ATOM      7  C   UNL     1      -6.495   2.925 -37.187  1.00  0.00     0.009 A 
ATOM      8  C   UNL     1      -5.651   3.862 -37.783  1.00  0.00     0.001 A 
ATOM      9  C   UNL     1      -5.409   3.815 -39.156  1.00  0.00     0.001 A 
ATOM     10  C   UNL     1      -6.009   2.829 -39.944  1.00  0.00     0.009 A 
ATOM     11  C   UNL     1      -6.866   1.869 -39.364  1.00  0.00    -0.015 A 
ENDROOT
TORSDOF 0
ENDMDL
MODEL 6
REMARK VINA RESULT:    -5.695      0.972      4.282
REMARK INTER + INTRA:          -5.695
REMARK INTER:                  -5.695
REMARK INTRA:                   0.000
REMARK UNBOUND:                 0.000
REMARK SMILES Cc1cccc2ccccc12
REMARK SMILES IDX 1 1 2 2 3 3 4 4 5 5 6 6 7 7 8 8 9 9 10 10 11 11
REMARK H PARENT
REMARK Flexibility Score: inf
ROOT
ATOM      1  C   UNL     1      -6.977   2.885 -41.131  1.00  0.00     0.045 C 
ATOM      2  C   UNL     1      -7.028   1.977 -39.928  1.00  0.00    -0.043 A 
ATOM      3  C   UNL     1      -7.425   0.641 -40.104  1.00  0.00     0.004 A 
ATOM      4  C   UNL     1      -7.486  -0.235 -39.019  1.00  0.00     0.001 A 
ATOM      5  C   UNL     1      -7.154   0.207 -37.740  1.00  0.00     0.009 A 
ATOM      6  C   UNL     1      -6.755   1.533 -37.532  1.00  0.00    -0.018 A 
ATOM      7  C   UNL     1      -6.422   1.972 -36.240  1.00  0.00     0.009 A 
ATOM      8  C   UNL     1      -6.023   3.292 -36.026  1.00  0.00     0.001 A 
ATOM      9  C   UNL     1      -5.954   4.185 -37.095  1.00  0.00     0.001 A 
ATOM     10  C   UNL     1      -6.282   3.766 -38.387  1.00  0.00     0.009 A 
ATOM     11  C   UNL     1      -6.688   2.436 -38.628  1.00  0.00    -0.015 A 
ENDROOT
TORSDOF 0
ENDMDL
MODEL 7
REMARK VINA RESULT:    -5.623      0.778      3.877
REMARK INTER + INTRA:          -5.623
REMARK INTER:                  -5.623
REMARK INTRA:                   0.000
REMARK UNBOUND:                 0.000
REMARK SMILES Cc1cccc2ccccc12
REMARK SMILES IDX 1 1 2 2 3 3 4 4 5 5 6 6 7 7 8 8 9 9 10 10 11 11
REMARK H PARENT
REMARK Flexibility Score: inf
ROOT
ATOM      1  C   UNL     1      -5.189   3.633 -39.612  1.00  0.00     0.045 C 
ATOM      2  C   UNL     1      -6.157   2.509 -39.881  1.00  0.00    -0.043 A 
ATOM      3  C   UNL     1      -6.569   2.270 -41.202  1.00  0.00     0.004 A 
ATOM      4  C   UNL     1      -7.463   1.240 -41.496  1.00  0.00     0.001 A 
ATOM      5  C   UNL     1      -7.963   0.431 -40.479  1.00  0.00     0.009 A 
ATOM      6  C   UNL     1      -7.572   0.644 -39.150  1.00  0.00    -0.018 A 
ATOM      7  C   UNL     1      -8.080  -0.174 -38.129  1.00  0.00     0.009 A 
ATOM      8  C   UNL     1      -7.695   0.032 -36.804  1.00  0.00     0.001 A 
ATOM      9  C   UNL     1      -6.801   1.054 -36.485  1.00  0.00     0.001 A 
ATOM     10  C   UNL     1      -6.286   1.879 -37.489  1.00  0.00     0.009 A 
ATOM     11  C   UNL     1      -6.662   1.690 -38.836  1.00  0.00    -0.015 A 
ENDROOT
TORSDOF 0
ENDMDL
MODEL 8
REMARK VINA RESULT:    -5.585      0.946      1.385
REMARK INTER + INTRA:          -5.585
REMARK INTER:                  -5.585
REMARK INTRA:                   0.000
REMARK UNBOUND:                 0.000
REMARK SMILES Cc1cccc2ccccc12
REMARK SMILES IDX 1 1 2 2 3 3 4 4 5 5 6 6 7 7 8 8 9 9 10 10 11 11
REMARK H PARENT
REMARK Flexibility Score: inf
ROOT
ATOM      1  C   UNL     1      -6.568   2.041 -36.378  1.00  0.00     0.045 C 
ATOM      2  C   UNL     1      -6.287   2.331 -37.830  1.00  0.00    -0.043 A 
ATOM      3  C   UNL     1      -5.372   3.347 -38.154  1.00  0.00     0.004 A 
ATOM      4  C   UNL     1      -5.082   3.649 -39.485  1.00  0.00     0.001 A 
ATOM      5  C   UNL     1      -5.699   2.945 -40.516  1.00  0.00     0.009 A 
ATOM      6  C   UNL     1      -6.616   1.926 -40.227  1.00  0.00    -0.018 A 
ATOM      7  C   UNL     1      -7.235   1.221 -41.270  1.00  0.00     0.009 A 
ATOM      8  C   UNL     1      -8.149   0.205 -40.989  1.00  0.00     0.001 A 
ATOM      9  C   UNL     1      -8.455  -0.115 -39.667  1.00  0.00     0.001 A 
ATOM     10  C   UNL     1      -7.849   0.577 -38.615  1.00  0.00     0.009 A 
ATOM     11  C   UNL     1      -6.921   1.608 -38.875  1.00  0.00    -0.015 A 
ENDROOT
TORSDOF 0
ENDMDL
MODEL 9
REMARK VINA RESULT:    -5.584      0.997      2.887
REMARK INTER + INTRA:          -5.584
REMARK INTER:                  -5.584
REMARK INTRA:                   0.000
REMARK UNBOUND:                 0.000
REMARK SMILES Cc1cccc2ccccc12
REMARK SMILES IDX 1 1 2 2 3 3 4 4 5 5 6 6 7 7 8 8 9 9 10 10 11 11
REMARK H PARENT
REMARK Flexibility Score: inf
ROOT
ATOM      1  C   UNL     1      -6.265   2.086 -35.520  1.00  0.00     0.045 C 
ATOM      2  C   UNL     1      -6.794   1.470 -36.790  1.00  0.00    -0.043 A 
ATOM      3  C   UNL     1      -7.666   0.372 -36.699  1.00  0.00     0.004 A 
ATOM      4  C   UNL     1      -8.179  -0.230 -37.849  1.00  0.00     0.001 A 
ATOM      5  C   UNL     1      -7.833   0.253 -39.109  1.00  0.00     0.009 A 
ATOM      6  C   UNL     1      -6.966   1.346 -39.234  1.00  0.00    -0.018 A 
ATOM      7  C   UNL     1      -6.620   1.827 -40.506  1.00  0.00     0.009 A 
ATOM      8  C   UNL     1      -5.758   2.915 -40.637  1.00  0.00     0.001 A 
ATOM      9  C   UNL     1      -5.232   3.533 -39.503  1.00  0.00     0.001 A 
ATOM     10  C   UNL     1      -5.564   3.068 -38.229  1.00  0.00     0.009 A 
ATOM     11  C   UNL     1      -6.435   1.968 -38.071  1.00  0.00    -0.015 A 
ENDROOT
TORSDOF 0
ENDMDL
