MODEL 1
REMARK VINA RESULT:    -5.342      0.000      0.000
REMARK INTER + INTRA:          -8.176
REMARK INTER:                  -7.371
REMARK INTRA:                  -0.804
REMARK UNBOUND:                -0.804
REMARK SMILES CCCCc1cccc(O)c1CCCC
REMARK SMILES IDX 5 1 11 2 9 3 8 4 7 5 6 6 4 7 3 8 2 9 1 10 12 11 13 12 14 13
REMARK SMILES IDX 15 14 10 15
REMARK H PARENT 10 16
REMARK Flexibility Score: inf
ROOT
ATOM      1  C   UNL     1     -10.589   4.762   6.715  1.00  0.00    -0.041 A 
ATOM      2  C   UNL     1     -11.526   3.707   6.498  1.00  0.00    -0.003 A 
ATOM      3  C   UNL     1     -12.237   3.183   7.613  1.00  0.00     0.119 A 
ATOM      4  C   UNL     1     -11.983   3.670   8.898  1.00  0.00     0.046 A 
ATOM      5  C   UNL     1     -11.062   4.692   9.101  1.00  0.00     0.004 A 
ATOM      6  C   UNL     1     -10.378   5.239   8.020  1.00  0.00     0.004 A 
ENDROOT
BRANCH   1   7
ATOM      7  C   UNL     1      -9.787   5.397   5.597  1.00  0.00     0.036 C 
BRANCH   7   8
ATOM      8  C   UNL     1     -10.180   6.862   5.326  1.00  0.00     0.004 C 
BRANCH   8   9
ATOM      9  C   UNL     1      -9.049   7.871   5.610  1.00  0.00    -0.003 C 
ATOM     10  C   UNL     1      -9.464   9.313   5.312  1.00  0.00     0.004 C 
ENDBRANCH   8   9
ENDBRANCH   7   8
ENDBRANCH   1   7
BRANCH   2  11
ATOM     11  C   UNL     1     -11.823   3.193   5.099  1.00  0.00     0.040 C 
BRANCH  11  12
ATOM     12  C   UNL     1     -12.668   4.206   4.316  1.00  0.00     0.005 C 
BRANCH  12  13
ATOM     13  C   UNL     1     -13.868   4.679   5.144  1.00  0.00    -0.003 C 
ATOM     14  C   UNL     1     -13.879   6.198   5.280  1.00  0.00     0.004 C 
ENDBRANCH  12  13
ENDBRANCH  11  12
ENDBRANCH   2  11
BRANCH   3  15
ATOM     15  O   UNL     1     -13.209   2.186   7.490  1.00  0.00    -0.508 OA
ATOM     16  H   UNL     1     -13.036   1.201   7.635  1.00  0.00     0.293 HD
ENDBRANCH   3  15
TORSDOF 7
ENDMDL
MODEL 2
REMARK VINA RESULT:    -5.177      1.377      3.851
REMARK INTER + INTRA:          -7.949
REMARK INTER:                  -7.134
REMARK INTRA:                  -0.815
REMARK UNBOUND:                -0.804
REMARK SMILES CCCCc1cccc(O)c1CCCC
REMARK SMILES IDX 5 1 11 2 9 3 8 4 7 5 6 6 4 7 3 8 2 9 1 10 12 11 13 12 14 13
REMARK SMILES IDX 15 14 10 15
REMARK H PARENT 10 16
REMARK Flexibility Score: inf
ROOT
ATOM      1  C   UNL     1     -11.692   3.456   6.238  1.00  0.00    -0.041 A 
ATOM      2  C   UNL     1     -10.871   4.469   6.818  1.00  0.00    -0.003 A 
ATOM      3  C   UNL     1     -10.944   4.688   8.222  1.00  0.00     0.119 A 
ATOM      4  C   UNL     1     -11.839   3.949   9.001  1.00  0.00     0.046 A 
ATOM      5  C   UNL     1     -12.642   2.971   8.425  1.00  0.00     0.004 A 
ATOM      6  C   UNL     1     -12.564   2.720   7.059  1.00  0.00     0.004 A 
ENDROOT
BRANCH   1   7
ATOM      7  C   UNL     1     -11.685   3.136   4.756  1.00  0.00     0.036 C 
BRANCH   7   8
ATOM      8  C   UNL     1     -12.537   4.113   3.923  1.00  0.00     0.004 C 
BRANCH   8   9
ATOM      9  C   UNL     1     -13.881   4.483   4.581  1.00  0.00    -0.003 C 
ATOM     10  C   UNL     1     -13.934   5.947   5.019  1.00  0.00     0.004 C 
ENDBRANCH   8   9
ENDBRANCH   7   8
ENDBRANCH   1   7
BRANCH   2  11
ATOM     11  C   UNL     1      -9.879   5.256   5.978  1.00  0.00     0.040 C 
BRANCH  11  12
ATOM     12  C   UNL     1     -10.420   6.657   5.668  1.00  0.00     0.005 C 
BRANCH  12  13
ATOM     13  C   UNL     1      -9.395   7.481   4.880  1.00  0.00    -0.003 C 
ATOM     14  C   UNL     1      -8.880   8.655   5.706  1.00  0.00     0.004 C 
ENDBRANCH  12  13
ENDBRANCH  11  12
ENDBRANCH   2  11
BRANCH   3  15
ATOM     15  O   UNL     1     -10.142   5.622   8.885  1.00  0.00    -0.508 OA
ATOM     16  H   UNL     1      -9.739   5.479   9.800  1.00  0.00     0.293 HD
ENDBRANCH   3  15
TORSDOF 7
ENDMDL
MODEL 3
REMARK VINA RESULT:    -4.961      1.885      4.912
REMARK INTER + INTRA:          -7.651
REMARK INTER:                  -6.969
REMARK INTRA:                  -0.681
REMARK UNBOUND:                -0.804
REMARK SMILES CCCCc1cccc(O)c1CCCC
REMARK SMILES IDX 5 1 11 2 9 3 8 4 7 5 6 6 4 7 3 8 2 9 1 10 12 11 13 12 14 13
REMARK SMILES IDX 15 14 10 15
REMARK H PARENT 10 16
REMARK Flexibility Score: inf
ROOT
ATOM      1  C   UNL     1     -11.827   4.749   6.786  1.00  0.00    -0.041 A 
ATOM      2  C   UNL     1     -10.723   4.869   5.890  1.00  0.00    -0.003 A 
ATOM      3  C   UNL     1     -10.780   4.194   4.639  1.00  0.00     0.119 A 
ATOM      4  C   UNL     1     -11.883   3.397   4.323  1.00  0.00     0.046 A 
ATOM      5  C   UNL     1     -12.950   3.278   5.207  1.00  0.00     0.004 A 
ATOM      6  C   UNL     1     -12.928   3.954   6.422  1.00  0.00     0.004 A 
ENDROOT
BRANCH   1   7
ATOM      7  C   UNL     1     -11.871   5.433   8.139  1.00  0.00     0.036 C 
BRANCH   7   8
ATOM      8  C   UNL     1     -11.137   4.644   9.239  1.00  0.00     0.004 C 
BRANCH   8   9
ATOM      9  C   UNL     1     -12.071   3.793  10.123  1.00  0.00    -0.003 C 
ATOM     10  C   UNL     1     -12.194   2.352   9.625  1.00  0.00     0.004 C 
ENDBRANCH   8   9
ENDBRANCH   7   8
ENDBRANCH   1   7
BRANCH   2  11
ATOM     11  C   UNL     1      -9.534   5.757   6.220  1.00  0.00     0.040 C 
BRANCH  11  12
ATOM     12  C   UNL     1      -9.649   7.108   5.504  1.00  0.00     0.005 C 
BRANCH  12  13
ATOM     13  C   UNL     1      -8.645   8.118   6.069  1.00  0.00    -0.003 C 
ATOM     14  C   UNL     1      -8.566   9.366   5.194  1.00  0.00     0.004 C 
ENDBRANCH  12  13
ENDBRANCH  11  12
ENDBRANCH   2  11
BRANCH   3  15
ATOM     15  O   UNL     1      -9.770   4.295   3.678  1.00  0.00    -0.508 OA
ATOM     16  H   UNL     1      -9.108   3.561   3.468  1.00  0.00     0.293 HD
ENDBRANCH   3  15
TORSDOF 7
ENDMDL
MODEL 4
REMARK VINA RESULT:    -4.884      2.094      4.989
REMARK INTER + INTRA:          -7.545
REMARK INTER:                  -6.540
REMARK INTRA:                  -1.004
REMARK UNBOUND:                -0.804
REMARK SMILES CCCCc1cccc(O)c1CCCC
REMARK SMILES IDX 5 1 11 2 9 3 8 4 7 5 6 6 4 7 3 8 2 9 1 10 12 11 13 12 14 13
REMARK SMILES IDX 15 14 10 15
REMARK H PARENT 10 16
REMARK Flexibility Score: inf
ROOT
ATOM      1  C   UNL     1     -12.589   5.204   5.232  1.00  0.00    -0.041 A 
ATOM      2  C   UNL     1     -11.948   6.385   5.713  1.00  0.00    -0.003 A 
ATOM      3  C   UNL     1     -12.725   7.566   5.878  1.00  0.00     0.119 A 
ATOM      4  C   UNL     1     -14.079   7.568   5.532  1.00  0.00     0.046 A 
ATOM      5  C   UNL     1     -14.692   6.414   5.055  1.00  0.00     0.004 A 
ATOM      6  C   UNL     1     -13.957   5.241   4.915  1.00  0.00     0.004 A 
ENDROOT
BRANCH   1   7
ATOM      7  C   UNL     1     -11.856   3.892   5.028  1.00  0.00     0.036 C 
BRANCH   7   8
ATOM      8  C   UNL     1     -12.156   2.855   6.127  1.00  0.00     0.004 C 
BRANCH   8   9
ATOM      9  C   UNL     1     -11.249   2.982   7.367  1.00  0.00    -0.003 C 
ATOM     10  C   UNL     1     -11.969   3.623   8.554  1.00  0.00     0.004 C 
ENDBRANCH   8   9
ENDBRANCH   7   8
ENDBRANCH   1   7
BRANCH   2  11
ATOM     11  C   UNL     1     -10.482   6.379   6.115  1.00  0.00     0.040 C 
BRANCH  11  12
ATOM     12  C   UNL     1      -9.583   6.634   4.899  1.00  0.00     0.005 C 
BRANCH  12  13
ATOM     13  C   UNL     1      -9.251   8.123   4.762  1.00  0.00    -0.003 C 
ATOM     14  C   UNL     1      -8.566   8.653   6.018  1.00  0.00     0.004 C 
ENDBRANCH  12  13
ENDBRANCH  11  12
ENDBRANCH   2  11
BRANCH   3  15
ATOM     15  O   UNL     1     -12.196   8.754   6.390  1.00  0.00    -0.508 OA
ATOM     16  H   UNL     1     -12.429   9.138   7.296  1.00  0.00     0.293 HD
ENDBRANCH   3  15
TORSDOF 7
ENDMDL
MODEL 5
REMARK VINA RESULT:    -4.602     17.030     18.589
REMARK INTER + INTRA:          -7.156
REMARK INTER:                  -6.641
REMARK INTRA:                  -0.515
REMARK UNBOUND:                -0.804
REMARK SMILES CCCCc1cccc(O)c1CCCC
REMARK SMILES IDX 5 1 11 2 9 3 8 4 7 5 6 6 4 7 3 8 2 9 1 10 12 11 13 12 14 13
REMARK SMILES IDX 15 14 10 15
REMARK H PARENT 10 16
REMARK Flexibility Score: inf
ROOT
ATOM      1  C   UNL     1     -11.990  -2.930 -10.096  1.00  0.00    -0.041 A 
ATOM      2  C   UNL     1     -11.222  -4.133 -10.056  1.00  0.00    -0.003 A 
ATOM      3  C   UNL     1      -9.803  -4.037 -10.023  1.00  0.00     0.119 A 
ATOM      4  C   UNL     1      -9.183  -2.786 -10.073  1.00  0.00     0.046 A 
ATOM      5  C   UNL     1      -9.940  -1.620 -10.122  1.00  0.00     0.004 A 
ATOM      6  C   UNL     1     -11.329  -1.690 -10.124  1.00  0.00     0.004 A 
ENDROOT
BRANCH   1   7
ATOM      7  C   UNL     1     -13.506  -2.920 -10.125  1.00  0.00     0.036 C 
BRANCH   7   8
ATOM      8  C   UNL     1     -14.104  -1.514  -9.929  1.00  0.00     0.004 C 
BRANCH   8   9
ATOM      9  C   UNL     1     -15.513  -1.520  -9.301  1.00  0.00    -0.003 C 
ATOM     10  C   UNL     1     -15.906  -0.155  -8.735  1.00  0.00     0.004 C 
ENDBRANCH   8   9
ENDBRANCH   7   8
ENDBRANCH   1   7
BRANCH   2  11
ATOM     11  C   UNL     1     -11.893  -5.494  -9.975  1.00  0.00     0.040 C 
BRANCH  11  12
ATOM     12  C   UNL     1     -11.574  -6.179  -8.640  1.00  0.00     0.005 C 
BRANCH  12  13
ATOM     13  C   UNL     1     -12.808  -6.893  -8.079  1.00  0.00    -0.003 C 
ATOM     14  C   UNL     1     -14.092  -6.177  -8.486  1.00  0.00     0.004 C 
ENDBRANCH  12  13
ENDBRANCH  11  12
ENDBRANCH   2  11
BRANCH   3  15
ATOM     15  O   UNL     1      -8.971  -5.157  -9.932  1.00  0.00    -0.508 OA
ATOM     16  H   UNL     1      -9.283  -6.077  -9.655  1.00  0.00     0.293 HD
ENDBRANCH   3  15
TORSDOF 7
ENDMDL
MODEL 6
REMARK VINA RESULT:    -4.601      2.029      4.019
REMARK INTER + INTRA:          -7.154
REMARK INTER:                  -6.406
REMARK INTRA:                  -0.748
REMARK UNBOUND:                -0.804
REMARK SMILES CCCCc1cccc(O)c1CCCC
REMARK SMILES IDX 5 1 11 2 9 3 8 4 7 5 6 6 4 7 3 8 2 9 1 10 12 11 13 12 14 13
REMARK SMILES IDX 15 14 10 15
REMARK H PARENT 10 16
REMARK Flexibility Score: inf
ROOT
ATOM      1  C   UNL     1     -10.585   8.125   5.314  1.00  0.00    -0.041 A 
ATOM      2  C   UNL     1     -11.318   6.923   5.547  1.00  0.00    -0.003 A 
ATOM      3  C   UNL     1     -12.705   7.014   5.850  1.00  0.00     0.119 A 
ATOM      4  C   UNL     1     -13.316   8.266   5.958  1.00  0.00     0.046 A 
ATOM      5  C   UNL     1     -12.592   9.432   5.739  1.00  0.00     0.004 A 
ATOM      6  C   UNL     1     -11.242   9.364   5.412  1.00  0.00     0.004 A 
ENDROOT
BRANCH   1   7
ATOM      7  C   UNL     1      -9.107   8.139   4.976  1.00  0.00     0.036 C 
BRANCH   7   8
ATOM      8  C   UNL     1      -8.271   8.992   5.950  1.00  0.00     0.004 C 
BRANCH   8   9
ATOM      9  C   UNL     1      -7.490  10.131   5.265  1.00  0.00    -0.003 C 
ATOM     10  C   UNL     1      -6.225  10.516   6.032  1.00  0.00     0.004 C 
ENDBRANCH   8   9
ENDBRANCH   7   8
ENDBRANCH   1   7
BRANCH   2  11
ATOM     11  C   UNL     1     -10.661   5.559   5.404  1.00  0.00     0.040 C 
BRANCH  11  12
ATOM     12  C   UNL     1     -10.108   5.078   6.751  1.00  0.00     0.005 C 
BRANCH  12  13
ATOM     13  C   UNL     1     -10.979   3.962   7.338  1.00  0.00    -0.003 C 
ATOM     14  C   UNL     1     -11.535   4.355   8.703  1.00  0.00     0.004 C 
ENDBRANCH  12  13
ENDBRANCH  11  12
ENDBRANCH   2  11
BRANCH   3  15
ATOM     15  O   UNL     1     -13.513   5.891   6.042  1.00  0.00    -0.508 OA
ATOM     16  H   UNL     1     -13.845   5.575   6.943  1.00  0.00     0.293 HD
ENDBRANCH   3  15
TORSDOF 7
ENDMDL
MODEL 7
REMARK VINA RESULT:    -4.583      1.776      3.961
REMARK INTER + INTRA:          -7.129
REMARK INTER:                  -6.178
REMARK INTRA:                  -0.951
REMARK UNBOUND:                -0.804
REMARK SMILES CCCCc1cccc(O)c1CCCC
REMARK SMILES IDX 5 1 11 2 9 3 8 4 7 5 6 6 4 7 3 8 2 9 1 10 12 11 13 12 14 13
REMARK SMILES IDX 15 14 10 15
REMARK H PARENT 10 16
REMARK Flexibility Score: inf
ROOT
ATOM      1  C   UNL     1     -13.035   6.424   5.601  1.00  0.00    -0.041 A 
ATOM      2  C   UNL     1     -11.881   5.588   5.519  1.00  0.00    -0.003 A 
ATOM      3  C   UNL     1     -11.935   4.426   4.700  1.00  0.00     0.119 A 
ATOM      4  C   UNL     1     -13.115   4.096   4.028  1.00  0.00     0.046 A 
ATOM      5  C   UNL     1     -14.237   4.911   4.122  1.00  0.00     0.004 A 
ATOM      6  C   UNL     1     -14.196   6.069   4.893  1.00  0.00     0.004 A 
ENDROOT
BRANCH   1   7
ATOM      7  C   UNL     1     -13.081   7.688   6.436  1.00  0.00     0.036 C 
BRANCH   7   8
ATOM      8  C   UNL     1     -13.163   8.971   5.588  1.00  0.00     0.004 C 
BRANCH   8   9
ATOM      9  C   UNL     1     -11.981   9.937   5.805  1.00  0.00    -0.003 C 
ATOM     10  C   UNL     1     -10.705   9.467   5.105  1.00  0.00     0.004 C 
ENDBRANCH   8   9
ENDBRANCH   7   8
ENDBRANCH   1   7
BRANCH   2  11
ATOM     11  C   UNL     1     -10.588   5.958   6.227  1.00  0.00     0.040 C 
BRANCH  11  12
ATOM     12  C   UNL     1     -10.266   4.948   7.335  1.00  0.00     0.005 C 
BRANCH  12  13
ATOM     13  C   UNL     1     -11.383   4.908   8.384  1.00  0.00    -0.003 C 
ATOM     14  C   UNL     1     -11.940   3.497   8.541  1.00  0.00     0.004 C 
ENDBRANCH  12  13
ENDBRANCH  11  12
ENDBRANCH   2  11
BRANCH   3  15
ATOM     15  O   UNL     1     -10.839   3.577   4.518  1.00  0.00    -0.508 OA
ATOM     16  H   UNL     1     -10.030   3.555   5.123  1.00  0.00     0.293 HD
ENDBRANCH   3  15
TORSDOF 7
ENDMDL
MODEL 8
REMARK VINA RESULT:    -4.567      2.907      6.034
REMARK INTER + INTRA:          -7.107
REMARK INTER:                  -6.561
REMARK INTRA:                  -0.546
REMARK UNBOUND:                -0.804
REMARK SMILES CCCCc1cccc(O)c1CCCC
REMARK SMILES IDX 5 1 11 2 9 3 8 4 7 5 6 6 4 7 3 8 2 9 1 10 12 11 13 12 14 13
REMARK SMILES IDX 15 14 10 15
REMARK H PARENT 10 16
REMARK Flexibility Score: inf
ROOT
ATOM      1  C   UNL     1     -10.964   6.850   5.762  1.00  0.00    -0.041 A 
ATOM      2  C   UNL     1     -10.414   8.049   5.218  1.00  0.00    -0.003 A 
ATOM      3  C   UNL     1     -11.261   9.182   5.062  1.00  0.00     0.119 A 
ATOM      4  C   UNL     1     -12.614   9.095   5.399  1.00  0.00     0.046 A 
ATOM      5  C   UNL     1     -13.143   7.920   5.920  1.00  0.00     0.004 A 
ATOM      6  C   UNL     1     -12.325   6.810   6.109  1.00  0.00     0.004 A 
ENDROOT
BRANCH   1   7
ATOM      7  C   UNL     1     -10.147   5.591   5.978  1.00  0.00     0.036 C 
BRANCH   7   8
ATOM      8  C   UNL     1     -10.516   4.845   7.274  1.00  0.00     0.004 C 
BRANCH   8   9
ATOM      9  C   UNL     1     -11.183   3.476   7.036  1.00  0.00    -0.003 C 
ATOM     10  C   UNL     1     -11.971   2.990   8.252  1.00  0.00     0.004 C 
ENDBRANCH   8   9
ENDBRANCH   7   8
ENDBRANCH   1   7
BRANCH   2  11
ATOM     11  C   UNL     1      -8.937   8.154   4.875  1.00  0.00     0.040 C 
BRANCH  11  12
ATOM     12  C   UNL     1      -8.184   8.948   5.950  1.00  0.00     0.005 C 
BRANCH  12  13
ATOM     13  C   UNL     1      -7.449  10.145   5.338  1.00  0.00    -0.003 C 
ATOM     14  C   UNL     1      -6.128  10.406   6.055  1.00  0.00     0.004 C 
ENDBRANCH  12  13
ENDBRANCH  11  12
ENDBRANCH   2  11
BRANCH   3  15
ATOM     15  O   UNL     1     -10.800  10.412   4.586  1.00  0.00    -0.508 OA
ATOM     16  H   UNL     1     -11.395  11.200   4.373  1.00  0.00     0.293 HD
ENDBRANCH   3  15
TORSDOF 7
ENDMDL
MODEL 9
REMARK VINA RESULT:    -4.560      2.507      5.302
REMARK INTER + INTRA:          -7.097
REMARK INTER:                  -5.932
REMARK INTRA:                  -1.165
REMARK UNBOUND:                -0.804
REMARK SMILES CCCCc1cccc(O)c1CCCC
REMARK SMILES IDX 5 1 11 2 9 3 8 4 7 5 6 6 4 7 3 8 2 9 1 10 12 11 13 12 14 13
REMARK SMILES IDX 15 14 10 15
REMARK H PARENT 10 16
REMARK Flexibility Score: inf
ROOT
ATOM      1  C   UNL     1     -12.192   7.626   5.752  1.00  0.00    -0.041 A 
ATOM      2  C   UNL     1     -10.847   7.343   5.369  1.00  0.00    -0.003 A 
ATOM      3  C   UNL     1      -9.977   8.429   5.070  1.00  0.00     0.119 A 
ATOM      4  C   UNL     1     -10.456   9.741   5.112  1.00  0.00     0.046 A 
ATOM      5  C   UNL     1     -11.771  10.007   5.477  1.00  0.00     0.004 A 
ATOM      6  C   UNL     1     -12.629   8.961   5.803  1.00  0.00     0.004 A 
ENDROOT
BRANCH   1   7
ATOM      7  C   UNL     1     -13.197   6.545   6.099  1.00  0.00     0.036 C 
BRANCH   7   8
ATOM      8  C   UNL     1     -14.196   6.261   4.962  1.00  0.00     0.004 C 
BRANCH   8   9
ATOM      9  C   UNL     1     -13.958   4.915   4.247  1.00  0.00    -0.003 C 
ATOM     10  C   UNL     1     -13.324   3.870   5.165  1.00  0.00     0.004 C 
ENDBRANCH   8   9
ENDBRANCH   7   8
ENDBRANCH   1   7
BRANCH   2  11
ATOM     11  C   UNL     1     -10.317   5.919   5.348  1.00  0.00     0.040 C 
BRANCH  11  12
ATOM     12  C   UNL     1      -9.765   5.524   6.723  1.00  0.00     0.005 C 
BRANCH  12  13
ATOM     13  C   UNL     1     -10.605   4.407   7.353  1.00  0.00    -0.003 C 
ATOM     14  C   UNL     1     -11.162   4.834   8.708  1.00  0.00     0.004 C 
ENDBRANCH  12  13
ENDBRANCH  11  12
ENDBRANCH   2  11
BRANCH   3  15
ATOM     15  O   UNL     1      -8.632   8.251   4.736  1.00  0.00    -0.508 OA
ATOM     16  H   UNL     1      -7.876   8.230   5.407  1.00  0.00     0.293 HD
ENDBRANCH   3  15
TORSDOF 7
ENDMDL
