MODEL 1
REMARK VINA RESULT:    -7.566      0.000      0.000
REMARK INTER + INTRA:          -9.276
REMARK INTER:                  -8.672
REMARK INTRA:                  -0.604
REMARK UNBOUND:                -0.604
REMARK SMILES C=C(C)[C@H]1CC[C@]2(C(=O)[O-])CC[C@]3(C)[C@@H](CC[C@H]4[C@@]5(C)CC[C@@H](O)C(C)(C)[C@@H]5CC[C@]43C)[C@H]12
REMARK SMILES IDX 7 1 6 2 33 3 11 4 5 5 15 6 4 7 12 8 16 9 13 10 17 11 31 12
REMARK SMILES IDX 14 13 18 14 30 15 32 16 19 17 29 18 21 19 20 20 28 21 22 22
REMARK SMILES IDX 25 23 23 24 26 25 27 26 8 27 9 28 10 29 2 30 3 31 1 32 24 33
REMARK H PARENT 24 34
REMARK Flexibility Score: inf
ROOT
ATOM      1  C   UNL     1       6.471 -40.068 -33.905  1.00  0.00     0.014 C 
ATOM      2  C   UNL     1       5.873 -39.316 -35.125  1.00  0.00     0.014 C 
ATOM      3  C   UNL     1       5.236 -40.707 -33.182  1.00  0.00     0.012 C 
ATOM      4  C   UNL     1       7.492 -41.135 -34.382  1.00  0.00     0.014 C 
ATOM      5  C   UNL     1       4.370 -39.267 -34.911  1.00  0.00     0.009 C 
ATOM      6  C   UNL     1       5.412 -42.174 -32.622  1.00  0.00     0.000 C 
ATOM      7  C   UNL     1       4.050 -40.550 -34.165  1.00  0.00     0.018 C 
ATOM      8  C   UNL     1       6.834 -42.461 -34.765  1.00  0.00     0.008 C 
ATOM      9  C   UNL     1       5.942 -42.143 -31.180  1.00  0.00     0.005 C 
ATOM     10  C   UNL     1       6.147 -43.227 -33.567  1.00  0.00    -0.024 C 
ATOM     11  C   UNL     1       7.452 -42.208 -31.062  1.00  0.00     0.005 C 
ATOM     12  C   UNL     1       7.181 -44.214 -32.760  1.00  0.00    -0.024 C 
ATOM     13  C   UNL     1       5.014 -44.098 -34.229  1.00  0.00     0.012 C 
ATOM     14  C   UNL     1       8.171 -43.403 -31.791  1.00  0.00     0.002 C 
ATOM     15  C   UNL     1       6.382 -45.281 -31.918  1.00  0.00     0.008 C 
ATOM     16  C   UNL     1       8.018 -45.027 -33.808  1.00  0.00     0.012 C 
ATOM     17  C   UNL     1       9.052 -44.298 -30.789  1.00  0.00    -0.026 C 
ATOM     18  C   UNL     1       7.173 -46.060 -30.849  1.00  0.00     0.005 C 
ATOM     19  C   UNL     1       9.964 -43.407 -29.855  1.00  0.00     0.010 C 
ATOM     20  C   UNL     1      10.077 -45.174 -31.596  1.00  0.00     0.012 C 
ATOM     21  C   UNL     1       8.040 -45.151 -29.938  1.00  0.00     0.003 C 
ATOM     22  C   UNL     1      10.563 -44.168 -28.660  1.00  0.00     0.033 C 
ATOM     23  C   UNL     1       8.638 -45.881 -28.669  1.00  0.00    -0.006 C 
ATOM     24  C   UNL     1       9.479 -44.867 -27.829  1.00  0.00     0.120 C 
ATOM     25  C   UNL     1       7.486 -46.396 -27.759  1.00  0.00     0.014 C 
ATOM     26  C   UNL     1       9.498 -47.123 -29.022  1.00  0.00     0.014 C 
ENDROOT
BRANCH   1  27
ATOM     27  C   UNL     1       7.174 -39.040 -33.018  1.00  0.00     0.048 C 
ATOM     28  O   UNL     1       6.805 -38.867 -31.825  1.00  0.00    -0.550 OA
ATOM     29  O   UNL     1       8.149 -38.195 -33.540  1.00  0.00    -0.550 OA
ENDBRANCH   1  27
BRANCH   7  30
ATOM     30  C   UNL     1       2.630 -40.528 -33.592  1.00  0.00    -0.077 C 
ATOM     31  C   UNL     1       1.847 -39.243 -33.678  1.00  0.00     0.039 C 
ATOM     32  C   UNL     1       2.023 -41.592 -33.031  1.00  0.00     0.008 C 
ENDBRANCH   7  30
BRANCH  24  33
ATOM     33  O   UNL     1       8.635 -43.894 -27.258  1.00  0.00    -0.393 OA
ATOM     34  H   UNL     1       7.820 -43.846 -27.824  1.00  0.00     0.210 HD
ENDBRANCH  24  33
TORSDOF 3
ENDMDL
MODEL 2
REMARK VINA RESULT:    -7.341      7.443     13.765
REMARK INTER + INTRA:          -9.018
REMARK INTER:                  -8.304
REMARK INTRA:                  -0.714
REMARK UNBOUND:                -0.604
REMARK SMILES C=C(C)[C@H]1CC[C@]2(C(=O)[O-])CC[C@]3(C)[C@@H](CC[C@H]4[C@@]5(C)CC[C@@H](O)C(C)(C)[C@@H]5CC[C@]43C)[C@H]12
REMARK SMILES IDX 7 1 6 2 33 3 11 4 5 5 15 6 4 7 12 8 16 9 13 10 17 11 31 12
REMARK SMILES IDX 14 13 18 14 30 15 32 16 19 17 29 18 21 19 20 20 28 21 22 22
REMARK SMILES IDX 25 23 23 24 26 25 27 26 8 27 9 28 10 29 2 30 3 31 1 32 24 33
REMARK H PARENT 24 34
REMARK Flexibility Score: inf
ROOT
ATOM      1  C   UNL     1      -1.761 -37.232 -30.762  1.00  0.00     0.014 C 
ATOM      2  C   UNL     1      -1.954 -38.771 -30.686  1.00  0.00     0.014 C 
ATOM      3  C   UNL     1      -0.551 -37.025 -31.735  1.00  0.00     0.012 C 
ATOM      4  C   UNL     1      -3.058 -36.555 -31.282  1.00  0.00     0.014 C 
ATOM      5  C   UNL     1      -0.722 -39.394 -31.320  1.00  0.00     0.009 C 
ATOM      6  C   UNL     1      -0.655 -35.834 -32.768  1.00  0.00     0.000 C 
ATOM      7  C   UNL     1      -0.305 -38.405 -32.393  1.00  0.00     0.018 C 
ATOM      8  C   UNL     1      -3.147 -36.530 -32.808  1.00  0.00     0.008 C 
ATOM      9  C   UNL     1      -0.084 -34.541 -32.162  1.00  0.00     0.005 C 
ATOM     10  C   UNL     1      -2.048 -35.645 -33.519  1.00  0.00    -0.024 C 
ATOM     11  C   UNL     1      -1.108 -33.668 -31.464  1.00  0.00     0.005 C 
ATOM     12  C   UNL     1      -2.495 -34.074 -33.676  1.00  0.00    -0.024 C 
ATOM     13  C   UNL     1      -1.871 -36.277 -34.950  1.00  0.00     0.012 C 
ATOM     14  C   UNL     1      -2.382 -33.264 -32.294  1.00  0.00     0.002 C 
ATOM     15  C   UNL     1      -1.620 -33.359 -34.775  1.00  0.00     0.008 C 
ATOM     16  C   UNL     1      -3.973 -34.023 -34.198  1.00  0.00     0.012 C 
ATOM     17  C   UNL     1      -2.569 -31.672 -32.403  1.00  0.00    -0.026 C 
ATOM     18  C   UNL     1      -1.672 -31.819 -34.814  1.00  0.00     0.005 C 
ATOM     19  C   UNL     1      -2.405 -30.965 -31.000  1.00  0.00     0.010 C 
ATOM     20  C   UNL     1      -4.040 -31.322 -32.834  1.00  0.00     0.012 C 
ATOM     21  C   UNL     1      -1.485 -31.159 -33.422  1.00  0.00     0.003 C 
ATOM     22  C   UNL     1      -2.232 -29.439 -31.088  1.00  0.00     0.033 C 
ATOM     23  C   UNL     1      -1.255 -29.595 -33.468  1.00  0.00    -0.006 C 
ATOM     24  C   UNL     1      -1.072 -29.050 -32.016  1.00  0.00     0.120 C 
ATOM     25  C   UNL     1       0.047 -29.271 -34.254  1.00  0.00     0.014 C 
ATOM     26  C   UNL     1      -2.396 -28.827 -34.186  1.00  0.00     0.014 C 
ENDROOT
BRANCH   1  27
ATOM     27  C   UNL     1      -1.446 -36.728 -29.353  1.00  0.00     0.048 C 
ATOM     28  O   UNL     1      -0.304 -36.267 -29.080  1.00  0.00    -0.550 OA
ATOM     29  O   UNL     1      -2.364 -36.878 -28.319  1.00  0.00    -0.550 OA
ENDBRANCH   1  27
BRANCH   7  30
ATOM     30  C   UNL     1       1.096 -38.715 -32.930  1.00  0.00    -0.077 C 
ATOM     31  C   UNL     1       1.418 -38.324 -34.350  1.00  0.00     0.039 C 
ATOM     32  C   UNL     1       2.071 -39.298 -32.207  1.00  0.00     0.008 C 
ENDBRANCH   7  30
BRANCH  24  33
ATOM     33  O   UNL     1       0.136 -29.525 -31.468  1.00  0.00    -0.393 OA
ATOM     34  H   UNL     1       0.685 -28.729 -31.240  1.00  0.00     0.210 HD
ENDBRANCH  24  33
TORSDOF 3
ENDMDL
MODEL 3
REMARK VINA RESULT:    -7.256      2.177      6.982
REMARK INTER + INTRA:          -8.920
REMARK INTER:                  -8.300
REMARK INTRA:                  -0.621
REMARK UNBOUND:                -0.604
REMARK SMILES C=C(C)[C@H]1CC[C@]2(C(=O)[O-])CC[C@]3(C)[C@@H](CC[C@H]4[C@@]5(C)CC[C@@H](O)C(C)(C)[C@@H]5CC[C@]43C)[C@H]12
REMARK SMILES IDX 7 1 6 2 33 3 11 4 5 5 15 6 4 7 12 8 16 9 13 10 17 11 31 12
REMARK SMILES IDX 14 13 18 14 30 15 32 16 19 17 29 18 21 19 20 20 28 21 22 22
REMARK SMILES IDX 25 23 23 24 26 25 27 26 8 27 9 28 10 29 2 30 3 31 1 32 24 33
REMARK H PARENT 24 34
REMARK Flexibility Score: inf
ROOT
ATOM      1  C   UNL     1       7.884 -45.494 -31.618  1.00  0.00     0.014 C 
ATOM      2  C   UNL     1       8.267 -46.917 -32.111  1.00  0.00     0.014 C 
ATOM      3  C   UNL     1       8.709 -44.519 -32.525  1.00  0.00     0.012 C 
ATOM      4  C   UNL     1       6.354 -45.275 -31.754  1.00  0.00     0.014 C 
ATOM      5  C   UNL     1       9.476 -46.752 -33.016  1.00  0.00     0.009 C 
ATOM      6  C   UNL     1       7.976 -43.213 -33.027  1.00  0.00     0.000 C 
ATOM      7  C   UNL     1       9.279 -45.394 -33.668  1.00  0.00     0.018 C 
ATOM      8  C   UNL     1       5.941 -44.806 -33.150  1.00  0.00     0.008 C 
ATOM      9  C   UNL     1       8.168 -42.064 -32.023  1.00  0.00     0.005 C 
ATOM     10  C   UNL     1       6.479 -43.378 -33.553  1.00  0.00    -0.024 C 
ATOM     11  C   UNL     1       7.075 -41.951 -30.979  1.00  0.00     0.005 C 
ATOM     12  C   UNL     1       5.486 -42.161 -33.078  1.00  0.00    -0.024 C 
ATOM     13  C   UNL     1       6.560 -43.395 -35.125  1.00  0.00     0.012 C 
ATOM     14  C   UNL     1       5.595 -41.857 -31.505  1.00  0.00     0.002 C 
ATOM     15  C   UNL     1       5.798 -40.845 -33.889  1.00  0.00     0.008 C 
ATOM     16  C   UNL     1       4.009 -42.551 -33.438  1.00  0.00     0.012 C 
ATOM     17  C   UNL     1       4.841 -40.533 -30.998  1.00  0.00    -0.026 C 
ATOM     18  C   UNL     1       5.200 -39.533 -33.345  1.00  0.00     0.005 C 
ATOM     19  C   UNL     1       5.039 -40.304 -29.447  1.00  0.00     0.010 C 
ATOM     20  C   UNL     1       3.286 -40.693 -31.162  1.00  0.00     0.012 C 
ATOM     21  C   UNL     1       5.433 -39.331 -31.824  1.00  0.00     0.003 C 
ATOM     22  C   UNL     1       4.640 -38.897 -28.969  1.00  0.00     0.033 C 
ATOM     23  C   UNL     1       5.081 -37.883 -31.297  1.00  0.00    -0.006 C 
ATOM     24  C   UNL     1       5.363 -37.800 -29.763  1.00  0.00     0.120 C 
ATOM     25  C   UNL     1       5.988 -36.828 -31.994  1.00  0.00     0.014 C 
ATOM     26  C   UNL     1       3.619 -37.458 -31.593  1.00  0.00     0.014 C 
ENDROOT
BRANCH   1  27
ATOM     27  C   UNL     1       8.293 -45.381 -30.149  1.00  0.00     0.048 C 
ATOM     28  O   UNL     1       9.221 -44.601 -29.803  1.00  0.00    -0.550 OA
ATOM     29  O   UNL     1       7.737 -46.217 -29.186  1.00  0.00    -0.550 OA
ENDBRANCH   1  27
BRANCH   7  30
ATOM     30  C   UNL     1      10.552 -44.923 -34.378  1.00  0.00    -0.077 C 
ATOM     31  C   UNL     1      11.793 -45.771 -34.254  1.00  0.00     0.039 C 
ATOM     32  C   UNL     1      10.633 -43.805 -35.125  1.00  0.00     0.008 C 
ENDBRANCH   7  30
BRANCH  24  33
ATOM     33  O   UNL     1       6.748 -37.892 -29.519  1.00  0.00    -0.393 OA
ATOM     34  H   UNL     1       7.210 -37.605 -30.350  1.00  0.00     0.210 HD
ENDBRANCH  24  33
TORSDOF 3
ENDMDL
MODEL 4
REMARK VINA RESULT:    -7.095      1.536      7.352
REMARK INTER + INTRA:          -8.736
REMARK INTER:                  -8.158
REMARK INTRA:                  -0.578
REMARK UNBOUND:                -0.604
REMARK SMILES C=C(C)[C@H]1CC[C@]2(C(=O)[O-])CC[C@]3(C)[C@@H](CC[C@H]4[C@@]5(C)CC[C@@H](O)C(C)(C)[C@@H]5CC[C@]43C)[C@H]12
REMARK SMILES IDX 7 1 6 2 33 3 11 4 5 5 15 6 4 7 12 8 16 9 13 10 17 11 31 12
REMARK SMILES IDX 14 13 18 14 30 15 32 16 19 17 29 18 21 19 20 20 28 21 22 22
REMARK SMILES IDX 25 23 23 24 26 25 27 26 8 27 9 28 10 29 2 30 3 31 1 32 24 33
REMARK H PARENT 24 34
REMARK Flexibility Score: inf
ROOT
ATOM      1  C   UNL     1       8.153 -45.291 -30.546  1.00  0.00     0.014 C 
ATOM      2  C   UNL     1       8.967 -46.610 -30.443  1.00  0.00     0.014 C 
ATOM      3  C   UNL     1       9.082 -44.307 -31.337  1.00  0.00     0.012 C 
ATOM      4  C   UNL     1       6.808 -45.547 -31.276  1.00  0.00     0.014 C 
ATOM      5  C   UNL     1      10.388 -46.279 -30.864  1.00  0.00     0.009 C 
ATOM      6  C   UNL     1       8.394 -43.381 -32.416  1.00  0.00     0.000 C 
ATOM      7  C   UNL     1      10.230 -45.179 -31.901  1.00  0.00     0.018 C 
ATOM      8  C   UNL     1       6.934 -45.483 -32.799  1.00  0.00     0.008 C 
ATOM      9  C   UNL     1       7.932 -42.060 -31.781  1.00  0.00     0.005 C 
ATOM     10  C   UNL     1       7.314 -44.061 -33.372  1.00  0.00    -0.024 C 
ATOM     11  C   UNL     1       6.503 -42.071 -31.274  1.00  0.00     0.005 C 
ATOM     12  C   UNL     1       6.004 -43.113 -33.650  1.00  0.00    -0.024 C 
ATOM     13  C   UNL     1       8.044 -44.347 -34.737  1.00  0.00     0.012 C 
ATOM     14  C   UNL     1       5.389 -42.504 -32.298  1.00  0.00     0.002 C 
ATOM     15  C   UNL     1       6.372 -41.937 -34.634  1.00  0.00     0.008 C 
ATOM     16  C   UNL     1       4.914 -43.968 -34.386  1.00  0.00     0.012 C 
ATOM     17  C   UNL     1       4.257 -41.380 -32.492  1.00  0.00    -0.026 C 
ATOM     18  C   UNL     1       5.368 -40.773 -34.736  1.00  0.00     0.005 C 
ATOM     19  C   UNL     1       3.744 -40.820 -31.107  1.00  0.00     0.010 C 
ATOM     20  C   UNL     1       2.973 -42.004 -33.147  1.00  0.00     0.012 C 
ATOM     21  C   UNL     1       4.903 -40.235 -33.358  1.00  0.00     0.003 C 
ATOM     22  C   UNL     1       2.927 -39.522 -31.224  1.00  0.00     0.033 C 
ATOM     23  C   UNL     1       4.099 -38.875 -33.426  1.00  0.00    -0.006 C 
ATOM     24  C   UNL     1       3.695 -38.431 -31.984  1.00  0.00     0.120 C 
ATOM     25  C   UNL     1       4.998 -37.754 -34.022  1.00  0.00     0.014 C 
ATOM     26  C   UNL     1       2.842 -38.948 -34.332  1.00  0.00     0.014 C 
ENDROOT
BRANCH   1  27
ATOM     27  C   UNL     1       7.884 -44.794 -29.126  1.00  0.00     0.048 C 
ATOM     28  O   UNL     1       8.120 -43.595 -28.812  1.00  0.00    -0.550 OA
ATOM     29  O   UNL     1       7.489 -45.675 -28.124  1.00  0.00    -0.550 OA
ENDBRANCH   1  27
BRANCH   7  30
ATOM     30  C   UNL     1      11.570 -44.505 -32.212  1.00  0.00    -0.077 C 
ATOM     31  C   UNL     1      12.583 -44.388 -31.102  1.00  0.00     0.039 C 
ATOM     32  C   UNL     1      11.912 -44.024 -33.423  1.00  0.00     0.008 C 
ENDBRANCH   7  30
BRANCH  24  33
ATOM     33  O   UNL     1       4.842 -38.077 -31.247  1.00  0.00    -0.393 OA
ATOM     34  H   UNL     1       5.510 -38.799 -31.382  1.00  0.00     0.210 HD
ENDBRANCH  24  33
TORSDOF 3
ENDMDL
MODEL 5
REMARK VINA RESULT:    -7.046      9.689     14.577
REMARK INTER + INTRA:          -8.680
REMARK INTER:                  -7.991
REMARK INTRA:                  -0.689
REMARK UNBOUND:                -0.604
REMARK SMILES C=C(C)[C@H]1CC[C@]2(C(=O)[O-])CC[C@]3(C)[C@@H](CC[C@H]4[C@@]5(C)CC[C@@H](O)C(C)(C)[C@@H]5CC[C@]43C)[C@H]12
REMARK SMILES IDX 7 1 6 2 33 3 11 4 5 5 15 6 4 7 12 8 16 9 13 10 17 11 31 12
REMARK SMILES IDX 14 13 18 14 30 15 32 16 19 17 29 18 21 19 20 20 28 21 22 22
REMARK SMILES IDX 25 23 23 24 26 25 27 26 8 27 9 28 10 29 2 30 3 31 1 32 24 33
REMARK H PARENT 24 34
REMARK Flexibility Score: inf
ROOT
ATOM      1  C   UNL     1      -5.876 -31.536 -29.866  1.00  0.00     0.014 C 
ATOM      2  C   UNL     1      -6.742 -30.494 -29.107  1.00  0.00     0.014 C 
ATOM      3  C   UNL     1      -4.437 -30.916 -29.900  1.00  0.00     0.012 C 
ATOM      4  C   UNL     1      -5.913 -32.902 -29.129  1.00  0.00     0.014 C 
ATOM      5  C   UNL     1      -5.910 -29.227 -29.010  1.00  0.00     0.009 C 
ATOM      6  C   UNL     1      -3.226 -31.901 -29.659  1.00  0.00     0.000 C 
ATOM      7  C   UNL     1      -4.476 -29.720 -28.919  1.00  0.00     0.018 C 
ATOM      8  C   UNL     1      -4.884 -32.999 -28.004  1.00  0.00     0.008 C 
ATOM      9  C   UNL     1      -2.742 -32.500 -30.989  1.00  0.00     0.005 C 
ATOM     10  C   UNL     1      -3.378 -32.963 -28.480  1.00  0.00    -0.024 C 
ATOM     11  C   UNL     1      -3.391 -33.821 -31.357  1.00  0.00     0.005 C 
ATOM     12  C   UNL     1      -2.792 -34.447 -28.862  1.00  0.00    -0.024 C 
ATOM     13  C   UNL     1      -2.571 -32.389 -27.257  1.00  0.00     0.012 C 
ATOM     14  C   UNL     1      -3.323 -34.969 -30.284  1.00  0.00     0.002 C 
ATOM     15  C   UNL     1      -1.215 -34.434 -28.865  1.00  0.00     0.008 C 
ATOM     16  C   UNL     1      -3.214 -35.457 -27.738  1.00  0.00     0.012 C 
ATOM     17  C   UNL     1      -2.618 -36.299 -30.846  1.00  0.00    -0.026 C 
ATOM     18  C   UNL     1      -0.509 -35.635 -29.523  1.00  0.00     0.005 C 
ATOM     19  C   UNL     1      -3.184 -36.709 -32.263  1.00  0.00     0.010 C 
ATOM     20  C   UNL     1      -2.963 -37.529 -29.930  1.00  0.00     0.012 C 
ATOM     21  C   UNL     1      -1.076 -35.995 -30.922  1.00  0.00     0.003 C 
ATOM     22  C   UNL     1      -2.326 -37.754 -32.997  1.00  0.00     0.033 C 
ATOM     23  C   UNL     1      -0.200 -37.031 -31.734  1.00  0.00    -0.006 C 
ATOM     24  C   UNL     1      -0.864 -37.305 -33.121  1.00  0.00     0.120 C 
ATOM     25  C   UNL     1       1.212 -36.437 -32.004  1.00  0.00     0.014 C 
ATOM     26  C   UNL     1       0.029 -38.367 -30.980  1.00  0.00     0.014 C 
ENDROOT
BRANCH   1  27
ATOM     27  C   UNL     1      -6.456 -31.693 -31.273  1.00  0.00     0.048 C 
ATOM     28  O   UNL     1      -7.125 -32.717 -31.578  1.00  0.00    -0.550 OA
ATOM     29  O   UNL     1      -6.161 -30.772 -32.273  1.00  0.00    -0.550 OA
ENDBRANCH   1  27
BRANCH   7  30
ATOM     30  C   UNL     1      -3.476 -28.578 -29.125  1.00  0.00    -0.077 C 
ATOM     31  C   UNL     1      -3.044 -28.255 -30.533  1.00  0.00     0.039 C 
ATOM     32  C   UNL     1      -2.968 -27.827 -28.129  1.00  0.00     0.008 C 
ENDBRANCH   7  30
BRANCH  24  33
ATOM     33  O   UNL     1      -0.802 -36.150 -33.925  1.00  0.00    -0.393 OA
ATOM     34  H   UNL     1      -1.396 -36.305 -34.705  1.00  0.00     0.210 HD
ENDBRANCH  24  33
TORSDOF 3
ENDMDL
MODEL 6
REMARK VINA RESULT:    -7.019     10.950     15.659
REMARK INTER + INTRA:          -8.648
REMARK INTER:                  -8.003
REMARK INTRA:                  -0.645
REMARK UNBOUND:                -0.604
REMARK SMILES C=C(C)[C@H]1CC[C@]2(C(=O)[O-])CC[C@]3(C)[C@@H](CC[C@H]4[C@@]5(C)CC[C@@H](O)C(C)(C)[C@@H]5CC[C@]43C)[C@H]12
REMARK SMILES IDX 7 1 6 2 33 3 11 4 5 5 15 6 4 7 12 8 16 9 13 10 17 11 31 12
REMARK SMILES IDX 14 13 18 14 30 15 32 16 19 17 29 18 21 19 20 20 28 21 22 22
REMARK SMILES IDX 25 23 23 24 26 25 27 26 8 27 9 28 10 29 2 30 3 31 1 32 24 33
REMARK H PARENT 24 34
REMARK Flexibility Score: inf
ROOT
ATOM      1  C   UNL     1      -0.327 -33.783 -32.922  1.00  0.00     0.014 C 
ATOM      2  C   UNL     1       0.877 -34.007 -33.877  1.00  0.00     0.014 C 
ATOM      3  C   UNL     1       0.282 -33.067 -31.668  1.00  0.00     0.012 C 
ATOM      4  C   UNL     1      -1.413 -32.924 -33.622  1.00  0.00     0.014 C 
ATOM      5  C   UNL     1       2.132 -33.727 -33.068  1.00  0.00     0.009 C 
ATOM      6  C   UNL     1      -0.564 -31.896 -31.029  1.00  0.00     0.000 C 
ATOM      7  C   UNL     1       1.715 -32.650 -32.082  1.00  0.00     0.018 C 
ATOM      8  C   UNL     1      -1.154 -31.422 -33.503  1.00  0.00     0.008 C 
ATOM      9  C   UNL     1      -1.521 -32.442 -29.957  1.00  0.00     0.005 C 
ATOM     10  C   UNL     1      -1.232 -30.853 -32.033  1.00  0.00    -0.024 C 
ATOM     11  C   UNL     1      -2.903 -32.798 -30.470  1.00  0.00     0.005 C 
ATOM     12  C   UNL     1      -2.752 -30.413 -31.596  1.00  0.00    -0.024 C 
ATOM     13  C   UNL     1      -0.306 -29.580 -32.032  1.00  0.00     0.012 C 
ATOM     14  C   UNL     1      -3.681 -31.676 -31.252  1.00  0.00     0.002 C 
ATOM     15  C   UNL     1      -2.711 -29.440 -30.356  1.00  0.00     0.008 C 
ATOM     16  C   UNL     1      -3.392 -29.591 -32.769  1.00  0.00     0.012 C 
ATOM     17  C   UNL     1      -5.105 -31.334 -30.590  1.00  0.00    -0.026 C 
ATOM     18  C   UNL     1      -4.039 -29.201 -29.613  1.00  0.00     0.005 C 
ATOM     19  C   UNL     1      -5.926 -32.642 -30.258  1.00  0.00     0.010 C 
ATOM     20  C   UNL     1      -6.014 -30.566 -31.616  1.00  0.00     0.012 C 
ATOM     21  C   UNL     1      -4.807 -30.509 -29.283  1.00  0.00     0.003 C 
ATOM     22  C   UNL     1      -7.125 -32.404 -29.324  1.00  0.00     0.033 C 
ATOM     23  C   UNL     1      -6.021 -30.319 -28.288  1.00  0.00    -0.006 C 
ATOM     24  C   UNL     1      -6.706 -31.699 -28.027  1.00  0.00     0.120 C 
ATOM     25  C   UNL     1      -5.507 -29.789 -26.918  1.00  0.00     0.014 C 
ATOM     26  C   UNL     1      -7.069 -29.289 -28.784  1.00  0.00     0.014 C 
ENDROOT
BRANCH   1  27
ATOM     27  C   UNL     1      -0.903 -35.154 -32.564  1.00  0.00     0.048 C 
ATOM     28  O   UNL     1      -1.760 -35.701 -33.310  1.00  0.00    -0.550 OA
ATOM     29  O   UNL     1      -0.588 -35.768 -31.356  1.00  0.00    -0.550 OA
ENDBRANCH   1  27
BRANCH   7  30
ATOM     30  C   UNL     1       2.763 -32.461 -30.980  1.00  0.00    -0.077 C 
ATOM     31  C   UNL     1       4.048 -31.757 -31.333  1.00  0.00     0.039 C 
ATOM     32  C   UNL     1       2.603 -32.867 -29.706  1.00  0.00     0.008 C 
ENDBRANCH   7  30
BRANCH  24  33
ATOM     33  O   UNL     1      -5.839 -32.541 -27.303  1.00  0.00    -0.393 OA
ATOM     34  H   UNL     1      -6.288 -32.751 -26.443  1.00  0.00     0.210 HD
ENDBRANCH  24  33
TORSDOF 3
ENDMDL
MODEL 7
REMARK VINA RESULT:    -6.912      8.241     13.343
REMARK INTER + INTRA:          -8.527
REMARK INTER:                  -7.908
REMARK INTRA:                  -0.619
REMARK UNBOUND:                -0.604
REMARK SMILES C=C(C)[C@H]1CC[C@]2(C(=O)[O-])CC[C@]3(C)[C@@H](CC[C@H]4[C@@]5(C)CC[C@@H](O)C(C)(C)[C@@H]5CC[C@]43C)[C@H]12
REMARK SMILES IDX 7 1 6 2 33 3 11 4 5 5 15 6 4 7 12 8 16 9 13 10 17 11 31 12
REMARK SMILES IDX 14 13 18 14 30 15 32 16 19 17 29 18 21 19 20 20 28 21 22 22
REMARK SMILES IDX 25 23 23 24 26 25 27 26 8 27 9 28 10 29 2 30 3 31 1 32 24 33
REMARK H PARENT 24 34
REMARK Flexibility Score: inf
ROOT
ATOM      1  C   UNL     1       2.212 -35.841 -31.475  1.00  0.00     0.014 C 
ATOM      2  C   UNL     1       3.239 -36.514 -32.426  1.00  0.00     0.014 C 
ATOM      3  C   UNL     1       2.820 -34.433 -31.157  1.00  0.00     0.012 C 
ATOM      4  C   UNL     1       0.826 -35.743 -32.167  1.00  0.00     0.014 C 
ATOM      5  C   UNL     1       4.496 -35.662 -32.380  1.00  0.00     0.009 C 
ATOM      6  C   UNL     1       1.819 -33.212 -31.113  1.00  0.00     0.000 C 
ATOM      7  C   UNL     1       3.988 -34.248 -32.156  1.00  0.00     0.018 C 
ATOM      8  C   UNL     1       0.687 -34.502 -33.049  1.00  0.00     0.008 C 
ATOM      9  C   UNL     1       1.254 -33.026 -29.695  1.00  0.00     0.005 C 
ATOM     10  C   UNL     1       0.724 -33.129 -32.269  1.00  0.00    -0.024 C 
ATOM     11  C   UNL     1      -0.050 -33.756 -29.436  1.00  0.00     0.005 C 
ATOM     12  C   UNL     1      -0.753 -32.657 -31.734  1.00  0.00    -0.024 C 
ATOM     13  C   UNL     1       1.256 -32.076 -33.311  1.00  0.00     0.012 C 
ATOM     14  C   UNL     1      -1.230 -33.482 -30.441  1.00  0.00     0.002 C 
ATOM     15  C   UNL     1      -0.754 -31.116 -31.401  1.00  0.00     0.008 C 
ATOM     16  C   UNL     1      -1.792 -32.850 -32.894  1.00  0.00     0.012 C 
ATOM     17  C   UNL     1      -2.549 -32.929 -29.709  1.00  0.00    -0.026 C 
ATOM     18  C   UNL     1      -1.941 -30.581 -30.577  1.00  0.00     0.005 C 
ATOM     19  C   UNL     1      -2.912 -33.785 -28.432  1.00  0.00     0.010 C 
ATOM     20  C   UNL     1      -3.801 -33.093 -30.644  1.00  0.00     0.012 C 
ATOM     21  C   UNL     1      -2.255 -31.433 -29.319  1.00  0.00     0.003 C 
ATOM     22  C   UNL     1      -3.943 -33.115 -27.507  1.00  0.00     0.033 C 
ATOM     23  C   UNL     1      -3.275 -30.762 -28.315  1.00  0.00    -0.006 C 
ATOM     24  C   UNL     1      -3.503 -31.705 -27.091  1.00  0.00     0.120 C 
ATOM     25  C   UNL     1      -2.686 -29.428 -27.771  1.00  0.00     0.014 C 
ATOM     26  C   UNL     1      -4.634 -30.399 -28.968  1.00  0.00     0.014 C 
ENDROOT
BRANCH   1  27
ATOM     27  C   UNL     1       2.101 -36.705 -30.218  1.00  0.00     0.048 C 
ATOM     28  O   UNL     1       1.463 -37.793 -30.244  1.00  0.00    -0.550 OA
ATOM     29  O   UNL     1       2.595 -36.256 -28.997  1.00  0.00    -0.550 OA
ENDBRANCH   1  27
BRANCH   7  30
ATOM     30  C   UNL     1       5.127 -33.296 -31.775  1.00  0.00    -0.077 C 
ATOM     31  C   UNL     1       4.849 -31.814 -31.781  1.00  0.00     0.039 C 
ATOM     32  C   UNL     1       6.360 -33.698 -31.414  1.00  0.00     0.008 C 
ENDBRANCH   7  30
BRANCH  24  33
ATOM     33  O   UNL     1      -2.326 -31.796 -26.323  1.00  0.00    -0.393 OA
ATOM     34  H   UNL     1      -1.650 -32.265 -26.880  1.00  0.00     0.210 HD
ENDBRANCH  24  33
TORSDOF 3
ENDMDL
MODEL 8
REMARK VINA RESULT:    -6.794      9.841     14.583
REMARK INTER + INTRA:          -8.391
REMARK INTER:                  -7.869
REMARK INTRA:                  -0.522
REMARK UNBOUND:                -0.604
REMARK SMILES C=C(C)[C@H]1CC[C@]2(C(=O)[O-])CC[C@]3(C)[C@@H](CC[C@H]4[C@@]5(C)CC[C@@H](O)C(C)(C)[C@@H]5CC[C@]43C)[C@H]12
REMARK SMILES IDX 7 1 6 2 33 3 11 4 5 5 15 6 4 7 12 8 16 9 13 10 17 11 31 12
REMARK SMILES IDX 14 13 18 14 30 15 32 16 19 17 29 18 21 19 20 20 28 21 22 22
REMARK SMILES IDX 25 23 23 24 26 25 27 26 8 27 9 28 10 29 2 30 3 31 1 32 24 33
REMARK H PARENT 24 34
REMARK Flexibility Score: inf
ROOT
ATOM      1  C   UNL     1      -2.303 -28.798 -32.355  1.00  0.00     0.014 C 
ATOM      2  C   UNL     1      -2.908 -27.371 -32.262  1.00  0.00     0.014 C 
ATOM      3  C   UNL     1      -2.328 -29.342 -30.885  1.00  0.00     0.012 C 
ATOM      4  C   UNL     1      -3.143 -29.674 -33.322  1.00  0.00     0.014 C 
ATOM      5  C   UNL     1      -2.965 -27.018 -30.786  1.00  0.00     0.009 C 
ATOM      6  C   UNL     1      -2.738 -30.854 -30.686  1.00  0.00     0.000 C 
ATOM      7  C   UNL     1      -3.204 -28.345 -30.087  1.00  0.00     0.018 C 
ATOM      8  C   UNL     1      -4.347 -30.326 -32.642  1.00  0.00     0.008 C 
ATOM      9  C   UNL     1      -1.501 -31.764 -30.751  1.00  0.00     0.005 C 
ATOM     10  C   UNL     1      -3.985 -31.384 -31.528  1.00  0.00    -0.024 C 
ATOM     11  C   UNL     1      -1.193 -32.311 -32.131  1.00  0.00     0.005 C 
ATOM     12  C   UNL     1      -3.769 -32.897 -32.126  1.00  0.00    -0.024 C 
ATOM     13  C   UNL     1      -5.215 -31.388 -30.545  1.00  0.00     0.012 C 
ATOM     14  C   UNL     1      -2.357 -33.065 -32.873  1.00  0.00     0.002 C 
ATOM     15  C   UNL     1      -3.884 -33.968 -30.975  1.00  0.00     0.008 C 
ATOM     16  C   UNL     1      -4.936 -33.210 -33.127  1.00  0.00     0.012 C 
ATOM     17  C   UNL     1      -1.960 -34.568 -33.279  1.00  0.00    -0.026 C 
ATOM     18  C   UNL     1      -3.380 -35.389 -31.292  1.00  0.00     0.005 C 
ATOM     19  C   UNL     1      -0.542 -34.632 -33.973  1.00  0.00     0.010 C 
ATOM     20  C   UNL     1      -2.944 -35.116 -34.376  1.00  0.00     0.012 C 
ATOM     21  C   UNL     1      -1.976 -35.414 -31.952  1.00  0.00     0.003 C 
ATOM     22  C   UNL     1       0.039 -36.053 -34.073  1.00  0.00     0.033 C 
ATOM     23  C   UNL     1      -1.318 -36.850 -32.033  1.00  0.00    -0.006 C 
ATOM     24  C   UNL     1       0.088 -36.745 -32.704  1.00  0.00     0.120 C 
ATOM     25  C   UNL     1      -1.109 -37.420 -30.601  1.00  0.00     0.014 C 
ATOM     26  C   UNL     1      -2.193 -37.885 -32.787  1.00  0.00     0.014 C 
ENDROOT
BRANCH   1  27
ATOM     27  C   UNL     1      -0.874 -28.669 -32.885  1.00  0.00     0.048 C 
ATOM     28  O   UNL     1      -0.000 -28.048 -32.220  1.00  0.00    -0.550 OA
ATOM     29  O   UNL     1      -0.540 -29.124 -34.156  1.00  0.00    -0.550 OA
ENDBRANCH   1  27
BRANCH   7  30
ATOM     30  C   UNL     1      -2.982 -28.232 -28.576  1.00  0.00    -0.077 C 
ATOM     31  C   UNL     1      -2.631 -26.880 -28.007  1.00  0.00     0.039 C 
ATOM     32  C   UNL     1      -3.098 -29.260 -27.714  1.00  0.00     0.008 C 
ENDBRANCH   7  30
BRANCH  24  33
ATOM     33  O   UNL     1       0.975 -36.045 -31.864  1.00  0.00    -0.393 OA
ATOM     34  H   UNL     1       0.979 -35.099 -32.168  1.00  0.00     0.210 HD
ENDBRANCH  24  33
TORSDOF 3
ENDMDL
