MODEL 1
REMARK VINA RESULT:    -6.718      0.000      0.000
REMARK INTER + INTRA:          -7.384
REMARK INTER:                  -7.111
REMARK INTRA:                  -0.273
REMARK UNBOUND:                -0.273
REMARK SMILES CC1=CC[C@@H]2[C@H]3[C@@H](C(C)C)CC[C@]2(C)[C@@H]13
REMARK SMILES IDX 1 1 2 2 3 3 4 4 5 5 6 6 15 7 13 8 12 9 11 10 7 11 14 12 8 13
REMARK SMILES IDX 9 14 10 15
REMARK H PARENT
REMARK Flexibility Score: inf
ROOT
ATOM      1  C   UNL     1     109.634 113.227 111.800  1.00  0.00     0.039 C 
ATOM      2  C   UNL     1     110.325 112.120 111.062  1.00  0.00    -0.073 C 
ATOM      3  C   UNL     1     111.264 111.332 111.655  1.00  0.00    -0.027 C 
ATOM      4  C   UNL     1     111.943 110.241 110.823  1.00  0.00     0.031 C 
ATOM      5  C   UNL     1     111.448 110.296 109.342  1.00  0.00     0.003 C 
ATOM      6  C   UNL     1     111.453 111.776 108.902  1.00  0.00     0.004 C 
ATOM      7  C   UNL     1     110.063 111.889 109.568  1.00  0.00     0.024 C 
ATOM      8  C   UNL     1     109.906 110.378 109.270  1.00  0.00    -0.022 C 
ATOM      9  C   UNL     1     109.462 110.147 107.799  1.00  0.00     0.008 C 
ATOM     10  C   UNL     1     110.116 111.140 106.797  1.00  0.00     0.005 C 
ATOM     11  C   UNL     1     111.364 111.910 107.354  1.00  0.00    -0.005 C 
ATOM     12  C   UNL     1     109.086 109.502 110.249  1.00  0.00     0.012 C 
ENDROOT
BRANCH  11  13
ATOM     13  C   UNL     1     112.681 111.490 106.621  1.00  0.00    -0.014 C 
ATOM     14  C   UNL     1     112.443 110.237 105.759  1.00  0.00     0.007 C 
ATOM     15  C   UNL     1     113.256 112.594 105.716  1.00  0.00     0.007 C 
ENDBRANCH  11  13
TORSDOF 1
ENDMDL
MODEL 2
REMARK VINA RESULT:    -6.703      3.113      5.773
REMARK INTER + INTRA:          -7.368
REMARK INTER:                  -7.095
REMARK INTRA:                  -0.273
REMARK UNBOUND:                -0.273
REMARK SMILES CC1=CC[C@@H]2[C@H]3[C@@H](C(C)C)CC[C@]2(C)[C@@H]13
REMARK SMILES IDX 1 1 2 2 3 3 4 4 5 5 6 6 15 7 13 8 12 9 11 10 7 11 14 12 8 13
REMARK SMILES IDX 9 14 10 15
REMARK H PARENT
REMARK Flexibility Score: inf
ROOT
ATOM      1  C   UNL     1     112.507 109.211 116.732  1.00  0.00     0.039 C 
ATOM      2  C   UNL     1     111.861 110.298 115.925  1.00  0.00    -0.073 C 
ATOM      3  C   UNL     1     110.928 111.134 116.457  1.00  0.00    -0.027 C 
ATOM      4  C   UNL     1     110.296 112.200 115.558  1.00  0.00     0.031 C 
ATOM      5  C   UNL     1     110.825 112.064 114.094  1.00  0.00     0.003 C 
ATOM      6  C   UNL     1     110.795 110.565 113.725  1.00  0.00     0.004 C 
ATOM      7  C   UNL     1     112.165 110.451 114.430  1.00  0.00     0.024 C 
ATOM      8  C   UNL     1     112.366 111.942 114.065  1.00  0.00    -0.022 C 
ATOM      9  C   UNL     1     112.850 112.092 112.596  1.00  0.00     0.008 C 
ATOM     10  C   UNL     1     112.197 111.068 111.626  1.00  0.00     0.005 C 
ATOM     11  C   UNL     1     110.917 110.355 112.187  1.00  0.00    -0.005 C 
ATOM     12  C   UNL     1     113.183 112.844 115.022  1.00  0.00     0.012 C 
ENDROOT
BRANCH  11  13
ATOM     13  C   UNL     1     109.629 110.770 111.402  1.00  0.00    -0.014 C 
ATOM     14  C   UNL     1     109.918 111.975 110.488  1.00  0.00     0.007 C 
ATOM     15  C   UNL     1     109.049 109.638 110.535  1.00  0.00     0.007 C 
ENDBRANCH  11  13
TORSDOF 1
ENDMDL
MODEL 3
REMARK VINA RESULT:    -6.695      3.190      4.874
REMARK INTER + INTRA:          -7.360
REMARK INTER:                  -7.092
REMARK INTRA:                  -0.268
REMARK UNBOUND:                -0.273
REMARK SMILES CC1=CC[C@@H]2[C@H]3[C@@H](C(C)C)CC[C@]2(C)[C@@H]13
REMARK SMILES IDX 1 1 2 2 3 3 4 4 5 5 6 6 15 7 13 8 12 9 11 10 7 11 14 12 8 13
REMARK SMILES IDX 9 14 10 15
REMARK H PARENT
REMARK Flexibility Score: inf
ROOT
ATOM      1  C   UNL     1     109.771 113.161 116.731  1.00  0.00     0.039 C 
ATOM      2  C   UNL     1     110.419 112.049 115.961  1.00  0.00    -0.073 C 
ATOM      3  C   UNL     1     111.335 111.216 116.527  1.00  0.00    -0.027 C 
ATOM      4  C   UNL     1     111.970 110.122 115.664  1.00  0.00     0.031 C 
ATOM      5  C   UNL     1     111.464 110.228 114.190  1.00  0.00     0.003 C 
ATOM      6  C   UNL     1     111.515 111.717 113.784  1.00  0.00     0.004 C 
ATOM      7  C   UNL     1     110.136 111.862 114.465  1.00  0.00     0.024 C 
ATOM      8  C   UNL     1     109.925 110.365 114.134  1.00  0.00    -0.022 C 
ATOM      9  C   UNL     1     109.461 110.183 112.662  1.00  0.00     0.008 C 
ATOM     10  C   UNL     1     110.139 111.176 111.677  1.00  0.00     0.005 C 
ATOM     11  C   UNL     1     111.418 111.891 112.240  1.00  0.00    -0.005 C 
ATOM     12  C   UNL     1     109.084 109.494 115.100  1.00  0.00     0.012 C 
ENDROOT
BRANCH  11  13
ATOM     13  C   UNL     1     112.713 111.443 111.485  1.00  0.00    -0.014 C 
ATOM     14  C   UNL     1     112.435 110.195 110.627  1.00  0.00     0.007 C 
ATOM     15  C   UNL     1     113.296 112.535 110.571  1.00  0.00     0.007 C 
ENDBRANCH  11  13
TORSDOF 1
ENDMDL
MODEL 4
REMARK VINA RESULT:    -6.691      1.232      3.190
REMARK INTER + INTRA:          -7.356
REMARK INTER:                  -7.090
REMARK INTRA:                  -0.266
REMARK UNBOUND:                -0.273
REMARK SMILES CC1=CC[C@@H]2[C@H]3[C@@H](C(C)C)CC[C@]2(C)[C@@H]13
REMARK SMILES IDX 1 1 2 2 3 3 4 4 5 5 6 6 15 7 13 8 12 9 11 10 7 11 14 12 8 13
REMARK SMILES IDX 9 14 10 15
REMARK H PARENT
REMARK Flexibility Score: inf
ROOT
ATOM      1  C   UNL     1     112.508 109.274 111.904  1.00  0.00     0.039 C 
ATOM      2  C   UNL     1     111.856 110.340 111.074  1.00  0.00    -0.073 C 
ATOM      3  C   UNL     1     110.916 111.181 111.587  1.00  0.00    -0.027 C 
ATOM      4  C   UNL     1     110.278 112.224 110.666  1.00  0.00     0.031 C 
ATOM      5  C   UNL     1     110.812 112.062 109.206  1.00  0.00     0.003 C 
ATOM      6  C   UNL     1     110.792 110.556 108.867  1.00  0.00     0.004 C 
ATOM      7  C   UNL     1     112.162 110.466 109.576  1.00  0.00     0.024 C 
ATOM      8  C   UNL     1     112.353 111.950 109.182  1.00  0.00    -0.022 C 
ATOM      9  C   UNL     1     112.840 112.075 107.712  1.00  0.00     0.008 C 
ATOM     10  C   UNL     1     112.195 111.027 106.761  1.00  0.00     0.005 C 
ATOM     11  C   UNL     1     110.919 110.316 107.334  1.00  0.00    -0.005 C 
ATOM     12  C   UNL     1     113.162 112.878 110.123  1.00  0.00     0.012 C 
ENDROOT
BRANCH  11  13
ATOM     13  C   UNL     1     109.630 110.707 106.538  1.00  0.00    -0.014 C 
ATOM     14  C   UNL     1     109.899 111.927 105.638  1.00  0.00     0.007 C 
ATOM     15  C   UNL     1     109.088 109.569 105.655  1.00  0.00     0.007 C 
ENDBRANCH  11  13
TORSDOF 1
ENDMDL
MODEL 5
REMARK VINA RESULT:    -6.626      1.991      4.159
REMARK INTER + INTRA:          -7.287
REMARK INTER:                  -7.010
REMARK INTRA:                  -0.277
REMARK UNBOUND:                -0.273
REMARK SMILES CC1=CC[C@@H]2[C@H]3[C@@H](C(C)C)CC[C@]2(C)[C@@H]13
REMARK SMILES IDX 1 1 2 2 3 3 4 4 5 5 6 6 15 7 13 8 12 9 11 10 7 11 14 12 8 13
REMARK SMILES IDX 9 14 10 15
REMARK H PARENT
REMARK Flexibility Score: inf
ROOT
ATOM      1  C   UNL     1     109.124 109.503 114.997  1.00  0.00     0.039 C 
ATOM      2  C   UNL     1     109.556 110.552 114.017  1.00  0.00    -0.073 C 
ATOM      3  C   UNL     1     108.933 111.759 113.929  1.00  0.00    -0.027 C 
ATOM      4  C   UNL     1     109.419 112.766 112.882  1.00  0.00     0.031 C 
ATOM      5  C   UNL     1     110.560 112.143 112.016  1.00  0.00     0.003 C 
ATOM      6  C   UNL     1     110.127 110.713 111.629  1.00  0.00     0.004 C 
ATOM      7  C   UNL     1     110.673 110.268 113.005  1.00  0.00     0.024 C 
ATOM      8  C   UNL     1     111.636 111.475 112.902  1.00  0.00    -0.022 C 
ATOM      9  C   UNL     1     112.866 111.130 112.019  1.00  0.00     0.008 C 
ATOM     10  C   UNL     1     112.515 110.227 110.802  1.00  0.00     0.005 C 
ATOM     11  C   UNL     1     110.985 110.154 110.458  1.00  0.00    -0.005 C 
ATOM     12  C   UNL     1     112.063 112.206 114.199  1.00  0.00     0.012 C 
ENDROOT
BRANCH  11  13
ATOM     13  C   UNL     1     110.668 110.827 109.082  1.00  0.00    -0.014 C 
ATOM     14  C   UNL     1     111.870 110.703 108.128  1.00  0.00     0.007 C 
ATOM     15  C   UNL     1     109.434 110.231 108.380  1.00  0.00     0.007 C 
ENDBRANCH  11  13
TORSDOF 1
ENDMDL
MODEL 6
REMARK VINA RESULT:    -6.586      3.194      6.808
REMARK INTER + INTRA:          -7.245
REMARK INTER:                  -7.028
REMARK INTRA:                  -0.216
REMARK UNBOUND:                -0.273
REMARK SMILES CC1=CC[C@@H]2[C@H]3[C@@H](C(C)C)CC[C@]2(C)[C@@H]13
REMARK SMILES IDX 1 1 2 2 3 3 4 4 5 5 6 6 15 7 13 8 12 9 11 10 7 11 14 12 8 13
REMARK SMILES IDX 9 14 10 15
REMARK H PARENT
REMARK Flexibility Score: inf
ROOT
ATOM      1  C   UNL     1     112.871 112.850 110.677  1.00  0.00     0.039 C 
ATOM      2  C   UNL     1     112.044 111.907 111.499  1.00  0.00    -0.073 C 
ATOM      3  C   UNL     1     110.981 111.235 110.977  1.00  0.00    -0.027 C 
ATOM      4  C   UNL     1     110.171 110.312 111.891  1.00  0.00     0.031 C 
ATOM      5  C   UNL     1     110.711 110.382 113.355  1.00  0.00     0.003 C 
ATOM      6  C   UNL     1     110.941 111.870 113.698  1.00  0.00     0.004 C 
ATOM      7  C   UNL     1     112.312 111.731 112.999  1.00  0.00     0.024 C 
ATOM      8  C   UNL     1     112.250 110.235 113.392  1.00  0.00    -0.022 C 
ATOM      9  C   UNL     1     112.696 110.030 114.866  1.00  0.00     0.008 C 
ATOM     10  C   UNL     1     112.228 111.170 115.814  1.00  0.00     0.005 C 
ATOM     11  C   UNL     1     111.093 112.085 115.232  1.00  0.00    -0.005 C 
ATOM     12  C   UNL     1     112.900 109.187 112.456  1.00  0.00     0.012 C 
ENDROOT
BRANCH  11  13
ATOM     13  C   UNL     1     109.751 111.914 116.016  1.00  0.00    -0.014 C 
ATOM     14  C   UNL     1     109.728 110.567 116.764  1.00  0.00     0.007 C 
ATOM     15  C   UNL     1     109.493 113.035 117.039  1.00  0.00     0.007 C 
ENDBRANCH  11  13
TORSDOF 1
ENDMDL
MODEL 7
REMARK VINA RESULT:    -6.566      2.098      3.395
REMARK INTER + INTRA:          -7.223
REMARK INTER:                  -6.936
REMARK INTRA:                  -0.287
REMARK UNBOUND:                -0.273
REMARK SMILES CC1=CC[C@@H]2[C@H]3[C@@H](C(C)C)CC[C@]2(C)[C@@H]13
REMARK SMILES IDX 1 1 2 2 3 3 4 4 5 5 6 6 15 7 13 8 12 9 11 10 7 11 14 12 8 13
REMARK SMILES IDX 9 14 10 15
REMARK H PARENT
REMARK Flexibility Score: inf
ROOT
ATOM      1  C   UNL     1     112.988 112.869 114.993  1.00  0.00     0.039 C 
ATOM      2  C   UNL     1     112.646 111.761 114.042  1.00  0.00    -0.073 C 
ATOM      3  C   UNL     1     113.257 110.546 114.098  1.00  0.00    -0.027 C 
ATOM      4  C   UNL     1     112.869 109.478 113.072  1.00  0.00     0.031 C 
ATOM      5  C   UNL     1     111.834 110.052 112.052  1.00  0.00     0.003 C 
ATOM      6  C   UNL     1     112.328 111.450 111.623  1.00  0.00     0.004 C 
ATOM      7  C   UNL     1     111.646 111.988 112.901  1.00  0.00     0.024 C 
ATOM      8  C   UNL     1     110.681 110.785 112.775  1.00  0.00    -0.022 C 
ATOM      9  C   UNL     1     109.556 111.082 111.745  1.00  0.00     0.008 C 
ATOM     10  C   UNL     1     110.047 111.901 110.518  1.00  0.00     0.005 C 
ATOM     11  C   UNL     1     111.605 111.939 110.333  1.00  0.00    -0.005 C 
ATOM     12  C   UNL     1     110.110 110.143 114.063  1.00  0.00     0.012 C 
ENDROOT
BRANCH  11  13
ATOM     13  C   UNL     1     112.056 111.175 109.045  1.00  0.00    -0.014 C 
ATOM     14  C   UNL     1     110.835 110.612 108.294  1.00  0.00     0.007 C 
ATOM     15  C   UNL     1     112.861 112.048 108.066  1.00  0.00     0.007 C 
ENDBRANCH  11  13
TORSDOF 1
ENDMDL
MODEL 8
REMARK VINA RESULT:    -6.556      1.426      4.686
REMARK INTER + INTRA:          -7.212
REMARK INTER:                  -6.932
REMARK INTRA:                  -0.280
REMARK UNBOUND:                -0.273
REMARK SMILES CC1=CC[C@@H]2[C@H]3[C@@H](C(C)C)CC[C@]2(C)[C@@H]13
REMARK SMILES IDX 1 1 2 2 3 3 4 4 5 5 6 6 15 7 13 8 12 9 11 10 7 11 14 12 8 13
REMARK SMILES IDX 9 14 10 15
REMARK H PARENT
REMARK Flexibility Score: inf
ROOT
ATOM      1  C   UNL     1     109.938 113.013 106.003  1.00  0.00     0.039 C 
ATOM      2  C   UNL     1     110.097 112.010 107.105  1.00  0.00    -0.073 C 
ATOM      3  C   UNL     1     109.359 110.867 107.155  1.00  0.00    -0.027 C 
ATOM      4  C   UNL     1     109.564 109.907 108.330  1.00  0.00     0.031 C 
ATOM      5  C   UNL     1     110.593 110.500 109.346  1.00  0.00     0.003 C 
ATOM      6  C   UNL     1     110.233 111.986 109.562  1.00  0.00     0.004 C 
ATOM      7  C   UNL     1     111.046 112.279 108.280  1.00  0.00     0.024 C 
ATOM      8  C   UNL     1     111.861 111.010 108.625  1.00  0.00    -0.022 C 
ATOM      9  C   UNL     1     112.949 111.321 109.690  1.00  0.00     0.008 C 
ATOM     10  C   UNL     1     112.480 112.339 110.767  1.00  0.00     0.005 C 
ATOM     11  C   UNL     1     110.927 112.561 110.830  1.00  0.00    -0.005 C 
ATOM     12  C   UNL     1     112.434 110.151 107.470  1.00  0.00     0.012 C 
ENDROOT
BRANCH  11  13
ATOM     13  C   UNL     1     110.318 112.022 112.167  1.00  0.00    -0.014 C 
ATOM     14  C   UNL     1     111.421 111.817 113.221  1.00  0.00     0.007 C 
ATOM     15  C   UNL     1     109.246 112.948 112.767  1.00  0.00     0.007 C 
ENDBRANCH  11  13
TORSDOF 1
ENDMDL
MODEL 9
REMARK VINA RESULT:    -6.518      2.120      5.400
REMARK INTER + INTRA:          -7.173
REMARK INTER:                  -6.884
REMARK INTRA:                  -0.288
REMARK UNBOUND:                -0.273
REMARK SMILES CC1=CC[C@@H]2[C@H]3[C@@H](C(C)C)CC[C@]2(C)[C@@H]13
REMARK SMILES IDX 1 1 2 2 3 3 4 4 5 5 6 6 15 7 13 8 12 9 11 10 7 11 14 12 8 13
REMARK SMILES IDX 9 14 10 15
REMARK H PARENT
REMARK Flexibility Score: inf
ROOT
ATOM      1  C   UNL     1     112.866 109.598 108.387  1.00  0.00     0.039 C 
ATOM      2  C   UNL     1     112.450 110.630 109.393  1.00  0.00    -0.073 C 
ATOM      3  C   UNL     1     113.026 111.862 109.444  1.00  0.00    -0.027 C 
ATOM      4  C   UNL     1     112.563 112.848 110.519  1.00  0.00     0.031 C 
ATOM      5  C   UNL     1     111.502 112.180 111.452  1.00  0.00     0.003 C 
ATOM      6  C   UNL     1     112.018 110.770 111.810  1.00  0.00     0.004 C 
ATOM      7  C   UNL     1     111.409 110.300 110.470  1.00  0.00     0.024 C 
ATOM      8  C   UNL     1     110.404 111.467 110.631  1.00  0.00    -0.022 C 
ATOM      9  C   UNL     1     109.244 111.071 111.586  1.00  0.00     0.008 C 
ATOM     10  C   UNL     1     109.705 110.186 112.779  1.00  0.00     0.005 C 
ATOM     11  C   UNL     1     111.255 110.177 113.031  1.00  0.00    -0.005 C 
ATOM     12  C   UNL     1     109.870 112.177 109.363  1.00  0.00     0.012 C 
ENDROOT
BRANCH  11  13
ATOM     13  C   UNL     1     111.626 110.865 114.386  1.00  0.00    -0.014 C 
ATOM     14  C   UNL     1     110.354 111.272 115.152  1.00  0.00     0.007 C 
ATOM     15  C   UNL     1     112.479 109.977 115.308  1.00  0.00     0.007 C 
ENDBRANCH  11  13
TORSDOF 1
ENDMDL
