MODEL 1
REMARK VINA RESULT:    -4.370      0.000      0.000
REMARK INTER + INTRA:          -4.498
REMARK INTER:                  -4.498
REMARK INTRA:                   0.000
REMARK UNBOUND:                 0.000
REMARK SMILES Nc1ncnc2nc[nH]c12
REMARK SMILES IDX 8 1 7 2 6 3 5 4 4 5 3 6 2 7 10 8 9 9 1 11
REMARK H PARENT 9 10 1 12 1 13
REMARK Flexibility Score: inf
ROOT
ATOM      1  C   UNL     1       3.947 -18.812  13.625  1.00  0.00     0.199 A 
ATOM      2  N   UNL     1       3.157 -19.891  13.365  1.00  0.00    -0.217 NA
ATOM      3  C   UNL     1       2.492 -19.499  12.266  1.00  0.00     0.182 A 
ATOM      4  N   UNL     1       1.564 -20.214  11.585  1.00  0.00    -0.215 NA
ATOM      5  C   UNL     1       0.992 -19.643  10.482  1.00  0.00     0.226 A 
ATOM      6  N   UNL     1       1.355 -18.381  10.083  1.00  0.00    -0.217 NA
ATOM      7  C   UNL     1       2.291 -17.659  10.769  1.00  0.00     0.152 A 
ATOM      8  C   UNL     1       2.864 -18.254  11.889  1.00  0.00     0.127 A 
ATOM      9  N   UNL     1       3.791 -17.796  12.741  1.00  0.00    -0.340 N 
ATOM     10  H   UNL     1       4.283 -16.875  12.736  1.00  0.00     0.168 HD
ENDROOT
BRANCH   7  11
ATOM     11  N   UNL     1       2.653 -16.348  10.335  1.00  0.00    -0.382 N 
ATOM     12  H   UNL     1       2.864 -15.588  11.018  1.00  0.00     0.158 HD
ATOM     13  H   UNL     1       2.710 -16.133   9.314  1.00  0.00     0.158 HD
ENDBRANCH   7  11
TORSDOF 1
ENDMDL
MODEL 2
REMARK VINA RESULT:    -4.349     22.005     22.545
REMARK INTER + INTRA:          -4.476
REMARK INTER:                  -4.476
REMARK INTRA:                   0.000
REMARK UNBOUND:                 0.000
REMARK SMILES Nc1ncnc2nc[nH]c12
REMARK SMILES IDX 8 1 7 2 6 3 5 4 4 5 3 6 2 7 10 8 9 9 1 11
REMARK H PARENT 9 10 1 12 1 13
REMARK Flexibility Score: inf
ROOT
ATOM      1  C   UNL     1     -13.709 -19.263  26.393  1.00  0.00     0.199 A 
ATOM      2  N   UNL     1     -12.970 -19.479  27.516  1.00  0.00    -0.217 NA
ATOM      3  C   UNL     1     -12.809 -18.236  27.996  1.00  0.00     0.182 A 
ATOM      4  N   UNL     1     -12.136 -17.884  29.118  1.00  0.00    -0.215 NA
ATOM      5  C   UNL     1     -12.080 -16.557  29.447  1.00  0.00     0.226 A 
ATOM      6  N   UNL     1     -12.691 -15.617  28.655  1.00  0.00    -0.217 NA
ATOM      7  C   UNL     1     -13.370 -15.971  27.523  1.00  0.00     0.152 A 
ATOM      8  C   UNL     1     -13.418 -17.324  27.203  1.00  0.00     0.127 A 
ATOM      9  N   UNL     1     -13.999 -17.956  26.175  1.00  0.00    -0.340 N 
ATOM     10  H   UNL     1     -14.547 -17.549  25.385  1.00  0.00     0.168 HD
ENDROOT
BRANCH   7  11
ATOM     11  N   UNL     1     -13.998 -14.975  26.716  1.00  0.00    -0.382 N 
ATOM     12  H   UNL     1     -14.461 -14.142  27.142  1.00  0.00     0.158 HD
ATOM     13  H   UNL     1     -14.000 -15.070  25.676  1.00  0.00     0.158 HD
ENDBRANCH   7  11
TORSDOF 1
ENDMDL
MODEL 3
REMARK VINA RESULT:    -4.320     22.013     22.518
REMARK INTER + INTRA:          -4.446
REMARK INTER:                  -4.446
REMARK INTRA:                   0.000
REMARK UNBOUND:                 0.000
REMARK SMILES Nc1ncnc2nc[nH]c12
REMARK SMILES IDX 8 1 7 2 6 3 5 4 4 5 3 6 2 7 10 8 9 9 1 11
REMARK H PARENT 9 10 1 12 1 13
REMARK Flexibility Score: inf
ROOT
ATOM      1  C   UNL     1     -13.431 -15.515  27.651  1.00  0.00     0.199 A 
ATOM      2  N   UNL     1     -13.715 -16.273  28.746  1.00  0.00    -0.217 NA
ATOM      3  C   UNL     1     -13.694 -17.518  28.244  1.00  0.00     0.182 A 
ATOM      4  N   UNL     1     -13.918 -18.668  28.926  1.00  0.00    -0.215 NA
ATOM      5  C   UNL     1     -13.853 -19.849  28.238  1.00  0.00     0.226 A 
ATOM      6  N   UNL     1     -13.570 -19.857  26.895  1.00  0.00    -0.217 NA
ATOM      7  C   UNL     1     -13.345 -18.699  26.206  1.00  0.00     0.152 A 
ATOM      8  C   UNL     1     -13.414 -17.506  26.921  1.00  0.00     0.127 A 
ATOM      9  N   UNL     1     -13.241 -16.240  26.520  1.00  0.00    -0.340 N 
ATOM     10  H   UNL     1     -13.015 -15.883  25.566  1.00  0.00     0.168 HD
ENDROOT
BRANCH   7  11
ATOM     11  N   UNL     1     -13.052 -18.733  24.809  1.00  0.00    -0.382 N 
ATOM     12  H   UNL     1     -12.165 -18.335  24.430  1.00  0.00     0.158 HD
ATOM     13  H   UNL     1     -13.731 -19.164  24.144  1.00  0.00     0.158 HD
ENDBRANCH   7  11
TORSDOF 1
ENDMDL
MODEL 4
REMARK VINA RESULT:    -4.256      0.571      2.828
REMARK INTER + INTRA:          -4.380
REMARK INTER:                  -4.380
REMARK INTRA:                   0.000
REMARK UNBOUND:                 0.000
REMARK SMILES Nc1ncnc2nc[nH]c12
REMARK SMILES IDX 8 1 7 2 6 3 5 4 4 5 3 6 2 7 10 8 9 9 1 11
REMARK H PARENT 9 10 1 12 1 13
REMARK Flexibility Score: inf
ROOT
ATOM      1  C   UNL     1       1.007 -19.986  10.535  1.00  0.00     0.199 A 
ATOM      2  N   UNL     1       1.479 -20.605  11.653  1.00  0.00    -0.217 NA
ATOM      3  C   UNL     1       2.342 -19.698  12.138  1.00  0.00     0.182 A 
ATOM      4  N   UNL     1       3.095 -19.818  13.259  1.00  0.00    -0.215 NA
ATOM      5  C   UNL     1       3.922 -18.782  13.595  1.00  0.00     0.226 A 
ATOM      6  N   UNL     1       3.979 -17.656  12.812  1.00  0.00    -0.217 NA
ATOM      7  C   UNL     1       3.220 -17.533  11.682  1.00  0.00     0.152 A 
ATOM      8  C   UNL     1       2.385 -18.597  11.354  1.00  0.00     0.127 A 
ATOM      9  N   UNL     1       1.542 -18.757  10.326  1.00  0.00    -0.340 N 
ATOM     10  H   UNL     1       1.337 -18.099   9.542  1.00  0.00     0.168 HD
ENDROOT
BRANCH   7  11
ATOM     11  N   UNL     1       3.298 -16.351  10.884  1.00  0.00    -0.382 N 
ATOM     12  H   UNL     1       4.184 -16.074  10.410  1.00  0.00     0.158 HD
ATOM     13  H   UNL     1       2.456 -15.745  10.766  1.00  0.00     0.158 HD
ENDBRANCH   7  11
TORSDOF 1
ENDMDL
MODEL 5
REMARK VINA RESULT:    -4.225     22.221     22.764
REMARK INTER + INTRA:          -4.348
REMARK INTER:                  -4.348
REMARK INTRA:                   0.000
REMARK UNBOUND:                 0.000
REMARK SMILES Nc1ncnc2nc[nH]c12
REMARK SMILES IDX 8 1 7 2 6 3 5 4 4 5 3 6 2 7 10 8 9 9 1 11
REMARK H PARENT 9 10 1 12 1 13
REMARK Flexibility Score: inf
ROOT
ATOM      1  C   UNL     1     -13.825 -19.496  26.641  1.00  0.00     0.199 A 
ATOM      2  N   UNL     1     -14.119 -18.203  26.328  1.00  0.00    -0.217 NA
ATOM      3  C   UNL     1     -13.478 -17.523  27.292  1.00  0.00     0.182 A 
ATOM      4  N   UNL     1     -13.445 -16.177  27.445  1.00  0.00    -0.215 NA
ATOM      5  C   UNL     1     -12.734 -15.665  28.496  1.00  0.00     0.226 A 
ATOM      6  N   UNL     1     -12.075 -16.500  29.363  1.00  0.00    -0.217 NA
ATOM      7  C   UNL     1     -12.107 -17.857  29.209  1.00  0.00     0.152 A 
ATOM      8  C   UNL     1     -12.836 -18.362  28.136  1.00  0.00     0.127 A 
ATOM      9  N   UNL     1     -13.042 -19.625  27.741  1.00  0.00    -0.340 N 
ATOM     10  H   UNL     1     -12.690 -20.509  28.171  1.00  0.00     0.168 HD
ENDROOT
BRANCH   7  11
ATOM     11  N   UNL     1     -11.414 -18.706  30.125  1.00  0.00    -0.382 N 
ATOM     12  H   UNL     1     -11.843 -19.588  30.479  1.00  0.00     0.158 HD
ATOM     13  H   UNL     1     -10.457 -18.448  30.454  1.00  0.00     0.158 HD
ENDBRANCH   7  11
TORSDOF 1
ENDMDL
MODEL 6
REMARK VINA RESULT:    -4.197      0.947      3.422
REMARK INTER + INTRA:          -4.320
REMARK INTER:                  -4.320
REMARK INTRA:                   0.000
REMARK UNBOUND:                 0.000
REMARK SMILES Nc1ncnc2nc[nH]c12
REMARK SMILES IDX 8 1 7 2 6 3 5 4 4 5 3 6 2 7 10 8 9 9 1 11
REMARK H PARENT 9 10 1 12 1 13
REMARK Flexibility Score: inf
ROOT
ATOM      1  C   UNL     1       2.815 -16.519  10.278  1.00  0.00     0.199 A 
ATOM      2  N   UNL     1       3.682 -16.421  11.324  1.00  0.00    -0.217 NA
ATOM      3  C   UNL     1       3.467 -17.572  11.981  1.00  0.00     0.182 A 
ATOM      4  N   UNL     1       4.085 -17.982  13.116  1.00  0.00    -0.215 NA
ATOM      5  C   UNL     1       3.731 -19.194  13.641  1.00  0.00     0.226 A 
ATOM      6  N   UNL     1       2.775 -19.965  13.029  1.00  0.00    -0.217 NA
ATOM      7  C   UNL     1       2.152 -19.554  11.885  1.00  0.00     0.152 A 
ATOM      8  C   UNL     1       2.523 -18.318  11.363  1.00  0.00     0.127 A 
ATOM      9  N   UNL     1       2.093 -17.668  10.274  1.00  0.00    -0.340 N 
ATOM     10  H   UNL     1       1.372 -17.964   9.580  1.00  0.00     0.168 HD
ENDROOT
BRANCH   7  11
ATOM     11  N   UNL     1       1.161 -20.375  11.266  1.00  0.00    -0.382 N 
ATOM     12  H   UNL     1       1.365 -20.910  10.394  1.00  0.00     0.158 HD
ATOM     13  H   UNL     1       0.207 -20.449  11.687  1.00  0.00     0.158 HD
ENDBRANCH   7  11
TORSDOF 1
ENDMDL
MODEL 7
REMARK VINA RESULT:    -4.120      1.206      2.976
REMARK INTER + INTRA:          -4.240
REMARK INTER:                  -4.240
REMARK INTRA:                   0.000
REMARK UNBOUND:                 0.000
REMARK SMILES Nc1ncnc2nc[nH]c12
REMARK SMILES IDX 8 1 7 2 6 3 5 4 4 5 3 6 2 7 10 8 9 9 1 11
REMARK H PARENT 9 10 1 12 1 13
REMARK Flexibility Score: inf
ROOT
ATOM      1  C   UNL     1       3.729 -15.832  11.262  1.00  0.00     0.199 A 
ATOM      2  N   UNL     1       2.718 -16.393  10.543  1.00  0.00    -0.217 NA
ATOM      3  C   UNL     1       2.587 -17.596  11.124  1.00  0.00     0.182 A 
ATOM      4  N   UNL     1       1.704 -18.566  10.784  1.00  0.00    -0.215 NA
ATOM      5  C   UNL     1       1.721 -19.733  11.498  1.00  0.00     0.226 A 
ATOM      6  N   UNL     1       2.611 -19.906  12.528  1.00  0.00    -0.217 NA
ATOM      7  C   UNL     1       3.502 -18.928  12.872  1.00  0.00     0.152 A 
ATOM      8  C   UNL     1       3.472 -17.748  12.136  1.00  0.00     0.127 A 
ATOM      9  N   UNL     1       4.211 -16.635  12.243  1.00  0.00    -0.340 N 
ATOM     10  H   UNL     1       4.979 -16.425  12.917  1.00  0.00     0.168 HD
ENDROOT
BRANCH   7  11
ATOM     11  N   UNL     1       4.418 -19.132  13.948  1.00  0.00    -0.382 N 
ATOM     12  H   UNL     1       4.899 -18.329  14.412  1.00  0.00     0.158 HD
ATOM     13  H   UNL     1       4.620 -20.099  14.287  1.00  0.00     0.158 HD
ENDBRANCH   7  11
TORSDOF 1
ENDMDL
MODEL 8
REMARK VINA RESULT:    -3.934      0.813      3.526
REMARK INTER + INTRA:          -4.049
REMARK INTER:                  -4.049
REMARK INTRA:                   0.000
REMARK UNBOUND:                 0.000
REMARK SMILES Nc1ncnc2nc[nH]c12
REMARK SMILES IDX 8 1 7 2 6 3 5 4 4 5 3 6 2 7 10 8 9 9 1 11
REMARK H PARENT 9 10 1 12 1 13
REMARK Flexibility Score: inf
ROOT
ATOM      1  C   UNL     1       0.886 -20.028  10.478  1.00  0.00     0.199 A 
ATOM      2  N   UNL     1       1.055 -18.818   9.876  1.00  0.00    -0.217 NA
ATOM      3  C   UNL     1       1.991 -18.243  10.648  1.00  0.00     0.182 A 
ATOM      4  N   UNL     1       2.528 -17.010  10.484  1.00  0.00    -0.215 NA
ATOM      5  C   UNL     1       3.476 -16.595  11.379  1.00  0.00     0.226 A 
ATOM      6  N   UNL     1       3.866 -17.413  12.409  1.00  0.00    -0.217 NA
ATOM      7  C   UNL     1       3.326 -18.657  12.575  1.00  0.00     0.152 A 
ATOM      8  C   UNL     1       2.363 -19.064  11.657  1.00  0.00     0.127 A 
ATOM      9  N   UNL     1       1.672 -20.208  11.569  1.00  0.00    -0.340 N 
ATOM     10  H   UNL     1       1.718 -21.047  12.189  1.00  0.00     0.168 HD
ENDROOT
BRANCH   7  11
ATOM     11  N   UNL     1       3.749 -19.490  13.655  1.00  0.00    -0.382 N 
ATOM     12  H   UNL     1       4.526 -19.204  14.290  1.00  0.00     0.158 HD
ATOM     13  H   UNL     1       3.277 -20.407  13.823  1.00  0.00     0.158 HD
ENDBRANCH   7  11
TORSDOF 1
ENDMDL
MODEL 9
REMARK VINA RESULT:    -3.659      1.374      2.071
REMARK INTER + INTRA:          -3.766
REMARK INTER:                  -3.766
REMARK INTRA:                   0.000
REMARK UNBOUND:                 0.000
REMARK SMILES Nc1ncnc2nc[nH]c12
REMARK SMILES IDX 8 1 7 2 6 3 5 4 4 5 3 6 2 7 10 8 9 9 1 11
REMARK H PARENT 9 10 1 12 1 13
REMARK Flexibility Score: inf
ROOT
ATOM      1  C   UNL     1       3.552 -19.124  13.924  1.00  0.00     0.199 A 
ATOM      2  N   UNL     1       2.754 -19.497  12.885  1.00  0.00    -0.217 NA
ATOM      3  C   UNL     1       2.903 -18.472  12.030  1.00  0.00     0.182 A 
ATOM      4  N   UNL     1       2.314 -18.342  10.816  1.00  0.00    -0.215 NA
ATOM      5  C   UNL     1       2.589 -17.220  10.084  1.00  0.00     0.226 A 
ATOM      6  N   UNL     1       3.439 -16.260  10.573  1.00  0.00    -0.217 NA
ATOM      7  C   UNL     1       4.034 -16.391  11.796  1.00  0.00     0.152 A 
ATOM      8  C   UNL     1       3.744 -17.538  12.529  1.00  0.00     0.127 A 
ATOM      9  N   UNL     1       4.171 -17.932  13.736  1.00  0.00    -0.340 N 
ATOM     10  H   UNL     1       4.824 -17.444  14.388  1.00  0.00     0.168 HD
ENDROOT
BRANCH   7  11
ATOM     11  N   UNL     1       4.915 -15.379  12.284  1.00  0.00    -0.382 N 
ATOM     12  H   UNL     1       4.556 -14.555  12.815  1.00  0.00     0.158 HD
ATOM     13  H   UNL     1       5.942 -15.453  12.111  1.00  0.00     0.158 HD
ENDBRANCH   7  11
TORSDOF 1
ENDMDL
