MODEL 1
REMARK VINA RESULT:    -5.360      0.000      0.000
REMARK INTER + INTRA:          -9.526
REMARK INTER:                  -8.181
REMARK INTRA:                  -1.346
REMARK UNBOUND:                -1.346
REMARK SMILES CC(=O)CCC=C(C)CCC=C(C)CCC=C(C)C
REMARK SMILES IDX 10 1 11 2 12 3 13 4 14 5 15 6 16 7 18 8 17 9 19 10 9 11 7 12
REMARK SMILES IDX 6 13 8 14 5 15 4 16 2 17 3 18 1 19
REMARK H PARENT
REMARK Flexibility Score: inf
ROOT
ATOM      1  C   UNL     1      37.478  43.051 145.272  1.00  0.00     0.032 C 
ENDROOT
BRANCH   1   2
ATOM      2  C   UNL     1      38.691  43.774 144.745  1.00  0.00    -0.028 C 
ATOM      3  C   UNL     1      39.942  43.260 144.731  1.00  0.00    -0.077 C 
ATOM      4  C   UNL     1      40.249  41.891 145.295  1.00  0.00     0.039 C 
BRANCH   3   5
ATOM      5  C   UNL     1      41.074  44.094 144.171  1.00  0.00     0.034 C 
BRANCH   5   6
ATOM      6  C   UNL     1      40.957  44.264 142.652  1.00  0.00     0.032 C 
BRANCH   6   7
ATOM      7  C   UNL     1      41.380  43.005 141.930  1.00  0.00    -0.028 C 
ATOM      8  C   UNL     1      39.046  42.378 141.265  1.00  0.00     0.039 C 
ATOM      9  C   UNL     1      40.541  42.166 141.283  1.00  0.00    -0.080 C 
ATOM     10  C   UNL     1      41.130  40.984 140.557  1.00  0.00     0.039 C 
ENDBRANCH   6   7
ENDBRANCH   5   6
ENDBRANCH   3   5
ENDBRANCH   1   2
BRANCH   1  11
ATOM     11  C   UNL     1      37.254  43.369 146.755  1.00  0.00     0.034 C 
BRANCH  11  12
ATOM     12  C   UNL     1      36.436  42.285 147.422  1.00  0.00    -0.077 C 
ATOM     13  C   UNL     1      35.321  42.633 148.105  1.00  0.00    -0.028 C 
ATOM     14  C   UNL     1      36.879  40.846 147.298  1.00  0.00     0.039 C 
BRANCH  13  15
ATOM     15  C   UNL     1      34.435  41.665 148.852  1.00  0.00     0.035 C 
BRANCH  15  16
ATOM     16  C   UNL     1      33.218  41.246 148.017  1.00  0.00     0.079 C 
BRANCH  16  17
ATOM     17  C   UNL     1      31.981  41.114 148.867  1.00  0.00     0.130 C 
ATOM     18  O   UNL     1      30.878  41.195 148.346  1.00  0.00    -0.300 OA
ATOM     19  C   UNL     1      32.079  40.844 150.338  1.00  0.00     0.087 C 
ENDBRANCH  16  17
ENDBRANCH  15  16
ENDBRANCH  13  15
ENDBRANCH  11  12
ENDBRANCH   1  11
TORSDOF 9
ENDMDL
MODEL 2
REMARK VINA RESULT:    -5.247      1.351      2.864
REMARK INTER + INTRA:          -9.353
REMARK INTER:                  -8.344
REMARK INTRA:                  -1.009
REMARK UNBOUND:                -1.346
REMARK SMILES CC(=O)CCC=C(C)CCC=C(C)CCC=C(C)C
REMARK SMILES IDX 10 1 11 2 12 3 13 4 14 5 15 6 16 7 18 8 17 9 19 10 9 11 7 12
REMARK SMILES IDX 6 13 8 14 5 15 4 16 2 17 3 18 1 19
REMARK H PARENT
REMARK Flexibility Score: inf
ROOT
ATOM      1  C   UNL     1      36.474  42.086 148.035  1.00  0.00     0.032 C 
ENDROOT
BRANCH   1   2
ATOM      2  C   UNL     1      37.242  43.022 147.138  1.00  0.00    -0.028 C 
ATOM      3  C   UNL     1      37.093  43.088 145.795  1.00  0.00    -0.077 C 
ATOM      4  C   UNL     1      36.146  42.175 145.050  1.00  0.00     0.039 C 
BRANCH   3   5
ATOM      5  C   UNL     1      37.928  44.077 145.010  1.00  0.00     0.034 C 
BRANCH   5   6
ATOM      6  C   UNL     1      39.321  43.521 144.694  1.00  0.00     0.032 C 
BRANCH   6   7
ATOM      7  C   UNL     1      39.327  42.790 143.371  1.00  0.00    -0.028 C 
ATOM      8  C   UNL     1      41.301  44.046 142.471  1.00  0.00     0.039 C 
ATOM      9  C   UNL     1      40.221  42.994 142.378  1.00  0.00    -0.080 C 
ATOM     10  C   UNL     1      40.128  42.136 141.143  1.00  0.00     0.039 C 
ENDBRANCH   6   7
ENDBRANCH   5   6
ENDBRANCH   3   5
ENDBRANCH   1   2
BRANCH   1  11
ATOM     11  C   UNL     1      35.066  42.625 148.310  1.00  0.00     0.034 C 
BRANCH  11  12
ATOM     12  C   UNL     1      34.178  41.544 148.888  1.00  0.00    -0.077 C 
ATOM     13  C   UNL     1      32.951  41.883 149.349  1.00  0.00    -0.028 C 
ATOM     14  C   UNL     1      34.678  40.120 148.924  1.00  0.00     0.039 C 
BRANCH  13  15
ATOM     15  C   UNL     1      31.979  40.920 149.987  1.00  0.00     0.035 C 
BRANCH  15  16
ATOM     16  C   UNL     1      30.772  40.645 149.081  1.00  0.00     0.079 C 
BRANCH  16  17
ATOM     17  C   UNL     1      31.003  39.449 148.195  1.00  0.00     0.130 C 
ATOM     18  O   UNL     1      30.694  38.335 148.590  1.00  0.00    -0.300 OA
ATOM     19  C   UNL     1      31.568  39.607 146.816  1.00  0.00     0.087 C 
ENDBRANCH  16  17
ENDBRANCH  15  16
ENDBRANCH  13  15
ENDBRANCH  11  12
ENDBRANCH   1  11
TORSDOF 9
ENDMDL
MODEL 3
REMARK VINA RESULT:    -5.219      3.069      8.698
REMARK INTER + INTRA:          -9.310
REMARK INTER:                  -7.993
REMARK INTRA:                  -1.317
REMARK UNBOUND:                -1.346
REMARK SMILES CC(=O)CCC=C(C)CCC=C(C)CCC=C(C)C
REMARK SMILES IDX 10 1 11 2 12 3 13 4 14 5 15 6 16 7 18 8 17 9 19 10 9 11 7 12
REMARK SMILES IDX 6 13 8 14 5 15 4 16 2 17 3 18 1 19
REMARK H PARENT
REMARK Flexibility Score: inf
ROOT
ATOM      1  C   UNL     1      35.689  42.256 147.818  1.00  0.00     0.032 C 
ENDROOT
BRANCH   1   2
ATOM      2  C   UNL     1      34.380  42.336 148.561  1.00  0.00    -0.028 C 
ATOM      3  C   UNL     1      33.906  41.371 149.382  1.00  0.00    -0.077 C 
ATOM      4  C   UNL     1      34.649  40.073 149.601  1.00  0.00     0.039 C 
BRANCH   3   5
ATOM      5  C   UNL     1      32.573  41.579 150.069  1.00  0.00     0.034 C 
BRANCH   5   6
ATOM      6  C   UNL     1      31.500  40.626 149.528  1.00  0.00     0.032 C 
BRANCH   6   7
ATOM      7  C   UNL     1      31.063  41.032 148.140  1.00  0.00    -0.028 C 
ATOM      8  C   UNL     1      32.159  39.078 147.018  1.00  0.00     0.039 C 
ATOM      9  C   UNL     1      31.327  40.337 147.011  1.00  0.00    -0.080 C 
ATOM     10  C   UNL     1      30.764  40.845 145.709  1.00  0.00     0.039 C 
ENDBRANCH   6   7
ENDBRANCH   5   6
ENDBRANCH   3   5
ENDBRANCH   1   2
BRANCH   1  11
ATOM     11  C   UNL     1      35.488  41.663 146.419  1.00  0.00     0.034 C 
BRANCH  11  12
ATOM     12  C   UNL     1      36.291  42.427 145.389  1.00  0.00    -0.077 C 
ATOM     13  C   UNL     1      37.451  43.012 145.767  1.00  0.00    -0.028 C 
ATOM     14  C   UNL     1      35.782  42.507 143.969  1.00  0.00     0.039 C 
BRANCH  13  15
ATOM     15  C   UNL     1      38.331  43.838 144.859  1.00  0.00     0.035 C 
BRANCH  15  16
ATOM     16  C   UNL     1      39.424  42.988 144.198  1.00  0.00     0.079 C 
BRANCH  16  17
ATOM     17  C   UNL     1      40.666  43.797 143.924  1.00  0.00     0.130 C 
ATOM     18  O   UNL     1      41.445  44.036 144.833  1.00  0.00    -0.300 OA
ATOM     19  C   UNL     1      40.983  44.279 142.541  1.00  0.00     0.087 C 
ENDBRANCH  16  17
ENDBRANCH  15  16
ENDBRANCH  13  15
ENDBRANCH  11  12
ENDBRANCH   1  11
TORSDOF 9
ENDMDL
MODEL 4
REMARK VINA RESULT:    -5.167      4.401      6.565
REMARK INTER + INTRA:          -9.231
REMARK INTER:                  -6.987
REMARK INTRA:                  -2.244
REMARK UNBOUND:                -1.346
REMARK SMILES CC(=O)CCC=C(C)CCC=C(C)CCC=C(C)C
REMARK SMILES IDX 10 1 11 2 12 3 13 4 14 5 15 6 16 7 18 8 17 9 19 10 9 11 7 12
REMARK SMILES IDX 6 13 8 14 5 15 4 16 2 17 3 18 1 19
REMARK H PARENT
REMARK Flexibility Score: inf
ROOT
ATOM      1  C   UNL     1      32.097  40.907 149.837  1.00  0.00     0.032 C 
ENDROOT
BRANCH   1   2
ATOM      2  C   UNL     1      33.070  41.894 149.244  1.00  0.00    -0.028 C 
ATOM      3  C   UNL     1      34.343  41.598 148.896  1.00  0.00    -0.077 C 
ATOM      4  C   UNL     1      34.932  40.223 149.113  1.00  0.00     0.039 C 
BRANCH   3   5
ATOM      5  C   UNL     1      35.217  42.686 148.308  1.00  0.00     0.034 C 
BRANCH   5   6
ATOM      6  C   UNL     1      36.077  42.161 147.152  1.00  0.00     0.032 C 
BRANCH   6   7
ATOM      7  C   UNL     1      35.451  42.492 145.816  1.00  0.00    -0.028 C 
ATOM      8  C   UNL     1      34.608  40.165 145.423  1.00  0.00     0.039 C 
ATOM      9  C   UNL     1      34.768  41.617 145.044  1.00  0.00    -0.080 C 
ATOM     10  C   UNL     1      34.149  42.122 143.767  1.00  0.00     0.039 C 
ENDBRANCH   6   7
ENDBRANCH   5   6
ENDBRANCH   3   5
ENDBRANCH   1   2
BRANCH   1  11
ATOM     11  C   UNL     1      30.813  40.838 149.002  1.00  0.00     0.034 C 
BRANCH  11  12
ATOM     12  C   UNL     1      31.096  40.290 147.621  1.00  0.00    -0.077 C 
ATOM     13  C   UNL     1      30.802  41.052 146.542  1.00  0.00    -0.028 C 
ATOM     14  C   UNL     1      31.707  38.915 147.484  1.00  0.00     0.039 C 
BRANCH  13  15
ATOM     15  C   UNL     1      30.991  40.618 145.108  1.00  0.00     0.035 C 
BRANCH  15  16
ATOM     16  C   UNL     1      29.793  41.008 144.233  1.00  0.00     0.079 C 
BRANCH  16  17
ATOM     17  C   UNL     1      29.831  42.466 143.857  1.00  0.00     0.130 C 
ATOM     18  O   UNL     1      30.715  42.879 143.122  1.00  0.00    -0.300 OA
ATOM     19  C   UNL     1      28.774  43.415 144.336  1.00  0.00     0.087 C 
ENDBRANCH  16  17
ENDBRANCH  15  16
ENDBRANCH  13  15
ENDBRANCH  11  12
ENDBRANCH   1  11
TORSDOF 9
ENDMDL
MODEL 5
REMARK VINA RESULT:    -5.151      4.661      8.432
REMARK INTER + INTRA:          -9.207
REMARK INTER:                  -8.013
REMARK INTRA:                  -1.194
REMARK UNBOUND:                -1.346
REMARK SMILES CC(=O)CCC=C(C)CCC=C(C)CCC=C(C)C
REMARK SMILES IDX 10 1 11 2 12 3 13 4 14 5 15 6 16 7 18 8 17 9 19 10 9 11 7 12
REMARK SMILES IDX 6 13 8 14 5 15 4 16 2 17 3 18 1 19
REMARK H PARENT
REMARK Flexibility Score: inf
ROOT
ATOM      1  C   UNL     1      35.011  41.556 144.497  1.00  0.00     0.032 C 
ENDROOT
BRANCH   1   2
ATOM      2  C   UNL     1      33.844  42.211 143.803  1.00  0.00    -0.028 C 
ATOM      3  C   UNL     1      33.822  42.541 142.491  1.00  0.00    -0.077 C 
ATOM      4  C   UNL     1      35.013  42.312 141.589  1.00  0.00     0.039 C 
BRANCH   3   5
ATOM      5  C   UNL     1      32.582  43.194 141.918  1.00  0.00     0.034 C 
BRANCH   5   6
ATOM      6  C   UNL     1      31.374  42.250 141.954  1.00  0.00     0.032 C 
BRANCH   6   7
ATOM      7  C   UNL     1      30.175  42.927 142.577  1.00  0.00    -0.028 C 
ATOM      8  C   UNL     1      30.229  41.527 144.655  1.00  0.00     0.039 C 
ATOM      9  C   UNL     1      29.667  42.633 143.795  1.00  0.00    -0.080 C 
ATOM     10  C   UNL     1      28.504  43.445 144.300  1.00  0.00     0.039 C 
ENDBRANCH   6   7
ENDBRANCH   5   6
ENDBRANCH   3   5
ENDBRANCH   1   2
BRANCH   1  11
ATOM     11  C   UNL     1      35.266  42.202 145.863  1.00  0.00     0.034 C 
BRANCH  11  12
ATOM     12  C   UNL     1      36.661  42.785 145.933  1.00  0.00    -0.077 C 
ATOM     13  C   UNL     1      37.223  43.271 144.803  1.00  0.00    -0.028 C 
ATOM     14  C   UNL     1      37.381  42.817 147.260  1.00  0.00     0.039 C 
BRANCH  13  15
ATOM     15  C   UNL     1      38.619  43.841 144.716  1.00  0.00     0.035 C 
BRANCH  15  16
ATOM     16  C   UNL     1      39.488  43.070 143.714  1.00  0.00     0.079 C 
BRANCH  16  17
ATOM     17  C   UNL     1      40.889  43.622 143.653  1.00  0.00     0.130 C 
ATOM     18  O   UNL     1      41.363  44.177 144.632  1.00  0.00    -0.300 OA
ATOM     19  C   UNL     1      41.728  43.465 142.421  1.00  0.00     0.087 C 
ENDBRANCH  16  17
ENDBRANCH  15  16
ENDBRANCH  13  15
ENDBRANCH  11  12
ENDBRANCH   1  11
TORSDOF 9
ENDMDL
MODEL 6
REMARK VINA RESULT:    -5.052      3.588      5.791
REMARK INTER + INTRA:          -9.056
REMARK INTER:                  -7.145
REMARK INTRA:                  -1.911
REMARK UNBOUND:                -1.346
REMARK SMILES CC(=O)CCC=C(C)CCC=C(C)CCC=C(C)C
REMARK SMILES IDX 10 1 11 2 12 3 13 4 14 5 15 6 16 7 18 8 17 9 19 10 9 11 7 12
REMARK SMILES IDX 6 13 8 14 5 15 4 16 2 17 3 18 1 19
REMARK H PARENT
REMARK Flexibility Score: inf
ROOT
ATOM      1  C   UNL     1      39.264  41.226 140.590  1.00  0.00     0.032 C 
ENDROOT
BRANCH   1   2
ATOM      2  C   UNL     1      39.608  42.511 141.299  1.00  0.00    -0.028 C 
ATOM      3  C   UNL     1      40.826  42.801 141.810  1.00  0.00    -0.077 C 
ATOM      4  C   UNL     1      41.973  41.818 141.747  1.00  0.00     0.039 C 
BRANCH   3   5
ATOM      5  C   UNL     1      41.038  44.132 142.499  1.00  0.00     0.034 C 
BRANCH   5   6
ATOM      6  C   UNL     1      40.835  44.025 144.015  1.00  0.00     0.032 C 
BRANCH   6   7
ATOM      7  C   UNL     1      39.368  44.082 144.372  1.00  0.00    -0.028 C 
ATOM      8  C   UNL     1      39.211  41.638 144.908  1.00  0.00     0.039 C 
ATOM      9  C   UNL     1      38.634  43.029 144.799  1.00  0.00    -0.080 C 
ATOM     10  C   UNL     1      37.195  43.266 145.176  1.00  0.00     0.039 C 
ENDBRANCH   6   7
ENDBRANCH   5   6
ENDBRANCH   3   5
ENDBRANCH   1   2
BRANCH   1  11
ATOM     11  C   UNL     1      37.829  41.265 140.053  1.00  0.00     0.034 C 
BRANCH  11  12
ATOM     12  C   UNL     1      36.830  41.321 141.188  1.00  0.00    -0.077 C 
ATOM     13  C   UNL     1      35.899  42.302 141.191  1.00  0.00    -0.028 C 
ATOM     14  C   UNL     1      36.893  40.277 142.278  1.00  0.00     0.039 C 
BRANCH  13  15
ATOM     15  C   UNL     1      34.870  42.504 142.278  1.00  0.00     0.035 C 
BRANCH  15  16
ATOM     16  C   UNL     1      33.469  42.740 141.699  1.00  0.00     0.079 C 
BRANCH  16  17
ATOM     17  C   UNL     1      32.954  41.523 140.976  1.00  0.00     0.130 C 
ATOM     18  O   UNL     1      32.693  40.510 141.606  1.00  0.00    -0.300 OA
ATOM     19  C   UNL     1      32.718  41.546 139.495  1.00  0.00     0.087 C 
ENDBRANCH  16  17
ENDBRANCH  15  16
ENDBRANCH  13  15
ENDBRANCH  11  12
ENDBRANCH   1  11
TORSDOF 9
ENDMDL
MODEL 7
REMARK VINA RESULT:    -5.037     12.473     16.270
REMARK INTER + INTRA:          -9.033
REMARK INTER:                  -6.957
REMARK INTRA:                  -2.076
REMARK UNBOUND:                -1.346
REMARK SMILES CC(=O)CCC=C(C)CCC=C(C)CCC=C(C)C
REMARK SMILES IDX 10 1 11 2 12 3 13 4 14 5 15 6 16 7 18 8 17 9 19 10 9 11 7 12
REMARK SMILES IDX 6 13 8 14 5 15 4 16 2 17 3 18 1 19
REMARK H PARENT
REMARK Flexibility Score: inf
ROOT
ATOM      1  C   UNL     1      34.350  33.707 131.195  1.00  0.00     0.032 C 
ENDROOT
BRANCH   1   2
ATOM      2  C   UNL     1      33.743  33.622 132.572  1.00  0.00    -0.028 C 
ATOM      3  C   UNL     1      33.685  34.653 133.447  1.00  0.00    -0.077 C 
ATOM      4  C   UNL     1      34.274  36.007 133.126  1.00  0.00     0.039 C 
BRANCH   3   5
ATOM      5  C   UNL     1      33.046  34.433 134.802  1.00  0.00     0.034 C 
BRANCH   5   6
ATOM      6  C   UNL     1      33.706  33.275 135.560  1.00  0.00     0.032 C 
BRANCH   6   7
ATOM      7  C   UNL     1      35.145  33.594 135.893  1.00  0.00    -0.028 C 
ATOM      8  C   UNL     1      34.675  34.089 138.304  1.00  0.00     0.039 C 
ATOM      9  C   UNL     1      35.599  33.934 137.120  1.00  0.00    -0.080 C 
ATOM     10  C   UNL     1      37.077  34.160 137.300  1.00  0.00     0.039 C 
ENDBRANCH   6   7
ENDBRANCH   5   6
ENDBRANCH   3   5
ENDBRANCH   1   2
BRANCH   1  11
ATOM     11  C   UNL     1      35.579  32.797 131.083  1.00  0.00     0.034 C 
BRANCH  11  12
ATOM     12  C   UNL     1      36.718  33.324 131.927  1.00  0.00    -0.077 C 
ATOM     13  C   UNL     1      37.158  32.581 132.969  1.00  0.00    -0.028 C 
ATOM     14  C   UNL     1      37.340  34.656 131.579  1.00  0.00     0.039 C 
BRANCH  13  15
ATOM     15  C   UNL     1      38.255  32.999 133.919  1.00  0.00     0.035 C 
BRANCH  15  16
ATOM     16  C   UNL     1      39.631  32.510 133.450  1.00  0.00     0.079 C 
BRANCH  16  17
ATOM     17  C   UNL     1      40.673  33.593 133.559  1.00  0.00     0.130 C 
ATOM     18  O   UNL     1      41.822  33.364 133.216  1.00  0.00    -0.300 OA
ATOM     19  C   UNL     1      40.312  34.965 134.043  1.00  0.00     0.087 C 
ENDBRANCH  16  17
ENDBRANCH  15  16
ENDBRANCH  13  15
ENDBRANCH  11  12
ENDBRANCH   1  11
TORSDOF 9
ENDMDL
MODEL 8
REMARK VINA RESULT:    -5.032      5.063      8.620
REMARK INTER + INTRA:          -9.025
REMARK INTER:                  -7.327
REMARK INTRA:                  -1.698
REMARK UNBOUND:                -1.346
REMARK SMILES CC(=O)CCC=C(C)CCC=C(C)CCC=C(C)C
REMARK SMILES IDX 10 1 11 2 12 3 13 4 14 5 15 6 16 7 18 8 17 9 19 10 9 11 7 12
REMARK SMILES IDX 6 13 8 14 5 15 4 16 2 17 3 18 1 19
REMARK H PARENT
REMARK Flexibility Score: inf
ROOT
ATOM      1  C   UNL     1      33.201  39.316 145.473  1.00  0.00     0.032 C 
ENDROOT
BRANCH   1   2
ATOM      2  C   UNL     1      33.482  39.773 146.881  1.00  0.00    -0.028 C 
ATOM      3  C   UNL     1      34.188  40.883 147.198  1.00  0.00    -0.077 C 
ATOM      4  C   UNL     1      34.808  41.765 146.139  1.00  0.00     0.039 C 
BRANCH   3   5
ATOM      5  C   UNL     1      34.397  41.231 148.657  1.00  0.00     0.034 C 
BRANCH   5   6
ATOM      6  C   UNL     1      33.201  41.995 149.236  1.00  0.00     0.032 C 
BRANCH   6   7
ATOM      7  C   UNL     1      32.268  41.064 149.976  1.00  0.00    -0.028 C 
ATOM      8  C   UNL     1      30.476  41.164 148.226  1.00  0.00     0.039 C 
ATOM      9  C   UNL     1      31.058  40.661 149.525  1.00  0.00    -0.080 C 
ATOM     10  C   UNL     1      30.276  39.677 150.356  1.00  0.00     0.039 C 
ENDBRANCH   6   7
ENDBRANCH   5   6
ENDBRANCH   3   5
ENDBRANCH   1   2
BRANCH   1  11
ATOM     11  C   UNL     1      31.715  39.474 145.134  1.00  0.00     0.034 C 
BRANCH  11  12
ATOM     12  C   UNL     1      31.479  40.721 144.311  1.00  0.00    -0.077 C 
ATOM     13  C   UNL     1      30.335  41.420 144.495  1.00  0.00    -0.028 C 
ATOM     14  C   UNL     1      32.529  41.158 143.317  1.00  0.00     0.039 C 
BRANCH  13  15
ATOM     15  C   UNL     1      29.949  42.656 143.717  1.00  0.00     0.035 C 
BRANCH  15  16
ATOM     16  C   UNL     1      28.508  42.576 143.199  1.00  0.00     0.079 C 
BRANCH  16  17
ATOM     17  C   UNL     1      27.617  43.585 143.876  1.00  0.00     0.130 C 
ATOM     18  O   UNL     1      28.095  44.370 144.681  1.00  0.00    -0.300 OA
ATOM     19  C   UNL     1      26.157  43.671 143.547  1.00  0.00     0.087 C 
ENDBRANCH  16  17
ENDBRANCH  15  16
ENDBRANCH  13  15
ENDBRANCH  11  12
ENDBRANCH   1  11
TORSDOF 9
ENDMDL
MODEL 9
REMARK VINA RESULT:    -5.004      6.214     10.274
REMARK INTER + INTRA:          -8.983
REMARK INTER:                  -7.450
REMARK INTRA:                  -1.533
REMARK UNBOUND:                -1.346
REMARK SMILES CC(=O)CCC=C(C)CCC=C(C)CCC=C(C)C
REMARK SMILES IDX 10 1 11 2 12 3 13 4 14 5 15 6 16 7 18 8 17 9 19 10 9 11 7 12
REMARK SMILES IDX 6 13 8 14 5 15 4 16 2 17 3 18 1 19
REMARK H PARENT
REMARK Flexibility Score: inf
ROOT
ATOM      1  C   UNL     1      30.955  42.193 142.129  1.00  0.00     0.032 C 
ENDROOT
BRANCH   1   2
ATOM      2  C   UNL     1      29.898  43.101 142.704  1.00  0.00    -0.028 C 
ATOM      3  C   UNL     1      29.374  42.975 143.945  1.00  0.00    -0.077 C 
ATOM      4  C   UNL     1      29.786  41.858 144.876  1.00  0.00     0.039 C 
BRANCH   3   5
ATOM      5  C   UNL     1      28.316  43.957 144.400  1.00  0.00     0.034 C 
BRANCH   5   6
ATOM      6  C   UNL     1      27.193  44.102 143.366  1.00  0.00     0.032 C 
BRANCH   6   7
ATOM      7  C   UNL     1      26.032  43.190 143.693  1.00  0.00    -0.028 C 
ATOM      8  C   UNL     1      26.658  41.469 141.982  1.00  0.00     0.039 C 
ATOM      9  C   UNL     1      25.795  41.998 143.102  1.00  0.00    -0.080 C 
ATOM     10  C   UNL     1      24.628  41.178 143.588  1.00  0.00     0.039 C 
ENDBRANCH   6   7
ENDBRANCH   5   6
ENDBRANCH   3   5
ENDBRANCH   1   2
BRANCH   1  11
ATOM     11  C   UNL     1      32.133  43.006 141.580  1.00  0.00     0.034 C 
BRANCH  11  12
ATOM     12  C   UNL     1      33.451  42.433 142.053  1.00  0.00    -0.077 C 
ATOM     13  C   UNL     1      33.594  42.116 143.361  1.00  0.00    -0.028 C 
ATOM     14  C   UNL     1      34.563  42.220 141.054  1.00  0.00     0.039 C 
BRANCH  13  15
ATOM     15  C   UNL     1      34.863  41.578 143.979  1.00  0.00     0.035 C 
BRANCH  15  16
ATOM     16  C   UNL     1      35.570  42.633 144.839  1.00  0.00     0.079 C 
BRANCH  16  17
ATOM     17  C   UNL     1      36.954  42.933 144.323  1.00  0.00     0.130 C 
ATOM     18  O   UNL     1      37.599  43.846 144.816  1.00  0.00    -0.300 OA
ATOM     19  C   UNL     1      37.571  42.103 143.238  1.00  0.00     0.087 C 
ENDBRANCH  16  17
ENDBRANCH  15  16
ENDBRANCH  13  15
ENDBRANCH  11  12
ENDBRANCH   1  11
TORSDOF 9
ENDMDL
