MODEL 1
REMARK VINA RESULT:    -5.946      0.000      0.000
REMARK INTER + INTRA:          -6.120
REMARK INTER:                  -6.120
REMARK INTRA:                   0.000
REMARK UNBOUND:                 0.000
REMARK SMILES C=C1[C@H]2C[C@@]3(C[C@@H]1O)[C@H](CC[C@@H]3C)C2(C)C
REMARK SMILES IDX 13 1 12 2 11 3 10 4 9 5 5 6 4 7 3 8 14 9 15 10 16 11 2 12
REMARK SMILES IDX 1 13 7 14 6 15 8 16
REMARK H PARENT 8 17
REMARK Flexibility Score: inf
ROOT
ATOM      1  C   UNL     1     112.619 118.816 126.499  1.00  0.00     0.008 C 
ATOM      2  C   UNL     1     113.822 119.685 126.105  1.00  0.00    -0.008 C 
ATOM      3  C   UNL     1     115.139 118.931 126.263  1.00  0.00     0.004 C 
ATOM      4  C   UNL     1     116.125 119.695 125.398  1.00  0.00     0.005 C 
ATOM      5  C   UNL     1     115.307 120.115 124.167  1.00  0.00     0.002 C 
ATOM      6  C   UNL     1     113.837 120.233 124.644  1.00  0.00    -0.020 C 
ATOM      7  C   UNL     1     113.520 121.729 124.560  1.00  0.00     0.016 C 
ATOM      8  C   UNL     1     114.245 122.121 123.281  1.00  0.00     0.023 C 
ATOM      9  C   UNL     1     115.648 121.465 123.448  1.00  0.00    -0.025 C 
ATOM     10  C   UNL     1     116.364 121.217 122.098  1.00  0.00     0.012 C 
ATOM     11  C   UNL     1     116.561 122.416 124.268  1.00  0.00     0.012 C 
ATOM     12  C   UNL     1     113.456 121.521 122.117  1.00  0.00    -0.045 C 
ATOM     13  C   UNL     1     113.312 122.219 120.980  1.00  0.00     0.011 C 
ATOM     14  C   UNL     1     112.890 120.103 122.204  1.00  0.00     0.140 C 
ATOM     15  C   UNL     1     112.882 119.505 123.647  1.00  0.00     0.044 C 
ENDROOT
BRANCH  14  16
ATOM     16  O   UNL     1     113.616 119.268 121.341  1.00  0.00    -0.389 OA
ATOM     17  H   UNL     1     112.977 118.929 120.661  1.00  0.00     0.211 HD
ENDBRANCH  14  16
TORSDOF 1
ENDMDL
MODEL 2
REMARK VINA RESULT:    -5.885      2.560      4.464
REMARK INTER + INTRA:          -6.057
REMARK INTER:                  -6.057
REMARK INTRA:                   0.000
REMARK UNBOUND:                 0.000
REMARK SMILES C=C1[C@H]2C[C@@]3(C[C@@H]1O)[C@H](CC[C@@H]3C)C2(C)C
REMARK SMILES IDX 13 1 12 2 11 3 10 4 9 5 5 6 4 7 3 8 14 9 15 10 16 11 2 12
REMARK SMILES IDX 1 13 7 14 6 15 8 16
REMARK H PARENT 8 17
REMARK Flexibility Score: inf
ROOT
ATOM      1  C   UNL     1     114.473 126.000 124.917  1.00  0.00     0.008 C 
ATOM      2  C   UNL     1     115.090 125.657 123.553  1.00  0.00    -0.008 C 
ATOM      3  C   UNL     1     116.613 125.740 123.584  1.00  0.00     0.004 C 
ATOM      4  C   UNL     1     117.067 124.924 122.387  1.00  0.00     0.005 C 
ATOM      5  C   UNL     1     116.089 123.740 122.341  1.00  0.00     0.002 C 
ATOM      6  C   UNL     1     114.769 124.243 122.978  1.00  0.00    -0.020 C 
ATOM      7  C   UNL     1     113.768 124.277 121.819  1.00  0.00     0.016 C 
ATOM      8  C   UNL     1     114.152 123.024 121.049  1.00  0.00     0.023 C 
ATOM      9  C   UNL     1     115.704 123.122 120.954  1.00  0.00    -0.025 C 
ATOM     10  C   UNL     1     116.386 121.747 120.742  1.00  0.00     0.012 C 
ATOM     11  C   UNL     1     116.085 124.001 119.732  1.00  0.00     0.012 C 
ATOM     12  C   UNL     1     113.694 121.827 121.882  1.00  0.00    -0.045 C 
ATOM     13  C   UNL     1     113.178 120.748 121.273  1.00  0.00     0.011 C 
ATOM     14  C   UNL     1     113.884 121.813 123.400  1.00  0.00     0.140 C 
ATOM     15  C   UNL     1     114.235 123.206 124.014  1.00  0.00     0.044 C 
ENDROOT
BRANCH  14  16
ATOM     16  O   UNL     1     114.881 120.879 123.726  1.00  0.00    -0.389 OA
ATOM     17  H   UNL     1     115.699 121.144 123.229  1.00  0.00     0.211 HD
ENDBRANCH  14  16
TORSDOF 1
ENDMDL
MODEL 3
REMARK VINA RESULT:    -5.758     12.298     14.587
REMARK INTER + INTRA:          -5.926
REMARK INTER:                  -5.926
REMARK INTRA:                   0.000
REMARK UNBOUND:                 0.000
REMARK SMILES C=C1[C@H]2C[C@@]3(C[C@@H]1O)[C@H](CC[C@@H]3C)C2(C)C
REMARK SMILES IDX 13 1 12 2 11 3 10 4 9 5 5 6 4 7 3 8 14 9 15 10 16 11 2 12
REMARK SMILES IDX 1 13 7 14 6 15 8 16
REMARK H PARENT 8 17
REMARK Flexibility Score: inf
ROOT
ATOM      1  C   UNL     1     122.487 120.531 111.656  1.00  0.00     0.008 C 
ATOM      2  C   UNL     1     123.931 120.615 112.172  1.00  0.00    -0.008 C 
ATOM      3  C   UNL     1     124.403 122.061 112.299  1.00  0.00     0.004 C 
ATOM      4  C   UNL     1     125.584 121.997 113.250  1.00  0.00     0.005 C 
ATOM      5  C   UNL     1     125.181 120.939 114.288  1.00  0.00     0.002 C 
ATOM      6  C   UNL     1     124.212 119.969 113.565  1.00  0.00    -0.020 C 
ATOM      7  C   UNL     1     124.981 118.648 113.472  1.00  0.00     0.016 C 
ATOM      8  C   UNL     1     125.691 118.615 114.816  1.00  0.00     0.023 C 
ATOM      9  C   UNL     1     126.293 120.047 114.940  1.00  0.00    -0.025 C 
ATOM     10  C   UNL     1     126.560 120.466 116.407  1.00  0.00     0.012 C 
ATOM     11  C   UNL     1     127.661 120.090 114.209  1.00  0.00     0.012 C 
ATOM     12  C   UNL     1     124.627 118.336 115.878  1.00  0.00    -0.045 C 
ATOM     13  C   UNL     1     124.914 117.533 116.914  1.00  0.00     0.011 C 
ATOM     14  C   UNL     1     123.261 119.020 115.815  1.00  0.00     0.140 C 
ATOM     15  C   UNL     1     122.950 119.704 114.445  1.00  0.00     0.044 C 
ENDROOT
BRANCH  14  16
ATOM     16  O   UNL     1     123.173 119.962 116.853  1.00  0.00    -0.389 OA
ATOM     17  H   UNL     1     124.070 120.378 116.942  1.00  0.00     0.211 HD
ENDBRANCH  14  16
TORSDOF 1
ENDMDL
MODEL 4
REMARK VINA RESULT:    -5.682     12.841     15.294
REMARK INTER + INTRA:          -5.848
REMARK INTER:                  -5.848
REMARK INTRA:                   0.000
REMARK UNBOUND:                 0.000
REMARK SMILES C=C1[C@H]2C[C@@]3(C[C@@H]1O)[C@H](CC[C@@H]3C)C2(C)C
REMARK SMILES IDX 13 1 12 2 11 3 10 4 9 5 5 6 4 7 3 8 14 9 15 10 16 11 2 12
REMARK SMILES IDX 1 13 7 14 6 15 8 16
REMARK H PARENT 8 17
REMARK Flexibility Score: inf
ROOT
ATOM      1  C   UNL     1     125.571 121.721 112.592  1.00  0.00     0.008 C 
ATOM      2  C   UNL     1     124.233 121.012 112.850  1.00  0.00    -0.008 C 
ATOM      3  C   UNL     1     123.199 121.353 111.780  1.00  0.00     0.004 C 
ATOM      4  C   UNL     1     122.167 120.244 111.878  1.00  0.00     0.005 C 
ATOM      5  C   UNL     1     122.992 118.979 112.163  1.00  0.00     0.002 C 
ATOM      6  C   UNL     1     124.269 119.453 112.903  1.00  0.00    -0.020 C 
ATOM      7  C   UNL     1     124.125 118.896 114.322  1.00  0.00     0.016 C 
ATOM      8  C   UNL     1     123.514 117.531 114.052  1.00  0.00     0.023 C 
ATOM      9  C   UNL     1     122.367 117.844 113.044  1.00  0.00    -0.025 C 
ATOM     10  C   UNL     1     121.969 116.620 112.182  1.00  0.00     0.012 C 
ATOM     11  C   UNL     1     121.098 118.266 113.832  1.00  0.00     0.012 C 
ATOM     12  C   UNL     1     124.611 116.662 113.435  1.00  0.00    -0.045 C 
ATOM     13  C   UNL     1     124.702 115.366 113.771  1.00  0.00     0.011 C 
ATOM     14  C   UNL     1     125.561 117.234 112.382  1.00  0.00     0.140 C 
ATOM     15  C   UNL     1     125.536 118.792 112.277  1.00  0.00     0.044 C 
ENDROOT
BRANCH  14  16
ATOM     16  O   UNL     1     125.259 116.662 111.136  1.00  0.00    -0.389 OA
ATOM     17  H   UNL     1     125.031 115.711 111.302  1.00  0.00     0.211 HD
ENDBRANCH  14  16
TORSDOF 1
ENDMDL
MODEL 5
REMARK VINA RESULT:    -5.630      3.377      5.776
REMARK INTER + INTRA:          -5.794
REMARK INTER:                  -5.794
REMARK INTRA:                   0.000
REMARK UNBOUND:                 0.000
REMARK SMILES C=C1[C@H]2C[C@@]3(C[C@@H]1O)[C@H](CC[C@@H]3C)C2(C)C
REMARK SMILES IDX 13 1 12 2 11 3 10 4 9 5 5 6 4 7 3 8 14 9 15 10 16 11 2 12
REMARK SMILES IDX 1 13 7 14 6 15 8 16
REMARK H PARENT 8 17
REMARK Flexibility Score: inf
ROOT
ATOM      1  C   UNL     1     117.639 127.286 123.871  1.00  0.00     0.008 C 
ATOM      2  C   UNL     1     116.621 126.149 124.047  1.00  0.00    -0.008 C 
ATOM      3  C   UNL     1     115.206 126.684 124.252  1.00  0.00     0.004 C 
ATOM      4  C   UNL     1     114.301 125.515 123.912  1.00  0.00     0.005 C 
ATOM      5  C   UNL     1     114.992 124.830 122.723  1.00  0.00     0.002 C 
ATOM      6  C   UNL     1     116.506 125.129 122.872  1.00  0.00    -0.020 C 
ATOM      7  C   UNL     1     117.140 123.772 123.189  1.00  0.00     0.016 C 
ATOM      8  C   UNL     1     116.336 122.844 122.292  1.00  0.00     0.023 C 
ATOM      9  C   UNL     1     114.862 123.278 122.556  1.00  0.00    -0.025 C 
ATOM     10  C   UNL     1     113.908 122.916 121.391  1.00  0.00     0.012 C 
ATOM     11  C   UNL     1     114.331 122.538 123.814  1.00  0.00     0.012 C 
ATOM     12  C   UNL     1     116.775 123.118 120.854  1.00  0.00    -0.045 C 
ATOM     13  C   UNL     1     116.897 122.099 119.988  1.00  0.00     0.011 C 
ATOM     14  C   UNL     1     117.007 124.549 120.366  1.00  0.00     0.140 C 
ATOM     15  C   UNL     1     117.101 125.607 121.511  1.00  0.00     0.044 C 
ENDROOT
BRANCH  14  16
ATOM     16  O   UNL     1     115.983 124.898 119.471  1.00  0.00    -0.389 OA
ATOM     17  H   UNL     1     115.362 125.496 119.962  1.00  0.00     0.211 HD
ENDBRANCH  14  16
TORSDOF 1
ENDMDL
MODEL 6
REMARK VINA RESULT:    -5.559     13.222     14.999
REMARK INTER + INTRA:          -5.722
REMARK INTER:                  -5.722
REMARK INTRA:                   0.000
REMARK UNBOUND:                 0.000
REMARK SMILES C=C1[C@H]2C[C@@]3(C[C@@H]1O)[C@H](CC[C@@H]3C)C2(C)C
REMARK SMILES IDX 13 1 12 2 11 3 10 4 9 5 5 6 4 7 3 8 14 9 15 10 16 11 2 12
REMARK SMILES IDX 1 13 7 14 6 15 8 16
REMARK H PARENT 8 17
REMARK Flexibility Score: inf
ROOT
ATOM      1  C   UNL     1     122.430 120.588 111.571  1.00  0.00     0.008 C 
ATOM      2  C   UNL     1     122.749 119.751 112.818  1.00  0.00    -0.008 C 
ATOM      3  C   UNL     1     122.628 118.255 112.540  1.00  0.00     0.004 C 
ATOM      4  C   UNL     1     123.426 117.593 113.650  1.00  0.00     0.005 C 
ATOM      5  C   UNL     1     124.634 118.520 113.856  1.00  0.00     0.002 C 
ATOM      6  C   UNL     1     124.167 119.939 113.440  1.00  0.00    -0.020 C 
ATOM      7  C   UNL     1     124.150 120.740 114.746  1.00  0.00     0.016 C 
ATOM      8  C   UNL     1     125.389 120.205 115.446  1.00  0.00     0.023 C 
ATOM      9  C   UNL     1     125.252 118.660 115.289  1.00  0.00    -0.025 C 
ATOM     10  C   UNL     1     126.608 117.919 115.390  1.00  0.00     0.012 C 
ATOM     11  C   UNL     1     124.357 118.109 116.431  1.00  0.00     0.012 C 
ATOM     12  C   UNL     1     126.602 120.761 114.700  1.00  0.00    -0.045 C 
ATOM     13  C   UNL     1     127.689 121.145 115.387  1.00  0.00     0.011 C 
ATOM     14  C   UNL     1     126.621 120.818 113.172  1.00  0.00     0.140 C 
ATOM     15  C   UNL     1     125.224 120.607 112.506  1.00  0.00     0.044 C 
ENDROOT
BRANCH  14  16
ATOM     16  O   UNL     1     127.532 119.864 112.691  1.00  0.00    -0.389 OA
ATOM     17  H   UNL     1     127.714 120.091 111.742  1.00  0.00     0.211 HD
ENDBRANCH  14  16
TORSDOF 1
ENDMDL
MODEL 7
REMARK VINA RESULT:    -5.550      1.672      4.219
REMARK INTER + INTRA:          -5.712
REMARK INTER:                  -5.712
REMARK INTRA:                   0.000
REMARK UNBOUND:                 0.000
REMARK SMILES C=C1[C@H]2C[C@@]3(C[C@@H]1O)[C@H](CC[C@@H]3C)C2(C)C
REMARK SMILES IDX 13 1 12 2 11 3 10 4 9 5 5 6 4 7 3 8 14 9 15 10 16 11 2 12
REMARK SMILES IDX 1 13 7 14 6 15 8 16
REMARK H PARENT 8 17
REMARK Flexibility Score: inf
ROOT
ATOM      1  C   UNL     1     110.875 119.893 120.372  1.00  0.00     0.008 C 
ATOM      2  C   UNL     1     112.211 120.635 120.519  1.00  0.00    -0.008 C 
ATOM      3  C   UNL     1     112.061 122.130 120.251  1.00  0.00     0.004 C 
ATOM      4  C   UNL     1     113.278 122.761 120.901  1.00  0.00     0.005 C 
ATOM      5  C   UNL     1     113.486 121.950 122.190  1.00  0.00     0.002 C 
ATOM      6  C   UNL     1     112.913 120.538 121.909  1.00  0.00    -0.020 C 
ATOM      7  C   UNL     1     114.137 119.617 121.902  1.00  0.00     0.016 C 
ATOM      8  C   UNL     1     114.969 120.209 123.029  1.00  0.00     0.023 C 
ATOM      9  C   UNL     1     114.940 121.739 122.732  1.00  0.00    -0.025 C 
ATOM     10  C   UNL     1     115.203 122.604 123.989  1.00  0.00     0.012 C 
ATOM     11  C   UNL     1     116.062 122.080 121.713  1.00  0.00     0.012 C 
ATOM     12  C   UNL     1     114.264 119.857 124.340  1.00  0.00    -0.045 C 
ATOM     13  C   UNL     1     114.989 119.525 125.419  1.00  0.00     0.011 C 
ATOM     14  C   UNL     1     112.742 119.950 124.457  1.00  0.00     0.140 C 
ATOM     15  C   UNL     1     112.000 120.077 123.088  1.00  0.00     0.044 C 
ENDROOT
BRANCH  14  16
ATOM     16  O   UNL     1     112.413 121.036 125.285  1.00  0.00    -0.389 OA
ATOM     17  H   UNL     1     113.149 121.129 125.945  1.00  0.00     0.211 HD
ENDBRANCH  14  16
TORSDOF 1
ENDMDL
MODEL 8
REMARK VINA RESULT:    -5.483     13.360     14.618
REMARK INTER + INTRA:          -5.643
REMARK INTER:                  -5.643
REMARK INTRA:                   0.000
REMARK UNBOUND:                 0.000
REMARK SMILES C=C1[C@H]2C[C@@]3(C[C@@H]1O)[C@H](CC[C@@H]3C)C2(C)C
REMARK SMILES IDX 13 1 12 2 11 3 10 4 9 5 5 6 4 7 3 8 14 9 15 10 16 11 2 12
REMARK SMILES IDX 1 13 7 14 6 15 8 16
REMARK H PARENT 8 17
REMARK Flexibility Score: inf
ROOT
ATOM      1  C   UNL     1     124.984 117.057 116.674  1.00  0.00     0.008 C 
ATOM      2  C   UNL     1     125.545 118.383 116.138  1.00  0.00    -0.008 C 
ATOM      3  C   UNL     1     127.048 118.299 115.884  1.00  0.00     0.004 C 
ATOM      4  C   UNL     1     127.340 119.444 114.931  1.00  0.00     0.005 C 
ATOM      5  C   UNL     1     126.125 119.477 113.991  1.00  0.00     0.002 C 
ATOM      6  C   UNL     1     124.933 118.911 114.804  1.00  0.00    -0.020 C 
ATOM      7  C   UNL     1     123.996 120.106 115.003  1.00  0.00     0.016 C 
ATOM      8  C   UNL     1     124.112 120.809 113.659  1.00  0.00     0.023 C 
ATOM      9  C   UNL     1     125.650 120.851 113.407  1.00  0.00    -0.025 C 
ATOM     10  C   UNL     1     126.014 120.981 111.908  1.00  0.00     0.012 C 
ATOM     11  C   UNL     1     126.249 122.094 114.120  1.00  0.00     0.012 C 
ATOM     12  C   UNL     1     123.378 119.945 112.635  1.00  0.00    -0.045 C 
ATOM     13  C   UNL     1     122.651 120.528 111.669  1.00  0.00     0.011 C 
ATOM     14  C   UNL     1     123.520 118.422 112.652  1.00  0.00     0.140 C 
ATOM     15  C   UNL     1     124.155 117.853 113.961  1.00  0.00     0.044 C 
ENDROOT
BRANCH  14  16
ATOM     16  O   UNL     1     124.274 118.021 111.538  1.00  0.00    -0.389 OA
ATOM     17  H   UNL     1     123.646 117.586 110.904  1.00  0.00     0.211 HD
ENDBRANCH  14  16
TORSDOF 1
ENDMDL
MODEL 9
REMARK VINA RESULT:    -5.450      1.874      4.640
REMARK INTER + INTRA:          -5.610
REMARK INTER:                  -5.610
REMARK INTRA:                   0.000
REMARK UNBOUND:                 0.000
REMARK SMILES C=C1[C@H]2C[C@@]3(C[C@@H]1O)[C@H](CC[C@@H]3C)C2(C)C
REMARK SMILES IDX 13 1 12 2 11 3 10 4 9 5 5 6 4 7 3 8 14 9 15 10 16 11 2 12
REMARK SMILES IDX 1 13 7 14 6 15 8 16
REMARK H PARENT 8 17
REMARK Flexibility Score: inf
ROOT
ATOM      1  C   UNL     1     118.873 122.203 121.816  1.00  0.00     0.008 C 
ATOM      2  C   UNL     1     117.551 122.951 121.592  1.00  0.00    -0.008 C 
ATOM      3  C   UNL     1     117.369 123.350 120.130  1.00  0.00     0.004 C 
ATOM      4  C   UNL     1     115.880 123.604 119.984  1.00  0.00     0.005 C 
ATOM      5  C   UNL     1     115.222 122.525 120.858  1.00  0.00     0.002 C 
ATOM      6  C   UNL     1     116.245 122.188 121.973  1.00  0.00    -0.020 C 
ATOM      7  C   UNL     1     115.599 122.707 123.262  1.00  0.00     0.016 C 
ATOM      8  C   UNL     1     114.138 122.351 123.034  1.00  0.00     0.023 C 
ATOM      9  C   UNL     1     113.870 122.848 121.581  1.00  0.00    -0.025 C 
ATOM     10  C   UNL     1     112.682 122.122 120.904  1.00  0.00     0.012 C 
ATOM     11  C   UNL     1     113.507 124.357 121.618  1.00  0.00     0.012 C 
ATOM     12  C   UNL     1     114.021 120.832 123.161  1.00  0.00    -0.045 C 
ATOM     13  C   UNL     1     112.948 120.294 123.760  1.00  0.00     0.011 C 
ATOM     14  C   UNL     1     115.078 119.913 122.548  1.00  0.00     0.140 C 
ATOM     15  C   UNL     1     116.394 120.642 122.125  1.00  0.00     0.044 C 
ENDROOT
BRANCH  14  16
ATOM     16  O   UNL     1     114.520 119.249 121.443  1.00  0.00    -0.389 OA
ATOM     17  H   UNL     1     115.276 118.961 120.868  1.00  0.00     0.211 HD
ENDBRANCH  14  16
TORSDOF 1
ENDMDL
