MODEL 1
REMARK VINA RESULT:    -7.514      0.000      0.000
REMARK INTER + INTRA:          -8.951
REMARK INTER:                  -8.612
REMARK INTRA:                  -0.339
REMARK UNBOUND:                -0.339
REMARK SMILES C=C(C)[C@H]1CC[C@@]2(C(=O)[O-])CC[C@]3(C)[C@@H](CC[C@@H]4[C@]5(C)CC[C@H](O)C(C)(C)[C@H]5CC[C@@]43C)[C@@H]12
REMARK SMILES IDX 7 1 6 2 33 3 11 4 5 5 15 6 4 7 12 8 16 9 13 10 17 11 31 12
REMARK SMILES IDX 14 13 18 14 30 15 32 16 19 17 29 18 21 19 20 20 28 21 22 22
REMARK SMILES IDX 25 23 23 24 26 25 27 26 8 27 9 28 10 29 2 30 3 31 1 32 24 33
REMARK H PARENT 24 34
REMARK Flexibility Score: inf
ROOT
ATOM      1  C   UNL     1      -2.793   6.772  -5.037  1.00  0.00     0.014 C 
ATOM      2  C   UNL     1      -1.761   6.210  -4.027  1.00  0.00     0.014 C 
ATOM      3  C   UNL     1      -2.881   8.291  -4.697  1.00  0.00     0.012 C 
ATOM      4  C   UNL     1      -4.174   6.069  -4.916  1.00  0.00     0.014 C 
ATOM      5  C   UNL     1      -0.959   7.392  -3.475  1.00  0.00     0.009 C 
ATOM      6  C   UNL     1      -4.092   8.673  -3.755  1.00  0.00     0.000 C 
ATOM      7  C   UNL     1      -1.457   8.646  -4.206  1.00  0.00     0.018 C 
ATOM      8  C   UNL     1      -5.311   7.010  -5.332  1.00  0.00     0.008 C 
ATOM      9  C   UNL     1      -3.923   8.245  -2.307  1.00  0.00     0.005 C 
ATOM     10  C   UNL     1      -5.495   8.238  -4.361  1.00  0.00    -0.024 C 
ATOM     11  C   UNL     1      -4.999   8.864  -1.420  1.00  0.00     0.005 C 
ATOM     12  C   UNL     1      -6.664   7.957  -3.242  1.00  0.00    -0.024 C 
ATOM     13  C   UNL     1      -5.904   9.448  -5.280  1.00  0.00     0.012 C 
ATOM     14  C   UNL     1      -6.469   8.916  -1.983  1.00  0.00     0.002 C 
ATOM     15  C   UNL     1      -6.713   6.486  -2.689  1.00  0.00     0.008 C 
ATOM     16  C   UNL     1      -8.040   8.181  -3.966  1.00  0.00     0.012 C 
ATOM     17  C   UNL     1      -7.541   8.725  -0.800  1.00  0.00    -0.026 C 
ATOM     18  C   UNL     1      -7.738   6.249  -1.551  1.00  0.00     0.005 C 
ATOM     19  C   UNL     1      -7.182   9.625   0.439  1.00  0.00     0.010 C 
ATOM     20  C   UNL     1      -8.950   9.214  -1.281  1.00  0.00     0.012 C 
ATOM     21  C   UNL     1      -7.525   7.210  -0.355  1.00  0.00     0.003 C 
ATOM     22  C   UNL     1      -8.011   9.312   1.699  1.00  0.00     0.033 C 
ATOM     23  C   UNL     1      -8.354   6.863   0.947  1.00  0.00    -0.006 C 
ATOM     24  C   UNL     1      -7.927   7.833   2.101  1.00  0.00     0.120 C 
ATOM     25  C   UNL     1      -8.041   5.411   1.407  1.00  0.00     0.014 C 
ATOM     26  C   UNL     1      -9.890   6.927   0.746  1.00  0.00     0.014 C 
ENDROOT
BRANCH   1  27
ATOM     27  C   UNL     1      -2.261   6.537  -6.453  1.00  0.00     0.048 C 
ATOM     28  O   UNL     1      -2.685   5.596  -7.176  1.00  0.00    -0.550 OA
ATOM     29  O   UNL     1      -1.262   7.363  -6.958  1.00  0.00    -0.550 OA
ENDBRANCH   1  27
BRANCH   7  30
ATOM     30  C   UNL     1      -1.303   9.988  -3.486  1.00  0.00    -0.077 C 
ATOM     31  C   UNL     1      -1.938  11.266  -3.985  1.00  0.00     0.039 C 
ATOM     32  C   UNL     1      -0.676  10.026  -2.297  1.00  0.00     0.008 C 
ENDBRANCH   7  30
BRANCH  24  33
ATOM     33  O   UNL     1      -6.606   7.566   2.512  1.00  0.00    -0.393 OA
ATOM     34  H   UNL     1      -6.324   8.305   3.114  1.00  0.00     0.210 HD
ENDBRANCH  24  33
TORSDOF 3
ENDMDL
MODEL 2
REMARK VINA RESULT:    -6.467      1.644      7.714
REMARK INTER + INTRA:          -7.751
REMARK INTER:                  -7.192
REMARK INTRA:                  -0.559
REMARK UNBOUND:                -0.339
REMARK SMILES C=C(C)[C@H]1CC[C@@]2(C(=O)[O-])CC[C@]3(C)[C@@H](CC[C@@H]4[C@]5(C)CC[C@H](O)C(C)(C)[C@H]5CC[C@@]43C)[C@@H]12
REMARK SMILES IDX 7 1 6 2 33 3 11 4 5 5 15 6 4 7 12 8 16 9 13 10 17 11 31 12
REMARK SMILES IDX 14 13 18 14 30 15 32 16 19 17 29 18 21 19 20 20 28 21 22 22
REMARK SMILES IDX 25 23 23 24 26 25 27 26 8 27 9 28 10 29 2 30 3 31 1 32 24 33
REMARK H PARENT 24 34
REMARK Flexibility Score: inf
ROOT
ATOM      1  C   UNL     1      -7.972   8.232   1.406  1.00  0.00     0.014 C 
ATOM      2  C   UNL     1      -7.160   7.115   2.109  1.00  0.00     0.014 C 
ATOM      3  C   UNL     1      -8.479   7.572   0.087  1.00  0.00     0.012 C 
ATOM      4  C   UNL     1      -7.111   9.496   1.128  1.00  0.00     0.014 C 
ATOM      5  C   UNL     1      -7.573   5.778   1.487  1.00  0.00     0.009 C 
ATOM      6  C   UNL     1      -7.585   7.884  -1.178  1.00  0.00     0.000 C 
ATOM      7  C   UNL     1      -8.679   6.085   0.469  1.00  0.00     0.018 C 
ATOM      8  C   UNL     1      -7.619  10.249  -0.108  1.00  0.00     0.008 C 
ATOM      9  C   UNL     1      -6.248   7.162  -1.199  1.00  0.00     0.005 C 
ATOM     10  C   UNL     1      -7.441   9.443  -1.450  1.00  0.00    -0.024 C 
ATOM     11  C   UNL     1      -5.562   7.312  -2.553  1.00  0.00     0.005 C 
ATOM     12  C   UNL     1      -6.065   9.873  -2.239  1.00  0.00    -0.024 C 
ATOM     13  C   UNL     1      -8.699   9.794  -2.326  1.00  0.00     0.012 C 
ATOM     14  C   UNL     1      -5.622   8.723  -3.250  1.00  0.00     0.002 C 
ATOM     15  C   UNL     1      -4.830  10.162  -1.309  1.00  0.00     0.008 C 
ATOM     16  C   UNL     1      -6.371  11.232  -2.965  1.00  0.00     0.012 C 
ATOM     17  C   UNL     1      -4.270   9.013  -4.071  1.00  0.00    -0.026 C 
ATOM     18  C   UNL     1      -3.504  10.455  -2.055  1.00  0.00     0.005 C 
ATOM     19  C   UNL     1      -3.858   7.766  -4.938  1.00  0.00     0.010 C 
ATOM     20  C   UNL     1      -4.514  10.175  -5.094  1.00  0.00     0.012 C 
ATOM     21  C   UNL     1      -3.117   9.322  -3.038  1.00  0.00     0.003 C 
ATOM     22  C   UNL     1      -2.449   7.872  -5.554  1.00  0.00     0.033 C 
ATOM     23  C   UNL     1      -1.657   9.418  -3.640  1.00  0.00    -0.006 C 
ATOM     24  C   UNL     1      -1.370   8.138  -4.496  1.00  0.00     0.120 C 
ATOM     25  C   UNL     1      -0.609   9.467  -2.491  1.00  0.00     0.014 C 
ATOM     26  C   UNL     1      -1.416  10.690  -4.494  1.00  0.00     0.014 C 
ENDROOT
BRANCH   1  27
ATOM     27  C   UNL     1      -9.130   8.636   2.321  1.00  0.00     0.048 C 
ATOM     28  O   UNL     1     -10.124   9.283   1.892  1.00  0.00    -0.550 OA
ATOM     29  O   UNL     1      -9.086   8.308   3.672  1.00  0.00    -0.550 OA
ENDBRANCH   1  27
BRANCH   7  30
ATOM     30  C   UNL     1      -8.858   5.105  -0.693  1.00  0.00    -0.077 C 
ATOM     31  C   UNL     1     -10.034   5.160  -1.641  1.00  0.00     0.039 C 
ATOM     32  C   UNL     1      -7.878   4.225  -0.966  1.00  0.00     0.008 C 
ENDBRANCH   7  30
BRANCH  24  33
ATOM     33  O   UNL     1      -1.274   6.999  -3.671  1.00  0.00    -0.393 OA
ATOM     34  H   UNL     1      -2.120   6.933  -3.153  1.00  0.00     0.210 HD
ENDBRANCH  24  33
TORSDOF 3
ENDMDL
MODEL 3
REMARK VINA RESULT:    -6.008      1.598      2.249
REMARK INTER + INTRA:          -7.226
REMARK INTER:                  -7.220
REMARK INTRA:                  -0.006
REMARK UNBOUND:                -0.339
REMARK SMILES C=C(C)[C@H]1CC[C@@]2(C(=O)[O-])CC[C@]3(C)[C@@H](CC[C@@H]4[C@]5(C)CC[C@H](O)C(C)(C)[C@H]5CC[C@@]43C)[C@@H]12
REMARK SMILES IDX 7 1 6 2 33 3 11 4 5 5 15 6 4 7 12 8 16 9 13 10 17 11 31 12
REMARK SMILES IDX 14 13 18 14 30 15 32 16 19 17 29 18 21 19 20 20 28 21 22 22
REMARK SMILES IDX 25 23 23 24 26 25 27 26 8 27 9 28 10 29 2 30 3 31 1 32 24 33
REMARK H PARENT 24 34
REMARK Flexibility Score: inf
ROOT
ATOM      1  C   UNL     1      -2.701   7.803  -3.330  1.00  0.00     0.014 C 
ATOM      2  C   UNL     1      -1.873   8.593  -2.285  1.00  0.00     0.014 C 
ATOM      3  C   UNL     1      -3.705   8.850  -3.901  1.00  0.00     0.012 C 
ATOM      4  C   UNL     1      -3.429   6.584  -2.699  1.00  0.00     0.014 C 
ATOM      5  C   UNL     1      -2.054  10.085  -2.579  1.00  0.00     0.009 C 
ATOM      6  C   UNL     1      -5.134   8.808  -3.228  1.00  0.00     0.000 C 
ATOM      7  C   UNL     1      -2.926  10.186  -3.838  1.00  0.00     0.018 C 
ATOM      8  C   UNL     1      -4.720   6.257  -3.461  1.00  0.00     0.008 C 
ATOM      9  C   UNL     1      -5.182   9.368  -1.816  1.00  0.00     0.005 C 
ATOM     10  C   UNL     1      -5.819   7.379  -3.342  1.00  0.00    -0.024 C 
ATOM     11  C   UNL     1      -6.621   9.528  -1.335  1.00  0.00     0.005 C 
ATOM     12  C   UNL     1      -6.902   7.045  -2.152  1.00  0.00    -0.024 C 
ATOM     13  C   UNL     1      -6.543   7.414  -4.738  1.00  0.00     0.012 C 
ATOM     14  C   UNL     1      -7.640   8.378  -1.682  1.00  0.00     0.002 C 
ATOM     15  C   UNL     1      -6.288   6.386  -0.863  1.00  0.00     0.008 C 
ATOM     16  C   UNL     1      -7.895   5.977  -2.738  1.00  0.00     0.012 C 
ATOM     17  C   UNL     1      -8.714   8.189  -0.500  1.00  0.00    -0.026 C 
ATOM     18  C   UNL     1      -7.288   6.176   0.303  1.00  0.00     0.005 C 
ATOM     19  C   UNL     1      -9.284   9.577  -0.029  1.00  0.00     0.010 C 
ATOM     20  C   UNL     1      -9.948   7.385  -1.034  1.00  0.00     0.012 C 
ATOM     21  C   UNL     1      -7.993   7.490   0.719  1.00  0.00     0.003 C 
ATOM     22  C   UNL     1     -10.124   9.502   1.261  1.00  0.00     0.033 C 
ATOM     23  C   UNL     1      -8.826   7.415   2.062  1.00  0.00    -0.006 C 
ATOM     24  C   UNL     1      -9.357   8.845   2.418  1.00  0.00     0.120 C 
ATOM     25  C   UNL     1      -7.912   6.944   3.230  1.00  0.00     0.014 C 
ATOM     26  C   UNL     1     -10.007   6.411   2.011  1.00  0.00     0.014 C 
ENDROOT
BRANCH   1  27
ATOM     27  C   UNL     1      -1.747   7.283  -4.408  1.00  0.00     0.048 C 
ATOM     28  O   UNL     1      -0.764   6.546  -4.129  1.00  0.00    -0.550 OA
ATOM     29  O   UNL     1      -1.946   7.647  -5.736  1.00  0.00    -0.550 OA
ENDBRANCH   1  27
BRANCH   7  30
ATOM     30  C   UNL     1      -3.752  11.461  -4.022  1.00  0.00    -0.077 C 
ATOM     31  C   UNL     1      -4.503  12.125  -2.889  1.00  0.00     0.039 C 
ATOM     32  C   UNL     1      -3.727  12.094  -5.208  1.00  0.00     0.008 C 
ENDBRANCH   7  30
BRANCH  24  33
ATOM     33  O   UNL     1      -8.294   9.696   2.777  1.00  0.00    -0.393 OA
ATOM     34  H   UNL     1      -8.623  10.302   3.492  1.00  0.00     0.210 HD
ENDBRANCH  24  33
TORSDOF 3
ENDMDL
MODEL 4
REMARK VINA RESULT:    -6.008      1.445      1.915
REMARK INTER + INTRA:          -7.226
REMARK INTER:                  -6.846
REMARK INTRA:                  -0.380
REMARK UNBOUND:                -0.339
REMARK SMILES C=C(C)[C@H]1CC[C@@]2(C(=O)[O-])CC[C@]3(C)[C@@H](CC[C@@H]4[C@]5(C)CC[C@H](O)C(C)(C)[C@H]5CC[C@@]43C)[C@@H]12
REMARK SMILES IDX 7 1 6 2 33 3 11 4 5 5 15 6 4 7 12 8 16 9 13 10 17 11 31 12
REMARK SMILES IDX 14 13 18 14 30 15 32 16 19 17 29 18 21 19 20 20 28 21 22 22
REMARK SMILES IDX 25 23 23 24 26 25 27 26 8 27 9 28 10 29 2 30 3 31 1 32 24 33
REMARK H PARENT 24 34
REMARK Flexibility Score: inf
ROOT
ATOM      1  C   UNL     1      -2.184   7.105  -5.527  1.00  0.00     0.014 C 
ATOM      2  C   UNL     1      -1.269   6.352  -4.527  1.00  0.00     0.014 C 
ATOM      3  C   UNL     1      -2.595   8.406  -4.773  1.00  0.00     0.012 C 
ATOM      4  C   UNL     1      -3.420   6.258  -5.941  1.00  0.00     0.014 C 
ATOM      5  C   UNL     1      -0.798   7.363  -3.477  1.00  0.00     0.009 C 
ATOM      6  C   UNL     1      -4.003   8.322  -4.060  1.00  0.00     0.000 C 
ATOM      7  C   UNL     1      -1.366   8.727  -3.888  1.00  0.00     0.018 C 
ATOM      8  C   UNL     1      -4.609   7.157  -6.299  1.00  0.00     0.008 C 
ATOM      9  C   UNL     1      -4.027   7.458  -2.811  1.00  0.00     0.005 C 
ATOM     10  C   UNL     1      -5.176   7.966  -5.071  1.00  0.00    -0.024 C 
ATOM     11  C   UNL     1      -5.336   7.629  -2.047  1.00  0.00     0.005 C 
ATOM     12  C   UNL     1      -6.461   7.207  -4.385  1.00  0.00    -0.024 C 
ATOM     13  C   UNL     1      -5.617   9.361  -5.649  1.00  0.00     0.012 C 
ATOM     14  C   UNL     1      -6.667   7.708  -2.886  1.00  0.00     0.002 C 
ATOM     15  C   UNL     1      -6.352   5.639  -4.329  1.00  0.00     0.008 C 
ATOM     16  C   UNL     1      -7.701   7.510  -5.301  1.00  0.00     0.012 C 
ATOM     17  C   UNL     1      -7.885   7.021  -2.092  1.00  0.00    -0.026 C 
ATOM     18  C   UNL     1      -7.509   4.930  -3.580  1.00  0.00     0.005 C 
ATOM     19  C   UNL     1      -7.917   7.492  -0.591  1.00  0.00     0.010 C 
ATOM     20  C   UNL     1      -9.247   7.489  -2.710  1.00  0.00     0.012 C 
ATOM     21  C   UNL     1      -7.685   5.455  -2.134  1.00  0.00     0.003 C 
ATOM     22  C   UNL     1      -8.893   6.692   0.293  1.00  0.00     0.033 C 
ATOM     23  C   UNL     1      -8.663   4.610  -1.222  1.00  0.00    -0.006 C 
ATOM     24  C   UNL     1      -8.627   5.181   0.237  1.00  0.00     0.120 C 
ATOM     25  C   UNL     1      -8.190   3.129  -1.163  1.00  0.00     0.014 C 
ATOM     26  C   UNL     1     -10.125   4.573  -1.738  1.00  0.00     0.014 C 
ENDROOT
BRANCH   1  27
ATOM     27  C   UNL     1      -1.371   7.411  -6.787  1.00  0.00     0.048 C 
ATOM     28  O   UNL     1      -1.460   6.702  -7.826  1.00  0.00    -0.550 OA
ATOM     29  O   UNL     1      -0.488   8.486  -6.792  1.00  0.00    -0.550 OA
ENDBRANCH   1  27
BRANCH   7  30
ATOM     30  C   UNL     1      -1.581   9.763  -2.780  1.00  0.00    -0.077 C 
ATOM     31  C   UNL     1      -2.210  11.115  -3.030  1.00  0.00     0.039 C 
ATOM     32  C   UNL     1      -1.310   9.427  -1.507  1.00  0.00     0.008 C 
ENDBRANCH   7  30
BRANCH  24  33
ATOM     33  O   UNL     1      -7.376   4.935   0.837  1.00  0.00    -0.393 OA
ATOM     34  H   UNL     1      -6.676   5.293   0.228  1.00  0.00     0.210 HD
ENDBRANCH  24  33
TORSDOF 3
ENDMDL
MODEL 5
REMARK VINA RESULT:    -5.899      9.936     14.576
REMARK INTER + INTRA:          -7.101
REMARK INTER:                  -6.838
REMARK INTRA:                  -0.263
REMARK UNBOUND:                -0.339
REMARK SMILES C=C(C)[C@H]1CC[C@@]2(C(=O)[O-])CC[C@]3(C)[C@@H](CC[C@@H]4[C@]5(C)CC[C@H](O)C(C)(C)[C@H]5CC[C@@]43C)[C@@H]12
REMARK SMILES IDX 7 1 6 2 33 3 11 4 5 5 15 6 4 7 12 8 16 9 13 10 17 11 31 12
REMARK SMILES IDX 14 13 18 14 30 15 32 16 19 17 29 18 21 19 20 20 28 21 22 22
REMARK SMILES IDX 25 23 23 24 26 25 27 26 8 27 9 28 10 29 2 30 3 31 1 32 24 33
REMARK H PARENT 24 34
REMARK Flexibility Score: inf
ROOT
ATOM      1  C   UNL     1       1.276   8.718 -10.759  1.00  0.00     0.014 C 
ATOM      2  C   UNL     1       1.458   7.646 -11.865  1.00  0.00     0.014 C 
ATOM      3  C   UNL     1       1.677  10.057 -11.449  1.00  0.00     0.012 C 
ATOM      4  C   UNL     1       2.151   8.423  -9.509  1.00  0.00     0.014 C 
ATOM      5  C   UNL     1       1.490   8.370 -13.214  1.00  0.00     0.009 C 
ATOM      6  C   UNL     1       3.168  10.505 -11.173  1.00  0.00     0.000 C 
ATOM      7  C   UNL     1       1.254   9.859 -12.924  1.00  0.00     0.018 C 
ATOM      8  C   UNL     1       2.530   9.720  -8.782  1.00  0.00     0.008 C 
ATOM      9  C   UNL     1       4.218   9.685 -11.905  1.00  0.00     0.005 C 
ATOM     10  C   UNL     1       3.482  10.654  -9.622  1.00  0.00    -0.024 C 
ATOM     11  C   UNL     1       5.596  10.329 -11.793  1.00  0.00     0.005 C 
ATOM     12  C   UNL     1       5.059  10.431  -9.221  1.00  0.00    -0.024 C 
ATOM     13  C   UNL     1       3.039  12.125  -9.284  1.00  0.00     0.012 C 
ATOM     14  C   UNL     1       6.008  10.935 -10.399  1.00  0.00     0.002 C 
ATOM     15  C   UNL     1       5.462   8.941  -8.919  1.00  0.00     0.008 C 
ATOM     16  C   UNL     1       5.294  11.211  -7.878  1.00  0.00     0.012 C 
ATOM     17  C   UNL     1       7.584  10.751 -10.138  1.00  0.00    -0.026 C 
ATOM     18  C   UNL     1       6.972   8.714  -8.653  1.00  0.00     0.005 C 
ATOM     19  C   UNL     1       8.418  11.160 -11.409  1.00  0.00     0.010 C 
ATOM     20  C   UNL     1       8.047  11.722  -9.000  1.00  0.00     0.012 C 
ATOM     21  C   UNL     1       7.860   9.230  -9.812  1.00  0.00     0.003 C 
ATOM     22  C   UNL     1       9.908  10.776 -11.328  1.00  0.00     0.033 C 
ATOM     23  C   UNL     1       9.382   8.804  -9.741  1.00  0.00    -0.006 C 
ATOM     24  C   UNL     1      10.110   9.281 -11.043  1.00  0.00     0.120 C 
ATOM     25  C   UNL     1       9.498   7.255  -9.671  1.00  0.00     0.014 C 
ATOM     26  C   UNL     1      10.125   9.346  -8.492  1.00  0.00     0.014 C 
ENDROOT
BRANCH   1  27
ATOM     27  C   UNL     1      -0.191   8.719 -10.325  1.00  0.00     0.048 C 
ATOM     28  O   UNL     1      -1.099   9.214 -11.047  1.00  0.00    -0.550 OA
ATOM     29  O   UNL     1      -0.544   8.185  -9.090  1.00  0.00    -0.550 OA
ENDBRANCH   1  27
BRANCH   7  30
ATOM     30  C   UNL     1       1.811  10.869 -13.931  1.00  0.00    -0.077 C 
ATOM     31  C   UNL     1       2.956  10.551 -14.866  1.00  0.00     0.039 C 
ATOM     32  C   UNL     1       1.193  12.053 -14.082  1.00  0.00     0.008 C 
ENDBRANCH   7  30
BRANCH  24  33
ATOM     33  O   UNL     1       9.653   8.557 -12.162  1.00  0.00    -0.393 OA
ATOM     34  H   UNL     1      10.452   8.224 -12.651  1.00  0.00     0.210 HD
ENDBRANCH  24  33
TORSDOF 3
ENDMDL
MODEL 6
REMARK VINA RESULT:    -5.863     13.344     15.835
REMARK INTER + INTRA:          -7.059
REMARK INTER:                  -6.386
REMARK INTRA:                  -0.673
REMARK UNBOUND:                -0.339
REMARK SMILES C=C(C)[C@H]1CC[C@@]2(C(=O)[O-])CC[C@]3(C)[C@@H](CC[C@@H]4[C@]5(C)CC[C@H](O)C(C)(C)[C@H]5CC[C@@]43C)[C@@H]12
REMARK SMILES IDX 7 1 6 2 33 3 11 4 5 5 15 6 4 7 12 8 16 9 13 10 17 11 31 12
REMARK SMILES IDX 14 13 18 14 30 15 32 16 19 17 29 18 21 19 20 20 28 21 22 22
REMARK SMILES IDX 25 23 23 24 26 25 27 26 8 27 9 28 10 29 2 30 3 31 1 32 24 33
REMARK H PARENT 24 34
REMARK Flexibility Score: inf
ROOT
ATOM      1  C   UNL     1       6.198  -6.346  -3.239  1.00  0.00     0.014 C 
ATOM      2  C   UNL     1       6.864  -5.005  -2.840  1.00  0.00     0.014 C 
ATOM      3  C   UNL     1       5.141  -5.950  -4.315  1.00  0.00     0.012 C 
ATOM      4  C   UNL     1       5.547  -7.062  -2.022  1.00  0.00     0.014 C 
ATOM      5  C   UNL     1       6.559  -3.988  -3.944  1.00  0.00     0.009 C 
ATOM      6  C   UNL     1       3.677  -5.773  -3.748  1.00  0.00     0.000 C 
ATOM      7  C   UNL     1       5.779  -4.736  -5.033  1.00  0.00     0.018 C 
ATOM      8  C   UNL     1       4.355  -7.922  -2.461  1.00  0.00     0.008 C 
ATOM      9  C   UNL     1       3.468  -4.516  -2.920  1.00  0.00     0.005 C 
ATOM     10  C   UNL     1       3.145  -7.080  -3.018  1.00  0.00    -0.024 C 
ATOM     11  C   UNL     1       1.989  -4.288  -2.626  1.00  0.00     0.005 C 
ATOM     12  C   UNL     1       2.015  -6.803  -1.859  1.00  0.00    -0.024 C 
ATOM     13  C   UNL     1       2.529  -7.942  -4.181  1.00  0.00     0.012 C 
ATOM     14  C   UNL     1       1.116  -5.544  -2.249  1.00  0.00     0.002 C 
ATOM     15  C   UNL     1       2.591  -6.521  -0.424  1.00  0.00     0.008 C 
ATOM     16  C   UNL     1       1.178  -8.125  -1.724  1.00  0.00     0.012 C 
ATOM     17  C   UNL     1      -0.019  -5.152  -1.181  1.00  0.00    -0.026 C 
ATOM     18  C   UNL     1       1.533  -6.146   0.644  1.00  0.00     0.005 C 
ATOM     19  C   UNL     1      -0.757  -3.827  -1.602  1.00  0.00     0.010 C 
ATOM     20  C   UNL     1      -1.126  -6.261  -1.157  1.00  0.00     0.012 C 
ATOM     21  C   UNL     1       0.673  -4.930   0.221  1.00  0.00     0.003 C 
ATOM     22  C   UNL     1      -1.679  -3.252  -0.510  1.00  0.00     0.033 C 
ATOM     23  C   UNL     1      -0.247  -4.323   1.357  1.00  0.00    -0.006 C 
ATOM     24  C   UNL     1      -0.941  -3.026   0.817  1.00  0.00     0.120 C 
ATOM     25  C   UNL     1       0.619  -3.922   2.585  1.00  0.00     0.014 C 
ATOM     26  C   UNL     1      -1.316  -5.311   1.890  1.00  0.00     0.014 C 
ENDROOT
BRANCH   1  27
ATOM     27  C   UNL     1       7.275  -7.268  -3.814  1.00  0.00     0.048 C 
ATOM     28  O   UNL     1       8.458  -7.263  -3.378  1.00  0.00    -0.550 OA
ATOM     29  O   UNL     1       6.960  -8.124  -4.865  1.00  0.00    -0.550 OA
ENDBRANCH   1  27
BRANCH   7  30
ATOM     30  C   UNL     1       4.848  -3.909  -5.924  1.00  0.00    -0.077 C 
ATOM     31  C   UNL     1       4.394  -2.512  -5.567  1.00  0.00     0.039 C 
ATOM     32  C   UNL     1       4.502  -4.387  -7.132  1.00  0.00     0.008 C 
ENDBRANCH   7  30
BRANCH  24  33
ATOM     33  O   UNL     1       0.005  -2.000   0.623  1.00  0.00    -0.393 OA
ATOM     34  H   UNL     1      -0.489  -1.189   0.330  1.00  0.00     0.210 HD
ENDBRANCH  24  33
TORSDOF 3
ENDMDL
MODEL 7
REMARK VINA RESULT:    -5.682      9.652     12.999
REMARK INTER + INTRA:          -6.852
REMARK INTER:                  -6.374
REMARK INTRA:                  -0.478
REMARK UNBOUND:                -0.339
REMARK SMILES C=C(C)[C@H]1CC[C@@]2(C(=O)[O-])CC[C@]3(C)[C@@H](CC[C@@H]4[C@]5(C)CC[C@H](O)C(C)(C)[C@H]5CC[C@@]43C)[C@@H]12
REMARK SMILES IDX 7 1 6 2 33 3 11 4 5 5 15 6 4 7 12 8 16 9 13 10 17 11 31 12
REMARK SMILES IDX 14 13 18 14 30 15 32 16 19 17 29 18 21 19 20 20 28 21 22 22
REMARK SMILES IDX 25 23 23 24 26 25 27 26 8 27 9 28 10 29 2 30 3 31 1 32 24 33
REMARK H PARENT 24 34
REMARK Flexibility Score: inf
ROOT
ATOM      1  C   UNL     1       7.604  10.348 -10.299  1.00  0.00     0.014 C 
ATOM      2  C   UNL     1       7.793   9.636 -11.664  1.00  0.00     0.014 C 
ATOM      3  C   UNL     1       6.997   9.252  -9.372  1.00  0.00     0.012 C 
ATOM      4  C   UNL     1       6.680  11.592 -10.410  1.00  0.00     0.014 C 
ATOM      5  C   UNL     1       7.755   8.127 -11.410  1.00  0.00     0.009 C 
ATOM      6  C   UNL     1       5.423   9.313  -9.244  1.00  0.00     0.000 C 
ATOM      7  C   UNL     1       7.620   7.935  -9.894  1.00  0.00     0.018 C 
ATOM      8  C   UNL     1       5.942  11.851  -9.091  1.00  0.00     0.008 C 
ATOM      9  C   UNL     1       4.672   8.841 -10.479  1.00  0.00     0.005 C 
ATOM     10  C   UNL     1       4.909  10.721  -8.718  1.00  0.00    -0.024 C 
ATOM     11  C   UNL     1       3.181   8.689 -10.193  1.00  0.00     0.005 C 
ATOM     12  C   UNL     1       3.385  11.112  -9.192  1.00  0.00    -0.024 C 
ATOM     13  C   UNL     1       4.972  10.588  -7.152  1.00  0.00     0.012 C 
ATOM     14  C   UNL     1       2.488   9.799  -9.317  1.00  0.00     0.002 C 
ATOM     15  C   UNL     1       3.291  11.858 -10.573  1.00  0.00     0.008 C 
ATOM     16  C   UNL     1       2.831  12.125  -8.128  1.00  0.00     0.012 C 
ATOM     17  C   UNL     1       0.974  10.043  -9.797  1.00  0.00    -0.026 C 
ATOM     18  C   UNL     1       1.849  12.124 -11.075  1.00  0.00     0.005 C 
ATOM     19  C   UNL     1       0.221   8.678 -10.008  1.00  0.00     0.010 C 
ATOM     20  C   UNL     1       0.179  10.793  -8.674  1.00  0.00     0.012 C 
ATOM     21  C   UNL     1       1.007  10.827 -11.167  1.00  0.00     0.003 C 
ATOM     22  C   UNL     1      -1.146   8.820 -10.706  1.00  0.00     0.033 C 
ATOM     23  C   UNL     1      -0.380  10.973 -11.914  1.00  0.00    -0.006 C 
ATOM     24  C   UNL     1      -1.042   9.559 -12.047  1.00  0.00     0.120 C 
ATOM     25  C   UNL     1      -0.156  11.529 -13.350  1.00  0.00     0.014 C 
ATOM     26  C   UNL     1      -1.363  11.953 -11.223  1.00  0.00     0.014 C 
ENDROOT
BRANCH   1  27
ATOM     27  C   UNL     1       8.975  10.815  -9.805  1.00  0.00     0.048 C 
ATOM     28  O   UNL     1       9.532  11.849 -10.263  1.00  0.00    -0.550 OA
ATOM     29  O   UNL     1       9.649  10.072  -8.841  1.00  0.00    -0.550 OA
ENDBRANCH   1  27
BRANCH   7  30
ATOM     30  C   UNL     1       6.971   6.637  -9.404  1.00  0.00    -0.077 C 
ATOM     31  C   UNL     1       6.694   6.357  -7.944  1.00  0.00     0.039 C 
ATOM     32  C   UNL     1       6.518   5.749 -10.306  1.00  0.00     0.008 C 
ENDBRANCH   7  30
BRANCH  24  33
ATOM     33  O   UNL     1      -0.310   8.749 -12.938  1.00  0.00    -0.393 OA
ATOM     34  H   UNL     1      -0.965   8.256 -13.501  1.00  0.00     0.210 HD
ENDBRANCH  24  33
TORSDOF 3
ENDMDL
MODEL 8
REMARK VINA RESULT:    -5.615     10.151     13.887
REMARK INTER + INTRA:          -6.775
REMARK INTER:                  -6.074
REMARK INTRA:                  -0.702
REMARK UNBOUND:                -0.339
REMARK SMILES C=C(C)[C@H]1CC[C@@]2(C(=O)[O-])CC[C@]3(C)[C@@H](CC[C@@H]4[C@]5(C)CC[C@H](O)C(C)(C)[C@H]5CC[C@@]43C)[C@@H]12
REMARK SMILES IDX 7 1 6 2 33 3 11 4 5 5 15 6 4 7 12 8 16 9 13 10 17 11 31 12
REMARK SMILES IDX 14 13 18 14 30 15 32 16 19 17 29 18 21 19 20 20 28 21 22 22
REMARK SMILES IDX 25 23 23 24 26 25 27 26 8 27 9 28 10 29 2 30 3 31 1 32 24 33
REMARK H PARENT 24 34
REMARK Flexibility Score: inf
ROOT
ATOM      1  C   UNL     1       7.580   8.280 -13.357  1.00  0.00     0.014 C 
ATOM      2  C   UNL     1       7.924   7.453 -12.091  1.00  0.00     0.014 C 
ATOM      3  C   UNL     1       7.691   9.764 -12.892  1.00  0.00     0.012 C 
ATOM      4  C   UNL     1       6.164   7.948 -13.906  1.00  0.00     0.014 C 
ATOM      5  C   UNL     1       8.649   8.381 -11.112  1.00  0.00     0.009 C 
ATOM      6  C   UNL     1       6.310  10.421 -12.492  1.00  0.00     0.000 C 
ATOM      7  C   UNL     1       8.804   9.735 -11.817  1.00  0.00     0.018 C 
ATOM      8  C   UNL     1       5.556   9.155 -14.630  1.00  0.00     0.008 C 
ATOM      9  C   UNL     1       5.739   9.933 -11.171  1.00  0.00     0.005 C 
ATOM     10  C   UNL     1       5.248  10.369 -13.673  1.00  0.00    -0.024 C 
ATOM     11  C   UNL     1       4.552  10.787 -10.735  1.00  0.00     0.005 C 
ATOM     12  C   UNL     1       3.680  10.371 -13.181  1.00  0.00    -0.024 C 
ATOM     13  C   UNL     1       5.553  11.662 -14.516  1.00  0.00     0.012 C 
ATOM     14  C   UNL     1       3.520  11.223 -11.842  1.00  0.00     0.002 C 
ATOM     15  C   UNL     1       3.075   8.949 -12.890  1.00  0.00     0.008 C 
ATOM     16  C   UNL     1       2.837  10.951 -14.372  1.00  0.00     0.012 C 
ATOM     17  C   UNL     1       2.030  11.284 -11.241  1.00  0.00    -0.026 C 
ATOM     18  C   UNL     1       1.635   8.957 -12.316  1.00  0.00     0.005 C 
ATOM     19  C   UNL     1       2.009  12.038  -9.860  1.00  0.00     0.010 C 
ATOM     20  C   UNL     1       1.112  12.125 -12.193  1.00  0.00     0.012 C 
ATOM     21  C   UNL     1       1.518   9.806 -11.026  1.00  0.00     0.003 C 
ATOM     22  C   UNL     1       0.671  11.920  -9.105  1.00  0.00     0.033 C 
ATOM     23  C   UNL     1       0.155   9.654 -10.238  1.00  0.00    -0.006 C 
ATOM     24  C   UNL     1       0.246  10.459  -8.897  1.00  0.00     0.120 C 
ATOM     25  C   UNL     1      -0.089   8.160  -9.879  1.00  0.00     0.014 C 
ATOM     26  C   UNL     1      -1.088  10.110 -11.044  1.00  0.00     0.014 C 
ENDROOT
BRANCH   1  27
ATOM     27  C   UNL     1       8.604   7.946 -14.444  1.00  0.00     0.048 C 
ATOM     28  O   UNL     1       9.070   8.830 -15.214  1.00  0.00    -0.550 OA
ATOM     29  O   UNL     1       9.023   6.631 -14.615  1.00  0.00    -0.550 OA
ENDBRANCH   1  27
BRANCH   7  30
ATOM     30  C   UNL     1       8.924  10.979 -10.932  1.00  0.00    -0.077 C 
ATOM     31  C   UNL     1       8.677  10.954  -9.441  1.00  0.00     0.039 C 
ATOM     32  C   UNL     1       9.378  12.124 -11.470  1.00  0.00     0.008 C 
ENDBRANCH   7  30
BRANCH  24  33
ATOM     33  O   UNL     1       1.166   9.857  -8.016  1.00  0.00    -0.393 OA
ATOM     34  H   UNL     1       0.963  10.186  -7.100  1.00  0.00     0.210 HD
ENDBRANCH  24  33
TORSDOF 3
ENDMDL
