MODEL 1
REMARK VINA RESULT:    -2.785      0.000      0.000
REMARK INTER + INTRA:          -3.412
REMARK INTER:                  -3.273
REMARK INTRA:                  -0.139
REMARK UNBOUND:                -0.139
REMARK SMILES O=C([O-])CCC(=O)[O-]
REMARK SMILES IDX 4 1 2 2 1 3 3 4 5 5 6 6 7 7 8 8
REMARK H PARENT
REMARK Flexibility Score: inf
ROOT
ATOM      1  C   UNL     1      58.258  16.987  48.998  1.00  0.00     0.059 C 
ENDROOT
BRANCH   1   2
ATOM      2  C   UNL     1      59.560  17.699  48.789  1.00  0.00     0.042 C 
ATOM      3  O   UNL     1      60.631  17.202  49.226  1.00  0.00    -0.550 OA
ATOM      4  O   UNL     1      59.584  18.931  48.148  1.00  0.00    -0.550 OA
ENDBRANCH   1   2
BRANCH   1   5
ATOM      5  C   UNL     1      57.763  17.127  50.441  1.00  0.00     0.059 C 
BRANCH   5   6
ATOM      6  C   UNL     1      57.076  18.440  50.664  1.00  0.00     0.042 C 
ATOM      7  O   UNL     1      55.862  18.581  50.357  1.00  0.00    -0.550 OA
ATOM      8  O   UNL     1      57.765  19.496  51.247  1.00  0.00    -0.550 OA
ENDBRANCH   5   6
ENDBRANCH   1   5
TORSDOF 3
ENDMDL
MODEL 2
REMARK VINA RESULT:    -2.768      0.135      1.153
REMARK INTER + INTRA:          -3.392
REMARK INTER:                  -3.260
REMARK INTRA:                  -0.132
REMARK UNBOUND:                -0.139
REMARK SMILES O=C([O-])CCC(=O)[O-]
REMARK SMILES IDX 4 1 2 2 1 3 3 4 5 5 6 6 7 7 8 8
REMARK H PARENT
REMARK Flexibility Score: inf
ROOT
ATOM      1  C   UNL     1      58.166  16.968  49.120  1.00  0.00     0.059 C 
ENDROOT
BRANCH   1   2
ATOM      2  C   UNL     1      59.493  17.602  48.830  1.00  0.00     0.042 C 
ATOM      3  O   UNL     1      60.555  17.059  49.233  1.00  0.00    -0.550 OA
ATOM      4  O   UNL     1      59.552  18.812  48.153  1.00  0.00    -0.550 OA
ENDBRANCH   1   2
BRANCH   1   5
ATOM      5  C   UNL     1      57.742  17.183  50.576  1.00  0.00     0.059 C 
BRANCH   5   6
ATOM      6  C   UNL     1      57.052  18.500  50.760  1.00  0.00     0.042 C 
ATOM      7  O   UNL     1      57.678  19.483  51.238  1.00  0.00    -0.550 OA
ATOM      8  O   UNL     1      55.729  18.653  50.365  1.00  0.00    -0.550 OA
ENDBRANCH   5   6
ENDBRANCH   1   5
TORSDOF 3
ENDMDL
MODEL 3
REMARK VINA RESULT:    -2.762      0.150      3.583
REMARK INTER + INTRA:          -3.386
REMARK INTER:                  -3.257
REMARK INTRA:                  -0.129
REMARK UNBOUND:                -0.139
REMARK SMILES O=C([O-])CCC(=O)[O-]
REMARK SMILES IDX 4 1 2 2 1 3 3 4 5 5 6 6 7 7 8 8
REMARK H PARENT
REMARK Flexibility Score: inf
ROOT
ATOM      1  C   UNL     1      57.740  17.191  50.594  1.00  0.00     0.059 C 
ENDROOT
BRANCH   1   2
ATOM      2  C   UNL     1      57.052  18.511  50.762  1.00  0.00     0.042 C 
ATOM      3  O   UNL     1      57.669  19.486  51.266  1.00  0.00    -0.550 OA
ATOM      4  O   UNL     1      55.718  18.652  50.402  1.00  0.00    -0.550 OA
ENDBRANCH   1   2
BRANCH   1   5
ATOM      5  C   UNL     1      58.165  16.955  49.141  1.00  0.00     0.059 C 
BRANCH   5   6
ATOM      6  C   UNL     1      59.482  17.604  48.839  1.00  0.00     0.042 C 
ATOM      7  O   UNL     1      60.556  17.054  49.200  1.00  0.00    -0.550 OA
ATOM      8  O   UNL     1      59.523  18.793  48.123  1.00  0.00    -0.550 OA
ENDBRANCH   5   6
ENDBRANCH   1   5
TORSDOF 3
ENDMDL
MODEL 4
REMARK VINA RESULT:    -2.668     21.791     22.458
REMARK INTER + INTRA:          -3.275
REMARK INTER:                  -3.164
REMARK INTRA:                  -0.111
REMARK UNBOUND:                -0.139
REMARK SMILES O=C([O-])CCC(=O)[O-]
REMARK SMILES IDX 4 1 2 2 1 3 3 4 5 5 6 6 7 7 8 8
REMARK H PARENT
REMARK Flexibility Score: inf
ROOT
ATOM      1  C   UNL     1      73.029  31.482  60.542  1.00  0.00     0.059 C 
ENDROOT
BRANCH   1   2
ATOM      2  C   UNL     1      71.863  32.386  60.277  1.00  0.00     0.042 C 
ATOM      3  O   UNL     1      70.862  31.958  59.644  1.00  0.00    -0.550 OA
ATOM      4  O   UNL     1      71.900  33.710  60.693  1.00  0.00    -0.550 OA
ENDBRANCH   1   2
BRANCH   1   5
ATOM      5  C   UNL     1      73.125  31.103  62.023  1.00  0.00     0.059 C 
BRANCH   5   6
ATOM      6  C   UNL     1      72.329  29.870  62.329  1.00  0.00     0.042 C 
ATOM      7  O   UNL     1      72.745  28.739  61.963  1.00  0.00    -0.550 OA
ATOM      8  O   UNL     1      71.148  29.967  63.055  1.00  0.00    -0.550 OA
ENDBRANCH   5   6
ENDBRANCH   1   5
TORSDOF 3
ENDMDL
MODEL 5
REMARK VINA RESULT:    -2.545      2.311      3.732
REMARK INTER + INTRA:          -3.131
REMARK INTER:                  -3.089
REMARK INTRA:                  -0.042
REMARK UNBOUND:                -0.139
REMARK SMILES O=C([O-])CCC(=O)[O-]
REMARK SMILES IDX 4 1 2 2 1 3 3 4 5 5 6 6 7 7 8 8
REMARK H PARENT
REMARK Flexibility Score: inf
ROOT
ATOM      1  C   UNL     1      58.886  18.944  49.629  1.00  0.00     0.059 C 
ENDROOT
BRANCH   1   2
ATOM      2  C   UNL     1      58.355  17.556  49.443  1.00  0.00     0.042 C 
ATOM      3  O   UNL     1      57.802  16.955  50.402  1.00  0.00    -0.550 OA
ATOM      4  O   UNL     1      58.507  16.911  48.223  1.00  0.00    -0.550 OA
ENDBRANCH   1   2
BRANCH   1   5
ATOM      5  C   UNL     1      59.666  19.421  48.400  1.00  0.00     0.059 C 
BRANCH   5   6
ATOM      6  C   UNL     1      60.795  20.330  48.782  1.00  0.00     0.042 C 
ATOM      7  O   UNL     1      60.820  21.519  48.367  1.00  0.00    -0.550 OA
ATOM      8  O   UNL     1      61.798  19.875  49.629  1.00  0.00    -0.550 OA
ENDBRANCH   5   6
ENDBRANCH   1   5
TORSDOF 3
ENDMDL
MODEL 6
REMARK VINA RESULT:    -2.527      1.537      3.631
REMARK INTER + INTRA:          -3.109
REMARK INTER:                  -2.982
REMARK INTRA:                  -0.127
REMARK UNBOUND:                -0.139
REMARK SMILES O=C([O-])CCC(=O)[O-]
REMARK SMILES IDX 4 1 2 2 1 3 3 4 5 5 6 6 7 7 8 8
REMARK H PARENT
REMARK Flexibility Score: inf
ROOT
ATOM      1  C   UNL     1      58.254  19.309  50.855  1.00  0.00     0.059 C 
ENDROOT
BRANCH   1   2
ATOM      2  C   UNL     1      57.181  18.274  50.707  1.00  0.00     0.042 C 
ATOM      3  O   UNL     1      57.461  17.051  50.821  1.00  0.00    -0.550 OA
ATOM      4  O   UNL     1      55.882  18.657  50.401  1.00  0.00    -0.550 OA
ENDBRANCH   1   2
BRANCH   1   5
ATOM      5  C   UNL     1      59.589  18.828  50.278  1.00  0.00     0.059 C 
BRANCH   5   6
ATOM      6  C   UNL     1      59.618  18.943  48.784  1.00  0.00     0.042 C 
ATOM      7  O   UNL     1      59.934  20.034  48.238  1.00  0.00    -0.550 OA
ATOM      8  O   UNL     1      59.336  17.835  47.995  1.00  0.00    -0.550 OA
ENDBRANCH   5   6
ENDBRANCH   1   5
TORSDOF 3
ENDMDL
MODEL 7
REMARK VINA RESULT:    -2.402      9.809     11.064
REMARK INTER + INTRA:          -2.962
REMARK INTER:                  -2.929
REMARK INTRA:                  -0.034
REMARK UNBOUND:                -0.139
REMARK SMILES O=C([O-])CCC(=O)[O-]
REMARK SMILES IDX 4 1 2 2 1 3 3 4 5 5 6 6 7 7 8 8
REMARK H PARENT
REMARK Flexibility Score: inf
ROOT
ATOM      1  C   UNL     1      55.884  28.479  50.630  1.00  0.00     0.059 C 
ENDROOT
BRANCH   1   2
ATOM      2  C   UNL     1      54.887  27.562  49.989  1.00  0.00     0.042 C 
ATOM      3  O   UNL     1      55.202  26.373  49.720  1.00  0.00    -0.550 OA
ATOM      4  O   UNL     1      53.625  28.033  49.652  1.00  0.00    -0.550 OA
ENDBRANCH   1   2
BRANCH   1   5
ATOM      5  C   UNL     1      57.323  28.071  50.298  1.00  0.00     0.059 C 
BRANCH   5   6
ATOM      6  C   UNL     1      58.196  29.267  50.068  1.00  0.00     0.042 C 
ATOM      7  O   UNL     1      58.372  30.110  50.987  1.00  0.00    -0.550 OA
ATOM      8  O   UNL     1      58.849  29.427  48.852  1.00  0.00    -0.550 OA
ENDBRANCH   5   6
ENDBRANCH   1   5
TORSDOF 3
ENDMDL
