MODEL 1
REMARK VINA RESULT:    28.168      0.000      0.000
REMARK INTER + INTRA:          69.483
REMARK INTER:                  70.981
REMARK INTRA:                  -1.499
REMARK UNBOUND:                -1.499
REMARK SMILES CCCCCCCCCCCCCCCCCCCCCCCCCCCC(=O)[O-]
REMARK SMILES IDX 15 1 16 2 17 3 18 4 19 5 20 6 21 7 22 8 23 9 24 10 25 11
REMARK SMILES IDX 26 12 27 13 28 14 29 15 30 16 14 17 13 18 12 19 11 20 10 21
REMARK SMILES IDX 9 22 8 23 7 24 6 25 5 26 4 27 3 28 2 29 1 30
REMARK H PARENT
REMARK Flexibility Score: inf
ROOT
ATOM      1  C   UNL     1      -9.158 -13.647  18.660  1.00  0.00     0.000 C 
ENDROOT
BRANCH   1   2
ATOM      2  C   UNL     1      -8.631 -14.150  20.013  1.00  0.00     0.000 C 
BRANCH   2   3
ATOM      3  C   UNL     1      -8.823 -13.128  21.151  1.00  0.00     0.000 C 
BRANCH   3   4
ATOM      4  C   UNL     1      -7.780 -13.215  22.283  1.00  0.00     0.000 C 
BRANCH   4   5
ATOM      5  C   UNL     1      -6.934 -11.936  22.416  1.00  0.00     0.000 C 
BRANCH   5   6
ATOM      6  C   UNL     1      -6.371 -11.748  23.840  1.00  0.00     0.000 C 
BRANCH   6   7
ATOM      7  C   UNL     1      -7.044 -12.634  24.903  1.00  0.00     0.000 C 
BRANCH   7   8
ATOM      8  C   UNL     1      -6.055 -13.165  25.953  1.00  0.00     0.000 C 
BRANCH   8   9
ATOM      9  C   UNL     1      -5.037 -14.155  25.361  1.00  0.00     0.000 C 
BRANCH   9  10
ATOM     10  C   UNL     1      -4.594 -15.223  26.376  1.00  0.00     0.000 C 
BRANCH  10  11
ATOM     11  C   UNL     1      -5.545 -16.431  26.415  1.00  0.00     0.000 C 
BRANCH  11  12
ATOM     12  C   UNL     1      -4.819 -17.769  26.208  1.00  0.00     0.006 C 
BRANCH  12  13
ATOM     13  C   UNL     1      -5.591 -18.667  25.232  1.00  0.00     0.053 C 
BRANCH  13  14
ATOM     14  C   UNL     1      -5.493 -18.134  23.836  1.00  0.00     0.041 C 
ATOM     15  O   UNL     1      -4.428 -17.589  23.440  1.00  0.00    -0.550 OA
ATOM     16  O   UNL     1      -6.582 -18.220  22.976  1.00  0.00    -0.550 OA
ENDBRANCH  13  14
ENDBRANCH  12  13
ENDBRANCH  11  12
ENDBRANCH  10  11
ENDBRANCH   9  10
ENDBRANCH   8   9
ENDBRANCH   7   8
ENDBRANCH   6   7
ENDBRANCH   5   6
ENDBRANCH   4   5
ENDBRANCH   3   4
ENDBRANCH   2   3
ENDBRANCH   1   2
BRANCH   1  17
ATOM     17  C   UNL     1      -8.770 -14.608  17.526  1.00  0.00     0.000 C 
BRANCH  17  18
ATOM     18  C   UNL     1      -9.724 -15.810  17.398  1.00  0.00     0.000 C 
BRANCH  18  19
ATOM     19  C   UNL     1      -9.095 -17.188  17.691  1.00  0.00     0.000 C 
BRANCH  19  20
ATOM     20  C   UNL     1     -10.090 -18.361  17.763  1.00  0.00     0.000 C 
BRANCH  20  21
ATOM     21  C   UNL     1      -9.920 -19.358  16.603  1.00  0.00     0.000 C 
BRANCH  21  22
ATOM     22  C   UNL     1      -8.521 -19.296  15.967  1.00  0.00    -0.000 C 
BRANCH  22  23
ATOM     23  C   UNL     1      -8.471 -19.935  14.567  1.00  0.00    -0.000 C 
BRANCH  23  24
ATOM     24  C   UNL     1      -9.866 -20.125  13.943  1.00  0.00    -0.000 C 
BRANCH  24  25
ATOM     25  C   UNL     1     -10.349 -21.584  13.844  1.00  0.00    -0.000 C 
BRANCH  25  26
ATOM     26  C   UNL     1     -10.189 -22.175  12.431  1.00  0.00    -0.000 C 
BRANCH  26  27
ATOM     27  C   UNL     1      -9.129 -23.287  12.371  1.00  0.00    -0.000 C 
BRANCH  27  28
ATOM     28  C   UNL     1      -9.005 -23.910  10.969  1.00  0.00    -0.000 C 
BRANCH  28  29
ATOM     29  C   UNL     1      -8.828 -25.435  11.019  1.00  0.00    -0.003 C 
ATOM     30  C   UNL     1      -9.730 -26.171  10.028  1.00  0.00     0.004 C 
ENDBRANCH  28  29
ENDBRANCH  27  28
ENDBRANCH  26  27
ENDBRANCH  25  26
ENDBRANCH  24  25
ENDBRANCH  23  24
ENDBRANCH  22  23
ENDBRANCH  21  22
ENDBRANCH  20  21
ENDBRANCH  19  20
ENDBRANCH  18  19
ENDBRANCH  17  18
ENDBRANCH   1  17
TORSDOF 26
ENDMDL
MODEL 2
REMARK VINA RESULT:    28.449      1.581      2.189
REMARK INTER + INTRA:          70.192
REMARK INTER:                  72.043
REMARK INTRA:                  -1.851
REMARK UNBOUND:                -1.499
REMARK SMILES CCCCCCCCCCCCCCCCCCCCCCCCCCCC(=O)[O-]
REMARK SMILES IDX 15 1 16 2 17 3 18 4 19 5 20 6 21 7 22 8 23 9 24 10 25 11
REMARK SMILES IDX 26 12 27 13 28 14 29 15 30 16 14 17 13 18 12 19 11 20 10 21
REMARK SMILES IDX 9 22 8 23 7 24 6 25 5 26 4 27 3 28 2 29 1 30
REMARK H PARENT
REMARK Flexibility Score: inf
ROOT
ATOM      1  C   UNL     1      -9.102 -13.499  18.788  1.00  0.00     0.000 C 
ENDROOT
BRANCH   1   2
ATOM      2  C   UNL     1      -8.601 -14.018  20.144  1.00  0.00     0.000 C 
BRANCH   2   3
ATOM      3  C   UNL     1      -8.711 -12.968  21.268  1.00  0.00     0.000 C 
BRANCH   3   4
ATOM      4  C   UNL     1      -7.667 -13.112  22.393  1.00  0.00     0.000 C 
BRANCH   4   5
ATOM      5  C   UNL     1      -6.746 -11.885  22.513  1.00  0.00     0.000 C 
BRANCH   5   6
ATOM      6  C   UNL     1      -6.253 -11.657  23.957  1.00  0.00     0.000 C 
BRANCH   6   7
ATOM      7  C   UNL     1      -7.031 -12.455  25.019  1.00  0.00     0.000 C 
BRANCH   7   8
ATOM      8  C   UNL     1      -6.113 -13.137  26.046  1.00  0.00     0.000 C 
BRANCH   8   9
ATOM      9  C   UNL     1      -5.171 -14.171  25.405  1.00  0.00     0.000 C 
BRANCH   9  10
ATOM     10  C   UNL     1      -4.677 -15.223  26.414  1.00  0.00     0.000 C 
BRANCH  10  11
ATOM     11  C   UNL     1      -5.611 -16.442  26.500  1.00  0.00     0.000 C 
BRANCH  11  12
ATOM     12  C   UNL     1      -4.876 -17.774  26.283  1.00  0.00     0.006 C 
BRANCH  12  13
ATOM     13  C   UNL     1      -5.601 -18.637  25.241  1.00  0.00     0.053 C 
BRANCH  13  14
ATOM     14  C   UNL     1      -5.382 -18.093  23.863  1.00  0.00     0.041 C 
ATOM     15  O   UNL     1      -4.299 -17.518  23.574  1.00  0.00    -0.550 OA
ATOM     16  O   UNL     1      -6.380 -18.204  22.902  1.00  0.00    -0.550 OA
ENDBRANCH  13  14
ENDBRANCH  12  13
ENDBRANCH  11  12
ENDBRANCH  10  11
ENDBRANCH   9  10
ENDBRANCH   8   9
ENDBRANCH   7   8
ENDBRANCH   6   7
ENDBRANCH   5   6
ENDBRANCH   4   5
ENDBRANCH   3   4
ENDBRANCH   2   3
ENDBRANCH   1   2
BRANCH   1  17
ATOM     17  C   UNL     1      -8.705 -14.455  17.652  1.00  0.00     0.000 C 
BRANCH  17  18
ATOM     18  C   UNL     1      -9.729 -15.584  17.426  1.00  0.00     0.000 C 
BRANCH  18  19
ATOM     19  C   UNL     1      -9.440 -16.898  18.182  1.00  0.00     0.000 C 
BRANCH  19  20
ATOM     20  C   UNL     1     -10.219 -18.128  17.680  1.00  0.00     0.000 C 
BRANCH  20  21
ATOM     21  C   UNL     1      -9.308 -19.191  17.041  1.00  0.00     0.000 C 
BRANCH  21  22
ATOM     22  C   UNL     1      -7.815 -18.836  17.149  1.00  0.00    -0.000 C 
BRANCH  22  23
ATOM     23  C   UNL     1      -6.905 -19.861  16.450  1.00  0.00    -0.000 C 
BRANCH  23  24
ATOM     24  C   UNL     1      -6.066 -19.244  15.315  1.00  0.00    -0.000 C 
BRANCH  24  25
ATOM     25  C   UNL     1      -6.507 -19.626  13.890  1.00  0.00    -0.000 C 
BRANCH  25  26
ATOM     26  C   UNL     1      -7.697 -20.602  13.871  1.00  0.00    -0.000 C 
BRANCH  26  27
ATOM     27  C   UNL     1      -9.042 -19.891  13.649  1.00  0.00    -0.000 C 
BRANCH  27  28
ATOM     28  C   UNL     1     -10.223 -20.874  13.562  1.00  0.00    -0.000 C 
BRANCH  28  29
ATOM     29  C   UNL     1     -11.196 -20.521  12.428  1.00  0.00    -0.003 C 
ATOM     30  C   UNL     1     -11.483 -21.702  11.500  1.00  0.00     0.004 C 
ENDBRANCH  28  29
ENDBRANCH  27  28
ENDBRANCH  26  27
ENDBRANCH  25  26
ENDBRANCH  24  25
ENDBRANCH  23  24
ENDBRANCH  22  23
ENDBRANCH  21  22
ENDBRANCH  20  21
ENDBRANCH  19  20
ENDBRANCH  18  19
ENDBRANCH  17  18
ENDBRANCH   1  17
TORSDOF 26
ENDMDL
MODEL 3
REMARK VINA RESULT:    29.001      4.490     12.755
REMARK INTER + INTRA:          71.582
REMARK INTER:                  72.719
REMARK INTRA:                  -1.136
REMARK UNBOUND:                -1.499
REMARK SMILES CCCCCCCCCCCCCCCCCCCCCCCCCCCC(=O)[O-]
REMARK SMILES IDX 15 1 16 2 17 3 18 4 19 5 20 6 21 7 22 8 23 9 24 10 25 11
REMARK SMILES IDX 26 12 27 13 28 14 29 15 30 16 14 17 13 18 12 19 11 20 10 21
REMARK SMILES IDX 9 22 8 23 7 24 6 25 5 26 4 27 3 28 2 29 1 30
REMARK H PARENT
REMARK Flexibility Score: inf
ROOT
ATOM      1  C   UNL     1      -7.380 -13.356  22.109  1.00  0.00     0.000 C 
ENDROOT
BRANCH   1   2
ATOM      2  C   UNL     1      -8.713 -13.698  21.424  1.00  0.00     0.000 C 
BRANCH   2   3
ATOM      3  C   UNL     1      -8.793 -13.184  19.973  1.00  0.00     0.000 C 
BRANCH   3   4
ATOM      4  C   UNL     1      -8.681 -14.278  18.892  1.00  0.00     0.000 C 
BRANCH   4   5
ATOM      5  C   UNL     1      -9.501 -13.956  17.630  1.00  0.00     0.000 C 
BRANCH   5   6
ATOM      6  C   UNL     1      -9.901 -15.226  16.849  1.00  0.00     0.000 C 
BRANCH   6   7
ATOM      7  C   UNL     1      -9.208 -16.509  17.339  1.00  0.00     0.000 C 
BRANCH   7   8
ATOM      8  C   UNL     1     -10.198 -17.562  17.862  1.00  0.00     0.000 C 
BRANCH   8   9
ATOM      9  C   UNL     1      -9.703 -19.002  17.641  1.00  0.00     0.000 C 
BRANCH   9  10
ATOM     10  C   UNL     1      -8.646 -19.097  16.527  1.00  0.00     0.000 C 
BRANCH  10  11
ATOM     11  C   UNL     1      -7.246 -18.676  17.005  1.00  0.00     0.000 C 
BRANCH  11  12
ATOM     12  C   UNL     1      -6.118 -19.264  16.143  1.00  0.00     0.006 C 
BRANCH  12  13
ATOM     13  C   UNL     1      -6.685 -20.161  15.035  1.00  0.00     0.053 C 
BRANCH  13  14
ATOM     14  C   UNL     1      -5.865 -20.042  13.788  1.00  0.00     0.041 C 
ATOM     15  O   UNL     1      -5.410 -21.075  13.228  1.00  0.00    -0.550 OA
ATOM     16  O   UNL     1      -5.585 -18.790  13.252  1.00  0.00    -0.550 OA
ENDBRANCH  13  14
ENDBRANCH  12  13
ENDBRANCH  11  12
ENDBRANCH  10  11
ENDBRANCH   9  10
ENDBRANCH   8   9
ENDBRANCH   7   8
ENDBRANCH   6   7
ENDBRANCH   5   6
ENDBRANCH   4   5
ENDBRANCH   3   4
ENDBRANCH   2   3
ENDBRANCH   1   2
BRANCH   1  17
ATOM     17  C   UNL     1      -7.510 -12.084  22.961  1.00  0.00     0.000 C 
BRANCH  17  18
ATOM     18  C   UNL     1      -6.363 -11.916  23.975  1.00  0.00     0.000 C 
BRANCH  18  19
ATOM     19  C   UNL     1      -6.692 -11.045  25.207  1.00  0.00     0.000 C 
BRANCH  19  20
ATOM     20  C   UNL     1      -5.543 -10.144  25.698  1.00  0.00     0.000 C 
BRANCH  20  21
ATOM     21  C   UNL     1      -5.552  -8.755  25.037  1.00  0.00     0.000 C 
BRANCH  21  22
ATOM     22  C   UNL     1      -4.276  -8.475  24.226  1.00  0.00    -0.000 C 
BRANCH  22  23
ATOM     23  C   UNL     1      -2.988  -8.746  25.025  1.00  0.00    -0.000 C 
BRANCH  23  24
ATOM     24  C   UNL     1      -1.709  -8.411  24.234  1.00  0.00    -0.000 C 
BRANCH  24  25
ATOM     25  C   UNL     1      -1.216  -9.519  23.284  1.00  0.00    -0.000 C 
BRANCH  25  26
ATOM     26  C   UNL     1      -1.047  -9.034  21.833  1.00  0.00    -0.000 C 
BRANCH  26  27
ATOM     27  C   UNL     1      -1.279  -7.521  21.683  1.00  0.00    -0.000 C 
BRANCH  27  28
ATOM     28  C   UNL     1      -2.646  -7.192  21.057  1.00  0.00    -0.000 C 
BRANCH  28  29
ATOM     29  C   UNL     1      -2.842  -7.866  19.691  1.00  0.00    -0.003 C 
ATOM     30  C   UNL     1      -4.132  -7.432  18.994  1.00  0.00     0.004 C 
ENDBRANCH  28  29
ENDBRANCH  27  28
ENDBRANCH  26  27
ENDBRANCH  25  26
ENDBRANCH  24  25
ENDBRANCH  23  24
ENDBRANCH  22  23
ENDBRANCH  21  22
ENDBRANCH  20  21
ENDBRANCH  19  20
ENDBRANCH  18  19
ENDBRANCH  17  18
ENDBRANCH   1  17
TORSDOF 26
ENDMDL
MODEL 4
REMARK VINA RESULT:    29.228      6.163      8.265
REMARK INTER + INTRA:          72.156
REMARK INTER:                  73.269
REMARK INTRA:                  -1.113
REMARK UNBOUND:                -1.499
REMARK SMILES CCCCCCCCCCCCCCCCCCCCCCCCCCCC(=O)[O-]
REMARK SMILES IDX 15 1 16 2 17 3 18 4 19 5 20 6 21 7 22 8 23 9 24 10 25 11
REMARK SMILES IDX 26 12 27 13 28 14 29 15 30 16 14 17 13 18 12 19 11 20 10 21
REMARK SMILES IDX 9 22 8 23 7 24 6 25 5 26 4 27 3 28 2 29 1 30
REMARK H PARENT
REMARK Flexibility Score: inf
ROOT
ATOM      1  C   UNL     1      -8.604 -14.733  19.559  1.00  0.00     0.000 C 
ENDROOT
BRANCH   1   2
ATOM      2  C   UNL     1      -8.690 -14.332  21.040  1.00  0.00     0.000 C 
BRANCH   2   3
ATOM      3  C   UNL     1      -8.386 -12.840  21.278  1.00  0.00     0.000 C 
BRANCH   3   4
ATOM      4  C   UNL     1      -8.054 -12.472  22.738  1.00  0.00     0.000 C 
BRANCH   4   5
ATOM      5  C   UNL     1      -6.542 -12.335  22.990  1.00  0.00     0.000 C 
BRANCH   5   6
ATOM      6  C   UNL     1      -6.228 -11.493  24.245  1.00  0.00     0.000 C 
BRANCH   6   7
ATOM      7  C   UNL     1      -6.073  -9.987  23.967  1.00  0.00     0.000 C 
BRANCH   7   8
ATOM      8  C   UNL     1      -4.977  -9.330  24.822  1.00  0.00     0.000 C 
BRANCH   8   9
ATOM      9  C   UNL     1      -4.316  -8.132  24.118  1.00  0.00     0.000 C 
BRANCH   9  10
ATOM     10  C   UNL     1      -2.836  -7.965  24.506  1.00  0.00     0.000 C 
BRANCH  10  11
ATOM     11  C   UNL     1      -1.904  -8.867  23.680  1.00  0.00     0.000 C 
BRANCH  11  12
ATOM     12  C   UNL     1      -0.818  -9.543  24.532  1.00  0.00     0.006 C 
BRANCH  12  13
ATOM     13  C   UNL     1      -0.970  -9.169  26.012  1.00  0.00     0.053 C 
BRANCH  13  14
ATOM     14  C   UNL     1       0.273  -8.503  26.517  1.00  0.00     0.041 C 
ATOM     15  O   UNL     1       1.213  -9.194  26.992  1.00  0.00    -0.550 OA
ATOM     16  O   UNL     1       0.387  -7.118  26.483  1.00  0.00    -0.550 OA
ENDBRANCH  13  14
ENDBRANCH  12  13
ENDBRANCH  11  12
ENDBRANCH  10  11
ENDBRANCH   9  10
ENDBRANCH   8   9
ENDBRANCH   7   8
ENDBRANCH   6   7
ENDBRANCH   5   6
ENDBRANCH   4   5
ENDBRANCH   3   4
ENDBRANCH   2   3
ENDBRANCH   1   2
BRANCH   1  17
ATOM     17  C   UNL     1      -8.365 -13.503  18.670  1.00  0.00     0.000 C 
BRANCH  17  18
ATOM     18  C   UNL     1      -9.458 -13.307  17.603  1.00  0.00     0.000 C 
BRANCH  18  19
ATOM     19  C   UNL     1     -10.165 -14.597  17.136  1.00  0.00     0.000 C 
BRANCH  19  20
ATOM     20  C   UNL     1     -11.394 -14.381  16.233  1.00  0.00     0.000 C 
BRANCH  20  21
ATOM     21  C   UNL     1     -11.014 -14.072  14.774  1.00  0.00     0.000 C 
BRANCH  21  22
ATOM     22  C   UNL     1     -12.178 -14.299  13.795  1.00  0.00    -0.000 C 
BRANCH  22  23
ATOM     23  C   UNL     1     -11.728 -14.932  12.467  1.00  0.00    -0.000 C 
BRANCH  23  24
ATOM     24  C   UNL     1     -11.805 -13.954  11.279  1.00  0.00    -0.000 C 
BRANCH  24  25
ATOM     25  C   UNL     1     -10.733 -12.849  11.267  1.00  0.00    -0.000 C 
BRANCH  25  26
ATOM     26  C   UNL     1      -9.526 -13.172  12.168  1.00  0.00    -0.000 C 
BRANCH  26  27
ATOM     27  C   UNL     1      -8.929 -11.920  12.830  1.00  0.00    -0.000 C 
BRANCH  27  28
ATOM     28  C   UNL     1      -9.861 -11.312  13.893  1.00  0.00    -0.000 C 
BRANCH  28  29
ATOM     29  C   UNL     1     -10.109  -9.814  13.667  1.00  0.00    -0.003 C 
ATOM     30  C   UNL     1      -9.163  -9.204  12.632  1.00  0.00     0.004 C 
ENDBRANCH  28  29
ENDBRANCH  27  28
ENDBRANCH  26  27
ENDBRANCH  25  26
ENDBRANCH  24  25
ENDBRANCH  23  24
ENDBRANCH  22  23
ENDBRANCH  21  22
ENDBRANCH  20  21
ENDBRANCH  19  20
ENDBRANCH  18  19
ENDBRANCH  17  18
ENDBRANCH   1  17
TORSDOF 26
ENDMDL
MODEL 5
REMARK VINA RESULT:    29.306      2.572      2.956
REMARK INTER + INTRA:          72.352
REMARK INTER:                  73.502
REMARK INTRA:                  -1.150
REMARK UNBOUND:                -1.499
REMARK SMILES CCCCCCCCCCCCCCCCCCCCCCCCCCCC(=O)[O-]
REMARK SMILES IDX 15 1 16 2 17 3 18 4 19 5 20 6 21 7 22 8 23 9 24 10 25 11
REMARK SMILES IDX 26 12 27 13 28 14 29 15 30 16 14 17 13 18 12 19 11 20 10 21
REMARK SMILES IDX 9 22 8 23 7 24 6 25 5 26 4 27 3 28 2 29 1 30
REMARK H PARENT
REMARK Flexibility Score: inf
ROOT
ATOM      1  C   UNL     1      -9.571 -13.826  19.506  1.00  0.00     0.000 C 
ENDROOT
BRANCH   1   2
ATOM      2  C   UNL     1      -8.654 -14.003  20.725  1.00  0.00     0.000 C 
BRANCH   2   3
ATOM      3  C   UNL     1      -8.277 -12.666  21.393  1.00  0.00     0.000 C 
BRANCH   3   4
ATOM      4  C   UNL     1      -7.682 -12.795  22.810  1.00  0.00     0.000 C 
BRANCH   4   5
ATOM      5  C   UNL     1      -6.492 -11.848  23.046  1.00  0.00     0.000 C 
BRANCH   5   6
ATOM      6  C   UNL     1      -6.153 -11.690  24.544  1.00  0.00     0.000 C 
BRANCH   6   7
ATOM      7  C   UNL     1      -6.942 -12.634  25.468  1.00  0.00     0.000 C 
BRANCH   7   8
ATOM      8  C   UNL     1      -6.033 -13.515  26.341  1.00  0.00     0.000 C 
BRANCH   8   9
ATOM      9  C   UNL     1      -5.021 -14.324  25.512  1.00  0.00     0.000 C 
BRANCH   9  10
ATOM     10  C   UNL     1      -4.507 -15.567  26.259  1.00  0.00     0.000 C 
BRANCH  10  11
ATOM     11  C   UNL     1      -5.563 -16.682  26.344  1.00  0.00     0.000 C 
BRANCH  11  12
ATOM     12  C   UNL     1      -4.988 -18.074  26.034  1.00  0.00     0.006 C 
BRANCH  12  13
ATOM     13  C   UNL     1      -5.749 -18.736  24.878  1.00  0.00     0.053 C 
BRANCH  13  14
ATOM     14  C   UNL     1      -5.449 -18.043  23.584  1.00  0.00     0.041 C 
ATOM     15  O   UNL     1      -4.313 -17.538  23.386  1.00  0.00    -0.550 OA
ATOM     16  O   UNL     1      -6.430 -17.937  22.605  1.00  0.00    -0.550 OA
ENDBRANCH  13  14
ENDBRANCH  12  13
ENDBRANCH  11  12
ENDBRANCH  10  11
ENDBRANCH   9  10
ENDBRANCH   8   9
ENDBRANCH   7   8
ENDBRANCH   6   7
ENDBRANCH   5   6
ENDBRANCH   4   5
ENDBRANCH   3   4
ENDBRANCH   2   3
ENDBRANCH   1   2
BRANCH   1  17
ATOM     17  C   UNL     1      -8.780 -13.971  18.196  1.00  0.00     0.000 C 
BRANCH  17  18
ATOM     18  C   UNL     1      -9.448 -14.924  17.188  1.00  0.00     0.000 C 
BRANCH  18  19
ATOM     19  C   UNL     1      -8.987 -16.395  17.263  1.00  0.00     0.000 C 
BRANCH  19  20
ATOM     20  C   UNL     1      -9.902 -17.328  18.078  1.00  0.00     0.000 C 
BRANCH  20  21
ATOM     21  C   UNL     1      -9.808 -18.796  17.627  1.00  0.00     0.000 C 
BRANCH  21  22
ATOM     22  C   UNL     1      -8.818 -18.999  16.467  1.00  0.00    -0.000 C 
BRANCH  22  23
ATOM     23  C   UNL     1      -7.376 -18.608  16.836  1.00  0.00    -0.000 C 
BRANCH  23  24
ATOM     24  C   UNL     1      -6.330 -19.618  16.328  1.00  0.00    -0.000 C 
BRANCH  24  25
ATOM     25  C   UNL     1      -6.788 -20.501  15.152  1.00  0.00    -0.000 C 
BRANCH  25  26
ATOM     26  C   UNL     1      -6.121 -20.119  13.818  1.00  0.00    -0.000 C 
BRANCH  26  27
ATOM     27  C   UNL     1      -6.064 -18.598  13.599  1.00  0.00    -0.000 C 
BRANCH  27  28
ATOM     28  C   UNL     1      -6.858 -18.150  12.359  1.00  0.00    -0.000 C 
BRANCH  28  29
ATOM     29  C   UNL     1      -8.157 -18.949  12.176  1.00  0.00    -0.003 C 
ATOM     30  C   UNL     1      -9.396 -18.058  12.091  1.00  0.00     0.004 C 
ENDBRANCH  28  29
ENDBRANCH  27  28
ENDBRANCH  26  27
ENDBRANCH  25  26
ENDBRANCH  24  25
ENDBRANCH  23  24
ENDBRANCH  22  23
ENDBRANCH  21  22
ENDBRANCH  20  21
ENDBRANCH  19  20
ENDBRANCH  18  19
ENDBRANCH  17  18
ENDBRANCH   1  17
TORSDOF 26
ENDMDL
MODEL 6
REMARK VINA RESULT:    29.382      4.488     13.102
REMARK INTER + INTRA:          72.542
REMARK INTER:                  73.707
REMARK INTRA:                  -1.165
REMARK UNBOUND:                -1.499
REMARK SMILES CCCCCCCCCCCCCCCCCCCCCCCCCCCC(=O)[O-]
REMARK SMILES IDX 15 1 16 2 17 3 18 4 19 5 20 6 21 7 22 8 23 9 24 10 25 11
REMARK SMILES IDX 26 12 27 13 28 14 29 15 30 16 14 17 13 18 12 19 11 20 10 21
REMARK SMILES IDX 9 22 8 23 7 24 6 25 5 26 4 27 3 28 2 29 1 30
REMARK H PARENT
REMARK Flexibility Score: inf
ROOT
ATOM      1  C   UNL     1      -8.221 -13.931  21.307  1.00  0.00     0.000 C 
ENDROOT
BRANCH   1   2
ATOM      2  C   UNL     1      -9.133 -13.634  20.106  1.00  0.00     0.000 C 
BRANCH   2   3
ATOM      3  C   UNL     1      -8.456 -13.924  18.752  1.00  0.00     0.000 C 
BRANCH   3   4
ATOM      4  C   UNL     1      -9.347 -14.655  17.727  1.00  0.00     0.000 C 
BRANCH   4   5
ATOM      5  C   UNL     1      -9.868 -16.007  18.246  1.00  0.00     0.000 C 
BRANCH   5   6
ATOM      6  C   UNL     1      -8.947 -17.183  17.854  1.00  0.00     0.000 C 
BRANCH   6   7
ATOM      7  C   UNL     1      -9.679 -18.354  17.176  1.00  0.00     0.000 C 
BRANCH   7   8
ATOM      8  C   UNL     1      -8.754 -19.545  16.878  1.00  0.00     0.000 C 
BRANCH   8   9
ATOM      9  C   UNL     1      -7.353 -19.106  16.415  1.00  0.00     0.000 C 
BRANCH   9  10
ATOM     10  C   UNL     1      -6.670 -20.161  15.527  1.00  0.00     0.000 C 
BRANCH  10  11
ATOM     11  C   UNL     1      -5.640 -19.544  14.565  1.00  0.00     0.000 C 
BRANCH  11  12
ATOM     12  C   UNL     1      -6.204 -19.313  13.155  1.00  0.00     0.006 C 
BRANCH  12  13
ATOM     13  C   UNL     1      -7.306 -18.246  13.172  1.00  0.00     0.053 C 
BRANCH  13  14
ATOM     14  C   UNL     1      -8.613 -18.829  12.733  1.00  0.00     0.041 C 
ATOM     15  O   UNL     1      -9.175 -18.408  11.687  1.00  0.00    -0.550 OA
ATOM     16  O   UNL     1      -9.223 -19.824  13.488  1.00  0.00    -0.550 OA
ENDBRANCH  13  14
ENDBRANCH  12  13
ENDBRANCH  11  12
ENDBRANCH  10  11
ENDBRANCH   9  10
ENDBRANCH   8   9
ENDBRANCH   7   8
ENDBRANCH   6   7
ENDBRANCH   5   6
ENDBRANCH   4   5
ENDBRANCH   3   4
ENDBRANCH   2   3
ENDBRANCH   1   2
BRANCH   1  17
ATOM     17  C   UNL     1      -7.538 -12.650  21.810  1.00  0.00     0.000 C 
BRANCH  17  18
ATOM     18  C   UNL     1      -7.624 -12.478  23.338  1.00  0.00     0.000 C 
BRANCH  18  19
ATOM     19  C   UNL     1      -6.328 -11.995  24.022  1.00  0.00     0.000 C 
BRANCH  19  20
ATOM     20  C   UNL     1      -6.196 -10.468  24.171  1.00  0.00     0.000 C 
BRANCH  20  21
ATOM     21  C   UNL     1      -5.633 -10.050  25.541  1.00  0.00     0.000 C 
BRANCH  21  22
ATOM     22  C   UNL     1      -5.016  -8.641  25.525  1.00  0.00    -0.000 C 
BRANCH  22  23
ATOM     23  C   UNL     1      -4.132  -8.388  24.291  1.00  0.00    -0.000 C 
BRANCH  23  24
ATOM     24  C   UNL     1      -2.700  -8.931  24.456  1.00  0.00    -0.000 C 
BRANCH  24  25
ATOM     25  C   UNL     1      -1.577  -7.945  24.083  1.00  0.00    -0.000 C 
BRANCH  25  26
ATOM     26  C   UNL     1      -1.194  -8.006  22.594  1.00  0.00    -0.000 C 
BRANCH  26  27
ATOM     27  C   UNL     1      -2.243  -7.346  21.684  1.00  0.00    -0.000 C 
BRANCH  27  28
ATOM     28  C   UNL     1      -2.079  -7.744  20.207  1.00  0.00    -0.000 C 
BRANCH  28  29
ATOM     29  C   UNL     1      -3.194  -7.171  19.319  1.00  0.00    -0.003 C 
ATOM     30  C   UNL     1      -4.593  -7.565  19.792  1.00  0.00     0.004 C 
ENDBRANCH  28  29
ENDBRANCH  27  28
ENDBRANCH  26  27
ENDBRANCH  25  26
ENDBRANCH  24  25
ENDBRANCH  23  24
ENDBRANCH  22  23
ENDBRANCH  21  22
ENDBRANCH  20  21
ENDBRANCH  19  20
ENDBRANCH  18  19
ENDBRANCH  17  18
ENDBRANCH   1  17
TORSDOF 26
ENDMDL
MODEL 7
REMARK VINA RESULT:    29.430      4.456     13.254
REMARK INTER + INTRA:          72.664
REMARK INTER:                  73.303
REMARK INTRA:                  -0.640
REMARK UNBOUND:                -1.499
REMARK SMILES CCCCCCCCCCCCCCCCCCCCCCCCCCCC(=O)[O-]
REMARK SMILES IDX 15 1 16 2 17 3 18 4 19 5 20 6 21 7 22 8 23 9 24 10 25 11
REMARK SMILES IDX 26 12 27 13 28 14 29 15 30 16 14 17 13 18 12 19 11 20 10 21
REMARK SMILES IDX 9 22 8 23 7 24 6 25 5 26 4 27 3 28 2 29 1 30
REMARK H PARENT
REMARK Flexibility Score: inf
ROOT
ATOM      1  C   UNL     1      -8.564 -14.283  20.424  1.00  0.00     0.000 C 
ENDROOT
BRANCH   1   2
ATOM      2  C   UNL     1      -8.221 -13.738  19.028  1.00  0.00     0.000 C 
BRANCH   2   3
ATOM      3  C   UNL     1      -9.292 -12.776  18.479  1.00  0.00     0.000 C 
BRANCH   3   4
ATOM      4  C   UNL     1     -10.065 -13.300  17.252  1.00  0.00     0.000 C 
BRANCH   4   5
ATOM      5  C   UNL     1      -9.418 -14.550  16.629  1.00  0.00     0.000 C 
BRANCH   5   6
ATOM      6  C   UNL     1     -10.216 -15.837  16.927  1.00  0.00     0.000 C 
BRANCH   6   7
ATOM      7  C   UNL     1      -9.726 -16.607  18.166  1.00  0.00     0.000 C 
BRANCH   7   8
ATOM      8  C   UNL     1     -10.083 -18.101  18.121  1.00  0.00     0.000 C 
BRANCH   8   9
ATOM      9  C   UNL     1      -9.535 -18.804  16.867  1.00  0.00     0.000 C 
BRANCH   9  10
ATOM     10  C   UNL     1      -8.416 -19.808  17.196  1.00  0.00     0.000 C 
BRANCH  10  11
ATOM     11  C   UNL     1      -7.013 -19.238  16.925  1.00  0.00     0.000 C 
BRANCH  11  12
ATOM     12  C   UNL     1      -6.811 -18.824  15.458  1.00  0.00     0.006 C 
BRANCH  12  13
ATOM     13  C   UNL     1      -6.820 -20.049  14.535  1.00  0.00     0.053 C 
BRANCH  13  14
ATOM     14  C   UNL     1      -5.762 -19.924  13.483  1.00  0.00     0.041 C 
ATOM     15  O   UNL     1      -5.637 -18.851  12.836  1.00  0.00    -0.550 OA
ATOM     16  O   UNL     1      -4.926 -20.999  13.201  1.00  0.00    -0.550 OA
ENDBRANCH  13  14
ENDBRANCH  12  13
ENDBRANCH  11  12
ENDBRANCH  10  11
ENDBRANCH   9  10
ENDBRANCH   8   9
ENDBRANCH   7   8
ENDBRANCH   6   7
ENDBRANCH   5   6
ENDBRANCH   4   5
ENDBRANCH   3   4
ENDBRANCH   2   3
ENDBRANCH   1   2
BRANCH   1  17
ATOM     17  C   UNL     1      -8.954 -13.143  21.379  1.00  0.00     0.000 C 
BRANCH  17  18
ATOM     18  C   UNL     1      -7.738 -12.429  21.997  1.00  0.00     0.000 C 
BRANCH  18  19
ATOM     19  C   UNL     1      -7.125 -13.119  23.234  1.00  0.00     0.000 C 
BRANCH  19  20
ATOM     20  C   UNL     1      -6.775 -12.178  24.403  1.00  0.00     0.000 C 
BRANCH  20  21
ATOM     21  C   UNL     1      -5.788 -11.069  23.998  1.00  0.00     0.000 C 
BRANCH  21  22
ATOM     22  C   UNL     1      -5.727  -9.924  25.024  1.00  0.00    -0.000 C 
BRANCH  22  23
ATOM     23  C   UNL     1      -5.326  -8.578  24.395  1.00  0.00    -0.000 C 
BRANCH  23  24
ATOM     24  C   UNL     1      -3.873  -8.176  24.712  1.00  0.00    -0.000 C 
BRANCH  24  25
ATOM     25  C   UNL     1      -3.109  -7.509  23.553  1.00  0.00    -0.000 C 
BRANCH  25  26
ATOM     26  C   UNL     1      -1.580  -7.560  23.733  1.00  0.00    -0.000 C 
BRANCH  26  27
ATOM     27  C   UNL     1      -1.080  -8.951  24.158  1.00  0.00    -0.000 C 
BRANCH  27  28
ATOM     28  C   UNL     1      -1.078  -9.136  25.686  1.00  0.00    -0.000 C 
BRANCH  28  29
ATOM     29  C   UNL     1       0.170  -8.532  26.347  1.00  0.00    -0.003 C 
ATOM     30  C   UNL     1       0.615  -7.224  25.693  1.00  0.00     0.004 C 
ENDBRANCH  28  29
ENDBRANCH  27  28
ENDBRANCH  26  27
ENDBRANCH  25  26
ENDBRANCH  24  25
ENDBRANCH  23  24
ENDBRANCH  22  23
ENDBRANCH  21  22
ENDBRANCH  20  21
ENDBRANCH  19  20
ENDBRANCH  18  19
ENDBRANCH  17  18
ENDBRANCH   1  17
TORSDOF 26
ENDMDL
MODEL 8
REMARK VINA RESULT:    29.613      5.066      6.949
REMARK INTER + INTRA:          73.125
REMARK INTER:                  74.242
REMARK INTRA:                  -1.118
REMARK UNBOUND:                -1.499
REMARK SMILES CCCCCCCCCCCCCCCCCCCCCCCCCCCC(=O)[O-]
REMARK SMILES IDX 15 1 16 2 17 3 18 4 19 5 20 6 21 7 22 8 23 9 24 10 25 11
REMARK SMILES IDX 26 12 27 13 28 14 29 15 30 16 14 17 13 18 12 19 11 20 10 21
REMARK SMILES IDX 9 22 8 23 7 24 6 25 5 26 4 27 3 28 2 29 1 30
REMARK H PARENT
REMARK Flexibility Score: inf
ROOT
ATOM      1  C   UNL     1      -8.330 -13.737  18.627  1.00  0.00     0.000 C 
ENDROOT
BRANCH   1   2
ATOM      2  C   UNL     1      -9.121 -14.323  19.807  1.00  0.00     0.000 C 
BRANCH   2   3
ATOM      3  C   UNL     1      -8.460 -14.043  21.172  1.00  0.00     0.000 C 
BRANCH   3   4
ATOM      4  C   UNL     1      -8.186 -12.555  21.465  1.00  0.00     0.000 C 
BRANCH   4   5
ATOM      5  C   UNL     1      -8.041 -12.259  22.969  1.00  0.00     0.000 C 
BRANCH   5   6
ATOM      6  C   UNL     1      -6.566 -12.147  23.407  1.00  0.00     0.000 C 
BRANCH   6   7
ATOM      7  C   UNL     1      -6.378 -11.716  24.873  1.00  0.00     0.000 C 
BRANCH   7   8
ATOM      8  C   UNL     1      -6.424 -12.898  25.855  1.00  0.00     0.000 C 
BRANCH   8   9
ATOM      9  C   UNL     1      -5.664 -14.131  25.334  1.00  0.00     0.000 C 
BRANCH   9  10
ATOM     10  C   UNL     1      -5.109 -15.004  26.473  1.00  0.00     0.000 C 
BRANCH  10  11
ATOM     11  C   UNL     1      -4.865 -16.458  26.036  1.00  0.00     0.000 C 
BRANCH  11  12
ATOM     12  C   UNL     1      -3.995 -16.564  24.773  1.00  0.00     0.006 C 
BRANCH  12  13
ATOM     13  C   UNL     1      -4.439 -17.744  23.899  1.00  0.00     0.053 C 
BRANCH  13  14
ATOM     14  C   UNL     1      -5.532 -18.516  24.570  1.00  0.00     0.041 C 
ATOM     15  O   UNL     1      -5.327 -19.061  25.688  1.00  0.00    -0.550 OA
ATOM     16  O   UNL     1      -6.771 -18.653  23.956  1.00  0.00    -0.550 OA
ENDBRANCH  13  14
ENDBRANCH  12  13
ENDBRANCH  11  12
ENDBRANCH  10  11
ENDBRANCH   9  10
ENDBRANCH   8   9
ENDBRANCH   7   8
ENDBRANCH   6   7
ENDBRANCH   5   6
ENDBRANCH   4   5
ENDBRANCH   3   4
ENDBRANCH   2   3
ENDBRANCH   1   2
BRANCH   1  17
ATOM     17  C   UNL     1      -8.242 -14.744  17.469  1.00  0.00     0.000 C 
BRANCH  17  18
ATOM     18  C   UNL     1      -9.616 -15.094  16.867  1.00  0.00     0.000 C 
BRANCH  18  19
ATOM     19  C   UNL     1     -10.468 -13.888  16.419  1.00  0.00     0.000 C 
BRANCH  19  20
ATOM     20  C   UNL     1     -10.693 -13.771  14.900  1.00  0.00     0.000 C 
BRANCH  20  21
ATOM     21  C   UNL     1      -9.855 -12.652  14.259  1.00  0.00     0.000 C 
BRANCH  21  22
ATOM     22  C   UNL     1      -8.840 -13.183  13.232  1.00  0.00    -0.000 C 
BRANCH  22  23
ATOM     23  C   UNL     1      -9.443 -13.348  11.825  1.00  0.00    -0.000 C 
BRANCH  23  24
ATOM     24  C   UNL     1     -10.980 -13.251  11.815  1.00  0.00    -0.000 C 
BRANCH  24  25
ATOM     25  C   UNL     1     -11.587 -12.583  10.567  1.00  0.00    -0.000 C 
BRANCH  25  26
ATOM     26  C   UNL     1     -12.226 -11.215  10.867  1.00  0.00    -0.000 C 
BRANCH  26  27
ATOM     27  C   UNL     1     -11.198 -10.173  11.340  1.00  0.00    -0.000 C 
BRANCH  27  28
ATOM     28  C   UNL     1     -11.498  -9.647  12.755  1.00  0.00    -0.000 C 
BRANCH  28  29
ATOM     29  C   UNL     1     -10.219  -9.388  13.566  1.00  0.00    -0.003 C 
ATOM     30  C   UNL     1      -9.019  -9.036  12.687  1.00  0.00     0.004 C 
ENDBRANCH  28  29
ENDBRANCH  27  28
ENDBRANCH  26  27
ENDBRANCH  25  26
ENDBRANCH  24  25
ENDBRANCH  23  24
ENDBRANCH  22  23
ENDBRANCH  21  22
ENDBRANCH  20  21
ENDBRANCH  19  20
ENDBRANCH  18  19
ENDBRANCH  17  18
ENDBRANCH   1  17
TORSDOF 26
ENDMDL
MODEL 9
REMARK VINA RESULT:    30.031      5.105      6.222
REMARK INTER + INTRA:          74.178
REMARK INTER:                  75.938
REMARK INTRA:                  -1.760
REMARK UNBOUND:                -1.499
REMARK SMILES CCCCCCCCCCCCCCCCCCCCCCCCCCCC(=O)[O-]
REMARK SMILES IDX 15 1 16 2 17 3 18 4 19 5 20 6 21 7 22 8 23 9 24 10 25 11
REMARK SMILES IDX 26 12 27 13 28 14 29 15 30 16 14 17 13 18 12 19 11 20 10 21
REMARK SMILES IDX 9 22 8 23 7 24 6 25 5 26 4 27 3 28 2 29 1 30
REMARK H PARENT
REMARK Flexibility Score: inf
ROOT
ATOM      1  C   UNL     1      -8.287 -14.038  18.705  1.00  0.00     0.000 C 
ENDROOT
BRANCH   1   2
ATOM      2  C   UNL     1      -9.120 -14.448  19.930  1.00  0.00     0.000 C 
BRANCH   2   3
ATOM      3  C   UNL     1      -9.061 -13.413  21.071  1.00  0.00     0.000 C 
BRANCH   3   4
ATOM      4  C   UNL     1      -7.728 -13.378  21.845  1.00  0.00     0.000 C 
BRANCH   4   5
ATOM      5  C   UNL     1      -7.458 -12.016  22.508  1.00  0.00     0.000 C 
BRANCH   5   6
ATOM      6  C   UNL     1      -6.353 -12.093  23.583  1.00  0.00     0.000 C 
BRANCH   6   7
ATOM      7  C   UNL     1      -6.827 -11.716  24.998  1.00  0.00     0.000 C 
BRANCH   7   8
ATOM      8  C   UNL     1      -6.498 -12.792  26.045  1.00  0.00     0.000 C 
BRANCH   8   9
ATOM      9  C   UNL     1      -5.831 -14.034  25.429  1.00  0.00     0.000 C 
BRANCH   9  10
ATOM     10  C   UNL     1      -4.688 -14.583  26.301  1.00  0.00     0.000 C 
BRANCH  10  11
ATOM     11  C   UNL     1      -5.111 -15.810  27.125  1.00  0.00     0.000 C 
BRANCH  11  12
ATOM     12  C   UNL     1      -5.416 -17.038  26.253  1.00  0.00     0.006 C 
BRANCH  12  13
ATOM     13  C   UNL     1      -4.426 -17.143  25.086  1.00  0.00     0.053 C 
BRANCH  13  14
ATOM     14  C   UNL     1      -4.995 -17.982  23.985  1.00  0.00     0.041 C 
ATOM     15  O   UNL     1      -5.815 -18.902  24.248  1.00  0.00    -0.550 OA
ATOM     16  O   UNL     1      -4.608 -17.764  22.667  1.00  0.00    -0.550 OA
ENDBRANCH  13  14
ENDBRANCH  12  13
ENDBRANCH  11  12
ENDBRANCH  10  11
ENDBRANCH   9  10
ENDBRANCH   8   9
ENDBRANCH   7   8
ENDBRANCH   6   7
ENDBRANCH   5   6
ENDBRANCH   4   5
ENDBRANCH   3   4
ENDBRANCH   2   3
ENDBRANCH   1   2
BRANCH   1  17
ATOM     17  C   UNL     1      -8.760 -14.778  17.445  1.00  0.00     0.000 C 
BRANCH  17  18
ATOM     18  C   UNL     1     -10.153 -14.328  16.965  1.00  0.00     0.000 C 
BRANCH  18  19
ATOM     19  C   UNL     1     -10.245 -12.864  16.485  1.00  0.00     0.000 C 
BRANCH  19  20
ATOM     20  C   UNL     1     -10.394 -12.681  14.963  1.00  0.00     0.000 C 
BRANCH  20  21
ATOM     21  C   UNL     1      -9.633 -11.453  14.433  1.00  0.00     0.000 C 
BRANCH  21  22
ATOM     22  C   UNL     1      -9.249 -11.586  12.950  1.00  0.00    -0.000 C 
BRANCH  22  23
ATOM     23  C   UNL     1      -8.929 -13.036  12.542  1.00  0.00    -0.000 C 
BRANCH  23  24
ATOM     24  C   UNL     1      -9.850 -13.563  11.426  1.00  0.00    -0.000 C 
BRANCH  24  25
ATOM     25  C   UNL     1     -11.279 -13.924  11.869  1.00  0.00    -0.000 C 
BRANCH  25  26
ATOM     26  C   UNL     1     -12.340 -12.943  11.337  1.00  0.00    -0.000 C 
BRANCH  26  27
ATOM     27  C   UNL     1     -11.726 -11.634  10.814  1.00  0.00    -0.000 C 
BRANCH  27  28
ATOM     28  C   UNL     1     -12.145 -11.321   9.367  1.00  0.00    -0.000 C 
BRANCH  28  29
ATOM     29  C   UNL     1     -11.236 -12.002   8.334  1.00  0.00    -0.003 C 
ATOM     30  C   UNL     1     -11.863 -13.256   7.725  1.00  0.00     0.004 C 
ENDBRANCH  28  29
ENDBRANCH  27  28
ENDBRANCH  26  27
ENDBRANCH  25  26
ENDBRANCH  24  25
ENDBRANCH  23  24
ENDBRANCH  22  23
ENDBRANCH  21  22
ENDBRANCH  20  21
ENDBRANCH  19  20
ENDBRANCH  18  19
ENDBRANCH  17  18
ENDBRANCH   1  17
TORSDOF 26
ENDMDL
