MODEL 1
REMARK VINA RESULT:    -4.666      0.000      0.000
REMARK INTER + INTRA:         -11.261
REMARK INTER:                  -8.757
REMARK INTRA:                  -2.504
REMARK UNBOUND:                -2.504
REMARK SMILES O=C([O-])CCCCCCCCCCCCCCC(=O)[O-]
REMARK SMILES IDX 10 1 9 2 8 3 7 4 6 5 5 6 4 7 2 8 1 9 3 10 11 11 12 12 13 13
REMARK SMILES IDX 14 14 15 15 16 16 17 17 18 18 19 19 20 20
REMARK H PARENT
REMARK Flexibility Score: inf
ROOT
ATOM      1  C   UNL     1      -1.627 -46.712  18.302  1.00  0.00     0.000 C 
ENDROOT
BRANCH   1   2
ATOM      2  C   UNL     1      -2.038 -45.342  17.724  1.00  0.00     0.000 C 
BRANCH   2   3
ATOM      3  C   UNL     1      -1.639 -45.101  16.257  1.00  0.00     0.000 C 
BRANCH   3   4
ATOM      4  C   UNL     1      -2.805 -44.580  15.400  1.00  0.00     0.000 C 
BRANCH   4   5
ATOM      5  C   UNL     1      -3.619 -45.715  14.758  1.00  0.00     0.000 C 
BRANCH   5   6
ATOM      6  C   UNL     1      -5.005 -45.889  15.404  1.00  0.00     0.006 C 
BRANCH   6   7
ATOM      7  C   UNL     1      -5.629 -44.544  15.803  1.00  0.00     0.053 C 
BRANCH   7   8
ATOM      8  C   UNL     1      -7.126 -44.585  15.748  1.00  0.00     0.041 C 
ATOM      9  O   UNL     1      -7.762 -43.687  15.139  1.00  0.00    -0.550 OA
ATOM     10  O   UNL     1      -7.817 -45.633  16.345  1.00  0.00    -0.550 OA
ENDBRANCH   7   8
ENDBRANCH   6   7
ENDBRANCH   5   6
ENDBRANCH   4   5
ENDBRANCH   3   4
ENDBRANCH   2   3
ENDBRANCH   1   2
BRANCH   1  11
ATOM     11  C   UNL     1      -1.462 -47.839  17.267  1.00  0.00     0.000 C 
BRANCH  11  12
ATOM     12  C   UNL     1      -2.340 -49.064  17.577  1.00  0.00     0.000 C 
BRANCH  12  13
ATOM     13  C   UNL     1      -3.676 -49.040  16.816  1.00  0.00     0.000 C 
BRANCH  13  14
ATOM     14  C   UNL     1      -4.872 -48.734  17.733  1.00  0.00     0.000 C 
BRANCH  14  15
ATOM     15  C   UNL     1      -4.509 -48.809  19.225  1.00  0.00     0.000 C 
BRANCH  15  16
ATOM     16  C   UNL     1      -4.652 -47.457  19.940  1.00  0.00     0.006 C 
BRANCH  16  17
ATOM     17  C   UNL     1      -5.377 -46.442  19.050  1.00  0.00     0.053 C 
BRANCH  17  18
ATOM     18  C   UNL     1      -5.568 -45.150  19.778  1.00  0.00     0.041 C 
ATOM     19  O   UNL     1      -6.345 -45.089  20.768  1.00  0.00    -0.550 OA
ATOM     20  O   UNL     1      -4.927 -44.000  19.335  1.00  0.00    -0.550 OA
ENDBRANCH  17  18
ENDBRANCH  16  17
ENDBRANCH  15  16
ENDBRANCH  14  15
ENDBRANCH  13  14
ENDBRANCH  12  13
ENDBRANCH  11  12
ENDBRANCH   1  11
TORSDOF 15
ENDMDL
MODEL 2
REMARK VINA RESULT:    -4.612      0.842      4.389
REMARK INTER + INTRA:         -11.161
REMARK INTER:                  -8.688
REMARK INTRA:                  -2.472
REMARK UNBOUND:                -2.504
REMARK SMILES O=C([O-])CCCCCCCCCCCCCCC(=O)[O-]
REMARK SMILES IDX 10 1 9 2 8 3 7 4 6 5 5 6 4 7 2 8 1 9 3 10 11 11 12 12 13 13
REMARK SMILES IDX 14 14 15 15 16 16 17 17 18 18 19 19 20 20
REMARK H PARENT
REMARK Flexibility Score: inf
ROOT
ATOM      1  C   UNL     1      -1.561 -47.843  17.228  1.00  0.00     0.000 C 
ENDROOT
BRANCH   1   2
ATOM      2  C   UNL     1      -2.467 -49.069  17.458  1.00  0.00     0.000 C 
BRANCH   2   3
ATOM      3  C   UNL     1      -3.846 -49.006  16.775  1.00  0.00     0.000 C 
BRANCH   3   4
ATOM      4  C   UNL     1      -4.975 -48.622  17.746  1.00  0.00     0.000 C 
BRANCH   4   5
ATOM      5  C   UNL     1      -4.559 -48.764  19.220  1.00  0.00     0.000 C 
BRANCH   5   6
ATOM      6  C   UNL     1      -4.646 -47.434  19.990  1.00  0.00     0.006 C 
BRANCH   6   7
ATOM      7  C   UNL     1      -5.409 -46.359  19.204  1.00  0.00     0.053 C 
BRANCH   7   8
ATOM      8  C   UNL     1      -5.490 -45.067  19.958  1.00  0.00     0.041 C 
ATOM      9  O   UNL     1      -4.713 -44.119  19.675  1.00  0.00    -0.550 OA
ATOM     10  O   UNL     1      -6.444 -44.900  20.955  1.00  0.00    -0.550 OA
ENDBRANCH   7   8
ENDBRANCH   6   7
ENDBRANCH   5   6
ENDBRANCH   4   5
ENDBRANCH   3   4
ENDBRANCH   2   3
ENDBRANCH   1   2
BRANCH   1  11
ATOM     11  C   UNL     1      -1.641 -46.753  18.311  1.00  0.00     0.000 C 
BRANCH  11  12
ATOM     12  C   UNL     1      -2.043 -45.380  17.746  1.00  0.00     0.000 C 
BRANCH  12  13
ATOM     13  C   UNL     1      -1.673 -45.223  16.261  1.00  0.00     0.000 C 
BRANCH  13  14
ATOM     14  C   UNL     1      -2.839 -44.681  15.416  1.00  0.00     0.000 C 
BRANCH  14  15
ATOM     15  C   UNL     1      -3.948 -45.724  15.202  1.00  0.00     0.000 C 
BRANCH  15  16
ATOM     16  C   UNL     1      -5.286 -45.091  14.788  1.00  0.00     0.006 C 
BRANCH  16  17
ATOM     17  C   UNL     1      -6.359 -45.336  15.854  1.00  0.00     0.053 C 
BRANCH  17  18
ATOM     18  C   UNL     1      -6.678 -44.066  16.577  1.00  0.00     0.041 C 
ATOM     19  O   UNL     1      -5.828 -43.138  16.635  1.00  0.00    -0.550 OA
ATOM     20  O   UNL     1      -7.897 -43.925  17.230  1.00  0.00    -0.550 OA
ENDBRANCH  17  18
ENDBRANCH  16  17
ENDBRANCH  15  16
ENDBRANCH  14  15
ENDBRANCH  13  14
ENDBRANCH  12  13
ENDBRANCH  11  12
ENDBRANCH   1  11
TORSDOF 15
ENDMDL
MODEL 3
REMARK VINA RESULT:    -4.593      1.021      1.753
REMARK INTER + INTRA:         -11.125
REMARK INTER:                  -8.744
REMARK INTRA:                  -2.380
REMARK UNBOUND:                -2.504
REMARK SMILES O=C([O-])CCCCCCCCCCCCCCC(=O)[O-]
REMARK SMILES IDX 10 1 9 2 8 3 7 4 6 5 5 6 4 7 2 8 1 9 3 10 11 11 12 12 13 13
REMARK SMILES IDX 14 14 15 15 16 16 17 17 18 18 19 19 20 20
REMARK H PARENT
REMARK Flexibility Score: inf
ROOT
ATOM      1  C   UNL     1      -1.499 -47.842  17.260  1.00  0.00     0.000 C 
ENDROOT
BRANCH   1   2
ATOM      2  C   UNL     1      -1.592 -46.700  18.292  1.00  0.00     0.000 C 
BRANCH   2   3
ATOM      3  C   UNL     1      -2.090 -45.352  17.739  1.00  0.00     0.000 C 
BRANCH   3   4
ATOM      4  C   UNL     1      -1.677 -45.119  16.276  1.00  0.00     0.000 C 
BRANCH   4   5
ATOM      5  C   UNL     1      -2.839 -44.603  15.411  1.00  0.00     0.000 C 
BRANCH   5   6
ATOM      6  C   UNL     1      -3.863 -45.703  15.078  1.00  0.00     0.006 C 
BRANCH   6   7
ATOM      7  C   UNL     1      -5.214 -45.463  15.766  1.00  0.00     0.053 C 
BRANCH   7   8
ATOM      8  C   UNL     1      -6.258 -44.997  14.799  1.00  0.00     0.041 C 
ATOM      9  O   UNL     1      -7.478 -45.197  15.037  1.00  0.00    -0.550 OA
ATOM     10  O   UNL     1      -5.887 -44.314  13.647  1.00  0.00    -0.550 OA
ENDBRANCH   7   8
ENDBRANCH   6   7
ENDBRANCH   5   6
ENDBRANCH   4   5
ENDBRANCH   3   4
ENDBRANCH   2   3
ENDBRANCH   1   2
BRANCH   1  11
ATOM     11  C   UNL     1      -2.412 -49.051  17.532  1.00  0.00     0.000 C 
BRANCH  11  12
ATOM     12  C   UNL     1      -3.772 -48.942  16.821  1.00  0.00     0.000 C 
BRANCH  12  13
ATOM     13  C   UNL     1      -4.928 -48.674  17.799  1.00  0.00     0.000 C 
BRANCH  13  14
ATOM     14  C   UNL     1      -4.503 -48.820  19.271  1.00  0.00     0.000 C 
BRANCH  14  15
ATOM     15  C   UNL     1      -4.601 -47.498  20.049  1.00  0.00     0.000 C 
BRANCH  15  16
ATOM     16  C   UNL     1      -5.309 -46.391  19.252  1.00  0.00     0.006 C 
BRANCH  16  17
ATOM     17  C   UNL     1      -6.077 -45.451  20.186  1.00  0.00     0.053 C 
BRANCH  17  18
ATOM     18  C   UNL     1      -6.367 -44.154  19.501  1.00  0.00     0.041 C 
ATOM     19  O   UNL     1      -5.881 -43.079  19.944  1.00  0.00    -0.550 OA
ATOM     20  O   UNL     1      -7.214 -44.123  18.400  1.00  0.00    -0.550 OA
ENDBRANCH  17  18
ENDBRANCH  16  17
ENDBRANCH  15  16
ENDBRANCH  14  15
ENDBRANCH  13  14
ENDBRANCH  12  13
ENDBRANCH  11  12
ENDBRANCH   1  11
TORSDOF 15
ENDMDL
MODEL 4
REMARK VINA RESULT:    -4.520      2.738      5.208
REMARK INTER + INTRA:         -10.987
REMARK INTER:                  -8.414
REMARK INTRA:                  -2.574
REMARK UNBOUND:                -2.504
REMARK SMILES O=C([O-])CCCCCCCCCCCCCCC(=O)[O-]
REMARK SMILES IDX 10 1 9 2 8 3 7 4 6 5 5 6 4 7 2 8 1 9 3 10 11 11 12 12 13 13
REMARK SMILES IDX 14 14 15 15 16 16 17 17 18 18 19 19 20 20
REMARK H PARENT
REMARK Flexibility Score: inf
ROOT
ATOM      1  C   UNL     1      -1.580 -47.790  17.623  1.00  0.00     0.000 C 
ENDROOT
BRANCH   1   2
ATOM      2  C   UNL     1      -2.483 -48.998  17.945  1.00  0.00     0.000 C 
BRANCH   2   3
ATOM      3  C   UNL     1      -3.747 -48.675  18.764  1.00  0.00     0.000 C 
BRANCH   3   4
ATOM      4  C   UNL     1      -5.002 -48.525  17.888  1.00  0.00     0.000 C 
BRANCH   4   5
ATOM      5  C   UNL     1      -5.583 -47.101  17.929  1.00  0.00     0.000 C 
BRANCH   5   6
ATOM      6  C   UNL     1      -5.388 -46.422  19.296  1.00  0.00     0.006 C 
BRANCH   6   7
ATOM      7  C   UNL     1      -6.149 -45.093  19.395  1.00  0.00     0.053 C 
BRANCH   7   8
ATOM      8  C   UNL     1      -5.343 -43.948  18.861  1.00  0.00     0.041 C 
ATOM      9  O   UNL     1      -4.499 -43.370  19.594  1.00  0.00    -0.550 OA
ATOM     10  O   UNL     1      -5.504 -43.538  17.542  1.00  0.00    -0.550 OA
ENDBRANCH   7   8
ENDBRANCH   6   7
ENDBRANCH   5   6
ENDBRANCH   4   5
ENDBRANCH   3   4
ENDBRANCH   2   3
ENDBRANCH   1   2
BRANCH   1  11
ATOM     11  C   UNL     1      -1.771 -46.565  18.536  1.00  0.00     0.000 C 
BRANCH  11  12
ATOM     12  C   UNL     1      -2.137 -45.292  17.755  1.00  0.00     0.000 C 
BRANCH  12  13
ATOM     13  C   UNL     1      -1.803 -45.402  16.258  1.00  0.00     0.000 C 
BRANCH  13  14
ATOM     14  C   UNL     1      -2.969 -44.959  15.357  1.00  0.00     0.000 C 
BRANCH  14  15
ATOM     15  C   UNL     1      -3.967 -46.095  15.081  1.00  0.00     0.000 C 
BRANCH  15  16
ATOM     16  C   UNL     1      -3.476 -47.067  13.998  1.00  0.00     0.006 C 
BRANCH  16  17
ATOM     17  C   UNL     1      -3.471 -48.508  14.519  1.00  0.00     0.053 C 
BRANCH  17  18
ATOM     18  C   UNL     1      -2.360 -49.288  13.891  1.00  0.00     0.041 C 
ATOM     19  O   UNL     1      -2.583 -50.010  12.882  1.00  0.00    -0.550 OA
ATOM     20  O   UNL     1      -1.087 -49.258  14.448  1.00  0.00    -0.550 OA
ENDBRANCH  17  18
ENDBRANCH  16  17
ENDBRANCH  15  16
ENDBRANCH  14  15
ENDBRANCH  13  14
ENDBRANCH  12  13
ENDBRANCH  11  12
ENDBRANCH   1  11
TORSDOF 15
ENDMDL
MODEL 5
REMARK VINA RESULT:    -4.512      1.729      4.548
REMARK INTER + INTRA:         -10.974
REMARK INTER:                  -8.385
REMARK INTRA:                  -2.588
REMARK UNBOUND:                -2.504
REMARK SMILES O=C([O-])CCCCCCCCCCCCCCC(=O)[O-]
REMARK SMILES IDX 10 1 9 2 8 3 7 4 6 5 5 6 4 7 2 8 1 9 3 10 11 11 12 12 13 13
REMARK SMILES IDX 14 14 15 15 16 16 17 17 18 18 19 19 20 20
REMARK H PARENT
REMARK Flexibility Score: inf
ROOT
ATOM      1  C   UNL     1      -3.790 -48.917  16.758  1.00  0.00     0.000 C 
ENDROOT
BRANCH   1   2
ATOM      2  C   UNL     1      -4.937 -48.726  17.771  1.00  0.00     0.000 C 
BRANCH   2   3
ATOM      3  C   UNL     1      -4.527 -48.808  19.253  1.00  0.00     0.000 C 
BRANCH   3   4
ATOM      4  C   UNL     1      -4.605 -47.450  19.969  1.00  0.00     0.000 C 
BRANCH   4   5
ATOM      5  C   UNL     1      -5.305 -46.375  19.121  1.00  0.00     0.000 C 
BRANCH   5   6
ATOM      6  C   UNL     1      -5.021 -44.948  19.622  1.00  0.00     0.006 C 
BRANCH   6   7
ATOM      7  C   UNL     1      -5.347 -43.887  18.562  1.00  0.00     0.053 C 
BRANCH   7   8
ATOM      8  C   UNL     1      -6.800 -43.895  18.194  1.00  0.00     0.041 C 
ATOM      9  O   UNL     1      -7.666 -43.517  19.025  1.00  0.00    -0.550 OA
ATOM     10  O   UNL     1      -7.194 -44.292  16.921  1.00  0.00    -0.550 OA
ENDBRANCH   7   8
ENDBRANCH   6   7
ENDBRANCH   5   6
ENDBRANCH   4   5
ENDBRANCH   3   4
ENDBRANCH   2   3
ENDBRANCH   1   2
BRANCH   1  11
ATOM     11  C   UNL     1      -2.382 -49.015  17.370  1.00  0.00     0.000 C 
BRANCH  11  12
ATOM     12  C   UNL     1      -1.536 -47.754  17.122  1.00  0.00     0.000 C 
BRANCH  12  13
ATOM     13  C   UNL     1      -1.670 -46.721  18.253  1.00  0.00     0.000 C 
BRANCH  13  14
ATOM     14  C   UNL     1      -1.956 -45.304  17.728  1.00  0.00     0.000 C 
BRANCH  14  15
ATOM     15  C   UNL     1      -1.724 -45.176  16.214  1.00  0.00     0.000 C 
BRANCH  15  16
ATOM     16  C   UNL     1      -2.922 -44.554  15.480  1.00  0.00     0.006 C 
BRANCH  16  17
ATOM     17  C   UNL     1      -4.131 -45.494  15.511  1.00  0.00     0.053 C 
BRANCH  17  18
ATOM     18  C   UNL     1      -4.402 -46.045  14.147  1.00  0.00     0.041 C 
ATOM     19  O   UNL     1      -5.303 -45.540  13.427  1.00  0.00    -0.550 OA
ATOM     20  O   UNL     1      -3.692 -47.148  13.689  1.00  0.00    -0.550 OA
ENDBRANCH  17  18
ENDBRANCH  16  17
ENDBRANCH  15  16
ENDBRANCH  14  15
ENDBRANCH  13  14
ENDBRANCH  12  13
ENDBRANCH  11  12
ENDBRANCH   1  11
TORSDOF 15
ENDMDL
MODEL 6
REMARK VINA RESULT:    -4.492      3.609      5.725
REMARK INTER + INTRA:         -10.935
REMARK INTER:                  -8.869
REMARK INTRA:                  -2.066
REMARK UNBOUND:                -2.504
REMARK SMILES O=C([O-])CCCCCCCCCCCCCCC(=O)[O-]
REMARK SMILES IDX 10 1 9 2 8 3 7 4 6 5 5 6 4 7 2 8 1 9 3 10 11 11 12 12 13 13
REMARK SMILES IDX 14 14 15 15 16 16 17 17 18 18 19 19 20 20
REMARK H PARENT
REMARK Flexibility Score: inf
ROOT
ATOM      1  C   UNL     1      -1.643 -45.176  16.342  1.00  0.00     0.000 C 
ENDROOT
BRANCH   1   2
ATOM      2  C   UNL     1      -2.748 -44.691  15.381  1.00  0.00     0.000 C 
BRANCH   2   3
ATOM      3  C   UNL     1      -3.549 -45.805  14.683  1.00  0.00     0.000 C 
BRANCH   3   4
ATOM      4  C   UNL     1      -4.339 -46.680  15.671  1.00  0.00     0.000 C 
BRANCH   4   5
ATOM      5  C   UNL     1      -5.497 -45.919  16.338  1.00  0.00     0.000 C 
BRANCH   5   6
ATOM      6  C   UNL     1      -6.100 -46.685  17.528  1.00  0.00     0.006 C 
BRANCH   6   7
ATOM      7  C   UNL     1      -5.371 -48.009  17.794  1.00  0.00     0.053 C 
BRANCH   7   8
ATOM      8  C   UNL     1      -4.843 -48.084  19.194  1.00  0.00     0.041 C 
ATOM      9  O   UNL     1      -4.348 -49.157  19.628  1.00  0.00    -0.550 OA
ATOM     10  O   UNL     1      -4.869 -46.960  20.011  1.00  0.00    -0.550 OA
ENDBRANCH   7   8
ENDBRANCH   6   7
ENDBRANCH   5   6
ENDBRANCH   4   5
ENDBRANCH   3   4
ENDBRANCH   2   3
ENDBRANCH   1   2
BRANCH   1  11
ATOM     11  C   UNL     1      -2.077 -45.350  17.808  1.00  0.00     0.000 C 
BRANCH  11  12
ATOM     12  C   UNL     1      -1.729 -46.739  18.371  1.00  0.00     0.000 C 
BRANCH  12  13
ATOM     13  C   UNL     1      -1.174 -47.688  17.295  1.00  0.00     0.000 C 
BRANCH  13  14
ATOM     14  C   UNL     1      -1.812 -49.087  17.356  1.00  0.00     0.000 C 
BRANCH  14  15
ATOM     15  C   UNL     1      -1.522 -49.924  16.100  1.00  0.00     0.000 C 
BRANCH  15  16
ATOM     16  C   UNL     1      -0.873 -49.103  14.976  1.00  0.00     0.006 C 
BRANCH  16  17
ATOM     17  C   UNL     1      -0.152 -50.016  13.978  1.00  0.00     0.053 C 
BRANCH  17  18
ATOM     18  C   UNL     1      -0.692 -49.812  12.598  1.00  0.00     0.041 C 
ATOM     19  O   UNL     1      -1.882 -50.124  12.330  1.00  0.00    -0.550 OA
ATOM     20  O   UNL     1       0.135 -49.323  11.594  1.00  0.00    -0.550 OA
ENDBRANCH  17  18
ENDBRANCH  16  17
ENDBRANCH  15  16
ENDBRANCH  14  15
ENDBRANCH  13  14
ENDBRANCH  12  13
ENDBRANCH  11  12
ENDBRANCH   1  11
TORSDOF 15
ENDMDL
MODEL 7
REMARK VINA RESULT:    -4.351      2.796      3.468
REMARK INTER + INTRA:         -10.670
REMARK INTER:                  -7.925
REMARK INTRA:                  -2.746
REMARK UNBOUND:                -2.504
REMARK SMILES O=C([O-])CCCCCCCCCCCCCCC(=O)[O-]
REMARK SMILES IDX 10 1 9 2 8 3 7 4 6 5 5 6 4 7 2 8 1 9 3 10 11 11 12 12 13 13
REMARK SMILES IDX 14 14 15 15 16 16 17 17 18 18 19 19 20 20
REMARK H PARENT
REMARK Flexibility Score: inf
ROOT
ATOM      1  C   UNL     1      -1.669 -46.592  18.304  1.00  0.00     0.000 C 
ENDROOT
BRANCH   1   2
ATOM      2  C   UNL     1      -2.043 -45.386  17.418  1.00  0.00     0.000 C 
BRANCH   2   3
ATOM      3  C   UNL     1      -2.119 -45.677  15.908  1.00  0.00     0.000 C 
BRANCH   3   4
ATOM      4  C   UNL     1      -3.550 -45.577  15.353  1.00  0.00     0.000 C 
BRANCH   4   5
ATOM      5  C   UNL     1      -3.895 -46.733  14.400  1.00  0.00     0.000 C 
BRANCH   5   6
ATOM      6  C   UNL     1      -2.848 -47.861  14.434  1.00  0.00     0.006 C 
BRANCH   6   7
ATOM      7  C   UNL     1      -3.461 -49.229  14.105  1.00  0.00     0.053 C 
BRANCH   7   8
ATOM      8  C   UNL     1      -3.409 -49.525  12.637  1.00  0.00     0.041 C 
ATOM      9  O   UNL     1      -2.377 -50.036  12.130  1.00  0.00    -0.550 OA
ATOM     10  O   UNL     1      -4.513 -49.266  11.834  1.00  0.00    -0.550 OA
ENDBRANCH   7   8
ENDBRANCH   6   7
ENDBRANCH   5   6
ENDBRANCH   4   5
ENDBRANCH   3   4
ENDBRANCH   2   3
ENDBRANCH   1   2
BRANCH   1  11
ATOM     11  C   UNL     1      -1.310 -47.880  17.542  1.00  0.00     0.000 C 
BRANCH  11  12
ATOM     12  C   UNL     1      -2.246 -49.053  17.881  1.00  0.00     0.000 C 
BRANCH  12  13
ATOM     13  C   UNL     1      -3.563 -48.588  18.525  1.00  0.00     0.000 C 
BRANCH  13  14
ATOM     14  C   UNL     1      -4.736 -48.577  17.529  1.00  0.00     0.000 C 
BRANCH  14  15
ATOM     15  C   UNL     1      -5.674 -47.377  17.734  1.00  0.00     0.000 C 
BRANCH  15  16
ATOM     16  C   UNL     1      -5.284 -46.518  18.947  1.00  0.00     0.006 C 
BRANCH  16  17
ATOM     17  C   UNL     1      -6.116 -45.233  18.996  1.00  0.00     0.053 C 
BRANCH  17  18
ATOM     18  C   UNL     1      -5.263 -44.045  18.681  1.00  0.00     0.041 C 
ATOM     19  O   UNL     1      -4.490 -43.569  19.554  1.00  0.00    -0.550 OA
ATOM     20  O   UNL     1      -5.357 -43.432  17.437  1.00  0.00    -0.550 OA
ENDBRANCH  17  18
ENDBRANCH  16  17
ENDBRANCH  15  16
ENDBRANCH  14  15
ENDBRANCH  13  14
ENDBRANCH  12  13
ENDBRANCH  11  12
ENDBRANCH   1  11
TORSDOF 15
ENDMDL
MODEL 8
REMARK VINA RESULT:    -4.307      2.426      3.706
REMARK INTER + INTRA:         -10.589
REMARK INTER:                  -8.024
REMARK INTRA:                  -2.565
REMARK UNBOUND:                -2.504
REMARK SMILES O=C([O-])CCCCCCCCCCCCCCC(=O)[O-]
REMARK SMILES IDX 10 1 9 2 8 3 7 4 6 5 5 6 4 7 2 8 1 9 3 10 11 11 12 12 13 13
REMARK SMILES IDX 14 14 15 15 16 16 17 17 18 18 19 19 20 20
REMARK H PARENT
REMARK Flexibility Score: inf
ROOT
ATOM      1  C   UNL     1      -2.765 -44.816  18.560  1.00  0.00     0.000 C 
ENDROOT
BRANCH   1   2
ATOM      2  C   UNL     1      -2.014 -45.764  17.603  1.00  0.00     0.000 C 
BRANCH   2   3
ATOM      3  C   UNL     1      -1.621 -45.153  16.245  1.00  0.00     0.000 C 
BRANCH   3   4
ATOM      4  C   UNL     1      -2.836 -44.671  15.435  1.00  0.00     0.000 C 
BRANCH   4   5
ATOM      5  C   UNL     1      -3.814 -45.810  15.104  1.00  0.00     0.000 C 
BRANCH   5   6
ATOM      6  C   UNL     1      -5.202 -45.600  15.735  1.00  0.00     0.006 C 
BRANCH   6   7
ATOM      7  C   UNL     1      -5.556 -44.113  15.871  1.00  0.00     0.053 C 
BRANCH   7   8
ATOM      8  C   UNL     1      -6.688 -43.894  16.828  1.00  0.00     0.041 C 
ATOM      9  O   UNL     1      -6.458 -43.732  18.055  1.00  0.00    -0.550 OA
ATOM     10  O   UNL     1      -7.996 -43.838  16.361  1.00  0.00    -0.550 OA
ENDBRANCH   7   8
ENDBRANCH   6   7
ENDBRANCH   5   6
ENDBRANCH   4   5
ENDBRANCH   3   4
ENDBRANCH   2   3
ENDBRANCH   1   2
BRANCH   1  11
ATOM     11  C   UNL     1      -3.519 -45.506  19.711  1.00  0.00     0.000 C 
BRANCH  11  12
ATOM     12  C   UNL     1      -4.619 -46.460  19.215  1.00  0.00     0.000 C 
BRANCH  12  13
ATOM     13  C   UNL     1      -4.619 -47.802  19.966  1.00  0.00     0.000 C 
BRANCH  13  14
ATOM     14  C   UNL     1      -4.457 -49.007  19.023  1.00  0.00     0.000 C 
BRANCH  14  15
ATOM     15  C   UNL     1      -5.022 -48.739  17.619  1.00  0.00     0.000 C 
BRANCH  15  16
ATOM     16  C   UNL     1      -4.101 -49.250  16.501  1.00  0.00     0.006 C 
BRANCH  16  17
ATOM     17  C   UNL     1      -2.633 -49.194  16.934  1.00  0.00     0.053 C 
BRANCH  17  18
ATOM     18  C   UNL     1      -1.747 -48.956  15.752  1.00  0.00     0.041 C 
ATOM     19  O   UNL     1      -0.542 -48.627  15.919  1.00  0.00    -0.550 OA
ATOM     20  O   UNL     1      -2.263 -49.049  14.466  1.00  0.00    -0.550 OA
ENDBRANCH  17  18
ENDBRANCH  16  17
ENDBRANCH  15  16
ENDBRANCH  14  15
ENDBRANCH  13  14
ENDBRANCH  12  13
ENDBRANCH  11  12
ENDBRANCH   1  11
TORSDOF 15
ENDMDL
MODEL 9
REMARK VINA RESULT:    -4.246      1.616      3.224
REMARK INTER + INTRA:         -10.474
REMARK INTER:                  -7.742
REMARK INTRA:                  -2.732
REMARK UNBOUND:                -2.504
REMARK SMILES O=C([O-])CCCCCCCCCCCCCCC(=O)[O-]
REMARK SMILES IDX 10 1 9 2 8 3 7 4 6 5 5 6 4 7 2 8 1 9 3 10 11 11 12 12 13 13
REMARK SMILES IDX 14 14 15 15 16 16 17 17 18 18 19 19 20 20
REMARK H PARENT
REMARK Flexibility Score: inf
ROOT
ATOM      1  C   UNL     1      -3.705 -48.939  17.047  1.00  0.00     0.000 C 
ENDROOT
BRANCH   1   2
ATOM      2  C   UNL     1      -2.335 -48.952  17.757  1.00  0.00     0.000 C 
BRANCH   2   3
ATOM      3  C   UNL     1      -1.295 -47.964  17.197  1.00  0.00     0.000 C 
BRANCH   3   4
ATOM      4  C   UNL     1      -1.850 -47.097  16.055  1.00  0.00     0.000 C 
BRANCH   4   5
ATOM      5  C   UNL     1      -1.688 -45.592  16.324  1.00  0.00     0.000 C 
BRANCH   5   6
ATOM      6  C   UNL     1      -2.788 -44.749  15.654  1.00  0.00     0.006 C 
BRANCH   6   7
ATOM      7  C   UNL     1      -4.019 -45.590  15.290  1.00  0.00     0.053 C 
BRANCH   7   8
ATOM      8  C   UNL     1      -4.975 -44.832  14.420  1.00  0.00     0.041 C 
ATOM      9  O   UNL     1      -5.045 -43.578  14.498  1.00  0.00    -0.550 OA
ATOM     10  O   UNL     1      -5.767 -45.509  13.500  1.00  0.00    -0.550 OA
ENDBRANCH   7   8
ENDBRANCH   6   7
ENDBRANCH   5   6
ENDBRANCH   4   5
ENDBRANCH   3   4
ENDBRANCH   2   3
ENDBRANCH   1   2
BRANCH   1  11
ATOM     11  C   UNL     1      -4.847 -48.274  17.836  1.00  0.00     0.000 C 
BRANCH  11  12
ATOM     12  C   UNL     1      -4.552 -48.176  19.342  1.00  0.00     0.000 C 
BRANCH  12  13
ATOM     13  C   UNL     1      -4.628 -46.732  19.865  1.00  0.00     0.000 C 
BRANCH  13  14
ATOM     14  C   UNL     1      -3.311 -45.961  19.665  1.00  0.00     0.000 C 
BRANCH  14  15
ATOM     15  C   UNL     1      -3.539 -44.491  19.278  1.00  0.00     0.000 C 
BRANCH  15  16
ATOM     16  C   UNL     1      -5.016 -44.076  19.364  1.00  0.00     0.006 C 
BRANCH  16  17
ATOM     17  C   UNL     1      -5.494 -43.478  18.037  1.00  0.00     0.053 C 
BRANCH  17  18
ATOM     18  C   UNL     1      -6.793 -44.094  17.624  1.00  0.00     0.041 C 
ATOM     19  O   UNL     1      -7.826 -43.381  17.515  1.00  0.00    -0.550 OA
ATOM     20  O   UNL     1      -6.875 -45.463  17.405  1.00  0.00    -0.550 OA
ENDBRANCH  17  18
ENDBRANCH  16  17
ENDBRANCH  15  16
ENDBRANCH  14  15
ENDBRANCH  13  14
ENDBRANCH  12  13
ENDBRANCH  11  12
ENDBRANCH   1  11
TORSDOF 15
ENDMDL
