MODEL 1
REMARK VINA RESULT:    -5.853      0.000      0.000
REMARK INTER + INTRA:          -6.289
REMARK INTER:                  -6.195
REMARK INTRA:                  -0.094
REMARK UNBOUND:                -0.094
REMARK SMILES C=C(C)[C@@H]1CC=C(C)C(=O)C1
REMARK SMILES IDX 8 1 7 2 6 3 5 4 4 5 11 6 9 7 10 8 2 9 1 10 3 11
REMARK H PARENT
REMARK Flexibility Score: inf
ROOT
ATOM      1  C   UNL     1     -11.634  72.561  32.448  1.00  0.00     0.048 C 
ATOM      2  C   UNL     1     -11.239  72.977  31.058  1.00  0.00    -0.012 C 
ATOM      3  C   UNL     1     -11.676  72.279  29.994  1.00  0.00    -0.019 C 
ATOM      4  C   UNL     1     -11.374  72.704  28.581  1.00  0.00     0.036 C 
ATOM      5  C   UNL     1     -10.024  73.439  28.498  1.00  0.00     0.025 C 
ATOM      6  C   UNL     1      -9.994  74.623  29.481  1.00  0.00     0.089 C 
ATOM      7  C   UNL     1     -10.385  74.175  30.863  1.00  0.00     0.158 C 
ATOM      8  O   UNL     1     -10.015  74.855  31.857  1.00  0.00    -0.295 OA
ENDROOT
BRANCH   5   9
ATOM      9  C   UNL     1      -9.708  73.880  27.077  1.00  0.00    -0.077 C 
ATOM     10  C   UNL     1     -10.237  75.002  26.556  1.00  0.00     0.008 C 
ATOM     11  C   UNL     1      -8.783  73.029  26.247  1.00  0.00     0.039 C 
ENDBRANCH   5   9
TORSDOF 1
ENDMDL
MODEL 2
REMARK VINA RESULT:    -5.743      1.750      4.852
REMARK INTER + INTRA:          -6.172
REMARK INTER:                  -6.079
REMARK INTRA:                  -0.093
REMARK UNBOUND:                -0.094
REMARK SMILES C=C(C)[C@@H]1CC=C(C)C(=O)C1
REMARK SMILES IDX 8 1 7 2 6 3 5 4 4 5 11 6 9 7 10 8 2 9 1 10 3 11
REMARK H PARENT
REMARK Flexibility Score: inf
ROOT
ATOM      1  C   UNL     1      -9.747  74.686  27.619  1.00  0.00     0.048 C 
ATOM      2  C   UNL     1     -10.163  74.249  28.997  1.00  0.00    -0.012 C 
ATOM      3  C   UNL     1      -9.643  74.849  30.082  1.00  0.00    -0.019 C 
ATOM      4  C   UNL     1     -10.088  74.501  31.479  1.00  0.00     0.036 C 
ATOM      5  C   UNL     1     -10.531  73.029  31.571  1.00  0.00     0.025 C 
ATOM      6  C   UNL     1     -11.617  72.728  30.520  1.00  0.00     0.089 C 
ATOM      7  C   UNL     1     -11.168  73.169  29.153  1.00  0.00     0.158 C 
ATOM      8  O   UNL     1     -11.691  72.640  28.136  1.00  0.00    -0.295 OA
ENDROOT
BRANCH   5   9
ATOM      9  C   UNL     1     -10.990  72.664  32.974  1.00  0.00    -0.077 C 
ATOM     10  C   UNL     1     -12.070  73.242  33.531  1.00  0.00     0.008 C 
ATOM     11  C   UNL     1     -10.205  71.636  33.744  1.00  0.00     0.039 C 
ENDBRANCH   5   9
TORSDOF 1
ENDMDL
MODEL 3
REMARK VINA RESULT:    -5.620      1.774      4.458
REMARK INTER + INTRA:          -6.042
REMARK INTER:                  -5.948
REMARK INTRA:                  -0.095
REMARK UNBOUND:                -0.094
REMARK SMILES C=C(C)[C@@H]1CC=C(C)C(=O)C1
REMARK SMILES IDX 8 1 7 2 6 3 5 4 4 5 11 6 9 7 10 8 2 9 1 10 3 11
REMARK H PARENT
REMARK Flexibility Score: inf
ROOT
ATOM      1  C   UNL     1      -8.758  72.896  26.506  1.00  0.00     0.048 C 
ATOM      2  C   UNL     1      -9.269  73.127  27.901  1.00  0.00    -0.012 C 
ATOM      3  C   UNL     1      -9.073  72.198  28.855  1.00  0.00    -0.019 C 
ATOM      4  C   UNL     1      -9.495  72.419  30.284  1.00  0.00     0.036 C 
ATOM      5  C   UNL     1     -10.731  73.333  30.364  1.00  0.00     0.025 C 
ATOM      6  C   UNL     1     -10.470  74.657  29.622  1.00  0.00     0.089 C 
ATOM      7  C   UNL     1      -9.968  74.394  28.228  1.00  0.00     0.158 C 
ATOM      8  O   UNL     1     -10.109  75.283  27.347  1.00  0.00    -0.295 OA
ENDROOT
BRANCH   5   9
ATOM      9  C   UNL     1     -11.166  73.571  31.802  1.00  0.00    -0.077 C 
ATOM     10  C   UNL     1     -11.739  72.597  32.532  1.00  0.00     0.008 C 
ATOM     11  C   UNL     1     -10.946  74.933  32.406  1.00  0.00     0.039 C 
ENDBRANCH   5   9
TORSDOF 1
ENDMDL
MODEL 4
REMARK VINA RESULT:    -5.509      1.814      2.865
REMARK INTER + INTRA:          -5.925
REMARK INTER:                  -5.831
REMARK INTRA:                  -0.094
REMARK UNBOUND:                -0.094
REMARK SMILES C=C(C)[C@@H]1CC=C(C)C(=O)C1
REMARK SMILES IDX 8 1 7 2 6 3 5 4 4 5 11 6 9 7 10 8 2 9 1 10 3 11
REMARK H PARENT
REMARK Flexibility Score: inf
ROOT
ATOM      1  C   UNL     1     -11.054  73.492  34.677  1.00  0.00     0.048 C 
ATOM      2  C   UNL     1     -10.945  73.609  33.181  1.00  0.00    -0.012 C 
ATOM      3  C   UNL     1     -10.896  74.821  32.600  1.00  0.00    -0.019 C 
ATOM      4  C   UNL     1     -10.706  74.989  31.115  1.00  0.00     0.036 C 
ATOM      5  C   UNL     1     -11.314  73.805  30.340  1.00  0.00     0.025 C 
ATOM      6  C   UNL     1     -10.737  72.473  30.855  1.00  0.00     0.089 C 
ATOM      7  C   UNL     1     -10.868  72.382  32.351  1.00  0.00     0.158 C 
ATOM      8  O   UNL     1     -10.866  71.247  32.899  1.00  0.00    -0.295 OA
ENDROOT
BRANCH   5   9
ATOM      9  C   UNL     1     -11.124  73.957  28.839  1.00  0.00    -0.077 C 
ATOM     10  C   UNL     1     -12.066  73.551  27.968  1.00  0.00     0.008 C 
ATOM     11  C   UNL     1      -9.846  74.573  28.332  1.00  0.00     0.039 C 
ENDBRANCH   5   9
TORSDOF 1
ENDMDL
MODEL 5
REMARK VINA RESULT:    -5.377      2.028      4.488
REMARK INTER + INTRA:          -5.786
REMARK INTER:                  -5.692
REMARK INTRA:                  -0.093
REMARK UNBOUND:                -0.094
REMARK SMILES C=C(C)[C@@H]1CC=C(C)C(=O)C1
REMARK SMILES IDX 8 1 7 2 6 3 5 4 4 5 11 6 9 7 10 8 2 9 1 10 3 11
REMARK H PARENT
REMARK Flexibility Score: inf
ROOT
ATOM      1  C   UNL     1     -10.513  73.564  25.201  1.00  0.00     0.048 C 
ATOM      2  C   UNL     1     -10.623  73.554  26.701  1.00  0.00    -0.012 C 
ATOM      3  C   UNL     1     -11.792  73.857  27.295  1.00  0.00    -0.019 C 
ATOM      4  C   UNL     1     -11.972  73.781  28.789  1.00  0.00     0.036 C 
ATOM      5  C   UNL     1     -10.653  74.080  29.524  1.00  0.00     0.025 C 
ATOM      6  C   UNL     1      -9.536  73.145  29.024  1.00  0.00     0.089 C 
ATOM      7  C   UNL     1      -9.444  73.184  27.523  1.00  0.00     0.158 C 
ATOM      8  O   UNL     1      -8.364  72.854  26.965  1.00  0.00    -0.295 OA
ENDROOT
BRANCH   5   9
ATOM      9  C   UNL     1     -10.818  74.001  31.034  1.00  0.00    -0.077 C 
ATOM     10  C   UNL     1     -11.212  72.865  31.639  1.00  0.00     0.008 C 
ATOM     11  C   UNL     1     -10.535  75.231  31.855  1.00  0.00     0.039 C 
ENDBRANCH   5   9
TORSDOF 1
ENDMDL
MODEL 6
REMARK VINA RESULT:    -5.376      2.017      4.409
REMARK INTER + INTRA:          -5.784
REMARK INTER:                  -5.692
REMARK INTRA:                  -0.092
REMARK UNBOUND:                -0.094
REMARK SMILES C=C(C)[C@@H]1CC=C(C)C(=O)C1
REMARK SMILES IDX 8 1 7 2 6 3 5 4 4 5 11 6 9 7 10 8 2 9 1 10 3 11
REMARK H PARENT
REMARK Flexibility Score: inf
ROOT
ATOM      1  C   UNL     1     -10.496  73.527  25.218  1.00  0.00     0.048 C 
ATOM      2  C   UNL     1     -10.614  73.544  26.718  1.00  0.00    -0.012 C 
ATOM      3  C   UNL     1     -11.786  73.858  27.300  1.00  0.00    -0.019 C 
ATOM      4  C   UNL     1     -11.975  73.809  28.793  1.00  0.00     0.036 C 
ATOM      5  C   UNL     1     -10.659  74.120  29.530  1.00  0.00     0.025 C 
ATOM      6  C   UNL     1      -9.539  73.176  29.053  1.00  0.00     0.089 C 
ATOM      7  C   UNL     1      -9.440  73.188  27.552  1.00  0.00     0.158 C 
ATOM      8  O   UNL     1      -8.357  72.848  27.006  1.00  0.00    -0.295 OA
ENDROOT
BRANCH   5   9
ATOM      9  C   UNL     1     -10.833  74.068  31.040  1.00  0.00    -0.077 C 
ATOM     10  C   UNL     1     -10.515  75.119  31.820  1.00  0.00     0.008 C 
ATOM     11  C   UNL     1     -11.368  72.806  31.662  1.00  0.00     0.039 C 
ENDBRANCH   5   9
TORSDOF 1
ENDMDL
MODEL 7
REMARK VINA RESULT:    -5.371      1.537      2.017
REMARK INTER + INTRA:          -5.779
REMARK INTER:                  -5.678
REMARK INTRA:                  -0.102
REMARK UNBOUND:                -0.094
REMARK SMILES C=C(C)[C@@H]1CC=C(C)C(=O)C1
REMARK SMILES IDX 8 1 7 2 6 3 5 4 4 5 11 6 9 7 10 8 2 9 1 10 3 11
REMARK H PARENT
REMARK Flexibility Score: inf
ROOT
ATOM      1  C   UNL     1     -11.446  72.768  31.733  1.00  0.00     0.048 C 
ATOM      2  C   UNL     1     -10.889  73.051  30.365  1.00  0.00    -0.012 C 
ATOM      3  C   UNL     1     -11.527  73.898  29.538  1.00  0.00    -0.019 C 
ATOM      4  C   UNL     1     -10.967  74.275  28.192  1.00  0.00     0.036 C 
ATOM      5  C   UNL     1     -10.130  73.127  27.597  1.00  0.00     0.025 C 
ATOM      6  C   UNL     1      -9.031  72.695  28.585  1.00  0.00     0.089 C 
ATOM      7  C   UNL     1      -9.620  72.411  29.941  1.00  0.00     0.158 C 
ATOM      8  O   UNL     1      -8.997  71.655  30.734  1.00  0.00    -0.295 OA
ENDROOT
BRANCH   5   9
ATOM      9  C   UNL     1      -9.552  73.495  26.239  1.00  0.00    -0.077 C 
ATOM     10  C   UNL     1      -8.533  72.801  25.699  1.00  0.00     0.008 C 
ATOM     11  C   UNL     1     -10.140  74.667  25.499  1.00  0.00     0.039 C 
ENDBRANCH   5   9
TORSDOF 1
ENDMDL
MODEL 8
REMARK VINA RESULT:    -5.353      2.580      5.120
REMARK INTER + INTRA:          -5.760
REMARK INTER:                  -5.666
REMARK INTRA:                  -0.095
REMARK UNBOUND:                -0.094
REMARK SMILES C=C(C)[C@@H]1CC=C(C)C(=O)C1
REMARK SMILES IDX 8 1 7 2 6 3 5 4 4 5 11 6 9 7 10 8 2 9 1 10 3 11
REMARK H PARENT
REMARK Flexibility Score: inf
ROOT
ATOM      1  C   UNL     1      -9.039  74.084  23.620  1.00  0.00     0.048 C 
ATOM      2  C   UNL     1      -9.398  74.028  25.080  1.00  0.00    -0.012 C 
ATOM      3  C   UNL     1     -10.397  74.791  25.559  1.00  0.00    -0.019 C 
ATOM      4  C   UNL     1     -10.846  74.710  26.995  1.00  0.00     0.036 C 
ATOM      5  C   UNL     1      -9.678  74.327  27.922  1.00  0.00     0.025 C 
ATOM      6  C   UNL     1      -9.018  73.020  27.443  1.00  0.00     0.089 C 
ATOM      7  C   UNL     1      -8.662  73.110  25.983  1.00  0.00     0.158 C 
ATOM      8  O   UNL     1      -7.759  72.361  25.525  1.00  0.00    -0.295 OA
ENDROOT
BRANCH   5   9
ATOM      9  C   UNL     1     -10.118  74.234  29.375  1.00  0.00    -0.077 C 
ATOM     10  C   UNL     1     -11.355  73.825  29.709  1.00  0.00     0.008 C 
ATOM     11  C   UNL     1      -9.136  74.617  30.451  1.00  0.00     0.039 C 
ENDBRANCH   5   9
TORSDOF 1
ENDMDL
MODEL 9
REMARK VINA RESULT:    -5.262      3.618      6.073
REMARK INTER + INTRA:          -5.664
REMARK INTER:                  -5.570
REMARK INTRA:                  -0.094
REMARK UNBOUND:                -0.094
REMARK SMILES C=C(C)[C@@H]1CC=C(C)C(=O)C1
REMARK SMILES IDX 8 1 7 2 6 3 5 4 4 5 11 6 9 7 10 8 2 9 1 10 3 11
REMARK H PARENT
REMARK Flexibility Score: inf
ROOT
ATOM      1  C   UNL     1      -7.949  72.478  22.456  1.00  0.00     0.048 C 
ATOM      2  C   UNL     1      -8.563  72.957  23.742  1.00  0.00    -0.012 C 
ATOM      3  C   UNL     1      -8.198  72.404  24.913  1.00  0.00    -0.019 C 
ATOM      4  C   UNL     1      -8.725  72.904  26.232  1.00  0.00     0.036 C 
ATOM      5  C   UNL     1     -10.144  73.482  26.081  1.00  0.00     0.025 C 
ATOM      6  C   UNL     1     -10.168  74.572  24.993  1.00  0.00     0.089 C 
ATOM      7  C   UNL     1      -9.556  74.060  23.717  1.00  0.00     0.158 C 
ATOM      8  O   UNL     1      -9.861  74.610  22.626  1.00  0.00    -0.295 OA
ENDROOT
BRANCH   5   9
ATOM      9  C   UNL     1     -10.688  73.998  27.405  1.00  0.00    -0.077 C 
ATOM     10  C   UNL     1      -9.916  74.702  28.254  1.00  0.00     0.008 C 
ATOM     11  C   UNL     1     -12.121  73.702  27.760  1.00  0.00     0.039 C 
ENDBRANCH   5   9
TORSDOF 1
ENDMDL
