MODEL 1
REMARK VINA RESULT:    -6.155      0.000      0.000
REMARK INTER + INTRA:          -7.498
REMARK INTER:                  -7.235
REMARK INTRA:                  -0.263
REMARK UNBOUND:                -0.263
REMARK SMILES O=c1cc(-c2ccc(O)c(O)c2)oc2cc(O)cc(O)c12
REMARK SMILES IDX 4 1 3 2 2 3 1 4 21 5 19 6 18 7 16 8 15 9 14 10 13 11 5 12
REMARK SMILES IDX 6 13 7 14 8 15 12 16 10 17 9 18 11 20 20 22 17 24
REMARK H PARENT 9 19 11 21 20 23 17 25
REMARK Flexibility Score: inf
ROOT
ATOM      1  C   UNL     1      12.656 -23.896  22.417  1.00  0.00     0.138 A 
ATOM      2  C   UNL     1      11.279 -24.087  22.230  1.00  0.00     0.100 A 
ATOM      3  C   UNL     1      10.414 -23.979  23.321  1.00  0.00     0.197 A 
ATOM      4  O   UNL     1       9.179 -24.095  23.112  1.00  0.00    -0.289 OA
ATOM      5  C   UNL     1      10.935 -23.711  24.609  1.00  0.00     0.107 A 
ATOM      6  C   UNL     1      10.153 -23.619  25.799  1.00  0.00     0.134 A 
ATOM      7  C   UNL     1      10.765 -23.233  26.998  1.00  0.00     0.093 A 
ATOM      8  C   UNL     1      12.137 -22.994  27.063  1.00  0.00     0.123 A 
ATOM      9  C   UNL     1      12.920 -23.132  25.916  1.00  0.00     0.094 A 
ATOM     10  C   UNL     1      12.334 -23.482  24.697  1.00  0.00     0.146 A 
ATOM     11  O   UNL     1      13.112 -23.590  23.626  1.00  0.00    -0.456 OA
ENDROOT
BRANCH   1  12
ATOM     12  C   UNL     1      13.620 -23.999  21.293  1.00  0.00     0.021 A 
ATOM     13  C   UNL     1      14.237 -22.861  20.739  1.00  0.00     0.016 A 
ATOM     14  C   UNL     1      15.133 -22.988  19.674  1.00  0.00     0.051 A 
ATOM     15  C   UNL     1      15.422 -24.250  19.139  1.00  0.00     0.157 A 
ATOM     16  C   UNL     1      13.905 -25.261  20.739  1.00  0.00     0.062 A 
ATOM     17  C   UNL     1      14.803 -25.391  19.674  1.00  0.00     0.158 A 
BRANCH  15  18
ATOM     18  O   UNL     1      16.317 -24.372  18.077  1.00  0.00    -0.504 OA
ATOM     19  H   UNL     1      17.023 -25.098  18.059  1.00  0.00     0.293 HD
ENDBRANCH  15  18
BRANCH  17  20
ATOM     20  O   UNL     1      15.066 -26.661  19.161  1.00  0.00    -0.504 OA
ATOM     21  H   UNL     1      14.390 -27.163  18.597  1.00  0.00     0.293 HD
ENDBRANCH  17  20
ENDBRANCH   1  12
BRANCH   6  22
ATOM     22  O   UNL     1       8.790 -23.920  25.863  1.00  0.00    -0.507 OA
ATOM     23  H   UNL     1       8.141 -23.819  25.097  1.00  0.00     0.293 HD
ENDBRANCH   6  22
BRANCH   8  24
ATOM     24  O   UNL     1      12.714 -22.625  28.277  1.00  0.00    -0.508 OA
ATOM     25  H   UNL     1      12.856 -21.653  28.523  1.00  0.00     0.293 HD
ENDBRANCH   8  24
TORSDOF 5
ENDMDL
MODEL 2
REMARK VINA RESULT:    -5.663      5.215      7.350
REMARK INTER + INTRA:          -6.919
REMARK INTER:                  -6.654
REMARK INTRA:                  -0.266
REMARK UNBOUND:                -0.263
REMARK SMILES O=c1cc(-c2ccc(O)c(O)c2)oc2cc(O)cc(O)c12
REMARK SMILES IDX 4 1 3 2 2 3 1 4 21 5 19 6 18 7 16 8 15 9 14 10 13 11 5 12
REMARK SMILES IDX 6 13 7 14 8 15 12 16 10 17 9 18 11 20 20 22 17 24
REMARK H PARENT 9 19 11 21 20 23 17 25
REMARK Flexibility Score: inf
ROOT
ATOM      1  C   UNL     1      16.593 -26.486  22.609  1.00  0.00     0.138 A 
ATOM      2  C   UNL     1      17.910 -26.180  22.982  1.00  0.00     0.100 A 
ATOM      3  C   UNL     1      18.658 -27.113  23.700  1.00  0.00     0.197 A 
ATOM      4  O   UNL     1      19.856 -26.835  23.967  1.00  0.00    -0.289 OA
ATOM      5  C   UNL     1      18.073 -28.347  24.074  1.00  0.00     0.107 A 
ATOM      6  C   UNL     1      18.728 -29.357  24.841  1.00  0.00     0.134 A 
ATOM      7  C   UNL     1      18.090 -30.586  25.051  1.00  0.00     0.093 A 
ATOM      8  C   UNL     1      16.800 -30.819  24.574  1.00  0.00     0.123 A 
ATOM      9  C   UNL     1      16.130 -29.819  23.868  1.00  0.00     0.094 A 
ATOM     10  C   UNL     1      16.753 -28.594  23.613  1.00  0.00     0.146 A 
ATOM     11  O   UNL     1      16.087 -27.673  22.925  1.00  0.00    -0.456 OA
ENDROOT
BRANCH   1  12
ATOM     12  C   UNL     1      15.752 -25.530  21.847  1.00  0.00     0.021 A 
ATOM     13  C   UNL     1      15.247 -25.843  20.570  1.00  0.00     0.016 A 
ATOM     14  C   UNL     1      14.467 -24.918  19.870  1.00  0.00     0.051 A 
ATOM     15  C   UNL     1      14.184 -23.665  20.428  1.00  0.00     0.157 A 
ATOM     16  C   UNL     1      15.474 -24.263  22.393  1.00  0.00     0.062 A 
ATOM     17  C   UNL     1      14.692 -23.337  21.695  1.00  0.00     0.158 A 
BRANCH  15  18
ATOM     18  O   UNL     1      13.404 -22.747  19.726  1.00  0.00    -0.504 OA
ATOM     19  H   UNL     1      13.782 -22.207  18.958  1.00  0.00     0.293 HD
ENDBRANCH  15  18
BRANCH  17  20
ATOM     20  O   UNL     1      14.432 -22.096  22.276  1.00  0.00    -0.504 OA
ATOM     21  H   UNL     1      14.511 -21.231  21.755  1.00  0.00     0.293 HD
ENDBRANCH  17  20
ENDBRANCH   1  12
BRANCH   6  22
ATOM     22  O   UNL     1      19.982 -29.196  25.436  1.00  0.00    -0.507 OA
ATOM     23  H   UNL     1      20.343 -29.769  26.184  1.00  0.00     0.293 HD
ENDBRANCH   6  22
BRANCH   8  24
ATOM     24  O   UNL     1      16.191 -32.048  24.813  1.00  0.00    -0.508 OA
ATOM     25  H   UNL     1      16.591 -32.914  24.473  1.00  0.00     0.293 HD
ENDBRANCH   8  24
TORSDOF 5
ENDMDL
MODEL 3
REMARK VINA RESULT:    -5.647      5.429      7.288
REMARK INTER + INTRA:          -6.900
REMARK INTER:                  -6.622
REMARK INTRA:                  -0.278
REMARK UNBOUND:                -0.263
REMARK SMILES O=c1cc(-c2ccc(O)c(O)c2)oc2cc(O)cc(O)c12
REMARK SMILES IDX 4 1 3 2 2 3 1 4 21 5 19 6 18 7 16 8 15 9 14 10 13 11 5 12
REMARK SMILES IDX 6 13 7 14 8 15 12 16 10 17 9 18 11 20 20 22 17 24
REMARK H PARENT 9 19 11 21 20 23 17 25
REMARK Flexibility Score: inf
ROOT
ATOM      1  C   UNL     1      16.593 -26.605  22.662  1.00  0.00     0.138 A 
ATOM      2  C   UNL     1      16.074 -27.849  23.050  1.00  0.00     0.100 A 
ATOM      3  C   UNL     1      16.871 -28.730  23.782  1.00  0.00     0.197 A 
ATOM      4  O   UNL     1      16.357 -29.812  24.170  1.00  0.00    -0.289 OA
ATOM      5  C   UNL     1      18.204 -28.377  24.099  1.00  0.00     0.107 A 
ATOM      6  C   UNL     1      19.120 -29.212  24.805  1.00  0.00     0.134 A 
ATOM      7  C   UNL     1      20.378 -28.709  25.163  1.00  0.00     0.093 A 
ATOM      8  C   UNL     1      20.774 -27.425  24.789  1.00  0.00     0.123 A 
ATOM      9  C   UNL     1      19.905 -26.619  24.052  1.00  0.00     0.094 A 
ATOM     10  C   UNL     1      18.631 -27.080  23.709  1.00  0.00     0.146 A 
ATOM     11  O   UNL     1      17.829 -26.276  23.019  1.00  0.00    -0.456 OA
ENDROOT
BRANCH   1  12
ATOM     12  C   UNL     1      15.790 -25.631  21.881  1.00  0.00     0.021 A 
ATOM     13  C   UNL     1      15.301 -25.935  20.596  1.00  0.00     0.016 A 
ATOM     14  C   UNL     1      14.557 -24.994  19.879  1.00  0.00     0.051 A 
ATOM     15  C   UNL     1      14.292 -23.734  20.430  1.00  0.00     0.157 A 
ATOM     16  C   UNL     1      15.531 -24.357  22.420  1.00  0.00     0.062 A 
ATOM     17  C   UNL     1      14.784 -23.414  21.706  1.00  0.00     0.158 A 
BRANCH  15  18
ATOM     18  O   UNL     1      13.548 -22.798  19.712  1.00  0.00    -0.504 OA
ATOM     19  H   UNL     1      13.281 -22.959  18.748  1.00  0.00     0.293 HD
ENDBRANCH  15  18
BRANCH  17  20
ATOM     20  O   UNL     1      14.542 -22.167  22.280  1.00  0.00    -0.504 OA
ATOM     21  H   UNL     1      14.880 -21.308  21.862  1.00  0.00     0.293 HD
ENDBRANCH  17  20
ENDBRANCH   1  12
BRANCH   6  22
ATOM     22  O   UNL     1      18.858 -30.540  25.154  1.00  0.00    -0.507 OA
ATOM     23  H   UNL     1      17.958 -30.989  25.078  1.00  0.00     0.293 HD
ENDBRANCH   6  22
BRANCH   8  24
ATOM     24  O   UNL     1      22.037 -26.963  25.150  1.00  0.00    -0.508 OA
ATOM     25  H   UNL     1      22.636 -27.490  25.773  1.00  0.00     0.293 HD
ENDBRANCH   8  24
TORSDOF 5
ENDMDL
MODEL 4
REMARK VINA RESULT:    -5.632      1.557      2.084
REMARK INTER + INTRA:          -6.883
REMARK INTER:                  -6.593
REMARK INTRA:                  -0.291
REMARK UNBOUND:                -0.263
REMARK SMILES O=c1cc(-c2ccc(O)c(O)c2)oc2cc(O)cc(O)c12
REMARK SMILES IDX 4 1 3 2 2 3 1 4 21 5 19 6 18 7 16 8 15 9 14 10 13 11 5 12
REMARK SMILES IDX 6 13 7 14 8 15 12 16 10 17 9 18 11 20 20 22 17 24
REMARK H PARENT 9 19 11 21 20 23 17 25
REMARK Flexibility Score: inf
ROOT
ATOM      1  C   UNL     1      12.405 -24.380  21.432  1.00  0.00     0.138 A 
ATOM      2  C   UNL     1      11.151 -24.976  21.229  1.00  0.00     0.100 A 
ATOM      3  C   UNL     1      10.108 -24.704  22.114  1.00  0.00     0.197 A 
ATOM      4  O   UNL     1       8.979 -25.204  21.872  1.00  0.00    -0.289 OA
ATOM      5  C   UNL     1      10.329 -23.857  23.226  1.00  0.00     0.107 A 
ATOM      6  C   UNL     1       9.351 -23.541  24.215  1.00  0.00     0.134 A 
ATOM      7  C   UNL     1       9.651 -22.597  25.206  1.00  0.00     0.093 A 
ATOM      8  C   UNL     1      10.911 -22.004  25.278  1.00  0.00     0.123 A 
ATOM      9  C   UNL     1      11.892 -22.345  24.347  1.00  0.00     0.094 A 
ATOM     10  C   UNL     1      11.613 -23.257  23.326  1.00  0.00     0.146 A 
ATOM     11  O   UNL     1      12.570 -23.545  22.451  1.00  0.00    -0.456 OA
ENDROOT
BRANCH   1  12
ATOM     12  C   UNL     1      13.549 -24.636  20.522  1.00  0.00     0.021 A 
ATOM     13  C   UNL     1      13.922 -25.942  20.150  1.00  0.00     0.016 A 
ATOM     14  C   UNL     1      15.012 -26.153  19.300  1.00  0.00     0.051 A 
ATOM     15  C   UNL     1      15.750 -25.067  18.813  1.00  0.00     0.157 A 
ATOM     16  C   UNL     1      14.305 -23.552  20.039  1.00  0.00     0.062 A 
ATOM     17  C   UNL     1      15.395 -23.761  19.186  1.00  0.00     0.158 A 
BRANCH  15  18
ATOM     18  O   UNL     1      16.835 -25.282  17.964  1.00  0.00    -0.504 OA
ATOM     19  H   UNL     1      17.788 -25.260  18.305  1.00  0.00     0.293 HD
ENDBRANCH  15  18
BRANCH  17  20
ATOM     20  O   UNL     1      16.112 -22.658  18.722  1.00  0.00    -0.504 OA
ATOM     21  H   UNL     1      15.850 -21.708  18.958  1.00  0.00     0.293 HD
ENDBRANCH  17  20
ENDBRANCH   1  12
BRANCH   6  22
ATOM     22  O   UNL     1       8.090 -24.139  24.286  1.00  0.00    -0.507 OA
ATOM     23  H   UNL     1       7.733 -24.639  25.086  1.00  0.00     0.293 HD
ENDBRANCH   6  22
BRANCH   8  24
ATOM     24  O   UNL     1      11.179 -21.080  26.286  1.00  0.00    -0.508 OA
ATOM     25  H   UNL     1      12.097 -21.005  26.706  1.00  0.00     0.293 HD
ENDBRANCH   8  24
TORSDOF 5
ENDMDL
MODEL 5
REMARK VINA RESULT:    -5.471     10.454     12.753
REMARK INTER + INTRA:          -6.694
REMARK INTER:                  -6.431
REMARK INTRA:                  -0.263
REMARK UNBOUND:                -0.263
REMARK SMILES O=c1cc(-c2ccc(O)c(O)c2)oc2cc(O)cc(O)c12
REMARK SMILES IDX 4 1 3 2 2 3 1 4 21 5 19 6 18 7 16 8 15 9 14 10 13 11 5 12
REMARK SMILES IDX 6 13 7 14 8 15 12 16 10 17 9 18 11 20 20 22 17 24
REMARK H PARENT 9 19 11 21 20 23 17 25
REMARK Flexibility Score: inf
ROOT
ATOM      1  C   UNL     1      20.541 -28.963  29.052  1.00  0.00     0.138 A 
ATOM      2  C   UNL     1      21.472 -28.067  29.597  1.00  0.00     0.100 A 
ATOM      3  C   UNL     1      22.023 -27.070  28.791  1.00  0.00     0.197 A 
ATOM      4  O   UNL     1      22.809 -26.243  29.323  1.00  0.00    -0.289 OA
ATOM      5  C   UNL     1      21.664 -26.991  27.424  1.00  0.00     0.107 A 
ATOM      6  C   UNL     1      22.192 -26.042  26.498  1.00  0.00     0.134 A 
ATOM      7  C   UNL     1      21.674 -25.984  25.198  1.00  0.00     0.093 A 
ATOM      8  C   UNL     1      20.691 -26.878  24.773  1.00  0.00     0.123 A 
ATOM      9  C   UNL     1      20.206 -27.845  25.655  1.00  0.00     0.094 A 
ATOM     10  C   UNL     1      20.678 -27.906  26.969  1.00  0.00     0.146 A 
ATOM     11  O   UNL     1      20.180 -28.832  27.781  1.00  0.00    -0.456 OA
ENDROOT
BRANCH   1  12
ATOM     12  C   UNL     1      19.926 -30.042  29.864  1.00  0.00     0.021 A 
ATOM     13  C   UNL     1      18.547 -30.059  30.150  1.00  0.00     0.016 A 
ATOM     14  C   UNL     1      17.996 -31.082  30.927  1.00  0.00     0.051 A 
ATOM     15  C   UNL     1      18.812 -32.101  31.435  1.00  0.00     0.157 A 
ATOM     16  C   UNL     1      20.739 -31.062  30.391  1.00  0.00     0.062 A 
ATOM     17  C   UNL     1      20.189 -32.089  31.167  1.00  0.00     0.158 A 
BRANCH  15  18
ATOM     18  O   UNL     1      18.258 -33.121  32.208  1.00  0.00    -0.504 OA
ATOM     19  H   UNL     1      18.827 -33.868  32.588  1.00  0.00     0.293 HD
ENDBRANCH  15  18
BRANCH  17  20
ATOM     20  O   UNL     1      21.029 -33.086  31.662  1.00  0.00    -0.504 OA
ATOM     21  H   UNL     1      21.991 -32.899  31.922  1.00  0.00     0.293 HD
ENDBRANCH  17  20
ENDBRANCH   1  12
BRANCH   6  22
ATOM     22  O   UNL     1      23.234 -25.158  26.794  1.00  0.00    -0.507 OA
ATOM     23  H   UNL     1      24.127 -25.143  26.325  1.00  0.00     0.293 HD
ENDBRANCH   6  22
BRANCH   8  24
ATOM     24  O   UNL     1      20.210 -26.801  23.469  1.00  0.00    -0.508 OA
ATOM     25  H   UNL     1      19.325 -26.355  23.255  1.00  0.00     0.293 HD
ENDBRANCH   8  24
TORSDOF 5
ENDMDL
MODEL 6
REMARK VINA RESULT:    -5.395     10.683     12.622
REMARK INTER + INTRA:          -6.605
REMARK INTER:                  -6.335
REMARK INTRA:                  -0.270
REMARK UNBOUND:                -0.263
REMARK SMILES O=c1cc(-c2ccc(O)c(O)c2)oc2cc(O)cc(O)c12
REMARK SMILES IDX 4 1 3 2 2 3 1 4 21 5 19 6 18 7 16 8 15 9 14 10 13 11 5 12
REMARK SMILES IDX 6 13 7 14 8 15 12 16 10 17 9 18 11 20 20 22 17 24
REMARK H PARENT 9 19 11 21 20 23 17 25
REMARK Flexibility Score: inf
ROOT
ATOM      1  C   UNL     1      20.411 -29.261  28.456  1.00  0.00     0.138 A 
ATOM      2  C   UNL     1      19.904 -29.313  27.150  1.00  0.00     0.100 A 
ATOM      3  C   UNL     1      20.354 -28.397  26.198  1.00  0.00     0.197 A 
ATOM      4  O   UNL     1      19.927 -28.507  25.020  1.00  0.00    -0.289 OA
ATOM      5  C   UNL     1      21.293 -27.404  26.566  1.00  0.00     0.107 A 
ATOM      6  C   UNL     1      21.793 -26.393  25.691  1.00  0.00     0.134 A 
ATOM      7  C   UNL     1      22.808 -25.536  26.134  1.00  0.00     0.093 A 
ATOM      8  C   UNL     1      23.298 -25.613  27.438  1.00  0.00     0.123 A 
ATOM      9  C   UNL     1      22.779 -26.564  28.318  1.00  0.00     0.094 A 
ATOM     10  C   UNL     1      21.791 -27.455  27.895  1.00  0.00     0.146 A 
ATOM     11  O   UNL     1      21.333 -28.354  28.760  1.00  0.00    -0.456 OA
ENDROOT
BRANCH   1  12
ATOM     12  C   UNL     1      19.966 -30.210  29.507  1.00  0.00     0.021 A 
ATOM     13  C   UNL     1      18.694 -30.111  30.103  1.00  0.00     0.016 A 
ATOM     14  C   UNL     1      18.306 -31.013  31.098  1.00  0.00     0.051 A 
ATOM     15  C   UNL     1      19.181 -32.021  31.520  1.00  0.00     0.157 A 
ATOM     16  C   UNL     1      20.844 -31.218  29.947  1.00  0.00     0.062 A 
ATOM     17  C   UNL     1      20.457 -32.122  30.942  1.00  0.00     0.158 A 
BRANCH  15  18
ATOM     18  O   UNL     1      18.789 -32.919  32.512  1.00  0.00    -0.504 OA
ATOM     19  H   UNL     1      18.164 -32.644  33.260  1.00  0.00     0.293 HD
ENDBRANCH  15  18
BRANCH  17  20
ATOM     20  O   UNL     1      21.353 -33.112  31.342  1.00  0.00    -0.504 OA
ATOM     21  H   UNL     1      22.012 -32.967  32.099  1.00  0.00     0.293 HD
ENDBRANCH  17  20
ENDBRANCH   1  12
BRANCH   6  22
ATOM     22  O   UNL     1      21.313 -26.173  24.396  1.00  0.00    -0.507 OA
ATOM     23  H   UNL     1      20.343 -26.031  24.158  1.00  0.00     0.293 HD
ENDBRANCH   6  22
BRANCH   8  24
ATOM     24  O   UNL     1      24.298 -24.735  27.849  1.00  0.00    -0.508 OA
ATOM     25  H   UNL     1      25.276 -25.001  27.836  1.00  0.00     0.293 HD
ENDBRANCH   8  24
TORSDOF 5
ENDMDL
MODEL 7
REMARK VINA RESULT:    -5.368     10.584     12.642
REMARK INTER + INTRA:          -6.573
REMARK INTER:                  -6.304
REMARK INTRA:                  -0.269
REMARK UNBOUND:                -0.263
REMARK SMILES O=c1cc(-c2ccc(O)c(O)c2)oc2cc(O)cc(O)c12
REMARK SMILES IDX 4 1 3 2 2 3 1 4 21 5 19 6 18 7 16 8 15 9 14 10 13 11 5 12
REMARK SMILES IDX 6 13 7 14 8 15 12 16 10 17 9 18 11 20 20 22 17 24
REMARK H PARENT 9 19 11 21 20 23 17 25
REMARK Flexibility Score: inf
ROOT
ATOM      1  C   UNL     1      22.122 -27.925  28.214  1.00  0.00     0.138 A 
ATOM      2  C   UNL     1      22.671 -26.894  27.438  1.00  0.00     0.100 A 
ATOM      3  C   UNL     1      22.002 -26.463  26.292  1.00  0.00     0.197 A 
ATOM      4  O   UNL     1      22.488 -25.495  25.651  1.00  0.00    -0.289 OA
ATOM      5  C   UNL     1      20.794 -27.088  25.904  1.00  0.00     0.107 A 
ATOM      6  C   UNL     1      20.047 -26.759  24.734  1.00  0.00     0.134 A 
ATOM      7  C   UNL     1      18.804 -27.366  24.514  1.00  0.00     0.093 A 
ATOM      8  C   UNL     1      18.309 -28.333  25.390  1.00  0.00     0.123 A 
ATOM      9  C   UNL     1      19.056 -28.701  26.510  1.00  0.00     0.094 A 
ATOM     10  C   UNL     1      20.284 -28.089  26.774  1.00  0.00     0.146 A 
ATOM     11  O   UNL     1      20.958 -28.458  27.858  1.00  0.00    -0.456 OA
ENDROOT
BRANCH   1  12
ATOM     12  C   UNL     1      22.791 -28.424  29.441  1.00  0.00     0.021 A 
ATOM     13  C   UNL     1      23.835 -29.367  29.384  1.00  0.00     0.016 A 
ATOM     14  C   UNL     1      24.440 -29.827  30.557  1.00  0.00     0.051 A 
ATOM     15  C   UNL     1      24.011 -29.359  31.805  1.00  0.00     0.157 A 
ATOM     16  C   UNL     1      22.357 -27.970  30.701  1.00  0.00     0.062 A 
ATOM     17  C   UNL     1      22.963 -28.427  31.876  1.00  0.00     0.158 A 
BRANCH  15  18
ATOM     18  O   UNL     1      24.619 -29.819  32.973  1.00  0.00    -0.504 OA
ATOM     19  H   UNL     1      24.157 -30.480  33.586  1.00  0.00     0.293 HD
ENDBRANCH  15  18
BRANCH  17  20
ATOM     20  O   UNL     1      22.509 -27.945  33.103  1.00  0.00    -0.504 OA
ATOM     21  H   UNL     1      22.945 -28.208  33.979  1.00  0.00     0.293 HD
ENDBRANCH  17  20
ENDBRANCH   1  12
BRANCH   6  22
ATOM     22  O   UNL     1      20.488 -25.869  23.750  1.00  0.00    -0.507 OA
ATOM     23  H   UNL     1      20.293 -25.956  22.764  1.00  0.00     0.293 HD
ENDBRANCH   6  22
BRANCH   8  24
ATOM     24  O   UNL     1      17.076 -28.926  25.133  1.00  0.00    -0.508 OA
ATOM     25  H   UNL     1      16.360 -28.993  25.847  1.00  0.00     0.293 HD
ENDBRANCH   8  24
TORSDOF 5
ENDMDL
MODEL 8
REMARK VINA RESULT:    -5.312      8.305      9.986
REMARK INTER + INTRA:          -6.507
REMARK INTER:                  -6.234
REMARK INTRA:                  -0.273
REMARK UNBOUND:                -0.263
REMARK SMILES O=c1cc(-c2ccc(O)c(O)c2)oc2cc(O)cc(O)c12
REMARK SMILES IDX 4 1 3 2 2 3 1 4 21 5 19 6 18 7 16 8 15 9 14 10 13 11 5 12
REMARK SMILES IDX 6 13 7 14 8 15 12 16 10 17 9 18 11 20 20 22 17 24
REMARK H PARENT 9 19 11 21 20 23 17 25
REMARK Flexibility Score: inf
ROOT
ATOM      1  C   UNL     1      19.939 -28.059  25.778  1.00  0.00     0.138 A 
ATOM      2  C   UNL     1      19.795 -29.380  26.225  1.00  0.00     0.100 A 
ATOM      3  C   UNL     1      18.751 -30.165  25.734  1.00  0.00     0.197 A 
ATOM      4  O   UNL     1      18.684 -31.365  26.106  1.00  0.00    -0.289 OA
ATOM      5  C   UNL     1      17.828 -29.613  24.814  1.00  0.00     0.107 A 
ATOM      6  C   UNL     1      16.702 -30.306  24.277  1.00  0.00     0.134 A 
ATOM      7  C   UNL     1      15.925 -29.695  23.284  1.00  0.00     0.093 A 
ATOM      8  C   UNL     1      16.196 -28.397  22.853  1.00  0.00     0.123 A 
ATOM      9  C   UNL     1      17.263 -27.690  23.410  1.00  0.00     0.094 A 
ATOM     10  C   UNL     1      18.078 -28.284  24.377  1.00  0.00     0.146 A 
ATOM     11  O   UNL     1      19.091 -27.583  24.873  1.00  0.00    -0.456 OA
ENDROOT
BRANCH   1  12
ATOM     12  C   UNL     1      21.030 -27.180  26.269  1.00  0.00     0.021 A 
ATOM     13  C   UNL     1      21.864 -26.471  25.384  1.00  0.00     0.016 A 
ATOM     14  C   UNL     1      22.891 -25.660  25.875  1.00  0.00     0.051 A 
ATOM     15  C   UNL     1      23.106 -25.548  27.254  1.00  0.00     0.157 A 
ATOM     16  C   UNL     1      21.263 -27.072  27.652  1.00  0.00     0.062 A 
ATOM     17  C   UNL     1      22.289 -26.259  28.146  1.00  0.00     0.158 A 
BRANCH  15  18
ATOM     18  O   UNL     1      24.131 -24.735  27.739  1.00  0.00    -0.504 OA
ATOM     19  H   UNL     1      23.936 -23.876  28.238  1.00  0.00     0.293 HD
ENDBRANCH  15  18
BRANCH  17  20
ATOM     20  O   UNL     1      22.480 -26.172  29.525  1.00  0.00    -0.504 OA
ATOM     21  H   UNL     1      22.976 -26.887  30.045  1.00  0.00     0.293 HD
ENDBRANCH  17  20
ENDBRANCH   1  12
BRANCH   6  22
ATOM     22  O   UNL     1      16.292 -31.574  24.698  1.00  0.00    -0.507 OA
ATOM     23  H   UNL     1      15.394 -31.987  24.492  1.00  0.00     0.293 HD
ENDBRANCH   6  22
BRANCH   8  24
ATOM     24  O   UNL     1      15.393 -27.816  21.875  1.00  0.00    -0.508 OA
ATOM     25  H   UNL     1      15.734 -27.066  21.286  1.00  0.00     0.293 HD
ENDBRANCH   8  24
TORSDOF 5
ENDMDL
MODEL 9
REMARK VINA RESULT:    -5.281     11.287     13.443
REMARK INTER + INTRA:          -6.471
REMARK INTER:                  -6.205
REMARK INTRA:                  -0.265
REMARK UNBOUND:                -0.263
REMARK SMILES O=c1cc(-c2ccc(O)c(O)c2)oc2cc(O)cc(O)c12
REMARK SMILES IDX 4 1 3 2 2 3 1 4 21 5 19 6 18 7 16 8 15 9 14 10 13 11 5 12
REMARK SMILES IDX 6 13 7 14 8 15 12 16 10 17 9 18 11 20 20 22 17 24
REMARK H PARENT 9 19 11 21 20 23 17 25
REMARK Flexibility Score: inf
ROOT
ATOM      1  C   UNL     1      21.125 -28.982  29.213  1.00  0.00     0.138 A 
ATOM      2  C   UNL     1      21.412 -27.752  29.823  1.00  0.00     0.100 A 
ATOM      3  C   UNL     1      22.147 -26.792  29.126  1.00  0.00     0.197 A 
ATOM      4  O   UNL     1      22.335 -25.676  29.676  1.00  0.00    -0.289 OA
ATOM      5  C   UNL     1      22.624 -27.078  27.825  1.00  0.00     0.107 A 
ATOM      6  C   UNL     1      23.416 -26.191  27.037  1.00  0.00     0.134 A 
ATOM      7  C   UNL     1      23.732 -26.535  25.717  1.00  0.00     0.093 A 
ATOM      8  C   UNL     1      23.336 -27.759  25.176  1.00  0.00     0.123 A 
ATOM      9  C   UNL     1      22.605 -28.656  25.956  1.00  0.00     0.094 A 
ATOM     10  C   UNL     1      22.245 -28.327  27.265  1.00  0.00     0.146 A 
ATOM     11  O   UNL     1      21.537 -29.203  27.970  1.00  0.00    -0.456 OA
ENDROOT
BRANCH   1  12
ATOM     12  C   UNL     1      20.349 -30.039  29.908  1.00  0.00     0.021 A 
ATOM     13  C   UNL     1      18.942 -30.004  29.971  1.00  0.00     0.016 A 
ATOM     14  C   UNL     1      18.238 -31.008  30.643  1.00  0.00     0.051 A 
ATOM     15  C   UNL     1      18.924 -32.057  31.267  1.00  0.00     0.157 A 
ATOM     16  C   UNL     1      21.029 -31.090  30.550  1.00  0.00     0.062 A 
ATOM     17  C   UNL     1      20.326 -32.096  31.221  1.00  0.00     0.158 A 
BRANCH  15  18
ATOM     18  O   UNL     1      18.217 -33.057  31.934  1.00  0.00    -0.504 OA
ATOM     19  H   UNL     1      18.675 -33.892  32.277  1.00  0.00     0.293 HD
ENDBRANCH  15  18
BRANCH  17  20
ATOM     20  O   UNL     1      21.039 -33.125  31.836  1.00  0.00    -0.504 OA
ATOM     21  H   UNL     1      22.039 -33.069  31.990  1.00  0.00     0.293 HD
ENDBRANCH  17  20
ENDBRANCH   1  12
BRANCH   6  22
ATOM     22  O   UNL     1      23.937 -24.981  27.507  1.00  0.00    -0.507 OA
ATOM     23  H   UNL     1      23.689 -24.549  28.384  1.00  0.00     0.293 HD
ENDBRANCH   6  22
BRANCH   8  24
ATOM     24  O   UNL     1      23.680 -28.074  23.864  1.00  0.00    -0.508 OA
ATOM     25  H   UNL     1      23.021 -28.518  23.235  1.00  0.00     0.293 HD
ENDBRANCH   8  24
TORSDOF 5
ENDMDL
