MODEL 1
REMARK VINA RESULT:    -2.208      0.000      0.000
REMARK INTER + INTRA:          -2.208
REMARK INTER:                  -2.208
REMARK INTRA:                   0.000
REMARK UNBOUND:                 0.000
REMARK SMILES CC(=O)[O-]
REMARK SMILES IDX 1 1 2 2 3 3 4 4
REMARK H PARENT
REMARK Flexibility Score: inf
ROOT
ATOM      1  C   UNL     1     160.427 161.529 148.049  1.00  0.00     0.063 C 
ATOM      2  C   UNL     1     159.448 160.490 147.619  1.00  0.00     0.038 C 
ATOM      3  O   UNL     1     158.325 160.408 148.184  1.00  0.00    -0.550 OA
ATOM      4  O   UNL     1     159.750 159.644 146.560  1.00  0.00    -0.550 OA
ENDROOT
TORSDOF 0
ENDMDL
MODEL 2
REMARK VINA RESULT:    -2.191      2.019      2.696
REMARK INTER + INTRA:          -2.191
REMARK INTER:                  -2.191
REMARK INTRA:                   0.000
REMARK UNBOUND:                 0.000
REMARK SMILES CC(=O)[O-]
REMARK SMILES IDX 1 1 2 2 3 3 4 4
REMARK H PARENT
REMARK Flexibility Score: inf
ROOT
ATOM      1  C   UNL     1     159.151 157.719 148.168  1.00  0.00     0.063 C 
ATOM      2  C   UNL     1     160.027 158.823 147.683  1.00  0.00     0.038 C 
ATOM      3  O   UNL     1     161.136 159.039 148.238  1.00  0.00    -0.550 OA
ATOM      4  O   UNL     1     159.646 159.582 146.584  1.00  0.00    -0.550 OA
ENDROOT
TORSDOF 0
ENDMDL
MODEL 3
REMARK VINA RESULT:    -2.108      1.603      1.948
REMARK INTER + INTRA:          -2.108
REMARK INTER:                  -2.108
REMARK INTRA:                   0.000
REMARK UNBOUND:                 0.000
REMARK SMILES CC(=O)[O-]
REMARK SMILES IDX 1 1 2 2 3 3 4 4
REMARK H PARENT
REMARK Flexibility Score: inf
ROOT
ATOM      1  C   UNL     1     160.019 160.776 147.371  1.00  0.00     0.063 C 
ATOM      2  C   UNL     1     160.140 159.315 147.638  1.00  0.00     0.038 C 
ATOM      3  O   UNL     1     159.353 158.504 147.082  1.00  0.00    -0.550 OA
ATOM      4  O   UNL     1     161.154 158.839 148.459  1.00  0.00    -0.550 OA
ENDROOT
TORSDOF 0
ENDMDL
MODEL 4
REMARK VINA RESULT:    -2.090      3.727      4.013
REMARK INTER + INTRA:          -2.090
REMARK INTER:                  -2.090
REMARK INTRA:                   0.000
REMARK UNBOUND:                 0.000
REMARK SMILES CC(=O)[O-]
REMARK SMILES IDX 1 1 2 2 3 3 4 4
REMARK H PARENT
REMARK Flexibility Score: inf
ROOT
ATOM      1  C   UNL     1     160.957 162.996 148.882  1.00  0.00     0.063 C 
ATOM      2  C   UNL     1     161.879 162.226 149.764  1.00  0.00     0.038 C 
ATOM      3  O   UNL     1     161.510 161.128 150.257  1.00  0.00    -0.550 OA
ATOM      4  O   UNL     1     163.165 162.693 150.004  1.00  0.00    -0.550 OA
ENDROOT
TORSDOF 0
ENDMDL
MODEL 5
REMARK VINA RESULT:    -2.088      1.248      2.260
REMARK INTER + INTRA:          -2.088
REMARK INTER:                  -2.088
REMARK INTRA:                   0.000
REMARK UNBOUND:                 0.000
REMARK SMILES CC(=O)[O-]
REMARK SMILES IDX 1 1 2 2 3 3 4 4
REMARK H PARENT
REMARK Flexibility Score: inf
ROOT
ATOM      1  C   UNL     1     159.630 158.875 147.361  1.00  0.00     0.063 C 
ATOM      2  C   UNL     1     159.517 160.308 147.757  1.00  0.00     0.038 C 
ATOM      3  O   UNL     1     160.341 161.152 147.315  1.00  0.00    -0.550 OA
ATOM      4  O   UNL     1     158.473 160.725 148.572  1.00  0.00    -0.550 OA
ENDROOT
TORSDOF 0
ENDMDL
MODEL 6
REMARK VINA RESULT:    -2.080      6.495      6.843
REMARK INTER + INTRA:          -2.080
REMARK INTER:                  -2.080
REMARK INTRA:                   0.000
REMARK UNBOUND:                 0.000
REMARK SMILES CC(=O)[O-]
REMARK SMILES IDX 1 1 2 2 3 3 4 4
REMARK H PARENT
REMARK Flexibility Score: inf
ROOT
ATOM      1  C   UNL     1     165.506 164.573 149.218  1.00  0.00     0.063 C 
ATOM      2  C   UNL     1     164.483 164.166 150.223  1.00  0.00     0.038 C 
ATOM      3  O   UNL     1     164.647 164.444 151.440  1.00  0.00    -0.550 OA
ATOM      4  O   UNL     1     163.321 163.525 149.812  1.00  0.00    -0.550 OA
ENDROOT
TORSDOF 0
ENDMDL
MODEL 7
REMARK VINA RESULT:    -2.057      5.915      6.374
REMARK INTER + INTRA:          -2.057
REMARK INTER:                  -2.057
REMARK INTRA:                   0.000
REMARK UNBOUND:                 0.000
REMARK SMILES CC(=O)[O-]
REMARK SMILES IDX 1 1 2 2 3 3 4 4
REMARK H PARENT
REMARK Flexibility Score: inf
ROOT
ATOM      1  C   UNL     1     157.346 161.398 154.481  1.00  0.00     0.063 C 
ATOM      2  C   UNL     1     158.493 161.140 153.565  1.00  0.00     0.038 C 
ATOM      3  O   UNL     1     158.648 161.844 152.532  1.00  0.00    -0.550 OA
ATOM      4  O   UNL     1     159.425 160.158 153.876  1.00  0.00    -0.550 OA
ENDROOT
TORSDOF 0
ENDMDL
MODEL 8
REMARK VINA RESULT:    -2.042      4.337      4.666
REMARK INTER + INTRA:          -2.042
REMARK INTER:                  -2.042
REMARK INTRA:                   0.000
REMARK UNBOUND:                 0.000
REMARK SMILES CC(=O)[O-]
REMARK SMILES IDX 1 1 2 2 3 3 4 4
REMARK H PARENT
REMARK Flexibility Score: inf
ROOT
ATOM      1  C   UNL     1     158.525 156.592 148.862  1.00  0.00     0.063 C 
ATOM      2  C   UNL     1     157.634 157.319 149.809  1.00  0.00     0.038 C 
ATOM      3  O   UNL     1     158.062 158.326 150.433  1.00  0.00    -0.550 OA
ATOM      4  O   UNL     1     156.313 156.920 149.968  1.00  0.00    -0.550 OA
ENDROOT
TORSDOF 0
ENDMDL
MODEL 9
REMARK VINA RESULT:    -2.034      3.575      3.885
REMARK INTER + INTRA:          -2.034
REMARK INTER:                  -2.034
REMARK INTRA:                   0.000
REMARK UNBOUND:                 0.000
REMARK SMILES CC(=O)[O-]
REMARK SMILES IDX 1 1 2 2 3 3 4 4
REMARK H PARENT
REMARK Flexibility Score: inf
ROOT
ATOM      1  C   UNL     1     163.369 162.598 150.043  1.00  0.00     0.063 C 
ATOM      2  C   UNL     1     161.984 162.204 149.659  1.00  0.00     0.038 C 
ATOM      3  O   UNL     1     161.480 161.144 150.115  1.00  0.00    -0.550 OA
ATOM      4  O   UNL     1     161.227 163.032 148.840  1.00  0.00    -0.550 OA
ENDROOT
TORSDOF 0
ENDMDL
