MODEL 1
REMARK VINA RESULT:    -4.241      0.000      0.000
REMARK INTER + INTRA:         -10.524
REMARK INTER:                  -8.208
REMARK INTRA:                  -2.316
REMARK UNBOUND:                -2.316
REMARK SMILES CCCCCCCCCCCCCCCCCC(=O)[O-]
REMARK SMILES IDX 10 1 11 2 12 3 13 4 14 5 15 6 16 7 17 8 18 9 19 10 20 11
REMARK SMILES IDX 9 12 8 13 7 14 6 15 5 16 4 17 3 18 2 19 1 20
REMARK H PARENT
REMARK Flexibility Score: inf
ROOT
ATOM      1  C   UNL     1      50.070   7.654  24.364  1.00  0.00     0.000 C 
ENDROOT
BRANCH   1   2
ATOM      2  C   UNL     1      49.257   8.961  24.282  1.00  0.00     0.000 C 
BRANCH   2   3
ATOM      3  C   UNL     1      47.730   8.778  24.179  1.00  0.00     0.000 C 
BRANCH   3   4
ATOM      4  C   UNL     1      47.145   9.001  22.774  1.00  0.00     0.000 C 
BRANCH   4   5
ATOM      5  C   UNL     1      46.552   7.719  22.165  1.00  0.00     0.000 C 
BRANCH   5   6
ATOM      6  C   UNL     1      47.483   7.060  21.133  1.00  0.00     0.000 C 
BRANCH   6   7
ATOM      7  C   UNL     1      48.550   7.994  20.526  1.00  0.00     0.006 C 
BRANCH   7   8
ATOM      8  C   UNL     1      49.985   7.445  20.615  1.00  0.00     0.053 C 
BRANCH   8   9
ATOM      9  C   UNL     1      50.835   7.871  19.458  1.00  0.00     0.041 C 
ATOM     10  O   UNL     1      51.742   7.112  19.026  1.00  0.00    -0.550 OA
ATOM     11  O   UNL     1      50.600   9.087  18.829  1.00  0.00    -0.550 OA
ENDBRANCH   8   9
ENDBRANCH   7   8
ENDBRANCH   6   7
ENDBRANCH   5   6
ENDBRANCH   4   5
ENDBRANCH   3   4
ENDBRANCH   2   3
ENDBRANCH   1   2
BRANCH   1  12
ATOM     12  C   UNL     1      49.228   6.372  24.487  1.00  0.00     0.000 C 
BRANCH  12  13
ATOM     13  C   UNL     1      49.768   5.221  23.622  1.00  0.00    -0.000 C 
BRANCH  13  14
ATOM     14  C   UNL     1      48.658   4.280  23.127  1.00  0.00    -0.000 C 
BRANCH  14  15
ATOM     15  C   UNL     1      49.134   2.824  22.990  1.00  0.00    -0.000 C 
BRANCH  15  16
ATOM     16  C   UNL     1      50.441   2.705  22.174  1.00  0.00    -0.000 C 
BRANCH  16  17
ATOM     17  C   UNL     1      50.210   2.597  20.656  1.00  0.00    -0.000 C 
BRANCH  17  18
ATOM     18  C   UNL     1      50.895   3.699  19.827  1.00  0.00    -0.000 C 
BRANCH  18  19
ATOM     19  C   UNL     1      52.114   3.202  19.020  1.00  0.00    -0.003 C 
ATOM     20  C   UNL     1      52.969   2.196  19.790  1.00  0.00     0.004 C 
ENDBRANCH  18  19
ENDBRANCH  17  18
ENDBRANCH  16  17
ENDBRANCH  15  16
ENDBRANCH  14  15
ENDBRANCH  13  14
ENDBRANCH  12  13
ENDBRANCH   1  12
TORSDOF 16
ENDMDL
MODEL 2
REMARK VINA RESULT:    -4.184      4.883      7.214
REMARK INTER + INTRA:         -10.414
REMARK INTER:                  -8.895
REMARK INTRA:                  -1.520
REMARK UNBOUND:                -2.316
REMARK SMILES CCCCCCCCCCCCCCCCCC(=O)[O-]
REMARK SMILES IDX 10 1 11 2 12 3 13 4 14 5 15 6 16 7 17 8 18 9 19 10 20 11
REMARK SMILES IDX 9 12 8 13 7 14 6 15 5 16 4 17 3 18 2 19 1 20
REMARK H PARENT
REMARK Flexibility Score: inf
ROOT
ATOM      1  C   UNL     1      48.922   1.718  21.465  1.00  0.00     0.000 C 
ENDROOT
BRANCH   1   2
ATOM      2  C   UNL     1      47.744   1.130  20.664  1.00  0.00     0.000 C 
BRANCH   2   3
ATOM      3  C   UNL     1      46.822   2.168  19.996  1.00  0.00     0.000 C 
BRANCH   3   4
ATOM      4  C   UNL     1      45.946   2.976  20.970  1.00  0.00     0.000 C 
BRANCH   4   5
ATOM      5  C   UNL     1      44.804   3.725  20.262  1.00  0.00     0.000 C 
BRANCH   5   6
ATOM      6  C   UNL     1      43.415   3.155  20.599  1.00  0.00     0.000 C 
BRANCH   6   7
ATOM      7  C   UNL     1      43.335   2.372  21.925  1.00  0.00     0.006 C 
BRANCH   7   8
ATOM      8  C   UNL     1      43.218   0.848  21.745  1.00  0.00     0.053 C 
BRANCH   8   9
ATOM      9  C   UNL     1      43.865   0.087  22.861  1.00  0.00     0.041 C 
ATOM     10  O   UNL     1      43.199  -0.229  23.882  1.00  0.00    -0.550 OA
ATOM     11  O   UNL     1      45.192  -0.311  22.757  1.00  0.00    -0.550 OA
ENDBRANCH   8   9
ENDBRANCH   7   8
ENDBRANCH   6   7
ENDBRANCH   5   6
ENDBRANCH   4   5
ENDBRANCH   3   4
ENDBRANCH   2   3
ENDBRANCH   1   2
BRANCH   1  12
ATOM     12  C   UNL     1      49.958   2.488  20.627  1.00  0.00     0.000 C 
BRANCH  12  13
ATOM     13  C   UNL     1      49.884   4.009  20.842  1.00  0.00    -0.000 C 
BRANCH  13  14
ATOM     14  C   UNL     1      49.305   4.386  22.214  1.00  0.00    -0.000 C 
BRANCH  14  15
ATOM     15  C   UNL     1      48.531   5.715  22.184  1.00  0.00    -0.000 C 
BRANCH  15  16
ATOM     16  C   UNL     1      49.468   6.945  22.186  1.00  0.00    -0.000 C 
BRANCH  16  17
ATOM     17  C   UNL     1      49.308   7.840  20.944  1.00  0.00    -0.000 C 
BRANCH  17  18
ATOM     18  C   UNL     1      50.469   7.747  19.937  1.00  0.00    -0.000 C 
BRANCH  18  19
ATOM     19  C   UNL     1      50.497   8.904  18.914  1.00  0.00    -0.003 C 
ATOM     20  C   UNL     1      49.680   8.609  17.657  1.00  0.00     0.004 C 
ENDBRANCH  18  19
ENDBRANCH  17  18
ENDBRANCH  16  17
ENDBRANCH  15  16
ENDBRANCH  14  15
ENDBRANCH  13  14
ENDBRANCH  12  13
ENDBRANCH   1  12
TORSDOF 16
ENDMDL
MODEL 3
REMARK VINA RESULT:    -4.176      4.976      6.923
REMARK INTER + INTRA:         -10.399
REMARK INTER:                  -7.710
REMARK INTRA:                  -2.689
REMARK UNBOUND:                -2.316
REMARK SMILES CCCCCCCCCCCCCCCCCC(=O)[O-]
REMARK SMILES IDX 10 1 11 2 12 3 13 4 14 5 15 6 16 7 17 8 18 9 19 10 20 11
REMARK SMILES IDX 9 12 8 13 7 14 6 15 5 16 4 17 3 18 2 19 1 20
REMARK H PARENT
REMARK Flexibility Score: inf
ROOT
ATOM      1  C   UNL     1      46.668   2.196  19.990  1.00  0.00     0.000 C 
ENDROOT
BRANCH   1   2
ATOM      2  C   UNL     1      45.610   3.238  20.404  1.00  0.00     0.000 C 
BRANCH   2   3
ATOM      3  C   UNL     1      44.549   2.735  21.402  1.00  0.00     0.000 C 
BRANCH   3   4
ATOM      4  C   UNL     1      44.684   1.253  21.797  1.00  0.00     0.000 C 
BRANCH   4   5
ATOM      5  C   UNL     1      45.165   1.066  23.245  1.00  0.00     0.000 C 
BRANCH   5   6
ATOM      6  C   UNL     1      46.583   0.474  23.334  1.00  0.00     0.000 C 
BRANCH   6   7
ATOM      7  C   UNL     1      46.843  -0.739  22.418  1.00  0.00     0.006 C 
BRANCH   7   8
ATOM      8  C   UNL     1      48.322  -0.934  22.044  1.00  0.00     0.053 C 
BRANCH   8   9
ATOM      9  C   UNL     1      48.861  -2.256  22.501  1.00  0.00     0.041 C 
ATOM     10  O   UNL     1      48.076  -3.152  22.909  1.00  0.00    -0.550 OA
ATOM     11  O   UNL     1      50.225  -2.513  22.438  1.00  0.00    -0.550 OA
ENDBRANCH   8   9
ENDBRANCH   7   8
ENDBRANCH   6   7
ENDBRANCH   5   6
ENDBRANCH   4   5
ENDBRANCH   3   4
ENDBRANCH   2   3
ENDBRANCH   1   2
BRANCH   1  12
ATOM     12  C   UNL     1      48.080   2.448  20.547  1.00  0.00     0.000 C 
BRANCH  12  13
ATOM     13  C   UNL     1      48.122   3.606  21.559  1.00  0.00    -0.000 C 
BRANCH  13  14
ATOM     14  C   UNL     1      48.914   3.255  22.828  1.00  0.00    -0.000 C 
BRANCH  14  15
ATOM     15  C   UNL     1      50.422   3.107  22.562  1.00  0.00    -0.000 C 
BRANCH  15  16
ATOM     16  C   UNL     1      50.915   1.654  22.751  1.00  0.00    -0.000 C 
BRANCH  16  17
ATOM     17  C   UNL     1      51.677   1.101  21.533  1.00  0.00    -0.000 C 
BRANCH  17  18
ATOM     18  C   UNL     1      52.703   2.075  20.926  1.00  0.00    -0.000 C 
BRANCH  18  19
ATOM     19  C   UNL     1      52.520   2.304  19.409  1.00  0.00    -0.003 C 
ATOM     20  C   UNL     1      51.486   3.382  19.089  1.00  0.00     0.004 C 
ENDBRANCH  18  19
ENDBRANCH  17  18
ENDBRANCH  16  17
ENDBRANCH  15  16
ENDBRANCH  14  15
ENDBRANCH  13  14
ENDBRANCH  12  13
ENDBRANCH   1  12
TORSDOF 16
ENDMDL
MODEL 4
REMARK VINA RESULT:    -4.068      1.909      5.522
REMARK INTER + INTRA:         -10.189
REMARK INTER:                  -8.349
REMARK INTRA:                  -1.840
REMARK UNBOUND:                -2.316
REMARK SMILES CCCCCCCCCCCCCCCCCC(=O)[O-]
REMARK SMILES IDX 10 1 11 2 12 3 13 4 14 5 15 6 16 7 17 8 18 9 19 10 20 11
REMARK SMILES IDX 9 12 8 13 7 14 6 15 5 16 4 17 3 18 2 19 1 20
REMARK H PARENT
REMARK Flexibility Score: inf
ROOT
ATOM      1  C   UNL     1      49.868   6.548  23.998  1.00  0.00     0.000 C 
ENDROOT
BRANCH   1   2
ATOM      2  C   UNL     1      49.641   5.104  23.508  1.00  0.00     0.000 C 
BRANCH   2   3
ATOM      3  C   UNL     1      49.249   4.970  22.024  1.00  0.00     0.000 C 
BRANCH   3   4
ATOM      4  C   UNL     1      49.714   3.668  21.348  1.00  0.00     0.000 C 
BRANCH   4   5
ATOM      5  C   UNL     1      49.406   2.418  22.190  1.00  0.00     0.000 C 
BRANCH   5   6
ATOM      6  C   UNL     1      50.461   1.310  22.025  1.00  0.00     0.000 C 
BRANCH   6   7
ATOM      7  C   UNL     1      51.918   1.804  21.934  1.00  0.00     0.006 C 
BRANCH   7   8
ATOM      8  C   UNL     1      52.640   1.388  20.641  1.00  0.00     0.053 C 
BRANCH   8   9
ATOM      9  C   UNL     1      53.123   2.564  19.848  1.00  0.00     0.041 C 
ATOM     10  O   UNL     1      54.290   3.005  20.016  1.00  0.00    -0.550 OA
ATOM     11  O   UNL     1      52.298   3.149  18.895  1.00  0.00    -0.550 OA
ENDBRANCH   8   9
ENDBRANCH   7   8
ENDBRANCH   6   7
ENDBRANCH   5   6
ENDBRANCH   4   5
ENDBRANCH   3   4
ENDBRANCH   2   3
ENDBRANCH   1   2
BRANCH   1  12
ATOM     12  C   UNL     1      48.586   7.324  24.348  1.00  0.00     0.000 C 
BRANCH  12  13
ATOM     13  C   UNL     1      48.703   8.829  24.049  1.00  0.00    -0.000 C 
BRANCH  13  14
ATOM     14  C   UNL     1      47.752   9.287  22.933  1.00  0.00    -0.000 C 
BRANCH  14  15
ATOM     15  C   UNL     1      46.920   8.130  22.353  1.00  0.00    -0.000 C 
BRANCH  15  16
ATOM     16  C   UNL     1      47.296   7.808  20.888  1.00  0.00    -0.000 C 
BRANCH  16  17
ATOM     17  C   UNL     1      48.376   8.742  20.312  1.00  0.00    -0.000 C 
BRANCH  17  18
ATOM     18  C   UNL     1      49.775   8.108  20.202  1.00  0.00    -0.000 C 
BRANCH  18  19
ATOM     19  C   UNL     1      50.555   8.541  18.941  1.00  0.00    -0.003 C 
ATOM     20  C   UNL     1      49.655   8.742  17.722  1.00  0.00     0.004 C 
ENDBRANCH  18  19
ENDBRANCH  17  18
ENDBRANCH  16  17
ENDBRANCH  15  16
ENDBRANCH  14  15
ENDBRANCH  13  14
ENDBRANCH  12  13
ENDBRANCH   1  12
TORSDOF 16
ENDMDL
MODEL 5
REMARK VINA RESULT:    -4.049      2.512      5.161
REMARK INTER + INTRA:         -10.151
REMARK INTER:                  -8.077
REMARK INTRA:                  -2.074
REMARK UNBOUND:                -2.316
REMARK SMILES CCCCCCCCCCCCCCCCCC(=O)[O-]
REMARK SMILES IDX 10 1 11 2 12 3 13 4 14 5 15 6 16 7 17 8 18 9 19 10 20 11
REMARK SMILES IDX 9 12 8 13 7 14 6 15 5 16 4 17 3 18 2 19 1 20
REMARK H PARENT
REMARK Flexibility Score: inf
ROOT
ATOM      1  C   UNL     1      50.117   5.919  25.850  1.00  0.00     0.000 C 
ENDROOT
BRANCH   1   2
ATOM      2  C   UNL     1      48.853   5.042  25.764  1.00  0.00     0.000 C 
BRANCH   2   3
ATOM      3  C   UNL     1      48.727   4.196  24.482  1.00  0.00     0.000 C 
BRANCH   3   4
ATOM      4  C   UNL     1      47.624   4.653  23.511  1.00  0.00     0.000 C 
BRANCH   4   5
ATOM      5  C   UNL     1      47.929   4.285  22.049  1.00  0.00     0.000 C 
BRANCH   5   6
ATOM      6  C   UNL     1      49.405   4.499  21.673  1.00  0.00     0.000 C 
BRANCH   6   7
ATOM      7  C   UNL     1      50.137   3.242  21.158  1.00  0.00     0.006 C 
BRANCH   7   8
ATOM      8  C   UNL     1      51.252   2.742  22.092  1.00  0.00     0.053 C 
BRANCH   8   9
ATOM      9  C   UNL     1      52.165   1.761  21.422  1.00  0.00     0.041 C 
ATOM     10  O   UNL     1      51.978   0.524  21.561  1.00  0.00    -0.550 OA
ATOM     11  O   UNL     1      53.198   2.211  20.609  1.00  0.00    -0.550 OA
ENDBRANCH   8   9
ENDBRANCH   7   8
ENDBRANCH   6   7
ENDBRANCH   5   6
ENDBRANCH   4   5
ENDBRANCH   3   4
ENDBRANCH   2   3
ENDBRANCH   1   2
BRANCH   1  12
ATOM     12  C   UNL     1      50.417   6.752  24.592  1.00  0.00     0.000 C 
BRANCH  12  13
ATOM     13  C   UNL     1      50.023   8.230  24.750  1.00  0.00    -0.000 C 
BRANCH  13  14
ATOM     14  C   UNL     1      49.025   8.696  23.679  1.00  0.00    -0.000 C 
BRANCH  14  15
ATOM     15  C   UNL     1      49.168   7.918  22.359  1.00  0.00    -0.000 C 
BRANCH  15  16
ATOM     16  C   UNL     1      47.943   8.096  21.433  1.00  0.00    -0.000 C 
BRANCH  16  17
ATOM     17  C   UNL     1      48.146   9.164  20.344  1.00  0.00    -0.000 C 
BRANCH  17  18
ATOM     18  C   UNL     1      48.692   8.620  19.011  1.00  0.00    -0.000 C 
BRANCH  18  19
ATOM     19  C   UNL     1      50.193   8.913  18.789  1.00  0.00    -0.003 C 
ATOM     20  C   UNL     1      51.090   7.724  19.132  1.00  0.00     0.004 C 
ENDBRANCH  18  19
ENDBRANCH  17  18
ENDBRANCH  16  17
ENDBRANCH  15  16
ENDBRANCH  14  15
ENDBRANCH  13  14
ENDBRANCH  12  13
ENDBRANCH   1  12
TORSDOF 16
ENDMDL
MODEL 6
REMARK VINA RESULT:    -4.027      4.732      6.706
REMARK INTER + INTRA:         -10.110
REMARK INTER:                  -7.881
REMARK INTRA:                  -2.228
REMARK UNBOUND:                -2.316
REMARK SMILES CCCCCCCCCCCCCCCCCC(=O)[O-]
REMARK SMILES IDX 10 1 11 2 12 3 13 4 14 5 15 6 16 7 17 8 18 9 19 10 20 11
REMARK SMILES IDX 9 12 8 13 7 14 6 15 5 16 4 17 3 18 2 19 1 20
REMARK H PARENT
REMARK Flexibility Score: inf
ROOT
ATOM      1  C   UNL     1      43.034   0.753  21.384  1.00  0.00     0.000 C 
ENDROOT
BRANCH   1   2
ATOM      2  C   UNL     1      43.265   2.191  21.889  1.00  0.00     0.000 C 
BRANCH   2   3
ATOM      3  C   UNL     1      44.225   3.041  21.034  1.00  0.00     0.000 C 
BRANCH   3   4
ATOM      4  C   UNL     1      45.720   2.759  21.266  1.00  0.00     0.000 C 
BRANCH   4   5
ATOM      5  C   UNL     1      46.420   2.195  20.018  1.00  0.00     0.000 C 
BRANCH   5   6
ATOM      6  C   UNL     1      47.413   1.067  20.346  1.00  0.00     0.000 C 
BRANCH   6   7
ATOM      7  C   UNL     1      48.616   1.488  21.213  1.00  0.00     0.006 C 
BRANCH   7   8
ATOM      8  C   UNL     1      49.341   2.748  20.709  1.00  0.00     0.053 C 
BRANCH   8   9
ATOM      9  C   UNL     1      50.830   2.586  20.691  1.00  0.00     0.041 C 
ATOM     10  O   UNL     1      51.438   2.448  19.597  1.00  0.00    -0.550 OA
ATOM     11  O   UNL     1      51.551   2.629  21.877  1.00  0.00    -0.550 OA
ENDBRANCH   8   9
ENDBRANCH   7   8
ENDBRANCH   6   7
ENDBRANCH   5   6
ENDBRANCH   4   5
ENDBRANCH   3   4
ENDBRANCH   2   3
ENDBRANCH   1   2
BRANCH   1  12
ATOM     12  C   UNL     1      43.302  -0.350  22.423  1.00  0.00     0.000 C 
BRANCH  12  13
ATOM     13  C   UNL     1      43.604   0.211  23.823  1.00  0.00    -0.000 C 
BRANCH  13  14
ATOM     14  C   UNL     1      45.069   0.011  24.238  1.00  0.00    -0.000 C 
BRANCH  14  15
ATOM     15  C   UNL     1      45.927  -0.590  23.112  1.00  0.00    -0.000 C 
BRANCH  15  16
ATOM     16  C   UNL     1      47.303  -1.082  23.616  1.00  0.00    -0.000 C 
BRANCH  16  17
ATOM     17  C   UNL     1      47.803  -2.348  22.896  1.00  0.00    -0.000 C 
BRANCH  17  18
ATOM     18  C   UNL     1      49.228  -2.235  22.324  1.00  0.00    -0.000 C 
BRANCH  18  19
ATOM     19  C   UNL     1      50.151  -1.300  23.136  1.00  0.00    -0.003 C 
ATOM     20  C   UNL     1      51.385  -0.851  22.354  1.00  0.00     0.004 C 
ENDBRANCH  18  19
ENDBRANCH  17  18
ENDBRANCH  16  17
ENDBRANCH  15  16
ENDBRANCH  14  15
ENDBRANCH  13  14
ENDBRANCH  12  13
ENDBRANCH   1  12
TORSDOF 16
ENDMDL
MODEL 7
REMARK VINA RESULT:    -4.018      3.094      4.697
REMARK INTER + INTRA:         -10.092
REMARK INTER:                  -7.688
REMARK INTRA:                  -2.404
REMARK UNBOUND:                -2.316
REMARK SMILES CCCCCCCCCCCCCCCCCC(=O)[O-]
REMARK SMILES IDX 10 1 11 2 12 3 13 4 14 5 15 6 16 7 17 8 18 9 19 10 20 11
REMARK SMILES IDX 9 12 8 13 7 14 6 15 5 16 4 17 3 18 2 19 1 20
REMARK H PARENT
REMARK Flexibility Score: inf
ROOT
ATOM      1  C   UNL     1      49.449   5.806  26.981  1.00  0.00     0.000 C 
ENDROOT
BRANCH   1   2
ATOM      2  C   UNL     1      49.325   6.908  28.051  1.00  0.00     0.000 C 
BRANCH   2   3
ATOM      3  C   UNL     1      48.101   7.833  27.903  1.00  0.00     0.000 C 
BRANCH   3   4
ATOM      4  C   UNL     1      46.869   7.175  27.255  1.00  0.00     0.000 C 
BRANCH   4   5
ATOM      5  C   UNL     1      46.445   7.865  25.947  1.00  0.00     0.000 C 
BRANCH   5   6
ATOM      6  C   UNL     1      47.194   9.184  25.696  1.00  0.00     0.000 C 
BRANCH   6   7
ATOM      7  C   UNL     1      47.474   9.505  24.214  1.00  0.00     0.006 C 
BRANCH   7   8
ATOM      8  C   UNL     1      46.267  10.093  23.462  1.00  0.00     0.053 C 
BRANCH   8   9
ATOM      9  C   UNL     1      45.798   9.209  22.348  1.00  0.00     0.041 C 
ATOM     10  O   UNL     1      45.218   8.122  22.604  1.00  0.00    -0.550 OA
ATOM     11  O   UNL     1      45.965   9.604  21.026  1.00  0.00    -0.550 OA
ENDBRANCH   8   9
ENDBRANCH   7   8
ENDBRANCH   6   7
ENDBRANCH   5   6
ENDBRANCH   4   5
ENDBRANCH   3   4
ENDBRANCH   2   3
ENDBRANCH   1   2
BRANCH   1  12
ATOM     12  C   UNL     1      50.549   6.041  25.931  1.00  0.00     0.000 C 
BRANCH  12  13
ATOM     13  C   UNL     1      50.046   6.829  24.709  1.00  0.00    -0.000 C 
BRANCH  13  14
ATOM     14  C   UNL     1      48.967   6.071  23.919  1.00  0.00    -0.000 C 
BRANCH  14  15
ATOM     15  C   UNL     1      49.317   5.929  22.428  1.00  0.00    -0.000 C 
BRANCH  15  16
ATOM     16  C   UNL     1      48.505   6.895  21.536  1.00  0.00    -0.000 C 
BRANCH  16  17
ATOM     17  C   UNL     1      49.258   8.192  21.190  1.00  0.00    -0.000 C 
BRANCH  17  18
ATOM     18  C   UNL     1      49.058   8.680  19.744  1.00  0.00    -0.000 C 
BRANCH  18  19
ATOM     19  C   UNL     1      50.363   8.736  18.921  1.00  0.00    -0.003 C 
ATOM     20  C   UNL     1      51.255   7.512  19.132  1.00  0.00     0.004 C 
ENDBRANCH  18  19
ENDBRANCH  17  18
ENDBRANCH  16  17
ENDBRANCH  15  16
ENDBRANCH  14  15
ENDBRANCH  13  14
ENDBRANCH  12  13
ENDBRANCH   1  12
TORSDOF 16
ENDMDL
MODEL 8
REMARK VINA RESULT:    -4.015      3.894      6.183
REMARK INTER + INTRA:         -10.086
REMARK INTER:                  -7.407
REMARK INTRA:                  -2.678
REMARK UNBOUND:                -2.316
REMARK SMILES CCCCCCCCCCCCCCCCCC(=O)[O-]
REMARK SMILES IDX 10 1 11 2 12 3 13 4 14 5 15 6 16 7 17 8 18 9 19 10 20 11
REMARK SMILES IDX 9 12 8 13 7 14 6 15 5 16 4 17 3 18 2 19 1 20
REMARK H PARENT
REMARK Flexibility Score: inf
ROOT
ATOM      1  C   UNL     1      45.053   3.727  20.214  1.00  0.00     0.000 C 
ENDROOT
BRANCH   1   2
ATOM      2  C   UNL     1      46.184   2.681  20.244  1.00  0.00     0.000 C 
BRANCH   2   3
ATOM      3  C   UNL     1      47.505   3.161  20.877  1.00  0.00     0.000 C 
BRANCH   3   4
ATOM      4  C   UNL     1      47.405   3.554  22.361  1.00  0.00     0.000 C 
BRANCH   4   5
ATOM      5  C   UNL     1      48.698   3.259  23.142  1.00  0.00     0.000 C 
BRANCH   5   6
ATOM      6  C   UNL     1      49.969   3.551  22.327  1.00  0.00     0.000 C 
BRANCH   6   7
ATOM      7  C   UNL     1      51.054   2.457  22.395  1.00  0.00     0.006 C 
BRANCH   7   8
ATOM      8  C   UNL     1      51.296   1.732  21.059  1.00  0.00     0.053 C 
BRANCH   8   9
ATOM      9  C   UNL     1      52.134   2.536  20.114  1.00  0.00     0.041 C 
ATOM     10  O   UNL     1      53.390   2.511  20.203  1.00  0.00    -0.550 OA
ATOM     11  O   UNL     1      51.532   3.282  19.107  1.00  0.00    -0.550 OA
ENDBRANCH   8   9
ENDBRANCH   7   8
ENDBRANCH   6   7
ENDBRANCH   5   6
ENDBRANCH   4   5
ENDBRANCH   3   4
ENDBRANCH   2   3
ENDBRANCH   1   2
BRANCH   1  12
ATOM     12  C   UNL     1      43.657   3.185  20.570  1.00  0.00     0.000 C 
BRANCH  12  13
ATOM     13  C   UNL     1      43.658   2.340  21.855  1.00  0.00    -0.000 C 
BRANCH  13  14
ATOM     14  C   UNL     1      43.363   0.856  21.589  1.00  0.00    -0.000 C 
BRANCH  14  15
ATOM     15  C   UNL     1      43.974  -0.070  22.655  1.00  0.00    -0.000 C 
BRANCH  15  16
ATOM     16  C   UNL     1      44.839   0.700  23.679  1.00  0.00    -0.000 C 
BRANCH  16  17
ATOM     17  C   UNL     1      46.345   0.409  23.553  1.00  0.00    -0.000 C 
BRANCH  17  18
ATOM     18  C   UNL     1      46.727  -0.464  22.343  1.00  0.00    -0.000 C 
BRANCH  18  19
ATOM     19  C   UNL     1      48.192  -0.288  21.888  1.00  0.00    -0.003 C 
ATOM     20  C   UNL     1      49.200  -0.867  22.881  1.00  0.00     0.004 C 
ENDBRANCH  18  19
ENDBRANCH  17  18
ENDBRANCH  16  17
ENDBRANCH  15  16
ENDBRANCH  14  15
ENDBRANCH  13  14
ENDBRANCH  12  13
ENDBRANCH   1  12
TORSDOF 16
ENDMDL
MODEL 9
REMARK VINA RESULT:    -3.992      3.969      6.325
REMARK INTER + INTRA:         -10.043
REMARK INTER:                  -7.257
REMARK INTRA:                  -2.786
REMARK UNBOUND:                -2.316
REMARK SMILES CCCCCCCCCCCCCCCCCC(=O)[O-]
REMARK SMILES IDX 10 1 11 2 12 3 13 4 14 5 15 6 16 7 17 8 18 9 19 10 20 11
REMARK SMILES IDX 9 12 8 13 7 14 6 15 5 16 4 17 3 18 2 19 1 20
REMARK H PARENT
REMARK Flexibility Score: inf
ROOT
ATOM      1  C   UNL     1      45.796   1.118  24.510  1.00  0.00     0.000 C 
ENDROOT
BRANCH   1   2
ATOM      2  C   UNL     1      46.619   2.399  24.273  1.00  0.00     0.000 C 
BRANCH   2   3
ATOM      3  C   UNL     1      48.060   2.364  24.819  1.00  0.00     0.000 C 
BRANCH   3   4
ATOM      4  C   UNL     1      49.160   2.358  23.743  1.00  0.00     0.000 C 
BRANCH   4   5
ATOM      5  C   UNL     1      49.278   1.006  23.020  1.00  0.00     0.000 C 
BRANCH   5   6
ATOM      6  C   UNL     1      50.240   1.049  21.821  1.00  0.00     0.000 C 
BRANCH   6   7
ATOM      7  C   UNL     1      50.884   2.424  21.550  1.00  0.00     0.006 C 
BRANCH   7   8
ATOM      8  C   UNL     1      50.531   3.021  20.176  1.00  0.00     0.053 C 
BRANCH   8   9
ATOM      9  C   UNL     1      51.721   3.126  19.272  1.00  0.00     0.041 C 
ATOM     10  O   UNL     1      51.932   4.184  18.624  1.00  0.00    -0.550 OA
ATOM     11  O   UNL     1      52.620   2.071  19.176  1.00  0.00    -0.550 OA
ENDBRANCH   8   9
ENDBRANCH   7   8
ENDBRANCH   6   7
ENDBRANCH   5   6
ENDBRANCH   4   5
ENDBRANCH   3   4
ENDBRANCH   2   3
ENDBRANCH   1   2
BRANCH   1  12
ATOM     12  C   UNL     1      45.578   0.246  23.261  1.00  0.00     0.000 C 
BRANCH  12  13
ATOM     13  C   UNL     1      44.089   0.034  22.937  1.00  0.00    -0.000 C 
BRANCH  13  14
ATOM     14  C   UNL     1      43.274   1.334  23.019  1.00  0.00    -0.000 C 
BRANCH  14  15
ATOM     15  C   UNL     1      43.330   2.150  21.716  1.00  0.00    -0.000 C 
BRANCH  15  16
ATOM     16  C   UNL     1      43.683   3.634  21.964  1.00  0.00    -0.000 C 
BRANCH  16  17
ATOM     17  C   UNL     1      45.026   4.058  21.342  1.00  0.00    -0.000 C 
BRANCH  17  18
ATOM     18  C   UNL     1      45.527   3.135  20.216  1.00  0.00    -0.000 C 
BRANCH  18  19
ATOM     19  C   UNL     1      46.894   2.480  20.512  1.00  0.00    -0.003 C 
ATOM     20  C   UNL     1      47.000   1.052  19.977  1.00  0.00     0.004 C 
ENDBRANCH  18  19
ENDBRANCH  17  18
ENDBRANCH  16  17
ENDBRANCH  15  16
ENDBRANCH  14  15
ENDBRANCH  13  14
ENDBRANCH  12  13
ENDBRANCH   1  12
TORSDOF 16
ENDMDL
