MODEL 1
REMARK VINA RESULT:    -6.147      0.000      0.000
REMARK INTER + INTRA:          -6.327
REMARK INTER:                  -6.327
REMARK INTRA:                   0.000
REMARK UNBOUND:                 0.000
REMARK SMILES O=c1ccc2ccc(O)cc2o1
REMARK SMILES IDX 6 1 7 2 8 3 10 4 11 5 5 6 4 7 3 8 2 9 1 10 12 11 9 12
REMARK H PARENT 9 13
REMARK Flexibility Score: inf
ROOT
ATOM      1  C   UNL     1       3.073  47.569   8.497  1.00  0.00     0.016 A 
ATOM      2  C   UNL     1       4.226  48.267   8.123  1.00  0.00     0.047 A 
ATOM      3  C   UNL     1       5.435  48.053   8.804  1.00  0.00     0.119 A 
ATOM      4  C   UNL     1       5.489  47.139   9.861  1.00  0.00     0.094 A 
ATOM      5  C   UNL     1       4.340  46.436  10.242  1.00  0.00     0.142 A 
ATOM      6  C   UNL     1       3.125  46.652   9.556  1.00  0.00     0.018 A 
ATOM      7  C   UNL     1       1.994  45.935   9.960  1.00  0.00     0.019 A 
ATOM      8  C   UNL     1       2.098  45.034  11.019  1.00  0.00     0.094 A 
ATOM      9  C   UNL     1       3.335  44.871  11.653  1.00  0.00     0.336 A 
ATOM     10  O   UNL     1       3.448  44.063  12.611  1.00  0.00    -0.246 OA
ATOM     11  O   UNL     1       4.396  45.566  11.249  1.00  0.00    -0.423 OA
ENDROOT
BRANCH   3  12
ATOM     12  O   UNL     1       6.587  48.746   8.436  1.00  0.00    -0.508 OA
ATOM     13  H   UNL     1       6.769  49.685   8.770  1.00  0.00     0.293 HD
ENDBRANCH   3  12
TORSDOF 1
ENDMDL
MODEL 2
REMARK VINA RESULT:    -6.079      1.461      4.141
REMARK INTER + INTRA:          -6.256
REMARK INTER:                  -6.256
REMARK INTRA:                   0.000
REMARK UNBOUND:                 0.000
REMARK SMILES O=c1ccc2ccc(O)cc2o1
REMARK SMILES IDX 6 1 7 2 8 3 10 4 11 5 5 6 4 7 3 8 2 9 1 10 12 11 9 12
REMARK H PARENT 9 13
REMARK Flexibility Score: inf
ROOT
ATOM      1  C   UNL     1       1.798  45.258  10.651  1.00  0.00     0.016 A 
ATOM      2  C   UNL     1       2.626  44.751  11.658  1.00  0.00     0.047 A 
ATOM      3  C   UNL     1       3.956  45.187  11.767  1.00  0.00     0.119 A 
ATOM      4  C   UNL     1       4.457  46.132  10.865  1.00  0.00     0.094 A 
ATOM      5  C   UNL     1       3.635  46.645   9.855  1.00  0.00     0.142 A 
ATOM      6  C   UNL     1       2.298  46.205   9.747  1.00  0.00     0.018 A 
ATOM      7  C   UNL     1       1.501  46.735   8.728  1.00  0.00     0.019 A 
ATOM      8  C   UNL     1       2.046  47.675   7.853  1.00  0.00     0.094 A 
ATOM      9  C   UNL     1       3.379  48.065   8.020  1.00  0.00     0.336 A 
ATOM     10  O   UNL     1       3.888  48.912   7.241  1.00  0.00    -0.246 OA
ATOM     11  O   UNL     1       4.116  47.544   8.999  1.00  0.00    -0.423 OA
ENDROOT
BRANCH   3  12
ATOM     12  O   UNL     1       4.786  44.685  12.767  1.00  0.00    -0.508 OA
ATOM     13  H   UNL     1       5.792  44.798  12.726  1.00  0.00     0.293 HD
ENDBRANCH   3  12
TORSDOF 1
ENDMDL
MODEL 3
REMARK VINA RESULT:    -6.067      1.588      4.772
REMARK INTER + INTRA:          -6.244
REMARK INTER:                  -6.244
REMARK INTRA:                   0.000
REMARK UNBOUND:                 0.000
REMARK SMILES O=c1ccc2ccc(O)cc2o1
REMARK SMILES IDX 6 1 7 2 8 3 10 4 11 5 5 6 4 7 3 8 2 9 1 10 12 11 9 12
REMARK H PARENT 9 13
REMARK Flexibility Score: inf
ROOT
ATOM      1  C   UNL     1       4.468  45.398  11.582  1.00  0.00     0.016 A 
ATOM      2  C   UNL     1       3.383  44.667  12.077  1.00  0.00     0.047 A 
ATOM      3  C   UNL     1       2.119  44.782  11.479  1.00  0.00     0.119 A 
ATOM      4  C   UNL     1       1.941  45.634  10.382  1.00  0.00     0.094 A 
ATOM      5  C   UNL     1       3.020  46.369   9.881  1.00  0.00     0.142 A 
ATOM      6  C   UNL     1       4.291  46.251  10.485  1.00  0.00     0.018 A 
ATOM      7  C   UNL     1       5.351  46.999   9.961  1.00  0.00     0.019 A 
ATOM      8  C   UNL     1       5.123  47.834   8.867  1.00  0.00     0.094 A 
ATOM      9  C   UNL     1       3.837  47.900   8.320  1.00  0.00     0.336 A 
ATOM     10  O   UNL     1       3.613  48.648   7.332  1.00  0.00    -0.246 OA
ATOM     11  O   UNL     1       2.846  47.178   8.837  1.00  0.00    -0.423 OA
ENDROOT
BRANCH   3  12
ATOM     12  O   UNL     1       1.034  44.056  11.967  1.00  0.00    -0.508 OA
ATOM     13  H   UNL     1       1.045  43.043  11.995  1.00  0.00     0.293 HD
ENDBRANCH   3  12
TORSDOF 1
ENDMDL
MODEL 4
REMARK VINA RESULT:    -5.930      1.431      2.223
REMARK INTER + INTRA:          -6.103
REMARK INTER:                  -6.103
REMARK INTRA:                   0.000
REMARK UNBOUND:                 0.000
REMARK SMILES O=c1ccc2ccc(O)cc2o1
REMARK SMILES IDX 6 1 7 2 8 3 10 4 11 5 5 6 4 7 3 8 2 9 1 10 12 11 9 12
REMARK H PARENT 9 13
REMARK Flexibility Score: inf
ROOT
ATOM      1  C   UNL     1       5.442  46.902  10.122  1.00  0.00     0.016 A 
ATOM      2  C   UNL     1       5.376  47.775   9.031  1.00  0.00     0.047 A 
ATOM      3  C   UNL     1       4.167  47.959   8.342  1.00  0.00     0.119 A 
ATOM      4  C   UNL     1       3.021  47.266   8.747  1.00  0.00     0.094 A 
ATOM      5  C   UNL     1       3.077  46.391   9.837  1.00  0.00     0.142 A 
ATOM      6  C   UNL     1       4.295  46.207  10.529  1.00  0.00     0.018 A 
ATOM      7  C   UNL     1       4.320  45.326  11.614  1.00  0.00     0.019 A 
ATOM      8  C   UNL     1       3.151  44.659  11.980  1.00  0.00     0.094 A 
ATOM      9  C   UNL     1       1.980  44.890  11.249  1.00  0.00     0.336 A 
ATOM     10  O   UNL     1       0.916  44.297  11.564  1.00  0.00    -0.246 OA
ATOM     11  O   UNL     1       1.984  45.733  10.220  1.00  0.00    -0.423 OA
ENDROOT
BRANCH   3  12
ATOM     12  O   UNL     1       4.096  48.827   7.255  1.00  0.00    -0.508 OA
ATOM     13  H   UNL     1       3.712  49.760   7.346  1.00  0.00     0.293 HD
ENDBRANCH   3  12
TORSDOF 1
ENDMDL
MODEL 5
REMARK VINA RESULT:    -5.884      0.973      4.278
REMARK INTER + INTRA:          -6.056
REMARK INTER:                  -6.056
REMARK INTRA:                   0.000
REMARK UNBOUND:                 0.000
REMARK SMILES O=c1ccc2ccc(O)cc2o1
REMARK SMILES IDX 6 1 7 2 8 3 10 4 11 5 5 6 4 7 3 8 2 9 1 10 12 11 9 12
REMARK H PARENT 9 13
REMARK Flexibility Score: inf
ROOT
ATOM      1  C   UNL     1       1.457  45.776   9.827  1.00  0.00     0.016 A 
ATOM      2  C   UNL     1       1.159  44.818  10.801  1.00  0.00     0.047 A 
ATOM      3  C   UNL     1       2.153  44.374  11.687  1.00  0.00     0.119 A 
ATOM      4  C   UNL     1       3.450  44.892  11.596  1.00  0.00     0.094 A 
ATOM      5  C   UNL     1       3.758  45.850  10.624  1.00  0.00     0.142 A 
ATOM      6  C   UNL     1       2.756  46.295   9.734  1.00  0.00     0.018 A 
ATOM      7  C   UNL     1       3.094  47.254   8.774  1.00  0.00     0.019 A 
ATOM      8  C   UNL     1       4.401  47.739   8.723  1.00  0.00     0.094 A 
ATOM      9  C   UNL     1       5.341  47.253   9.638  1.00  0.00     0.336 A 
ATOM     10  O   UNL     1       6.525  47.679   9.607  1.00  0.00    -0.246 OA
ATOM     11  O   UNL     1       4.994  46.340  10.541  1.00  0.00    -0.423 OA
ENDROOT
BRANCH   3  12
ATOM     12  O   UNL     1       1.861  43.420  12.659  1.00  0.00    -0.508 OA
ATOM     13  H   UNL     1       1.971  43.619  13.647  1.00  0.00     0.293 HD
ENDBRANCH   3  12
TORSDOF 1
ENDMDL
MODEL 6
REMARK VINA RESULT:    -5.733      2.458      3.296
REMARK INTER + INTRA:          -5.901
REMARK INTER:                  -5.901
REMARK INTRA:                   0.000
REMARK UNBOUND:                 0.000
REMARK SMILES O=c1ccc2ccc(O)cc2o1
REMARK SMILES IDX 6 1 7 2 8 3 10 4 11 5 5 6 4 7 3 8 2 9 1 10 12 11 9 12
REMARK H PARENT 9 13
REMARK Flexibility Score: inf
ROOT
ATOM      1  C   UNL     1       4.433  46.546  10.174  1.00  0.00     0.016 A 
ATOM      2  C   UNL     1       5.579  47.273   9.834  1.00  0.00     0.047 A 
ATOM      3  C   UNL     1       5.546  48.191   8.772  1.00  0.00     0.119 A 
ATOM      4  C   UNL     1       4.363  48.381   8.050  1.00  0.00     0.094 A 
ATOM      5  C   UNL     1       3.212  47.658   8.384  1.00  0.00     0.142 A 
ATOM      6  C   UNL     1       3.247  46.735   9.452  1.00  0.00     0.018 A 
ATOM      7  C   UNL     1       2.081  46.028   9.762  1.00  0.00     0.019 A 
ATOM      8  C   UNL     1       0.926  46.253   9.013  1.00  0.00     0.094 A 
ATOM      9  C   UNL     1       0.965  47.183   7.969  1.00  0.00     0.336 A 
ATOM     10  O   UNL     1      -0.068  47.398   7.282  1.00  0.00    -0.246 OA
ATOM     11  O   UNL     1       2.087  47.842   7.694  1.00  0.00    -0.423 OA
ENDROOT
BRANCH   3  12
ATOM     12  O   UNL     1       6.684  48.917   8.428  1.00  0.00    -0.508 OA
ATOM     13  H   UNL     1       6.987  49.001   7.465  1.00  0.00     0.293 HD
ENDBRANCH   3  12
TORSDOF 1
ENDMDL
MODEL 7
REMARK VINA RESULT:    -5.731      2.102      2.904
REMARK INTER + INTRA:          -5.899
REMARK INTER:                  -5.899
REMARK INTRA:                   0.000
REMARK UNBOUND:                 0.000
REMARK SMILES O=c1ccc2ccc(O)cc2o1
REMARK SMILES IDX 6 1 7 2 8 3 10 4 11 5 5 6 4 7 3 8 2 9 1 10 12 11 9 12
REMARK H PARENT 9 13
REMARK Flexibility Score: inf
ROOT
ATOM      1  C   UNL     1       3.881  47.789   8.501  1.00  0.00     0.016 A 
ATOM      2  C   UNL     1       2.796  48.189   7.713  1.00  0.00     0.047 A 
ATOM      3  C   UNL     1       1.516  47.668   7.955  1.00  0.00     0.119 A 
ATOM      4  C   UNL     1       1.322  46.743   8.987  1.00  0.00     0.094 A 
ATOM      5  C   UNL     1       2.401  46.337   9.780  1.00  0.00     0.142 A 
ATOM      6  C   UNL     1       3.688  46.864   9.535  1.00  0.00     0.018 A 
ATOM      7  C   UNL     1       4.747  46.439  10.344  1.00  0.00     0.019 A 
ATOM      8  C   UNL     1       4.503  45.516  11.361  1.00  0.00     0.094 A 
ATOM      9  C   UNL     1       3.201  45.038  11.546  1.00  0.00     0.336 A 
ATOM     10  O   UNL     1       2.963  44.205  12.458  1.00  0.00    -0.246 OA
ATOM     11  O   UNL     1       2.212  45.458  10.762  1.00  0.00    -0.423 OA
ENDROOT
BRANCH   3  12
ATOM     12  O   UNL     1       0.431  48.062   7.173  1.00  0.00    -0.508 OA
ATOM     13  H   UNL     1      -0.411  47.501   7.116  1.00  0.00     0.293 HD
ENDBRANCH   3  12
TORSDOF 1
ENDMDL
MODEL 8
REMARK VINA RESULT:    -5.652      2.377      3.888
REMARK INTER + INTRA:          -5.817
REMARK INTER:                  -5.817
REMARK INTRA:                   0.000
REMARK UNBOUND:                 0.000
REMARK SMILES O=c1ccc2ccc(O)cc2o1
REMARK SMILES IDX 6 1 7 2 8 3 10 4 11 5 5 6 4 7 3 8 2 9 1 10 12 11 9 12
REMARK H PARENT 9 13
REMARK Flexibility Score: inf
ROOT
ATOM      1  C   UNL     1       4.736  47.344   9.228  1.00  0.00     0.016 A 
ATOM      2  C   UNL     1       5.210  46.635  10.337  1.00  0.00     0.047 A 
ATOM      3  C   UNL     1       4.320  45.914  11.149  1.00  0.00     0.119 A 
ATOM      4  C   UNL     1       2.954  45.904  10.850  1.00  0.00     0.094 A 
ATOM      5  C   UNL     1       2.471  46.611   9.742  1.00  0.00     0.142 A 
ATOM      6  C   UNL     1       3.368  47.335   8.927  1.00  0.00     0.018 A 
ATOM      7  C   UNL     1       2.856  48.031   7.827  1.00  0.00     0.019 A 
ATOM      8  C   UNL     1       1.486  47.990   7.570  1.00  0.00     0.094 A 
ATOM      9  C   UNL     1       0.657  47.251   8.421  1.00  0.00     0.336 A 
ATOM     10  O   UNL     1      -0.582  47.203   8.204  1.00  0.00    -0.246 OA
ATOM     11  O   UNL     1       1.170  46.598   9.461  1.00  0.00    -0.423 OA
ENDROOT
BRANCH   3  12
ATOM     12  O   UNL     1       4.786  45.206  12.256  1.00  0.00    -0.508 OA
ATOM     13  H   UNL     1       4.479  44.260  12.445  1.00  0.00     0.293 HD
ENDBRANCH   3  12
TORSDOF 1
ENDMDL
MODEL 9
REMARK VINA RESULT:    -5.568      2.362      4.003
REMARK INTER + INTRA:          -5.731
REMARK INTER:                  -5.731
REMARK INTRA:                   0.000
REMARK UNBOUND:                 0.000
REMARK SMILES O=c1ccc2ccc(O)cc2o1
REMARK SMILES IDX 6 1 7 2 8 3 10 4 11 5 5 6 4 7 3 8 2 9 1 10 12 11 9 12
REMARK H PARENT 9 13
REMARK Flexibility Score: inf
ROOT
ATOM      1  C   UNL     1       1.274  46.125   9.890  1.00  0.00     0.016 A 
ATOM      2  C   UNL     1       0.343  46.558   8.940  1.00  0.00     0.047 A 
ATOM      3  C   UNL     1       0.746  47.383   7.878  1.00  0.00     0.119 A 
ATOM      4  C   UNL     1       2.084  47.776   7.769  1.00  0.00     0.094 A 
ATOM      5  C   UNL     1       3.023  47.348   8.714  1.00  0.00     0.142 A 
ATOM      6  C   UNL     1       2.615  46.518   9.781  1.00  0.00     0.018 A 
ATOM      7  C   UNL     1       3.576  46.106  10.711  1.00  0.00     0.019 A 
ATOM      8  C   UNL     1       4.898  46.524  10.559  1.00  0.00     0.094 A 
ATOM      9  C   UNL     1       5.229  47.346   9.476  1.00  0.00     0.336 A 
ATOM     10  O   UNL     1       6.417  47.733   9.323  1.00  0.00    -0.246 OA
ATOM     11  O   UNL     1       4.296  47.724   8.606  1.00  0.00    -0.423 OA
ENDROOT
BRANCH   3  12
ATOM     12  O   UNL     1      -0.177  47.818   6.929  1.00  0.00    -0.508 OA
ATOM     13  H   UNL     1       0.051  47.845   5.942  1.00  0.00     0.293 HD
ENDBRANCH   3  12
TORSDOF 1
ENDMDL
