MODEL 1
REMARK VINA RESULT:    75.041      0.000      0.000
REMARK INTER + INTRA:          81.595
REMARK INTER:                  81.621
REMARK INTRA:                  -0.026
REMARK UNBOUND:                -0.026
REMARK SMILES C[C@H]1[C@H](C)CC[C@]2(C(=O)[O-])CC[C@]3(C)C(=CC[C@@H]4[C@]5(C)CC[C@@H](O)C(C)(C)[C@@H]5CC[C@]43C)[C@H]12
REMARK SMILES IDX 7 1 6 2 11 3 33 4 5 5 12 6 15 7 2 8 3 9 13 10 16 11 1 12
REMARK SMILES IDX 4 13 14 14 31 15 17 16 18 17 30 18 32 19 19 20 29 21 28 22
REMARK SMILES IDX 21 23 20 24 25 25 22 26 23 27 26 28 27 29 8 30 9 31 10 32
REMARK SMILES IDX 24 33
REMARK H PARENT 24 34
REMARK Flexibility Score: inf
ROOT
ATOM      1  C   UNL     1     -10.273 -19.722  14.903  1.00  0.00     0.017 C 
ATOM      2  C   UNL     1     -10.614 -20.650  16.119  1.00  0.00     0.014 C 
ATOM      3  C   UNL     1     -11.208 -18.485  14.979  1.00  0.00     0.014 C 
ATOM      4  C   UNL     1     -10.496 -20.463  13.534  1.00  0.00     0.030 C 
ATOM      5  C   UNL     1     -10.547 -22.137  15.768  1.00  0.00     0.004 C 
ATOM      6  C   UNL     1     -10.962 -17.476  13.855  1.00  0.00     0.013 C 
ATOM      7  C   UNL     1     -10.474 -19.501  12.333  1.00  0.00    -0.063 C 
ATOM      8  C   UNL     1     -11.762 -21.384  13.596  1.00  0.00    -0.003 C 
ATOM      9  C   UNL     1     -11.579 -22.508  14.675  1.00  0.00    -0.011 C 
ATOM     10  C   UNL     1     -11.035 -18.075  12.407  1.00  0.00    -0.006 C 
ATOM     11  C   UNL     1     -10.019 -19.977  11.147  1.00  0.00    -0.027 C 
ATOM     12  C   UNL     1     -12.114 -22.024  12.240  1.00  0.00     0.008 C 
ATOM     13  C   UNL     1     -12.927 -22.887  15.310  1.00  0.00     0.008 C 
ATOM     14  C   UNL     1     -12.553 -18.201  12.050  1.00  0.00     0.017 C 
ATOM     15  C   UNL     1     -10.191 -17.155  11.387  1.00  0.00    -0.020 C 
ATOM     16  C   UNL     1     -10.015 -19.208   9.841  1.00  0.00     0.032 C 
ATOM     17  C   UNL     1     -10.405 -17.696   9.931  1.00  0.00     0.006 C 
ATOM     18  C   UNL     1     -10.685 -15.684  11.439  1.00  0.00     0.008 C 
ATOM     19  C   UNL     1      -8.662 -17.214  11.769  1.00  0.00     0.012 C 
ATOM     20  C   UNL     1      -9.911 -16.788   8.707  1.00  0.00    -0.025 C 
ATOM     21  C   UNL     1     -10.103 -14.795  10.340  1.00  0.00     0.005 C 
ATOM     22  C   UNL     1     -10.417 -15.294   8.898  1.00  0.00     0.003 C 
ATOM     23  C   UNL     1      -8.361 -16.776   8.523  1.00  0.00     0.010 C 
ATOM     24  C   UNL     1     -10.558 -17.427   7.436  1.00  0.00     0.012 C 
ATOM     25  C   UNL     1      -9.886 -14.256   7.799  1.00  0.00    -0.006 C 
ATOM     26  C   UNL     1      -7.878 -15.838   7.409  1.00  0.00     0.033 C 
ATOM     27  C   UNL     1      -8.336 -14.390   7.631  1.00  0.00     0.120 C 
ATOM     28  C   UNL     1     -10.615 -14.443   6.430  1.00  0.00     0.014 C 
ATOM     29  C   UNL     1     -10.187 -12.788   8.230  1.00  0.00     0.014 C 
ENDROOT
BRANCH   1  30
ATOM     30  C   UNL     1      -8.817 -19.283  15.042  1.00  0.00     0.048 C 
ATOM     31  O   UNL     1      -7.886 -20.040  14.656  1.00  0.00    -0.550 OA
ATOM     32  O   UNL     1      -8.490 -18.014  15.509  1.00  0.00    -0.550 OA
ENDBRANCH   1  30
BRANCH  27  33
ATOM     33  O   UNL     1      -7.884 -13.611   6.549  1.00  0.00    -0.393 OA
ATOM     34  H   UNL     1      -8.651 -13.067   6.233  1.00  0.00     0.210 HD
ENDBRANCH  27  33
TORSDOF 2
ENDMDL
