MODEL 1
REMARK VINA RESULT:    -4.309      0.000      0.000
REMARK INTER + INTRA:          -9.265
REMARK INTER:                  -7.835
REMARK INTRA:                  -1.430
REMARK UNBOUND:                -1.430
REMARK SMILES CCCCCCCCCCCCCC[C@@H](C)C(=O)[O-]
REMARK SMILES IDX 9 1 10 2 11 3 12 4 13 5 14 6 15 7 16 8 17 9 18 10 19 11 8 12
REMARK SMILES IDX 7 13 6 14 5 15 4 16 3 17 2 18 1 19
REMARK H PARENT
REMARK Flexibility Score: inf
ROOT
ATOM      1  C   UNL     1     145.338 129.535 114.693  1.00  0.00     0.000 C 
ENDROOT
BRANCH   1   2
ATOM      2  C   UNL     1     145.485 128.061 114.285  1.00  0.00     0.000 C 
BRANCH   2   3
ATOM      3  C   UNL     1     144.971 127.095 115.367  1.00  0.00     0.000 C 
BRANCH   3   4
ATOM      4  C   UNL     1     143.595 127.501 115.927  1.00  0.00     0.000 C 
BRANCH   4   5
ATOM      5  C   UNL     1     143.499 127.523 117.463  1.00  0.00     0.001 C 
BRANCH   5   6
ATOM      6  C   UNL     1     144.860 127.318 118.153  1.00  0.00     0.009 C 
BRANCH   6   7
ATOM      7  C   UNL     1     145.307 128.568 118.939  1.00  0.00     0.032 C 
ATOM      8  C   UNL     1     144.254 129.677 118.839  1.00  0.00     0.014 C 
BRANCH   7   9
ATOM      9  C   UNL     1     145.572 128.244 120.386  1.00  0.00     0.044 C 
ATOM     10  O   UNL     1     146.717 127.876 120.760  1.00  0.00    -0.550 OA
ATOM     11  O   UNL     1     144.549 128.351 121.319  1.00  0.00    -0.550 OA
ENDBRANCH   7   9
ENDBRANCH   6   7
ENDBRANCH   5   6
ENDBRANCH   4   5
ENDBRANCH   3   4
ENDBRANCH   2   3
ENDBRANCH   1   2
BRANCH   1  12
ATOM     12  C   UNL     1     146.289 129.926 115.838  1.00  0.00     0.000 C 
BRANCH  12  13
ATOM     13  C   UNL     1     146.775 131.379 115.730  1.00  0.00    -0.000 C 
BRANCH  13  14
ATOM     14  C   UNL     1     145.635 132.399 115.894  1.00  0.00    -0.000 C 
BRANCH  14  15
ATOM     15  C   UNL     1     146.075 133.640 116.700  1.00  0.00    -0.000 C 
BRANCH  15  16
ATOM     16  C   UNL     1     146.082 134.940 115.877  1.00  0.00    -0.000 C 
BRANCH  16  17
ATOM     17  C   UNL     1     146.514 134.720 114.418  1.00  0.00    -0.000 C 
BRANCH  17  18
ATOM     18  C   UNL     1     146.126 135.895 113.507  1.00  0.00    -0.003 C 
ATOM     19  C   UNL     1     144.638 136.238 113.583  1.00  0.00     0.004 C 
ENDBRANCH  17  18
ENDBRANCH  16  17
ENDBRANCH  15  16
ENDBRANCH  14  15
ENDBRANCH  13  14
ENDBRANCH  12  13
ENDBRANCH   1  12
TORSDOF 14
ENDMDL
MODEL 2
REMARK VINA RESULT:    -4.255      3.078      6.382
REMARK INTER + INTRA:          -9.167
REMARK INTER:                  -6.732
REMARK INTRA:                  -2.435
REMARK UNBOUND:                -1.430
REMARK SMILES CCCCCCCCCCCCCC[C@@H](C)C(=O)[O-]
REMARK SMILES IDX 9 1 10 2 11 3 12 4 13 5 14 6 15 7 16 8 17 9 18 10 19 11 8 12
REMARK SMILES IDX 7 13 6 14 5 15 4 16 3 17 2 18 1 19
REMARK H PARENT
REMARK Flexibility Score: inf
ROOT
ATOM      1  C   UNL     1     145.598 127.721 117.963  1.00  0.00     0.000 C 
ENDROOT
BRANCH   1   2
ATOM      2  C   UNL     1     144.205 127.360 118.502  1.00  0.00     0.000 C 
BRANCH   2   3
ATOM      3  C   UNL     1     143.281 128.585 118.617  1.00  0.00     0.000 C 
BRANCH   3   4
ATOM      4  C   UNL     1     144.040 129.920 118.514  1.00  0.00     0.000 C 
BRANCH   4   5
ATOM      5  C   UNL     1     143.458 130.924 117.502  1.00  0.00     0.001 C 
BRANCH   5   6
ATOM      6  C   UNL     1     144.340 131.098 116.253  1.00  0.00     0.009 C 
BRANCH   6   7
ATOM      7  C   UNL     1     145.719 131.699 116.595  1.00  0.00     0.032 C 
ATOM      8  C   UNL     1     146.814 131.071 115.726  1.00  0.00     0.014 C 
BRANCH   7   9
ATOM      9  C   UNL     1     145.727 133.195 116.425  1.00  0.00     0.044 C 
ATOM     10  O   UNL     1     144.712 133.795 115.982  1.00  0.00    -0.550 OA
ATOM     11  O   UNL     1     146.862 133.924 116.758  1.00  0.00    -0.550 OA
ENDBRANCH   7   9
ENDBRANCH   6   7
ENDBRANCH   5   6
ENDBRANCH   4   5
ENDBRANCH   3   4
ENDBRANCH   2   3
ENDBRANCH   1   2
BRANCH   1  12
ATOM     12  C   UNL     1     145.951 126.946 116.682  1.00  0.00     0.000 C 
BRANCH  12  13
ATOM     13  C   UNL     1     145.617 127.734 115.405  1.00  0.00    -0.000 C 
BRANCH  13  14
ATOM     14  C   UNL     1     144.376 127.186 114.679  1.00  0.00    -0.000 C 
BRANCH  14  15
ATOM     15  C   UNL     1     143.111 128.018 114.981  1.00  0.00    -0.000 C 
BRANCH  15  16
ATOM     16  C   UNL     1     141.915 127.173 115.453  1.00  0.00    -0.000 C 
BRANCH  16  17
ATOM     17  C   UNL     1     140.713 128.031 115.883  1.00  0.00    -0.000 C 
BRANCH  17  18
ATOM     18  C   UNL     1     139.383 127.499 115.326  1.00  0.00    -0.003 C 
ATOM     19  C   UNL     1     139.519 126.923 113.916  1.00  0.00     0.004 C 
ENDBRANCH  17  18
ENDBRANCH  16  17
ENDBRANCH  15  16
ENDBRANCH  14  15
ENDBRANCH  13  14
ENDBRANCH  12  13
ENDBRANCH   1  12
TORSDOF 14
ENDMDL
MODEL 3
REMARK VINA RESULT:    -4.239      3.637      6.658
REMARK INTER + INTRA:          -9.139
REMARK INTER:                  -7.127
REMARK INTRA:                  -2.012
REMARK UNBOUND:                -1.430
REMARK SMILES CCCCCCCCCCCCCC[C@@H](C)C(=O)[O-]
REMARK SMILES IDX 9 1 10 2 11 3 12 4 13 5 14 6 15 7 16 8 17 9 18 10 19 11 8 12
REMARK SMILES IDX 7 13 6 14 5 15 4 16 3 17 2 18 1 19
REMARK H PARENT
REMARK Flexibility Score: inf
ROOT
ATOM      1  C   UNL     1     141.400 128.664 115.886  1.00  0.00     0.000 C 
ENDROOT
BRANCH   1   2
ATOM      2  C   UNL     1     142.255 127.414 115.627  1.00  0.00     0.000 C 
BRANCH   2   3
ATOM      3  C   UNL     1     143.501 127.719 114.776  1.00  0.00     0.000 C 
BRANCH   3   4
ATOM      4  C   UNL     1     144.759 126.981 115.270  1.00  0.00     0.000 C 
BRANCH   4   5
ATOM      5  C   UNL     1     145.925 127.894 115.691  1.00  0.00     0.001 C 
BRANCH   5   6
ATOM      6  C   UNL     1     145.691 129.372 115.330  1.00  0.00     0.009 C 
BRANCH   6   7
ATOM      7  C   UNL     1     145.992 130.313 116.515  1.00  0.00     0.032 C 
ATOM      8  C   UNL     1     145.639 131.761 116.159  1.00  0.00     0.014 C 
BRANCH   7   9
ATOM      9  C   UNL     1     145.248 129.895 117.755  1.00  0.00     0.044 C 
ATOM     10  O   UNL     1     143.999 130.048 117.835  1.00  0.00    -0.550 OA
ATOM     11  O   UNL     1     145.939 129.337 118.823  1.00  0.00    -0.550 OA
ENDBRANCH   7   9
ENDBRANCH   6   7
ENDBRANCH   5   6
ENDBRANCH   4   5
ENDBRANCH   3   4
ENDBRANCH   2   3
ENDBRANCH   1   2
BRANCH   1  12
ATOM     12  C   UNL     1     141.829 129.860 115.018  1.00  0.00     0.000 C 
BRANCH  12  13
ATOM     13  C   UNL     1     140.867 130.115 113.848  1.00  0.00    -0.000 C 
BRANCH  13  14
ATOM     14  C   UNL     1     139.409 129.767 114.193  1.00  0.00    -0.000 C 
BRANCH  14  15
ATOM     15  C   UNL     1     138.823 128.703 113.241  1.00  0.00    -0.000 C 
BRANCH  15  16
ATOM     16  C   UNL     1     138.319 127.441 113.961  1.00  0.00    -0.000 C 
BRANCH  16  17
ATOM     17  C   UNL     1     137.484 127.761 115.212  1.00  0.00    -0.000 C 
BRANCH  17  18
ATOM     18  C   UNL     1     138.094 127.169 116.492  1.00  0.00    -0.003 C 
ATOM     19  C   UNL     1     138.134 128.170 117.647  1.00  0.00     0.004 C 
ENDBRANCH  17  18
ENDBRANCH  16  17
ENDBRANCH  15  16
ENDBRANCH  14  15
ENDBRANCH  13  14
ENDBRANCH  12  13
ENDBRANCH   1  12
TORSDOF 14
ENDMDL
MODEL 4
REMARK VINA RESULT:    -4.223     14.571     16.592
REMARK INTER + INTRA:          -9.109
REMARK INTER:                  -6.589
REMARK INTRA:                  -2.520
REMARK UNBOUND:                -1.430
REMARK SMILES CCCCCCCCCCCCCC[C@@H](C)C(=O)[O-]
REMARK SMILES IDX 9 1 10 2 11 3 12 4 13 5 14 6 15 7 16 8 17 9 18 10 19 11 8 12
REMARK SMILES IDX 7 13 6 14 5 15 4 16 3 17 2 18 1 19
REMARK H PARENT
REMARK Flexibility Score: inf
ROOT
ATOM      1  C   UNL     1     130.561 133.038 114.262  1.00  0.00     0.000 C 
ENDROOT
BRANCH   1   2
ATOM      2  C   UNL     1     129.476 132.814 113.197  1.00  0.00     0.000 C 
BRANCH   2   3
ATOM      3  C   UNL     1     128.139 132.355 113.804  1.00  0.00     0.000 C 
BRANCH   3   4
ATOM      4  C   UNL     1     128.027 130.824 113.918  1.00  0.00     0.000 C 
BRANCH   4   5
ATOM      5  C   UNL     1     128.079 130.274 115.355  1.00  0.00     0.001 C 
BRANCH   5   6
ATOM      6  C   UNL     1     128.121 131.382 116.422  1.00  0.00     0.009 C 
BRANCH   6   7
ATOM      7  C   UNL     1     129.014 131.001 117.621  1.00  0.00     0.032 C 
ATOM      8  C   UNL     1     130.170 131.995 117.774  1.00  0.00     0.014 C 
BRANCH   7   9
ATOM      9  C   UNL     1     128.222 130.936 118.900  1.00  0.00     0.044 C 
ATOM     10  O   UNL     1     126.965 130.852 118.872  1.00  0.00    -0.550 OA
ATOM     11  O   UNL     1     128.879 130.969 120.124  1.00  0.00    -0.550 OA
ENDBRANCH   7   9
ENDBRANCH   6   7
ENDBRANCH   5   6
ENDBRANCH   4   5
ENDBRANCH   3   4
ENDBRANCH   2   3
ENDBRANCH   1   2
BRANCH   1  12
ATOM     12  C   UNL     1     131.923 132.456 113.846  1.00  0.00     0.000 C 
BRANCH  12  13
ATOM     13  C   UNL     1     131.872 130.936 113.624  1.00  0.00    -0.000 C 
BRANCH  13  14
ATOM     14  C   UNL     1     131.703 130.152 114.936  1.00  0.00    -0.000 C 
BRANCH  14  15
ATOM     15  C   UNL     1     131.840 128.629 114.726  1.00  0.00    -0.000 C 
BRANCH  15  16
ATOM     16  C   UNL     1     130.508 127.868 114.836  1.00  0.00    -0.000 C 
BRANCH  16  17
ATOM     17  C   UNL     1     130.431 126.979 116.088  1.00  0.00    -0.000 C 
BRANCH  17  18
ATOM     18  C   UNL     1     130.398 127.798 117.389  1.00  0.00    -0.003 C 
ATOM     19  C   UNL     1     129.375 127.270 118.395  1.00  0.00     0.004 C 
ENDBRANCH  17  18
ENDBRANCH  16  17
ENDBRANCH  15  16
ENDBRANCH  14  15
ENDBRANCH  13  14
ENDBRANCH  12  13
ENDBRANCH   1  12
TORSDOF 14
ENDMDL
MODEL 5
REMARK VINA RESULT:    -4.203      4.784      7.021
REMARK INTER + INTRA:          -9.073
REMARK INTER:                  -6.938
REMARK INTRA:                  -2.135
REMARK UNBOUND:                -1.430
REMARK SMILES CCCCCCCCCCCCCC[C@@H](C)C(=O)[O-]
REMARK SMILES IDX 9 1 10 2 11 3 12 4 13 5 14 6 15 7 16 8 17 9 18 10 19 11 8 12
REMARK SMILES IDX 7 13 6 14 5 15 4 16 3 17 2 18 1 19
REMARK H PARENT
REMARK Flexibility Score: inf
ROOT
ATOM      1  C   UNL     1     142.582 129.376 117.710  1.00  0.00     0.000 C 
ENDROOT
BRANCH   1   2
ATOM      2  C   UNL     1     142.014 128.983 116.337  1.00  0.00     0.000 C 
BRANCH   2   3
ATOM      3  C   UNL     1     142.182 127.483 116.037  1.00  0.00     0.000 C 
BRANCH   3   4
ATOM      4  C   UNL     1     141.406 127.032 114.786  1.00  0.00     0.000 C 
BRANCH   4   5
ATOM      5  C   UNL     1     139.874 127.118 114.905  1.00  0.00     0.001 C 
BRANCH   5   6
ATOM      6  C   UNL     1     139.220 127.851 113.720  1.00  0.00     0.009 C 
BRANCH   6   7
ATOM      7  C   UNL     1     138.390 129.069 114.176  1.00  0.00     0.032 C 
ATOM      8  C   UNL     1     138.389 129.182 115.705  1.00  0.00     0.014 C 
BRANCH   7   9
ATOM      9  C   UNL     1     138.906 130.347 113.569  1.00  0.00     0.044 C 
ATOM     10  O   UNL     1     138.125 131.309 113.342  1.00  0.00    -0.550 OA
ATOM     11  O   UNL     1     140.254 130.470 113.254  1.00  0.00    -0.550 OA
ENDBRANCH   7   9
ENDBRANCH   6   7
ENDBRANCH   5   6
ENDBRANCH   4   5
ENDBRANCH   3   4
ENDBRANCH   2   3
ENDBRANCH   1   2
BRANCH   1  12
ATOM     12  C   UNL     1     142.150 128.406 118.824  1.00  0.00     0.000 C 
BRANCH  12  13
ATOM     13  C   UNL     1     143.324 127.581 119.375  1.00  0.00    -0.000 C 
BRANCH  13  14
ATOM     14  C   UNL     1     144.691 128.209 119.054  1.00  0.00    -0.000 C 
BRANCH  14  15
ATOM     15  C   UNL     1     145.554 127.297 118.156  1.00  0.00    -0.000 C 
BRANCH  15  16
ATOM     16  C   UNL     1     145.895 127.920 116.791  1.00  0.00    -0.000 C 
BRANCH  16  17
ATOM     17  C   UNL     1     145.903 126.888 115.651  1.00  0.00    -0.000 C 
BRANCH  17  18
ATOM     18  C   UNL     1     145.476 127.496 114.305  1.00  0.00    -0.003 C 
ATOM     19  C   UNL     1     145.320 129.016 114.364  1.00  0.00     0.004 C 
ENDBRANCH  17  18
ENDBRANCH  16  17
ENDBRANCH  15  16
ENDBRANCH  14  15
ENDBRANCH  13  14
ENDBRANCH  12  13
ENDBRANCH   1  12
TORSDOF 14
ENDMDL
MODEL 6
REMARK VINA RESULT:    -4.201      4.214      6.518
REMARK INTER + INTRA:          -9.070
REMARK INTER:                  -6.826
REMARK INTRA:                  -2.244
REMARK UNBOUND:                -1.430
REMARK SMILES CCCCCCCCCCCCCC[C@@H](C)C(=O)[O-]
REMARK SMILES IDX 9 1 10 2 11 3 12 4 13 5 14 6 15 7 16 8 17 9 18 10 19 11 8 12
REMARK SMILES IDX 7 13 6 14 5 15 4 16 3 17 2 18 1 19
REMARK H PARENT
REMARK Flexibility Score: inf
ROOT
ATOM      1  C   UNL     1     143.573 128.486 118.836  1.00  0.00     0.000 C 
ENDROOT
BRANCH   1   2
ATOM      2  C   UNL     1     142.680 127.276 118.515  1.00  0.00     0.000 C 
BRANCH   2   3
ATOM      3  C   UNL     1     141.458 127.655 117.660  1.00  0.00     0.000 C 
BRANCH   3   4
ATOM      4  C   UNL     1     141.799 128.648 116.535  1.00  0.00     0.000 C 
BRANCH   4   5
ATOM      5  C   UNL     1     141.371 128.204 115.124  1.00  0.00     0.001 C 
BRANCH   5   6
ATOM      6  C   UNL     1     140.618 129.301 114.352  1.00  0.00     0.009 C 
BRANCH   6   7
ATOM      7  C   UNL     1     139.264 128.803 113.806  1.00  0.00     0.032 C 
ATOM      8  C   UNL     1     139.049 127.326 114.155  1.00  0.00     0.014 C 
BRANCH   7   9
ATOM      9  C   UNL     1     138.119 129.625 114.336  1.00  0.00     0.044 C 
ATOM     10  O   UNL     1     137.938 130.806 113.936  1.00  0.00    -0.550 OA
ATOM     11  O   UNL     1     137.251 129.080 115.275  1.00  0.00    -0.550 OA
ENDBRANCH   7   9
ENDBRANCH   6   7
ENDBRANCH   5   6
ENDBRANCH   4   5
ENDBRANCH   3   4
ENDBRANCH   2   3
ENDBRANCH   1   2
BRANCH   1  12
ATOM     12  C   UNL     1     145.071 128.164 118.695  1.00  0.00     0.000 C 
BRANCH  12  13
ATOM     13  C   UNL     1     145.325 126.875 117.898  1.00  0.00    -0.000 C 
BRANCH  13  14
ATOM     14  C   UNL     1     146.022 127.140 116.552  1.00  0.00    -0.000 C 
BRANCH  14  15
ATOM     15  C   UNL     1     145.018 127.232 115.384  1.00  0.00    -0.000 C 
BRANCH  15  16
ATOM     16  C   UNL     1     145.378 128.306 114.343  1.00  0.00    -0.000 C 
BRANCH  16  17
ATOM     17  C   UNL     1     144.807 129.690 114.692  1.00  0.00    -0.000 C 
BRANCH  17  18
ATOM     18  C   UNL     1     145.759 130.513 115.573  1.00  0.00    -0.003 C 
ATOM     19  C   UNL     1     145.040 131.222 116.721  1.00  0.00     0.004 C 
ENDBRANCH  17  18
ENDBRANCH  16  17
ENDBRANCH  15  16
ENDBRANCH  14  15
ENDBRANCH  13  14
ENDBRANCH  12  13
ENDBRANCH   1  12
TORSDOF 14
ENDMDL
MODEL 7
REMARK VINA RESULT:    -4.194      3.682      6.654
REMARK INTER + INTRA:          -9.057
REMARK INTER:                  -6.540
REMARK INTRA:                  -2.517
REMARK UNBOUND:                -1.430
REMARK SMILES CCCCCCCCCCCCCC[C@@H](C)C(=O)[O-]
REMARK SMILES IDX 9 1 10 2 11 3 12 4 13 5 14 6 15 7 16 8 17 9 18 10 19 11 8 12
REMARK SMILES IDX 7 13 6 14 5 15 4 16 3 17 2 18 1 19
REMARK H PARENT
REMARK Flexibility Score: inf
ROOT
ATOM      1  C   UNL     1     139.076 129.355 114.233  1.00  0.00     0.000 C 
ENDROOT
BRANCH   1   2
ATOM      2  C   UNL     1     140.097 130.083 113.344  1.00  0.00     0.000 C 
BRANCH   2   3
ATOM      3  C   UNL     1     141.401 130.411 114.091  1.00  0.00     0.000 C 
BRANCH   3   4
ATOM      4  C   UNL     1     141.160 130.916 115.525  1.00  0.00     0.000 C 
BRANCH   4   5
ATOM      5  C   UNL     1     142.357 130.756 116.481  1.00  0.00     0.001 C 
BRANCH   5   6
ATOM      6  C   UNL     1     143.705 131.080 115.814  1.00  0.00     0.009 C 
BRANCH   6   7
ATOM      7  C   UNL     1     144.561 132.037 116.670  1.00  0.00     0.032 C 
ATOM      8  C   UNL     1     144.506 131.638 118.149  1.00  0.00     0.014 C 
BRANCH   7   9
ATOM      9  C   UNL     1     145.992 132.066 116.202  1.00  0.00     0.044 C 
ATOM     10  O   UNL     1     146.496 131.070 115.617  1.00  0.00    -0.550 OA
ATOM     11  O   UNL     1     146.767 133.199 116.414  1.00  0.00    -0.550 OA
ENDBRANCH   7   9
ENDBRANCH   6   7
ENDBRANCH   5   6
ENDBRANCH   4   5
ENDBRANCH   3   4
ENDBRANCH   2   3
ENDBRANCH   1   2
BRANCH   1  12
ATOM     12  C   UNL     1     138.864 127.892 113.807  1.00  0.00     0.000 C 
BRANCH  12  13
ATOM     13  C   UNL     1     139.936 126.950 114.376  1.00  0.00    -0.000 C 
BRANCH  13  14
ATOM     14  C   UNL     1     140.207 127.195 115.870  1.00  0.00    -0.000 C 
BRANCH  14  15
ATOM     15  C   UNL     1     141.717 127.253 116.186  1.00  0.00    -0.000 C 
BRANCH  15  16
ATOM     16  C   UNL     1     142.611 127.226 114.935  1.00  0.00    -0.000 C 
BRANCH  16  17
ATOM     17  C   UNL     1     144.091 127.490 115.254  1.00  0.00    -0.000 C 
BRANCH  17  18
ATOM     18  C   UNL     1     144.420 127.271 116.740  1.00  0.00    -0.003 C 
ATOM     19  C   UNL     1     145.608 128.108 117.213  1.00  0.00     0.004 C 
ENDBRANCH  17  18
ENDBRANCH  16  17
ENDBRANCH  15  16
ENDBRANCH  14  15
ENDBRANCH  13  14
ENDBRANCH  12  13
ENDBRANCH   1  12
TORSDOF 14
ENDMDL
MODEL 8
REMARK VINA RESULT:    -4.177      4.112      6.982
REMARK INTER + INTRA:          -9.026
REMARK INTER:                  -6.433
REMARK INTRA:                  -2.593
REMARK UNBOUND:                -1.430
REMARK SMILES CCCCCCCCCCCCCC[C@@H](C)C(=O)[O-]
REMARK SMILES IDX 9 1 10 2 11 3 12 4 13 5 14 6 15 7 16 8 17 9 18 10 19 11 8 12
REMARK SMILES IDX 7 13 6 14 5 15 4 16 3 17 2 18 1 19
REMARK H PARENT
REMARK Flexibility Score: inf
ROOT
ATOM      1  C   UNL     1     140.428 130.952 115.600  1.00  0.00     0.000 C 
ENDROOT
BRANCH   1   2
ATOM      2  C   UNL     1     141.649 130.050 115.364  1.00  0.00     0.000 C 
BRANCH   2   3
ATOM      3  C   UNL     1     141.877 129.054 116.515  1.00  0.00     0.000 C 
BRANCH   3   4
ATOM      4  C   UNL     1     142.168 127.625 116.021  1.00  0.00     0.000 C 
BRANCH   4   5
ATOM      5  C   UNL     1     143.208 127.528 114.890  1.00  0.00     0.001 C 
BRANCH   5   6
ATOM      6  C   UNL     1     144.597 127.090 115.386  1.00  0.00     0.009 C 
BRANCH   6   7
ATOM      7  C   UNL     1     145.603 128.259 115.407  1.00  0.00     0.032 C 
ATOM      8  C   UNL     1     145.212 129.329 114.382  1.00  0.00     0.014 C 
BRANCH   7   9
ATOM      9  C   UNL     1     145.704 128.877 116.776  1.00  0.00     0.044 C 
ATOM     10  O   UNL     1     145.498 130.109 116.941  1.00  0.00    -0.550 OA
ATOM     11  O   UNL     1     146.026 128.084 117.872  1.00  0.00    -0.550 OA
ENDBRANCH   7   9
ENDBRANCH   6   7
ENDBRANCH   5   6
ENDBRANCH   4   5
ENDBRANCH   3   4
ENDBRANCH   2   3
ENDBRANCH   1   2
BRANCH   1  12
ATOM     12  C   UNL     1     139.439 130.923 114.422  1.00  0.00     0.000 C 
BRANCH  12  13
ATOM     13  C   UNL     1     139.875 129.957 113.310  1.00  0.00    -0.000 C 
BRANCH  13  14
ATOM     14  C   UNL     1     138.813 128.886 113.005  1.00  0.00    -0.000 C 
BRANCH  14  15
ATOM     15  C   UNL     1     138.952 127.651 113.920  1.00  0.00    -0.000 C 
BRANCH  15  16
ATOM     16  C   UNL     1     137.942 127.625 115.080  1.00  0.00    -0.000 C 
BRANCH  16  17
ATOM     17  C   UNL     1     138.585 127.236 116.421  1.00  0.00    -0.000 C 
BRANCH  17  18
ATOM     18  C   UNL     1     138.045 128.069 117.595  1.00  0.00    -0.003 C 
ATOM     19  C   UNL     1     137.391 129.375 117.144  1.00  0.00     0.004 C 
ENDBRANCH  17  18
ENDBRANCH  16  17
ENDBRANCH  15  16
ENDBRANCH  14  15
ENDBRANCH  13  14
ENDBRANCH  12  13
ENDBRANCH   1  12
TORSDOF 14
ENDMDL
MODEL 9
REMARK VINA RESULT:    -4.150      4.668      6.287
REMARK INTER + INTRA:          -8.976
REMARK INTER:                  -6.671
REMARK INTRA:                  -2.305
REMARK UNBOUND:                -1.430
REMARK SMILES CCCCCCCCCCCCCC[C@@H](C)C(=O)[O-]
REMARK SMILES IDX 9 1 10 2 11 3 12 4 13 5 14 6 15 7 16 8 17 9 18 10 19 11 8 12
REMARK SMILES IDX 7 13 6 14 5 15 4 16 3 17 2 18 1 19
REMARK H PARENT
REMARK Flexibility Score: inf
ROOT
ATOM      1  C   UNL     1     143.157 127.262 115.091  1.00  0.00     0.000 C 
ENDROOT
BRANCH   1   2
ATOM      2  C   UNL     1     142.310 127.350 116.371  1.00  0.00     0.000 C 
BRANCH   2   3
ATOM      3  C   UNL     1     140.802 127.235 116.089  1.00  0.00     0.000 C 
BRANCH   3   4
ATOM      4  C   UNL     1     140.490 126.904 114.618  1.00  0.00     0.000 C 
BRANCH   4   5
ATOM      5  C   UNL     1     139.043 127.192 114.179  1.00  0.00     0.001 C 
BRANCH   5   6
ATOM      6  C   UNL     1     138.056 127.242 115.358  1.00  0.00     0.009 C 
BRANCH   6   7
ATOM      7  C   UNL     1     137.133 128.476 115.293  1.00  0.00     0.032 C 
ATOM      8  C   UNL     1     136.205 128.525 116.511  1.00  0.00     0.014 C 
BRANCH   7   9
ATOM      9  C   UNL     1     137.926 129.753 115.204  1.00  0.00     0.044 C 
ATOM     10  O   UNL     1     137.830 130.498 114.192  1.00  0.00    -0.550 OA
ATOM     11  O   UNL     1     138.773 130.117 116.243  1.00  0.00    -0.550 OA
ENDBRANCH   7   9
ENDBRANCH   6   7
ENDBRANCH   5   6
ENDBRANCH   4   5
ENDBRANCH   3   4
ENDBRANCH   2   3
ENDBRANCH   1   2
BRANCH   1  12
ATOM     12  C   UNL     1     144.667 127.267 115.384  1.00  0.00     0.000 C 
BRANCH  12  13
ATOM     13  C   UNL     1     145.467 128.064 114.343  1.00  0.00    -0.000 C 
BRANCH  13  14
ATOM     14  C   UNL     1     145.550 129.563 114.680  1.00  0.00    -0.000 C 
BRANCH  14  15
ATOM     15  C   UNL     1     145.603 129.815 116.202  1.00  0.00    -0.000 C 
BRANCH  15  16
ATOM     16  C   UNL     1     144.448 130.687 116.725  1.00  0.00    -0.000 C 
BRANCH  16  17
ATOM     17  C   UNL     1     143.622 131.321 115.595  1.00  0.00    -0.000 C 
BRANCH  17  18
ATOM     18  C   UNL     1     142.158 130.853 115.603  1.00  0.00    -0.003 C 
ATOM     19  C   UNL     1     141.676 130.391 114.227  1.00  0.00     0.004 C 
ENDBRANCH  17  18
ENDBRANCH  16  17
ENDBRANCH  15  16
ENDBRANCH  14  15
ENDBRANCH  13  14
ENDBRANCH  12  13
ENDBRANCH   1  12
TORSDOF 14
ENDMDL
