MODEL 1
REMARK VINA RESULT:    -2.473      0.000      0.000
REMARK INTER + INTRA:          -2.473
REMARK INTER:                  -2.473
REMARK INTRA:                   0.000
REMARK UNBOUND:                 0.000
REMARK SMILES CC(=O)[O-]
REMARK SMILES IDX 1 1 2 2 3 3 4 4
REMARK H PARENT
REMARK Flexibility Score: inf
ROOT
ATOM      1  C   UNL     1      11.866  44.352  -0.897  1.00  0.00     0.063 C 
ATOM      2  C   UNL     1      12.915  44.129   0.139  1.00  0.00     0.038 C 
ATOM      3  O   UNL     1      13.044  42.997   0.675  1.00  0.00    -0.550 OA
ATOM      4  O   UNL     1      13.788  45.155   0.478  1.00  0.00    -0.550 OA
ENDROOT
TORSDOF 0
ENDMDL
MODEL 2
REMARK VINA RESULT:    -2.462      0.141      1.620
REMARK INTER + INTRA:          -2.462
REMARK INTER:                  -2.462
REMARK INTRA:                   0.000
REMARK UNBOUND:                 0.000
REMARK SMILES CC(=O)[O-]
REMARK SMILES IDX 1 1 2 2 3 3 4 4
REMARK H PARENT
REMARK Flexibility Score: inf
ROOT
ATOM      1  C   UNL     1      11.909  44.317  -0.849  1.00  0.00     0.063 C 
ATOM      2  C   UNL     1      12.971  44.193   0.190  1.00  0.00     0.038 C 
ATOM      3  O   UNL     1      13.713  45.175   0.457  1.00  0.00    -0.550 OA
ATOM      4  O   UNL     1      13.110  43.010   0.905  1.00  0.00    -0.550 OA
ENDROOT
TORSDOF 0
ENDMDL
MODEL 3
REMARK VINA RESULT:    -2.424      1.585      1.621
REMARK INTER + INTRA:          -2.424
REMARK INTER:                  -2.424
REMARK INTRA:                   0.000
REMARK UNBOUND:                 0.000
REMARK SMILES CC(=O)[O-]
REMARK SMILES IDX 1 1 2 2 3 3 4 4
REMARK H PARENT
REMARK Flexibility Score: inf
ROOT
ATOM      1  C   UNL     1      12.837  43.413   0.230  1.00  0.00     0.063 C 
ATOM      2  C   UNL     1      13.806  44.542   0.323  1.00  0.00     0.038 C 
ATOM      3  O   UNL     1      14.995  44.326   0.679  1.00  0.00    -0.550 OA
ATOM      4  O   UNL     1      13.416  45.826  -0.032  1.00  0.00    -0.550 OA
ENDROOT
TORSDOF 0
ENDMDL
MODEL 4
REMARK VINA RESULT:    -2.403      1.703      1.921
REMARK INTER + INTRA:          -2.403
REMARK INTER:                  -2.403
REMARK INTRA:                   0.000
REMARK UNBOUND:                 0.000
REMARK SMILES CC(=O)[O-]
REMARK SMILES IDX 1 1 2 2 3 3 4 4
REMARK H PARENT
REMARK Flexibility Score: inf
ROOT
ATOM      1  C   UNL     1      12.989  43.604   0.346  1.00  0.00     0.063 C 
ATOM      2  C   UNL     1      12.574  44.747  -0.517  1.00  0.00     0.038 C 
ATOM      3  O   UNL     1      11.511  44.679  -1.189  1.00  0.00    -0.550 OA
ATOM      4  O   UNL     1      13.332  45.911  -0.543  1.00  0.00    -0.550 OA
ENDROOT
TORSDOF 0
ENDMDL
MODEL 5
REMARK VINA RESULT:    -2.376      1.718      2.348
REMARK INTER + INTRA:          -2.376
REMARK INTER:                  -2.376
REMARK INTRA:                   0.000
REMARK UNBOUND:                 0.000
REMARK SMILES CC(=O)[O-]
REMARK SMILES IDX 1 1 2 2 3 3 4 4
REMARK H PARENT
REMARK Flexibility Score: inf
ROOT
ATOM      1  C   UNL     1      13.014  43.596   0.404  1.00  0.00     0.063 C 
ATOM      2  C   UNL     1      12.639  44.748  -0.464  1.00  0.00     0.038 C 
ATOM      3  O   UNL     1      13.392  45.755  -0.538  1.00  0.00    -0.550 OA
ATOM      4  O   UNL     1      11.485  44.693  -1.235  1.00  0.00    -0.550 OA
ENDROOT
TORSDOF 0
ENDMDL
MODEL 6
REMARK VINA RESULT:    -2.173     16.326     16.940
REMARK INTER + INTRA:          -2.173
REMARK INTER:                  -2.173
REMARK INTRA:                   0.000
REMARK UNBOUND:                 0.000
REMARK SMILES CC(=O)[O-]
REMARK SMILES IDX 1 1 2 2 3 3 4 4
REMARK H PARENT
REMARK Flexibility Score: inf
ROOT
ATOM      1  C   UNL     1      -2.426  38.225  -0.844  1.00  0.00     0.063 C 
ATOM      2  C   UNL     1      -2.177  36.812  -1.248  1.00  0.00     0.038 C 
ATOM      3  O   UNL     1      -1.128  36.223  -0.875  1.00  0.00    -0.550 OA
ATOM      4  O   UNL     1      -3.125  36.123  -1.994  1.00  0.00    -0.550 OA
ENDROOT
TORSDOF 0
ENDMDL
MODEL 7
REMARK VINA RESULT:    -2.138     16.042     16.428
REMARK INTER + INTRA:          -2.138
REMARK INTER:                  -2.138
REMARK INTRA:                   0.000
REMARK UNBOUND:                 0.000
REMARK SMILES CC(=O)[O-]
REMARK SMILES IDX 1 1 2 2 3 3 4 4
REMARK H PARENT
REMARK Flexibility Score: inf
ROOT
ATOM      1  C   UNL     1      -3.125  36.893  -1.624  1.00  0.00     0.063 C 
ATOM      2  C   UNL     1      -1.835  37.055  -0.893  1.00  0.00     0.038 C 
ATOM      3  O   UNL     1      -0.983  36.128  -0.902  1.00  0.00    -0.550 OA
ATOM      4  O   UNL     1      -1.548  38.248  -0.243  1.00  0.00    -0.550 OA
ENDROOT
TORSDOF 0
ENDMDL
MODEL 8
REMARK VINA RESULT:    -2.111     23.301     23.814
REMARK INTER + INTRA:          -2.111
REMARK INTER:                  -2.111
REMARK INTRA:                   0.000
REMARK UNBOUND:                 0.000
REMARK SMILES CC(=O)[O-]
REMARK SMILES IDX 1 1 2 2 3 3 4 4
REMARK H PARENT
REMARK Flexibility Score: inf
ROOT
ATOM      1  C   UNL     1      -0.130  29.750  12.240  1.00  0.00     0.063 C 
ATOM      2  C   UNL     1      -1.244  28.936  11.673  1.00  0.00     0.038 C 
ATOM      3  O   UNL     1      -1.606  27.875  12.246  1.00  0.00    -0.550 OA
ATOM      4  O   UNL     1      -1.920  29.374  10.542  1.00  0.00    -0.550 OA
ENDROOT
TORSDOF 0
ENDMDL
MODEL 9
REMARK VINA RESULT:    -2.073     23.282     23.831
REMARK INTER + INTRA:          -2.073
REMARK INTER:                  -2.073
REMARK INTRA:                   0.000
REMARK UNBOUND:                 0.000
REMARK SMILES CC(=O)[O-]
REMARK SMILES IDX 1 1 2 2 3 3 4 4
REMARK H PARENT
REMARK Flexibility Score: inf
ROOT
ATOM      1  C   UNL     1      -0.109  29.751  12.241  1.00  0.00     0.063 C 
ATOM      2  C   UNL     1      -1.258  29.012  11.643  1.00  0.00     0.038 C 
ATOM      3  O   UNL     1      -1.749  29.387  10.546  1.00  0.00    -0.550 OA
ATOM      4  O   UNL     1      -1.756  27.875  12.267  1.00  0.00    -0.550 OA
ENDROOT
TORSDOF 0
ENDMDL
