MODEL 1
REMARK VINA RESULT:    -4.213      0.000      0.000
REMARK INTER + INTRA:          -7.292
REMARK INTER:                  -6.429
REMARK INTRA:                  -0.862
REMARK UNBOUND:                -0.862
REMARK SMILES CCCCCCCCCCC(=O)[O-]
REMARK SMILES IDX 7 1 8 2 9 3 10 4 11 5 12 6 13 7 6 8 5 9 4 10 3 11 2 12 1 13
REMARK H PARENT
REMARK Flexibility Score: inf
ROOT
ATOM      1  C   UNL     1      41.343 -12.859  26.895  1.00  0.00     0.000 C 
ENDROOT
BRANCH   1   2
ATOM      2  C   UNL     1      40.817 -11.421  26.718  1.00  0.00     0.000 C 
BRANCH   2   3
ATOM      3  C   UNL     1      39.622 -11.049  27.618  1.00  0.00     0.006 C 
BRANCH   3   4
ATOM      4  C   UNL     1      38.496 -12.096  27.644  1.00  0.00     0.053 C 
BRANCH   4   5
ATOM      5  C   UNL     1      37.145 -11.464  27.778  1.00  0.00     0.041 C 
ATOM      6  O   UNL     1      36.669 -11.222  28.918  1.00  0.00    -0.550 OA
ATOM      7  O   UNL     1      36.426 -11.109  26.643  1.00  0.00    -0.550 OA
ENDBRANCH   4   5
ENDBRANCH   3   4
ENDBRANCH   2   3
ENDBRANCH   1   2
BRANCH   1   8
ATOM      8  C   UNL     1      42.814 -12.968  27.343  1.00  0.00     0.000 C 
BRANCH   8   9
ATOM      9  C   UNL     1      43.046 -13.766  28.640  1.00  0.00    -0.000 C 
BRANCH   9  10
ATOM     10  C   UNL     1      41.829 -13.739  29.582  1.00  0.00    -0.000 C 
BRANCH  10  11
ATOM     11  C   UNL     1      42.079 -12.897  30.843  1.00  0.00    -0.000 C 
BRANCH  11  12
ATOM     12  C   UNL     1      41.136 -11.689  30.945  1.00  0.00    -0.003 C 
ATOM     13  C   UNL     1      41.613 -10.709  32.013  1.00  0.00     0.004 C 
ENDBRANCH  11  12
ENDBRANCH  10  11
ENDBRANCH   9  10
ENDBRANCH   8   9
ENDBRANCH   1   8
TORSDOF 9
ENDMDL
MODEL 2
REMARK VINA RESULT:    -4.026     13.229     15.056
REMARK INTER + INTRA:          -7.006
REMARK INTER:                  -6.190
REMARK INTRA:                  -0.816
REMARK UNBOUND:                -0.862
REMARK SMILES CCCCCCCCCCC(=O)[O-]
REMARK SMILES IDX 7 1 8 2 9 3 10 4 11 5 12 6 13 7 6 8 5 9 4 10 3 11 2 12 1 13
REMARK H PARENT
REMARK Flexibility Score: inf
ROOT
ATOM      1  C   UNL     1      44.443   1.246  21.541  1.00  0.00     0.000 C 
ENDROOT
BRANCH   1   2
ATOM      2  C   UNL     1      45.395   0.493  22.491  1.00  0.00     0.000 C 
BRANCH   2   3
ATOM      3  C   UNL     1      45.275   0.883  23.978  1.00  0.00     0.006 C 
BRANCH   3   4
ATOM      4  C   UNL     1      45.166  -0.311  24.940  1.00  0.00     0.053 C 
BRANCH   4   5
ATOM      5  C   UNL     1      43.768  -0.845  25.016  1.00  0.00     0.041 C 
ATOM      6  O   UNL     1      43.564  -2.088  25.029  1.00  0.00    -0.550 OA
ATOM      7  O   UNL     1      42.692   0.030  25.106  1.00  0.00    -0.550 OA
ENDBRANCH   4   5
ENDBRANCH   3   4
ENDBRANCH   2   3
ENDBRANCH   1   2
BRANCH   1   8
ATOM      8  C   UNL     1      42.945   0.934  21.730  1.00  0.00     0.000 C 
BRANCH   8   9
ATOM      9  C   UNL     1      42.524  -0.499  21.357  1.00  0.00    -0.000 C 
BRANCH   9  10
ATOM     10  C   UNL     1      41.388  -0.536  20.320  1.00  0.00    -0.000 C 
BRANCH  10  11
ATOM     11  C   UNL     1      41.908  -0.480  18.875  1.00  0.00    -0.000 C 
BRANCH  11  12
ATOM     12  C   UNL     1      41.310   0.686  18.075  1.00  0.00    -0.003 C 
ATOM     13  C   UNL     1      41.894   2.021  18.530  1.00  0.00     0.004 C 
ENDBRANCH  11  12
ENDBRANCH  10  11
ENDBRANCH   9  10
ENDBRANCH   8   9
ENDBRANCH   1   8
TORSDOF 9
ENDMDL
MODEL 3
REMARK VINA RESULT:    -4.023     13.649     15.488
REMARK INTER + INTRA:          -7.002
REMARK INTER:                  -6.051
REMARK INTRA:                  -0.951
REMARK UNBOUND:                -0.862
REMARK SMILES CCCCCCCCCCC(=O)[O-]
REMARK SMILES IDX 7 1 8 2 9 3 10 4 11 5 12 6 13 7 6 8 5 9 4 10 3 11 2 12 1 13
REMARK H PARENT
REMARK Flexibility Score: inf
ROOT
ATOM      1  C   UNL     1      42.367   1.636  21.975  1.00  0.00     0.000 C 
ENDROOT
BRANCH   1   2
ATOM      2  C   UNL     1      43.420   0.553  22.282  1.00  0.00     0.000 C 
BRANCH   2   3
ATOM      3  C   UNL     1      42.953  -0.554  23.250  1.00  0.00     0.006 C 
BRANCH   3   4
ATOM      4  C   UNL     1      43.108  -0.202  24.738  1.00  0.00     0.053 C 
BRANCH   4   5
ATOM      5  C   UNL     1      44.502   0.232  25.070  1.00  0.00     0.041 C 
ATOM      6  O   UNL     1      44.734   1.427  25.394  1.00  0.00    -0.550 OA
ATOM      7  O   UNL     1      45.541  -0.690  25.056  1.00  0.00    -0.550 OA
ENDBRANCH   4   5
ENDBRANCH   3   4
ENDBRANCH   2   3
ENDBRANCH   1   2
BRANCH   1   8
ATOM      8  C   UNL     1      42.743   2.613  20.844  1.00  0.00     0.000 C 
BRANCH   8   9
ATOM      9  C   UNL     1      41.950   2.436  19.536  1.00  0.00    -0.000 C 
BRANCH   9  10
ATOM     10  C   UNL     1      42.496   1.299  18.656  1.00  0.00    -0.000 C 
BRANCH  10  11
ATOM     11  C   UNL     1      41.503   0.134  18.514  1.00  0.00    -0.000 C 
BRANCH  11  12
ATOM     12  C   UNL     1      41.856  -1.058  19.415  1.00  0.00    -0.003 C 
ATOM     13  C   UNL     1      40.609  -1.623  20.090  1.00  0.00     0.004 C 
ENDBRANCH  11  12
ENDBRANCH  10  11
ENDBRANCH   9  10
ENDBRANCH   8   9
ENDBRANCH   1   8
TORSDOF 9
ENDMDL
MODEL 4
REMARK VINA RESULT:    -3.993     14.082     15.843
REMARK INTER + INTRA:          -6.957
REMARK INTER:                  -5.984
REMARK INTRA:                  -0.973
REMARK UNBOUND:                -0.862
REMARK SMILES CCCCCCCCCCC(=O)[O-]
REMARK SMILES IDX 7 1 8 2 9 3 10 4 11 5 12 6 13 7 6 8 5 9 4 10 3 11 2 12 1 13
REMARK H PARENT
REMARK Flexibility Score: inf
ROOT
ATOM      1  C   UNL     1      41.551  -0.349  20.481  1.00  0.00     0.000 C 
ENDROOT
BRANCH   1   2
ATOM      2  C   UNL     1      42.790  -0.540  21.377  1.00  0.00     0.000 C 
BRANCH   2   3
ATOM      3  C   UNL     1      42.678   0.077  22.785  1.00  0.00     0.006 C 
BRANCH   3   4
ATOM      4  C   UNL     1      43.428  -0.699  23.880  1.00  0.00     0.053 C 
BRANCH   4   5
ATOM      5  C   UNL     1      44.741  -0.063  24.219  1.00  0.00     0.041 C 
ATOM      6  O   UNL     1      45.025   1.080  23.774  1.00  0.00    -0.550 OA
ATOM      7  O   UNL     1      45.637  -0.718  25.055  1.00  0.00    -0.550 OA
ENDBRANCH   4   5
ENDBRANCH   3   4
ENDBRANCH   2   3
ENDBRANCH   1   2
BRANCH   1   8
ATOM      8  C   UNL     1      41.767  -0.658  18.986  1.00  0.00     0.000 C 
BRANCH   8   9
ATOM      9  C   UNL     1      41.422   0.493  18.024  1.00  0.00    -0.000 C 
BRANCH   9  10
ATOM     10  C   UNL     1      41.692   1.880  18.633  1.00  0.00    -0.000 C 
BRANCH  10  11
ATOM     11  C   UNL     1      43.180   2.262  18.594  1.00  0.00    -0.000 C 
BRANCH  11  12
ATOM     12  C   UNL     1      43.684   2.819  19.933  1.00  0.00    -0.003 C 
ATOM     13  C   UNL     1      42.521   3.280  20.808  1.00  0.00     0.004 C 
ENDBRANCH  11  12
ENDBRANCH  10  11
ENDBRANCH   9  10
ENDBRANCH   8   9
ENDBRANCH   1   8
TORSDOF 9
ENDMDL
MODEL 5
REMARK VINA RESULT:    -3.987      2.461      4.738
REMARK INTER + INTRA:          -6.947
REMARK INTER:                  -6.161
REMARK INTRA:                  -0.787
REMARK UNBOUND:                -0.862
REMARK SMILES CCCCCCCCCCC(=O)[O-]
REMARK SMILES IDX 7 1 8 2 9 3 10 4 11 5 12 6 13 7 6 8 5 9 4 10 3 11 2 12 1 13
REMARK H PARENT
REMARK Flexibility Score: inf
ROOT
ATOM      1  C   UNL     1      40.206 -13.333  28.933  1.00  0.00     0.000 C 
ENDROOT
BRANCH   1   2
ATOM      2  C   UNL     1      41.124 -12.269  28.301  1.00  0.00     0.000 C 
BRANCH   2   3
ATOM      3  C   UNL     1      40.427 -11.307  27.318  1.00  0.00     0.006 C 
BRANCH   3   4
ATOM      4  C   UNL     1      41.284 -10.906  26.106  1.00  0.00     0.053 C 
BRANCH   4   5
ATOM      5  C   UNL     1      40.716  -9.723  25.385  1.00  0.00     0.041 C 
ATOM      6  O   UNL     1      41.268  -9.294  24.337  1.00  0.00    -0.550 OA
ATOM      7  O   UNL     1      39.557  -9.113  25.850  1.00  0.00    -0.550 OA
ENDBRANCH   4   5
ENDBRANCH   3   4
ENDBRANCH   2   3
ENDBRANCH   1   2
BRANCH   1   8
ATOM      8  C   UNL     1      39.803 -13.066  30.397  1.00  0.00     0.000 C 
BRANCH   8   9
ATOM      9  C   UNL     1      38.498 -12.270  30.581  1.00  0.00    -0.000 C 
BRANCH   9  10
ATOM     10  C   UNL     1      37.428 -12.629  29.536  1.00  0.00    -0.000 C 
BRANCH  10  11
ATOM     11  C   UNL     1      36.945 -11.405  28.743  1.00  0.00    -0.000 C 
BRANCH  11  12
ATOM     12  C   UNL     1      37.021 -11.615  27.224  1.00  0.00    -0.003 C 
ATOM     13  C   UNL     1      36.263 -10.521  26.479  1.00  0.00     0.004 C 
ENDBRANCH  11  12
ENDBRANCH  10  11
ENDBRANCH   9  10
ENDBRANCH   8   9
ENDBRANCH   1   8
TORSDOF 9
ENDMDL
MODEL 6
REMARK VINA RESULT:    -3.940     14.413     15.736
REMARK INTER + INTRA:          -6.876
REMARK INTER:                  -6.512
REMARK INTRA:                  -0.364
REMARK UNBOUND:                -0.862
REMARK SMILES CCCCCCCCCCC(=O)[O-]
REMARK SMILES IDX 7 1 8 2 9 3 10 4 11 5 12 6 13 7 6 8 5 9 4 10 3 11 2 12 1 13
REMARK H PARENT
REMARK Flexibility Score: inf
ROOT
ATOM      1  C   UNL     1      46.583   2.019  22.114  1.00  0.00     0.000 C 
ENDROOT
BRANCH   1   2
ATOM      2  C   UNL     1      45.750   0.819  22.608  1.00  0.00     0.000 C 
BRANCH   2   3
ATOM      3  C   UNL     1      45.261   0.922  24.067  1.00  0.00     0.006 C 
BRANCH   3   4
ATOM      4  C   UNL     1      45.226  -0.417  24.821  1.00  0.00     0.053 C 
BRANCH   4   5
ATOM      5  C   UNL     1      43.849  -1.003  24.861  1.00  0.00     0.041 C 
ATOM      6  O   UNL     1      43.683  -2.214  25.161  1.00  0.00    -0.550 OA
ATOM      7  O   UNL     1      42.743  -0.201  24.601  1.00  0.00    -0.550 OA
ENDBRANCH   4   5
ENDBRANCH   3   4
ENDBRANCH   2   3
ENDBRANCH   1   2
BRANCH   1   8
ATOM      8  C   UNL     1      47.987   1.668  21.583  1.00  0.00     0.000 C 
BRANCH   8   9
ATOM      9  C   UNL     1      48.243   0.167  21.353  1.00  0.00    -0.000 C 
BRANCH   9  10
ATOM     10  C   UNL     1      49.685  -0.250  21.687  1.00  0.00    -0.000 C 
BRANCH  10  11
ATOM     11  C   UNL     1      50.664   0.041  20.539  1.00  0.00    -0.000 C 
BRANCH  11  12
ATOM     12  C   UNL     1      51.580  -1.151  20.225  1.00  0.00    -0.003 C 
ATOM     13  C   UNL     1      53.038  -0.711  20.126  1.00  0.00     0.004 C 
ENDBRANCH  11  12
ENDBRANCH  10  11
ENDBRANCH   9  10
ENDBRANCH   8   9
ENDBRANCH   1   8
TORSDOF 9
ENDMDL
MODEL 7
REMARK VINA RESULT:    -3.928      2.183      3.829
REMARK INTER + INTRA:          -6.857
REMARK INTER:                  -5.904
REMARK INTRA:                  -0.953
REMARK UNBOUND:                -0.862
REMARK SMILES CCCCCCCCCCC(=O)[O-]
REMARK SMILES IDX 7 1 8 2 9 3 10 4 11 5 12 6 13 7 6 8 5 9 4 10 3 11 2 12 1 13
REMARK H PARENT
REMARK Flexibility Score: inf
ROOT
ATOM      1  C   UNL     1      37.758 -12.118  29.487  1.00  0.00     0.000 C 
ENDROOT
BRANCH   1   2
ATOM      2  C   UNL     1      38.184 -12.225  28.010  1.00  0.00     0.000 C 
BRANCH   2   3
ATOM      3  C   UNL     1      38.272 -10.882  27.258  1.00  0.00     0.006 C 
BRANCH   3   4
ATOM      4  C   UNL     1      39.706 -10.381  27.018  1.00  0.00     0.053 C 
BRANCH   4   5
ATOM      5  C   UNL     1      39.794  -9.483  25.823  1.00  0.00     0.041 C 
ATOM      6  O   UNL     1      38.767  -8.890  25.399  1.00  0.00    -0.550 OA
ATOM      7  O   UNL     1      41.017  -9.272  25.198  1.00  0.00    -0.550 OA
ENDBRANCH   4   5
ENDBRANCH   3   4
ENDBRANCH   2   3
ENDBRANCH   1   2
BRANCH   1   8
ATOM      8  C   UNL     1      38.789 -12.639  30.507  1.00  0.00     0.000 C 
BRANCH   8   9
ATOM      9  C   UNL     1      40.257 -12.304  30.183  1.00  0.00    -0.000 C 
BRANCH   9  10
ATOM     10  C   UNL     1      41.105 -13.554  29.894  1.00  0.00    -0.000 C 
BRANCH  10  11
ATOM     11  C   UNL     1      42.282 -13.262  28.950  1.00  0.00    -0.000 C 
BRANCH  11  12
ATOM     12  C   UNL     1      41.862 -13.227  27.473  1.00  0.00    -0.003 C 
ATOM     13  C   UNL     1      42.811 -12.358  26.653  1.00  0.00     0.004 C 
ENDBRANCH  11  12
ENDBRANCH  10  11
ENDBRANCH   9  10
ENDBRANCH   8   9
ENDBRANCH   1   8
TORSDOF 9
ENDMDL
MODEL 8
REMARK VINA RESULT:    -3.924      2.719      4.422
REMARK INTER + INTRA:          -6.851
REMARK INTER:                  -6.236
REMARK INTRA:                  -0.615
REMARK UNBOUND:                -0.862
REMARK SMILES CCCCCCCCCCC(=O)[O-]
REMARK SMILES IDX 7 1 8 2 9 3 10 4 11 5 12 6 13 7 6 8 5 9 4 10 3 11 2 12 1 13
REMARK H PARENT
REMARK Flexibility Score: inf
ROOT
ATOM      1  C   UNL     1      36.579 -11.066  26.515  1.00  0.00     0.000 C 
ENDROOT
BRANCH   1   2
ATOM      2  C   UNL     1      36.421  -9.666  25.890  1.00  0.00     0.000 C 
BRANCH   2   3
ATOM      3  C   UNL     1      37.611  -9.199  25.028  1.00  0.00     0.006 C 
BRANCH   3   4
ATOM      4  C   UNL     1      38.803  -8.656  25.832  1.00  0.00     0.053 C 
BRANCH   4   5
ATOM      5  C   UNL     1      39.979  -9.583  25.788  1.00  0.00     0.041 C 
ATOM      6  O   UNL     1      40.109 -10.484  26.658  1.00  0.00    -0.550 OA
ATOM      7  O   UNL     1      40.913  -9.475  24.765  1.00  0.00    -0.550 OA
ENDBRANCH   4   5
ENDBRANCH   3   4
ENDBRANCH   2   3
ENDBRANCH   1   2
BRANCH   1   8
ATOM      8  C   UNL     1      36.590 -11.099  28.056  1.00  0.00     0.000 C 
BRANCH   8   9
ATOM      9  C   UNL     1      37.657 -12.014  28.684  1.00  0.00    -0.000 C 
BRANCH   9  10
ATOM     10  C   UNL     1      37.447 -12.230  30.192  1.00  0.00    -0.000 C 
BRANCH  10  11
ATOM     11  C   UNL     1      38.761 -12.518  30.935  1.00  0.00    -0.000 C 
BRANCH  11  12
ATOM     12  C   UNL     1      39.928 -12.811  29.982  1.00  0.00    -0.003 C 
ATOM     13  C   UNL     1      41.082 -11.840  30.213  1.00  0.00     0.004 C 
ENDBRANCH  11  12
ENDBRANCH  10  11
ENDBRANCH   9  10
ENDBRANCH   8   9
ENDBRANCH   1   8
TORSDOF 9
ENDMDL
MODEL 9
REMARK VINA RESULT:    -3.847     13.154     14.475
REMARK INTER + INTRA:          -6.734
REMARK INTER:                  -5.621
REMARK INTRA:                  -1.113
REMARK UNBOUND:                -0.862
REMARK SMILES CCCCCCCCCCC(=O)[O-]
REMARK SMILES IDX 7 1 8 2 9 3 10 4 11 5 12 6 13 7 6 8 5 9 4 10 3 11 2 12 1 13
REMARK H PARENT
REMARK Flexibility Score: inf
ROOT
ATOM      1  C   UNL     1      44.026   2.401  22.476  1.00  0.00     0.000 C 
ENDROOT
BRANCH   1   2
ATOM      2  C   UNL     1      43.622   1.490  21.301  1.00  0.00     0.000 C 
BRANCH   2   3
ATOM      3  C   UNL     1      42.276   0.759  21.476  1.00  0.00     0.006 C 
BRANCH   3   4
ATOM      4  C   UNL     1      42.319  -0.741  21.139  1.00  0.00     0.053 C 
BRANCH   4   5
ATOM      5  C   UNL     1      41.412  -1.085  19.999  1.00  0.00     0.041 C 
ATOM      6  O   UNL     1      40.455  -1.886  20.170  1.00  0.00    -0.550 OA
ATOM      7  O   UNL     1      41.601  -0.495  18.755  1.00  0.00    -0.550 OA
ENDBRANCH   4   5
ENDBRANCH   3   4
ENDBRANCH   2   3
ENDBRANCH   1   2
BRANCH   1   8
ATOM      8  C   UNL     1      42.968   2.547  23.587  1.00  0.00     0.000 C 
BRANCH   8   9
ATOM      9  C   UNL     1      43.532   2.758  25.004  1.00  0.00    -0.000 C 
BRANCH   9  10
ATOM     10  C   UNL     1      43.810   1.435  25.738  1.00  0.00    -0.000 C 
BRANCH  10  11
ATOM     11  C   UNL     1      42.978   0.267  25.185  1.00  0.00    -0.000 C 
BRANCH  11  12
ATOM     12  C   UNL     1      43.842  -0.931  24.767  1.00  0.00    -0.003 C 
ATOM     13  C   UNL     1      45.327  -0.608  24.895  1.00  0.00     0.004 C 
ENDBRANCH  11  12
ENDBRANCH  10  11
ENDBRANCH   9  10
ENDBRANCH   8   9
ENDBRANCH   1   8
TORSDOF 9
ENDMDL
