MODEL 1
REMARK VINA RESULT:    -6.565      0.000      0.000
REMARK INTER + INTRA:          -7.681
REMARK INTER:                  -7.333
REMARK INTRA:                  -0.348
REMARK UNBOUND:                -0.348
REMARK SMILES C=C(C)[C@H]1CC[C@@]2(C(=O)[O-])CC[C@]3(C)[C@H](CC[C@@H]4[C@]5(C)CCC(=O)C(C)(C)[C@@H]5CC[C@@]43C)[C@H]12
REMARK SMILES IDX 7 1 6 2 33 3 11 4 5 5 15 6 4 7 12 8 16 9 13 10 17 11 31 12
REMARK SMILES IDX 14 13 18 14 30 15 32 16 19 17 29 18 21 19 20 20 28 21 22 22
REMARK SMILES IDX 25 23 23 24 26 25 27 26 24 27 8 28 9 29 10 30 2 31 3 32 1 33
REMARK H PARENT
REMARK Flexibility Score: inf
ROOT
ATOM      1  C   UNL     1      24.671  30.675  29.833  1.00  0.00     0.014 C 
ATOM      2  C   UNL     1      23.360  31.482  29.715  1.00  0.00     0.014 C 
ATOM      3  C   UNL     1      25.645  31.810  30.148  1.00  0.00     0.012 C 
ATOM      4  C   UNL     1      25.107  29.956  28.509  1.00  0.00     0.014 C 
ATOM      5  C   UNL     1      23.463  32.572  30.816  1.00  0.00     0.009 C 
ATOM      6  C   UNL     1      27.146  31.445  30.240  1.00  0.00     0.000 C 
ATOM      7  C   UNL     1      24.959  32.706  31.181  1.00  0.00     0.018 C 
ATOM      8  C   UNL     1      26.575  30.245  28.059  1.00  0.00     0.008 C 
ATOM      9  C   UNL     1      27.839  31.312  31.581  1.00  0.00     0.005 C 
ATOM     10  C   UNL     1      27.612  30.315  29.250  1.00  0.00    -0.024 C 
ATOM     11  C   UNL     1      29.347  31.547  31.371  1.00  0.00     0.005 C 
ATOM     12  C   UNL     1      29.122  30.681  28.826  1.00  0.00    -0.024 C 
ATOM     13  C   UNL     1      27.598  28.881  29.892  1.00  0.00     0.012 C 
ATOM     14  C   UNL     1      30.049  30.829  30.137  1.00  0.00     0.002 C 
ATOM     15  C   UNL     1      29.154  32.011  27.968  1.00  0.00     0.008 C 
ATOM     16  C   UNL     1      29.702  29.530  27.935  1.00  0.00     0.012 C 
ATOM     17  C   UNL     1      31.547  31.372  29.830  1.00  0.00    -0.025 C 
ATOM     18  C   UNL     1      30.134  33.083  28.454  1.00  0.00     0.006 C 
ATOM     19  C   UNL     1      32.235  31.852  31.180  1.00  0.00     0.015 C 
ATOM     20  C   UNL     1      32.430  30.166  29.347  1.00  0.00     0.012 C 
ATOM     21  C   UNL     1      31.546  32.499  28.677  1.00  0.00     0.008 C 
ATOM     22  C   UNL     1      33.489  32.693  31.005  1.00  0.00     0.077 C 
ATOM     23  C   UNL     1      32.716  33.585  28.714  1.00  0.00     0.027 C 
ATOM     24  C   UNL     1      33.120  33.851  30.153  1.00  0.00     0.138 C 
ATOM     25  C   UNL     1      32.352  34.932  28.030  1.00  0.00     0.020 C 
ATOM     26  C   UNL     1      33.953  33.056  27.935  1.00  0.00     0.020 C 
ATOM     27  O   UNL     1      33.008  34.967  30.658  1.00  0.00    -0.299 OA
ENDROOT
BRANCH   1  28
ATOM     28  C   UNL     1      24.472  29.673  30.970  1.00  0.00     0.048 C 
ATOM     29  O   UNL     1      23.759  28.647  30.785  1.00  0.00    -0.550 OA
ATOM     30  O   UNL     1      25.020  29.883  32.228  1.00  0.00    -0.550 OA
ENDBRANCH   1  28
BRANCH   7  31
ATOM     31  C   UNL     1      25.462  34.148  31.153  1.00  0.00    -0.077 C 
ATOM     32  C   UNL     1      26.376  34.673  32.235  1.00  0.00     0.039 C 
ATOM     33  C   UNL     1      25.051  34.978  30.184  1.00  0.00     0.008 C 
ENDBRANCH   7  31
TORSDOF 2
ENDMDL
MODEL 2
REMARK VINA RESULT:    -6.365      6.361     10.359
REMARK INTER + INTRA:          -7.457
REMARK INTER:                  -7.755
REMARK INTRA:                   0.297
REMARK UNBOUND:                -0.348
REMARK SMILES C=C(C)[C@H]1CC[C@@]2(C(=O)[O-])CC[C@]3(C)[C@H](CC[C@@H]4[C@]5(C)CCC(=O)C(C)(C)[C@@H]5CC[C@@]43C)[C@H]12
REMARK SMILES IDX 7 1 6 2 33 3 11 4 5 5 15 6 4 7 12 8 16 9 13 10 17 11 31 12
REMARK SMILES IDX 14 13 18 14 30 15 32 16 19 17 29 18 21 19 20 20 28 21 22 22
REMARK SMILES IDX 25 23 23 24 26 25 27 26 24 27 8 28 9 29 10 30 2 31 3 32 1 33
REMARK H PARENT
REMARK Flexibility Score: inf
ROOT
ATOM      1  C   UNL     1      16.956  26.277  29.308  1.00  0.00     0.014 C 
ATOM      2  C   UNL     1      17.109  24.746  29.182  1.00  0.00     0.014 C 
ATOM      3  C   UNL     1      18.425  26.691  29.229  1.00  0.00     0.012 C 
ATOM      4  C   UNL     1      16.345  26.754  30.672  1.00  0.00     0.014 C 
ATOM      5  C   UNL     1      18.257  24.544  28.157  1.00  0.00     0.009 C 
ATOM      6  C   UNL     1      18.746  28.191  29.431  1.00  0.00     0.000 C 
ATOM      7  C   UNL     1      19.056  25.867  28.106  1.00  0.00     0.018 C 
ATOM      8  C   UNL     1      17.177  27.847  31.417  1.00  0.00     0.008 C 
ATOM      9  C   UNL     1      19.074  29.088  28.255  1.00  0.00     0.005 C 
ATOM     10  C   UNL     1      17.817  28.932  30.462  1.00  0.00    -0.024 C 
ATOM     11  C   UNL     1      19.903  30.279  28.772  1.00  0.00     0.005 C 
ATOM     12  C   UNL     1      18.739  30.031  31.192  1.00  0.00    -0.024 C 
ATOM     13  C   UNL     1      16.597  29.658  29.790  1.00  0.00     0.012 C 
ATOM     14  C   UNL     1      19.416  31.006  30.101  1.00  0.00     0.002 C 
ATOM     15  C   UNL     1      19.849  29.330  32.077  1.00  0.00     0.008 C 
ATOM     16  C   UNL     1      17.850  30.898  32.149  1.00  0.00     0.012 C 
ATOM     17  C   UNL     1      20.506  32.037  30.719  1.00  0.00    -0.025 C 
ATOM     18  C   UNL     1      21.284  29.806  31.831  1.00  0.00     0.006 C 
ATOM     19  C   UNL     1      21.383  32.661  29.550  1.00  0.00     0.015 C 
ATOM     20  C   UNL     1      19.743  33.264  31.335  1.00  0.00     0.012 C 
ATOM     21  C   UNL     1      21.385  31.346  31.881  1.00  0.00     0.008 C 
ATOM     22  C   UNL     1      22.651  33.368  29.999  1.00  0.00     0.077 C 
ATOM     23  C   UNL     1      22.862  31.907  32.111  1.00  0.00     0.027 C 
ATOM     24  C   UNL     1      23.437  32.389  30.792  1.00  0.00     0.138 C 
ATOM     25  C   UNL     1      23.839  30.879  32.746  1.00  0.00     0.020 C 
ATOM     26  C   UNL     1      22.824  33.100  33.108  1.00  0.00     0.020 C 
ATOM     27  O   UNL     1      24.449  31.886  30.307  1.00  0.00    -0.299 OA
ENDROOT
BRANCH   1  28
ATOM     28  C   UNL     1      16.101  26.734  28.126  1.00  0.00     0.048 C 
ATOM     29  O   UNL     1      14.979  27.275  28.334  1.00  0.00    -0.550 OA
ATOM     30  O   UNL     1      16.506  26.527  26.814  1.00  0.00    -0.550 OA
ENDBRANCH   1  28
BRANCH   7  31
ATOM     31  C   UNL     1      20.561  25.672  28.276  1.00  0.00    -0.077 C 
ATOM     32  C   UNL     1      21.330  26.442  29.324  1.00  0.00     0.039 C 
ATOM     33  C   UNL     1      21.222  24.844  27.456  1.00  0.00     0.008 C 
ENDBRANCH   7  31
TORSDOF 2
ENDMDL
MODEL 3
REMARK VINA RESULT:    -6.170      1.831      4.109
REMARK INTER + INTRA:          -7.240
REMARK INTER:                  -6.857
REMARK INTRA:                  -0.383
REMARK UNBOUND:                -0.348
REMARK SMILES C=C(C)[C@H]1CC[C@@]2(C(=O)[O-])CC[C@]3(C)[C@H](CC[C@@H]4[C@]5(C)CCC(=O)C(C)(C)[C@@H]5CC[C@@]43C)[C@H]12
REMARK SMILES IDX 7 1 6 2 33 3 11 4 5 5 15 6 4 7 12 8 16 9 13 10 17 11 31 12
REMARK SMILES IDX 14 13 18 14 30 15 32 16 19 17 29 18 21 19 20 20 28 21 22 22
REMARK SMILES IDX 25 23 23 24 26 25 27 26 24 27 8 28 9 29 10 30 2 31 3 32 1 33
REMARK H PARENT
REMARK Flexibility Score: inf
ROOT
ATOM      1  C   UNL     1      24.010  29.714  31.119  1.00  0.00     0.014 C 
ATOM      2  C   UNL     1      23.376  28.326  30.882  1.00  0.00     0.014 C 
ATOM      3  C   UNL     1      25.261  29.579  30.250  1.00  0.00     0.012 C 
ATOM      4  C   UNL     1      24.427  29.988  32.606  1.00  0.00     0.014 C 
ATOM      5  C   UNL     1      23.649  28.014  29.386  1.00  0.00     0.009 C 
ATOM      6  C   UNL     1      26.273  30.748  30.286  1.00  0.00     0.000 C 
ATOM      7  C   UNL     1      24.819  28.923  28.941  1.00  0.00     0.018 C 
ATOM      8  C   UNL     1      25.903  30.462  32.797  1.00  0.00     0.008 C 
ATOM      9  C   UNL     1      26.352  31.752  29.153  1.00  0.00     0.005 C 
ATOM     10  C   UNL     1      26.408  31.462  31.681  1.00  0.00    -0.024 C 
ATOM     11  C   UNL     1      27.759  32.378  29.159  1.00  0.00     0.005 C 
ATOM     12  C   UNL     1      27.948  31.914  31.810  1.00  0.00    -0.024 C 
ATOM     13  C   UNL     1      25.493  32.731  31.822  1.00  0.00     0.012 C 
ATOM     14  C   UNL     1      28.365  32.839  30.556  1.00  0.00     0.002 C 
ATOM     15  C   UNL     1      28.895  30.649  31.907  1.00  0.00     0.008 C 
ATOM     16  C   UNL     1      28.134  32.746  33.125  1.00  0.00     0.012 C 
ATOM     17  C   UNL     1      29.945  33.201  30.496  1.00  0.00    -0.025 C 
ATOM     18  C   UNL     1      30.066  30.627  30.920  1.00  0.00     0.006 C 
ATOM     19  C   UNL     1      30.317  33.762  29.057  1.00  0.00     0.015 C 
ATOM     20  C   UNL     1      30.223  34.402  31.470  1.00  0.00     0.012 C 
ATOM     21  C   UNL     1      30.858  31.952  30.953  1.00  0.00     0.008 C 
ATOM     22  C   UNL     1      31.804  33.817  28.747  1.00  0.00     0.077 C 
ATOM     23  C   UNL     1      32.330  31.861  30.341  1.00  0.00     0.027 C 
ATOM     24  C   UNL     1      32.339  32.445  28.940  1.00  0.00     0.138 C 
ATOM     25  C   UNL     1      32.909  30.420  30.295  1.00  0.00     0.020 C 
ATOM     26  C   UNL     1      33.321  32.668  31.227  1.00  0.00     0.020 C 
ATOM     27  O   UNL     1      32.637  31.765  27.960  1.00  0.00    -0.299 OA
ENDROOT
BRANCH   1  28
ATOM     28  C   UNL     1      23.000  30.751  30.625  1.00  0.00     0.048 C 
ATOM     29  O   UNL     1      21.990  31.028  31.329  1.00  0.00    -0.550 OA
ATOM     30  O   UNL     1      23.140  31.369  29.390  1.00  0.00    -0.550 OA
ENDBRANCH   1  28
BRANCH   7  31
ATOM     31  C   UNL     1      25.943  28.163  28.241  1.00  0.00    -0.077 C 
ATOM     32  C   UNL     1      26.864  27.249  29.016  1.00  0.00     0.039 C 
ATOM     33  C   UNL     1      26.152  28.342  26.930  1.00  0.00     0.008 C 
ENDBRANCH   7  31
TORSDOF 2
ENDMDL
MODEL 4
REMARK VINA RESULT:    -6.134      6.654      9.696
REMARK INTER + INTRA:          -7.200
REMARK INTER:                  -6.845
REMARK INTRA:                  -0.355
REMARK UNBOUND:                -0.348
REMARK SMILES C=C(C)[C@H]1CC[C@@]2(C(=O)[O-])CC[C@]3(C)[C@H](CC[C@@H]4[C@]5(C)CCC(=O)C(C)(C)[C@@H]5CC[C@@]43C)[C@H]12
REMARK SMILES IDX 7 1 6 2 33 3 11 4 5 5 15 6 4 7 12 8 16 9 13 10 17 11 31 12
REMARK SMILES IDX 14 13 18 14 30 15 32 16 19 17 29 18 21 19 20 20 28 21 22 22
REMARK SMILES IDX 25 23 23 24 26 25 27 26 24 27 8 28 9 29 10 30 2 31 3 32 1 33
REMARK H PARENT
REMARK Flexibility Score: inf
ROOT
ATOM      1  C   UNL     1      17.184  26.924  29.108  1.00  0.00     0.014 C 
ATOM      2  C   UNL     1      15.709  26.818  28.663  1.00  0.00     0.014 C 
ATOM      3  C   UNL     1      17.159  28.308  29.758  1.00  0.00     0.012 C 
ATOM      4  C   UNL     1      18.216  26.913  27.928  1.00  0.00     0.014 C 
ATOM      5  C   UNL     1      14.899  27.483  29.808  1.00  0.00     0.009 C 
ATOM      6  C   UNL     1      18.509  28.874  30.260  1.00  0.00     0.000 C 
ATOM      7  C   UNL     1      15.883  28.377  30.598  1.00  0.00     0.018 C 
ATOM      8  C   UNL     1      19.240  28.094  27.940  1.00  0.00     0.008 C 
ATOM      9  C   UNL     1      18.860  28.872  31.734  1.00  0.00     0.005 C 
ATOM     10  C   UNL     1      19.755  28.484  29.383  1.00  0.00    -0.024 C 
ATOM     11  C   UNL     1      19.900  29.981  31.984  1.00  0.00     0.005 C 
ATOM     12  C   UNL     1      20.756  29.744  29.437  1.00  0.00    -0.024 C 
ATOM     13  C   UNL     1      20.511  27.211  29.908  1.00  0.00     0.012 C 
ATOM     14  C   UNL     1      21.117  30.105  30.966  1.00  0.00     0.002 C 
ATOM     15  C   UNL     1      20.120  30.995  28.704  1.00  0.00     0.008 C 
ATOM     16  C   UNL     1      22.083  29.381  28.686  1.00  0.00     0.012 C 
ATOM     17  C   UNL     1      21.977  31.470  31.140  1.00  0.00    -0.025 C 
ATOM     18  C   UNL     1      20.107  32.294  29.516  1.00  0.00     0.006 C 
ATOM     19  C   UNL     1      21.942  31.941  32.657  1.00  0.00     0.015 C 
ATOM     20  C   UNL     1      23.490  31.149  30.864  1.00  0.00     0.012 C 
ATOM     21  C   UNL     1      21.499  32.609  30.103  1.00  0.00     0.008 C 
ATOM     22  C   UNL     1      22.407  33.368  32.902  1.00  0.00     0.077 C 
ATOM     23  C   UNL     1      21.706  34.130  30.542  1.00  0.00     0.027 C 
ATOM     24  C   UNL     1      21.571  34.250  32.049  1.00  0.00     0.138 C 
ATOM     25  C   UNL     1      20.726  35.125  29.862  1.00  0.00     0.020 C 
ATOM     26  C   UNL     1      23.126  34.611  30.126  1.00  0.00     0.020 C 
ATOM     27  O   UNL     1      20.697  34.944  32.565  1.00  0.00    -0.299 OA
ENDROOT
BRANCH   1  28
ATOM     28  C   UNL     1      17.436  25.769  30.078  1.00  0.00     0.048 C 
ATOM     29  O   UNL     1      17.504  24.586  29.641  1.00  0.00    -0.550 OA
ATOM     30  O   UNL     1      17.547  25.980  31.445  1.00  0.00    -0.550 OA
ENDBRANCH   1  28
BRANCH   7  31
ATOM     31  C   UNL     1      15.375  29.803  30.802  1.00  0.00    -0.077 C 
ATOM     32  C   UNL     1      14.948  30.288  32.167  1.00  0.00     0.039 C 
ATOM     33  C   UNL     1      15.258  30.625  29.750  1.00  0.00     0.008 C 
ENDBRANCH   7  31
TORSDOF 2
ENDMDL
MODEL 5
REMARK VINA RESULT:    -6.123      6.325     12.004
REMARK INTER + INTRA:          -7.188
REMARK INTER:                  -6.970
REMARK INTRA:                  -0.218
REMARK UNBOUND:                -0.348
REMARK SMILES C=C(C)[C@H]1CC[C@@]2(C(=O)[O-])CC[C@]3(C)[C@H](CC[C@@H]4[C@]5(C)CCC(=O)C(C)(C)[C@@H]5CC[C@@]43C)[C@H]12
REMARK SMILES IDX 7 1 6 2 33 3 11 4 5 5 15 6 4 7 12 8 16 9 13 10 17 11 31 12
REMARK SMILES IDX 14 13 18 14 30 15 32 16 19 17 29 18 21 19 20 20 28 21 22 22
REMARK SMILES IDX 25 23 23 24 26 25 27 26 24 27 8 28 9 29 10 30 2 31 3 32 1 33
REMARK H PARENT
REMARK Flexibility Score: inf
ROOT
ATOM      1  C   UNL     1      21.283  33.062  30.536  1.00  0.00     0.014 C 
ATOM      2  C   UNL     1      22.607  33.307  29.780  1.00  0.00     0.014 C 
ATOM      3  C   UNL     1      21.298  31.534  30.596  1.00  0.00     0.012 C 
ATOM      4  C   UNL     1      20.003  33.547  29.770  1.00  0.00     0.014 C 
ATOM      5  C   UNL     1      23.585  32.237  30.334  1.00  0.00     0.009 C 
ATOM      6  C   UNL     1      20.053  30.841  31.198  1.00  0.00     0.000 C 
ATOM      7  C   UNL     1      22.723  31.123  30.972  1.00  0.00     0.018 C 
ATOM      8  C   UNL     1      18.879  32.472  29.621  1.00  0.00     0.008 C 
ATOM      9  C   UNL     1      20.073  30.276  32.604  1.00  0.00     0.005 C 
ATOM     10  C   UNL     1      18.687  31.561  30.899  1.00  0.00    -0.024 C 
ATOM     11  C   UNL     1      19.000  29.175  32.698  1.00  0.00     0.005 C 
ATOM     12  C   UNL     1      17.585  30.396  30.753  1.00  0.00    -0.024 C 
ATOM     13  C   UNL     1      18.240  32.543  32.041  1.00  0.00     0.012 C 
ATOM     14  C   UNL     1      17.567  29.476  32.077  1.00  0.00     0.002 C 
ATOM     15  C   UNL     1      17.870  29.517  29.467  1.00  0.00     0.008 C 
ATOM     16  C   UNL     1      16.169  31.044  30.578  1.00  0.00     0.012 C 
ATOM     17  C   UNL     1      16.617  28.166  31.960  1.00  0.00    -0.025 C 
ATOM     18  C   UNL     1      17.924  28.004  29.705  1.00  0.00     0.006 C 
ATOM     19  C   UNL     1      16.962  27.142  33.125  1.00  0.00     0.015 C 
ATOM     20  C   UNL     1      15.132  28.594  32.242  1.00  0.00     0.012 C 
ATOM     21  C   UNL     1      16.688  27.510  30.488  1.00  0.00     0.008 C 
ATOM     22  C   UNL     1      16.404  25.740  32.942  1.00  0.00     0.077 C 
ATOM     23  C   UNL     1      16.413  25.941  30.372  1.00  0.00     0.027 C 
ATOM     24  C   UNL     1      16.895  25.244  31.632  1.00  0.00     0.138 C 
ATOM     25  C   UNL     1      17.073  25.272  29.135  1.00  0.00     0.020 C 
ATOM     26  C   UNL     1      14.888  25.684  30.208  1.00  0.00     0.020 C 
ATOM     27  O   UNL     1      17.779  24.390  31.597  1.00  0.00    -0.299 OA
ENDROOT
BRANCH   1  28
ATOM     28  C   UNL     1      21.414  33.754  31.893  1.00  0.00     0.048 C 
ATOM     29  O   UNL     1      21.589  35.003  31.945  1.00  0.00    -0.550 OA
ATOM     30  O   UNL     1      21.392  33.035  33.080  1.00  0.00    -0.550 OA
ENDBRANCH   1  28
BRANCH   7  31
ATOM     31  C   UNL     1      23.090  29.722  30.489  1.00  0.00    -0.077 C 
ATOM     32  C   UNL     1      22.346  29.074  29.344  1.00  0.00     0.039 C 
ATOM     33  C   UNL     1      24.052  29.031  31.117  1.00  0.00     0.008 C 
ENDBRANCH   7  31
TORSDOF 2
ENDMDL
MODEL 6
REMARK VINA RESULT:    -5.852      2.686      8.788
REMARK INTER + INTRA:          -6.884
REMARK INTER:                  -6.515
REMARK INTRA:                  -0.369
REMARK UNBOUND:                -0.348
REMARK SMILES C=C(C)[C@H]1CC[C@@]2(C(=O)[O-])CC[C@]3(C)[C@H](CC[C@@H]4[C@]5(C)CCC(=O)C(C)(C)[C@@H]5CC[C@@]43C)[C@H]12
REMARK SMILES IDX 7 1 6 2 33 3 11 4 5 5 15 6 4 7 12 8 16 9 13 10 17 11 31 12
REMARK SMILES IDX 14 13 18 14 30 15 32 16 19 17 29 18 21 19 20 20 28 21 22 22
REMARK SMILES IDX 25 23 23 24 26 25 27 26 24 27 8 28 9 29 10 30 2 31 3 32 1 33
REMARK H PARENT
REMARK Flexibility Score: inf
ROOT
ATOM      1  C   UNL     1      27.962  32.597  30.500  1.00  0.00     0.014 C 
ATOM      2  C   UNL     1      29.004  32.246  29.416  1.00  0.00     0.014 C 
ATOM      3  C   UNL     1      26.905  31.535  30.197  1.00  0.00     0.012 C 
ATOM      4  C   UNL     1      27.332  34.026  30.351  1.00  0.00     0.014 C 
ATOM      5  C   UNL     1      28.991  30.696  29.339  1.00  0.00     0.009 C 
ATOM      6  C   UNL     1      25.591  31.597  31.011  1.00  0.00     0.000 C 
ATOM      7  C   UNL     1      27.655  30.223  29.958  1.00  0.00     0.018 C 
ATOM      8  C   UNL     1      25.770  34.058  30.352  1.00  0.00     0.008 C 
ATOM      9  C   UNL     1      25.331  30.638  32.155  1.00  0.00     0.005 C 
ATOM     10  C   UNL     1      25.105  33.049  31.372  1.00  0.00    -0.024 C 
ATOM     11  C   UNL     1      23.807  30.524  32.353  1.00  0.00     0.005 C 
ATOM     12  C   UNL     1      23.496  33.007  31.346  1.00  0.00    -0.024 C 
ATOM     13  C   UNL     1      25.579  33.527  32.791  1.00  0.00     0.012 C 
ATOM     14  C   UNL     1      22.952  31.865  32.346  1.00  0.00     0.002 C 
ATOM     15  C   UNL     1      22.968  32.756  29.874  1.00  0.00     0.008 C 
ATOM     16  C   UNL     1      22.936  34.391  31.820  1.00  0.00     0.012 C 
ATOM     17  C   UNL     1      21.350  31.619  32.261  1.00  0.00    -0.025 C 
ATOM     18  C   UNL     1      21.965  31.609  29.724  1.00  0.00     0.006 C 
ATOM     19  C   UNL     1      20.977  30.246  32.969  1.00  0.00     0.015 C 
ATOM     20  C   UNL     1      20.627  32.714  33.124  1.00  0.00     0.012 C 
ATOM     21  C   UNL     1      20.812  31.726  30.745  1.00  0.00     0.008 C 
ATOM     22  C   UNL     1      19.581  29.722  32.669  1.00  0.00     0.077 C 
ATOM     23  C   UNL     1      19.506  30.887  30.371  1.00  0.00     0.027 C 
ATOM     24  C   UNL     1      19.466  29.611  31.193  1.00  0.00     0.138 C 
ATOM     25  C   UNL     1      19.394  30.526  28.864  1.00  0.00     0.020 C 
ATOM     26  C   UNL     1      18.234  31.725  30.684  1.00  0.00     0.020 C 
ATOM     27  O   UNL     1      19.488  28.502  30.663  1.00  0.00    -0.299 OA
ENDROOT
BRANCH   1  28
ATOM     28  C   UNL     1      28.659  32.435  31.851  1.00  0.00     0.048 C 
ATOM     29  O   UNL     1      29.439  33.337  32.267  1.00  0.00    -0.550 OA
ATOM     30  O   UNL     1      28.494  31.292  32.621  1.00  0.00    -0.550 OA
ENDBRANCH   1  28
BRANCH   7  31
ATOM     31  C   UNL     1      26.888  29.247  29.069  1.00  0.00    -0.077 C 
ATOM     32  C   UNL     1      26.098  29.736  27.878  1.00  0.00     0.039 C 
ATOM     33  C   UNL     1      26.872  27.941  29.372  1.00  0.00     0.008 C 
ENDBRANCH   7  31
TORSDOF 2
ENDMDL
MODEL 7
REMARK VINA RESULT:    -5.352      4.981      7.867
REMARK INTER + INTRA:          -6.326
REMARK INTER:                  -5.987
REMARK INTRA:                  -0.339
REMARK UNBOUND:                -0.348
REMARK SMILES C=C(C)[C@H]1CC[C@@]2(C(=O)[O-])CC[C@]3(C)[C@H](CC[C@@H]4[C@]5(C)CCC(=O)C(C)(C)[C@@H]5CC[C@@]43C)[C@H]12
REMARK SMILES IDX 7 1 6 2 33 3 11 4 5 5 15 6 4 7 12 8 16 9 13 10 17 11 31 12
REMARK SMILES IDX 14 13 18 14 30 15 32 16 19 17 29 18 21 19 20 20 28 21 22 22
REMARK SMILES IDX 25 23 23 24 26 25 27 26 24 27 8 28 9 29 10 30 2 31 3 32 1 33
REMARK H PARENT
REMARK Flexibility Score: inf
ROOT
ATOM      1  C   UNL     1      18.058  28.163  29.356  1.00  0.00     0.014 C 
ATOM      2  C   UNL     1      16.603  28.455  28.929  1.00  0.00     0.014 C 
ATOM      3  C   UNL     1      18.408  29.497  30.015  1.00  0.00     0.012 C 
ATOM      4  C   UNL     1      19.038  27.890  28.162  1.00  0.00     0.014 C 
ATOM      5  C   UNL     1      16.010  29.300  30.089  1.00  0.00     0.009 C 
ATOM      6  C   UNL     1      19.864  29.681  30.503  1.00  0.00     0.000 C 
ATOM      7  C   UNL     1      17.204  29.894  30.872  1.00  0.00     0.018 C 
ATOM      8  C   UNL     1      20.338  28.757  28.169  1.00  0.00     0.008 C 
ATOM      9  C   UNL     1      20.218  29.572  31.973  1.00  0.00     0.005 C 
ATOM     10  C   UNL     1      20.954  28.983  29.608  1.00  0.00    -0.024 C 
ATOM     11  C   UNL     1      21.518  30.363  32.217  1.00  0.00     0.005 C 
ATOM     12  C   UNL     1      22.253  29.932  29.657  1.00  0.00    -0.024 C 
ATOM     13  C   UNL     1      21.350  27.551  30.115  1.00  0.00     0.012 C 
ATOM     14  C   UNL     1      22.713  30.170  31.184  1.00  0.00     0.002 C 
ATOM     15  C   UNL     1      21.964  31.314  28.941  1.00  0.00     0.008 C 
ATOM     16  C   UNL     1      23.429  29.238  28.887  1.00  0.00     0.012 C 
ATOM     17  C   UNL     1      23.906  31.256  31.356  1.00  0.00    -0.025 C 
ATOM     18  C   UNL     1      22.303  32.563  29.761  1.00  0.00     0.006 C 
ATOM     19  C   UNL     1      24.013  31.706  32.876  1.00  0.00     0.015 C 
ATOM     20  C   UNL     1      25.277  30.549  31.058  1.00  0.00     0.012 C 
ATOM     21  C   UNL     1      23.736  32.491  30.333  1.00  0.00     0.008 C 
ATOM     22  C   UNL     1      24.842  32.956  33.125  1.00  0.00     0.077 C 
ATOM     23  C   UNL     1      24.343  33.899  30.779  1.00  0.00     0.027 C 
ATOM     24  C   UNL     1      24.261  34.036  32.288  1.00  0.00     0.138 C 
ATOM     25  C   UNL     1      23.654  35.125  30.118  1.00  0.00     0.020 C 
ATOM     26  C   UNL     1      25.835  33.991  30.347  1.00  0.00     0.020 C 
ATOM     27  O   UNL     1      23.607  34.932  32.820  1.00  0.00    -0.299 OA
ENDROOT
BRANCH   1  28
ATOM     28  C   UNL     1      18.005  26.973  30.315  1.00  0.00     0.048 C 
ATOM     29  O   UNL     1      18.092  25.798  29.862  1.00  0.00    -0.550 OA
ATOM     30  O   UNL     1      17.817  27.148  31.679  1.00  0.00    -0.550 OA
ENDBRANCH   1  28
BRANCH   7  31
ATOM     31  C   UNL     1      17.095  31.401  31.091  1.00  0.00    -0.077 C 
ATOM     32  C   UNL     1      17.468  32.375  29.998  1.00  0.00     0.039 C 
ATOM     33  C   UNL     1      16.708  31.875  32.284  1.00  0.00     0.008 C 
ENDBRANCH   7  31
TORSDOF 2
ENDMDL
MODEL 8
REMARK VINA RESULT:    -5.325      3.188      6.478
REMARK INTER + INTRA:          -6.295
REMARK INTER:                  -6.047
REMARK INTRA:                  -0.248
REMARK UNBOUND:                -0.348
REMARK SMILES C=C(C)[C@H]1CC[C@@]2(C(=O)[O-])CC[C@]3(C)[C@H](CC[C@@H]4[C@]5(C)CCC(=O)C(C)(C)[C@@H]5CC[C@@]43C)[C@H]12
REMARK SMILES IDX 7 1 6 2 33 3 11 4 5 5 15 6 4 7 12 8 16 9 13 10 17 11 31 12
REMARK SMILES IDX 14 13 18 14 30 15 32 16 19 17 29 18 21 19 20 20 28 21 22 22
REMARK SMILES IDX 25 23 23 24 26 25 27 26 24 27 8 28 9 29 10 30 2 31 3 32 1 33
REMARK H PARENT
REMARK Flexibility Score: inf
ROOT
ATOM      1  C   UNL     1      20.128  29.026  30.488  1.00  0.00     0.014 C 
ATOM      2  C   UNL     1      19.590  27.579  30.461  1.00  0.00     0.014 C 
ATOM      3  C   UNL     1      21.609  28.756  30.223  1.00  0.00     0.012 C 
ATOM      4  C   UNL     1      19.961  29.750  31.869  1.00  0.00     0.014 C 
ATOM      5  C   UNL     1      20.398  26.875  29.337  1.00  0.00     0.009 C 
ATOM      6  C   UNL     1      22.566  29.971  30.278  1.00  0.00     0.000 C 
ATOM      7  C   UNL     1      21.674  27.716  29.104  1.00  0.00     0.018 C 
ATOM      8  C   UNL     1      21.270  30.386  32.439  1.00  0.00     0.008 C 
ATOM      9  C   UNL     1      23.095  30.610  29.009  1.00  0.00     0.005 C 
ATOM     10  C   UNL     1      22.186  31.064  31.343  1.00  0.00    -0.024 C 
ATOM     11  C   UNL     1      24.414  31.331  29.345  1.00  0.00     0.005 C 
ATOM     12  C   UNL     1      23.577  31.666  31.887  1.00  0.00    -0.024 C 
ATOM     13  C   UNL     1      21.322  32.234  30.751  1.00  0.00     0.012 C 
ATOM     14  C   UNL     1      24.461  32.224  30.661  1.00  0.00     0.002 C 
ATOM     15  C   UNL     1      24.380  30.570  32.699  1.00  0.00     0.008 C 
ATOM     16  C   UNL     1      23.278  32.853  32.866  1.00  0.00     0.012 C 
ATOM     17  C   UNL     1      25.958  32.691  31.081  1.00  0.00    -0.025 C 
ATOM     18  C   UNL     1      25.836  30.368  32.267  1.00  0.00     0.006 C 
ATOM     19  C   UNL     1      26.860  32.845  29.782  1.00  0.00     0.015 C 
ATOM     20  C   UNL     1      25.882  34.140  31.681  1.00  0.00     0.012 C 
ATOM     21  C   UNL     1      26.595  31.710  32.191  1.00  0.00     0.008 C 
ATOM     22  C   UNL     1      28.356  32.938  30.040  1.00  0.00     0.077 C 
ATOM     23  C   UNL     1      28.186  31.576  32.221  1.00  0.00     0.027 C 
ATOM     24  C   UNL     1      28.738  31.731  30.816  1.00  0.00     0.138 C 
ATOM     25  C   UNL     1      28.698  30.238  32.824  1.00  0.00     0.020 C 
ATOM     26  C   UNL     1      28.792  32.686  33.125  1.00  0.00     0.020 C 
ATOM     27  O   UNL     1      29.364  30.828  30.265  1.00  0.00    -0.299 OA
ENDROOT
BRANCH   1  28
ATOM     28  C   UNL     1      19.409  29.784  29.372  1.00  0.00     0.048 C 
ATOM     29  O   UNL     1      18.236  30.212  29.559  1.00  0.00    -0.550 OA
ATOM     30  O   UNL     1      19.998  29.980  28.130  1.00  0.00    -0.550 OA
ENDBRANCH   1  28
BRANCH   7  31
ATOM     31  C   UNL     1      22.957  26.888  29.127  1.00  0.00    -0.077 C 
ATOM     32  C   UNL     1      24.178  27.324  28.350  1.00  0.00     0.039 C 
ATOM     33  C   UNL     1      22.993  25.733  29.806  1.00  0.00     0.008 C 
ENDBRANCH   7  31
TORSDOF 2
ENDMDL
