MODEL 1
REMARK VINA RESULT:    -2.455      0.000      0.000
REMARK INTER + INTRA:          -2.455
REMARK INTER:                  -2.455
REMARK INTRA:                   0.000
REMARK UNBOUND:                 0.000
REMARK SMILES CC(=O)[O-]
REMARK SMILES IDX 1 1 2 2 3 3 4 4
REMARK H PARENT
REMARK Flexibility Score: inf
ROOT
ATOM      1  C   UNL     1      94.690 -59.045 104.256  1.00  0.00     0.063 C 
ATOM      2  C   UNL     1      93.780 -59.568 103.197  1.00  0.00     0.038 C 
ATOM      3  O   UNL     1      94.241 -60.272 102.261  1.00  0.00    -0.550 OA
ATOM      4  O   UNL     1      92.432 -59.235 103.212  1.00  0.00    -0.550 OA
ENDROOT
TORSDOF 0
ENDMDL
MODEL 2
REMARK VINA RESULT:    -2.440      0.106      1.618
REMARK INTER + INTRA:          -2.440
REMARK INTER:                  -2.440
REMARK INTRA:                   0.000
REMARK UNBOUND:                 0.000
REMARK SMILES CC(=O)[O-]
REMARK SMILES IDX 1 1 2 2 3 3 4 4
REMARK H PARENT
REMARK Flexibility Score: inf
ROOT
ATOM      1  C   UNL     1      94.683 -59.038 104.253  1.00  0.00     0.063 C 
ATOM      2  C   UNL     1      93.746 -59.538 103.206  1.00  0.00     0.038 C 
ATOM      3  O   UNL     1      92.538 -59.188 103.222  1.00  0.00    -0.550 OA
ATOM      4  O   UNL     1      94.193 -60.436 102.244  1.00  0.00    -0.550 OA
ENDROOT
TORSDOF 0
ENDMDL
MODEL 3
REMARK VINA RESULT:    -2.355      1.353      1.670
REMARK INTER + INTRA:          -2.355
REMARK INTER:                  -2.355
REMARK INTRA:                   0.000
REMARK UNBOUND:                 0.000
REMARK SMILES CC(=O)[O-]
REMARK SMILES IDX 1 1 2 2 3 3 4 4
REMARK H PARENT
REMARK Flexibility Score: inf
ROOT
ATOM      1  C   UNL     1      94.275 -60.752 102.599  1.00  0.00     0.063 C 
ATOM      2  C   UNL     1      93.781 -59.543 103.319  1.00  0.00     0.038 C 
ATOM      3  O   UNL     1      94.548 -58.912 104.091  1.00  0.00    -0.550 OA
ATOM      4  O   UNL     1      92.458 -59.144 103.181  1.00  0.00    -0.550 OA
ENDROOT
TORSDOF 0
ENDMDL
MODEL 4
REMARK VINA RESULT:    -2.276      2.595      3.151
REMARK INTER + INTRA:          -2.276
REMARK INTER:                  -2.276
REMARK INTRA:                   0.000
REMARK UNBOUND:                 0.000
REMARK SMILES CC(=O)[O-]
REMARK SMILES IDX 1 1 2 2 3 3 4 4
REMARK H PARENT
REMARK Flexibility Score: inf
ROOT
ATOM      1  C   UNL     1      92.380 -59.815 100.534  1.00  0.00     0.063 C 
ATOM      2  C   UNL     1      92.001 -58.803 101.562  1.00  0.00     0.038 C 
ATOM      3  O   UNL     1      92.299 -58.988 102.770  1.00  0.00    -0.550 OA
ATOM      4  O   UNL     1      91.269 -57.681 101.195  1.00  0.00    -0.550 OA
ENDROOT
TORSDOF 0
ENDMDL
MODEL 5
REMARK VINA RESULT:    -2.267      1.465      2.589
REMARK INTER + INTRA:          -2.267
REMARK INTER:                  -2.267
REMARK INTRA:                   0.000
REMARK UNBOUND:                 0.000
REMARK SMILES CC(=O)[O-]
REMARK SMILES IDX 1 1 2 2 3 3 4 4
REMARK H PARENT
REMARK Flexibility Score: inf
ROOT
ATOM      1  C   UNL     1      92.843 -58.676 100.907  1.00  0.00     0.063 C 
ATOM      2  C   UNL     1      93.100 -59.428 102.168  1.00  0.00     0.038 C 
ATOM      3  O   UNL     1      92.373 -59.235 103.177  1.00  0.00    -0.550 OA
ATOM      4  O   UNL     1      94.174 -60.304 102.249  1.00  0.00    -0.550 OA
ENDROOT
TORSDOF 0
ENDMDL
MODEL 6
REMARK VINA RESULT:    -2.266      2.337      3.023
REMARK INTER + INTRA:          -2.266
REMARK INTER:                  -2.266
REMARK INTRA:                   0.000
REMARK UNBOUND:                 0.000
REMARK SMILES CC(=O)[O-]
REMARK SMILES IDX 1 1 2 2 3 3 4 4
REMARK H PARENT
REMARK Flexibility Score: inf
ROOT
ATOM      1  C   UNL     1      92.538 -59.143 102.854  1.00  0.00     0.063 C 
ATOM      2  C   UNL     1      92.198 -58.702 101.471  1.00  0.00     0.038 C 
ATOM      3  O   UNL     1      91.281 -57.861 101.285  1.00  0.00    -0.550 OA
ATOM      4  O   UNL     1      92.857 -59.259 100.382  1.00  0.00    -0.550 OA
ENDROOT
TORSDOF 0
ENDMDL
MODEL 7
REMARK VINA RESULT:    -2.227      2.753      3.207
REMARK INTER + INTRA:          -2.227
REMARK INTER:                  -2.227
REMARK INTRA:                   0.000
REMARK UNBOUND:                 0.000
REMARK SMILES CC(=O)[O-]
REMARK SMILES IDX 1 1 2 2 3 3 4 4
REMARK H PARENT
REMARK Flexibility Score: inf
ROOT
ATOM      1  C   UNL     1      94.772 -59.023 104.294  1.00  0.00     0.063 C 
ATOM      2  C   UNL     1      95.793 -59.913 104.919  1.00  0.00     0.038 C 
ATOM      3  O   UNL     1      96.913 -59.449 105.255  1.00  0.00    -0.550 OA
ATOM      4  O   UNL     1      95.529 -61.267 105.082  1.00  0.00    -0.550 OA
ENDROOT
TORSDOF 0
ENDMDL
MODEL 8
REMARK VINA RESULT:    -2.226      1.212      1.272
REMARK INTER + INTRA:          -2.226
REMARK INTER:                  -2.226
REMARK INTRA:                   0.000
REMARK UNBOUND:                 0.000
REMARK SMILES CC(=O)[O-]
REMARK SMILES IDX 1 1 2 2 3 3 4 4
REMARK H PARENT
REMARK Flexibility Score: inf
ROOT
ATOM      1  C   UNL     1      94.070 -59.368 103.632  1.00  0.00     0.063 C 
ATOM      2  C   UNL     1      92.880 -59.692 102.794  1.00  0.00     0.038 C 
ATOM      3  O   UNL     1      92.582 -60.892 102.558  1.00  0.00    -0.550 OA
ATOM      4  O   UNL     1      92.129 -58.670 102.227  1.00  0.00    -0.550 OA
ENDROOT
TORSDOF 0
ENDMDL
MODEL 9
REMARK VINA RESULT:    -2.168      2.591      3.020
REMARK INTER + INTRA:          -2.168
REMARK INTER:                  -2.168
REMARK INTRA:                   0.000
REMARK UNBOUND:                 0.000
REMARK SMILES CC(=O)[O-]
REMARK SMILES IDX 1 1 2 2 3 3 4 4
REMARK H PARENT
REMARK Flexibility Score: inf
ROOT
ATOM      1  C   UNL     1      95.562 -60.967 104.694  1.00  0.00     0.063 C 
ATOM      2  C   UNL     1      95.489 -59.477 104.672  1.00  0.00     0.038 C 
ATOM      3  O   UNL     1      94.470 -58.902 104.210  1.00  0.00    -0.550 OA
ATOM      4  O   UNL     1      96.569 -58.722 105.112  1.00  0.00    -0.550 OA
ENDROOT
TORSDOF 0
ENDMDL
