MODEL 1
REMARK VINA RESULT:    -5.785      0.000      0.000
REMARK INTER + INTRA:          -6.123
REMARK INTER:                  -6.123
REMARK INTRA:                   0.000
REMARK UNBOUND:                 0.000
REMARK SMILES O=c1ccc2cc(O)c(O)cc2o1
REMARK SMILES IDX 4 1 3 2 2 3 1 4 13 5 12 6 11 7 9 8 7 9 6 10 5 11 8 12 10 14
REMARK H PARENT 8 13 10 15
REMARK Flexibility Score: inf
ROOT
ATOM      1  C   UNL     1       4.491  -7.375   6.989  1.00  0.00     0.019 A 
ATOM      2  C   UNL     1       4.189  -8.190   5.898  1.00  0.00     0.094 A 
ATOM      3  C   UNL     1       2.855  -8.534   5.655  1.00  0.00     0.336 A 
ATOM      4  O   UNL     1       2.563  -9.269   4.677  1.00  0.00    -0.246 OA
ATOM      5  O   UNL     1       1.888  -8.087   6.455  1.00  0.00    -0.423 OA
ATOM      6  C   UNL     1       2.133  -7.307   7.505  1.00  0.00     0.142 A 
ATOM      7  C   UNL     1       1.076  -6.868   8.310  1.00  0.00     0.098 A 
ATOM      8  C   UNL     1       1.327  -6.046   9.419  1.00  0.00     0.161 A 
ATOM      9  C   UNL     1       2.642  -5.661   9.723  1.00  0.00     0.158 A 
ATOM     10  C   UNL     1       3.705  -6.099   8.920  1.00  0.00     0.062 A 
ATOM     11  C   UNL     1       3.455  -6.920   7.812  1.00  0.00     0.022 A 
ENDROOT
BRANCH   9  12
ATOM     12  O   UNL     1       2.882  -4.845  10.826  1.00  0.00    -0.504 OA
ATOM     13  H   UNL     1       3.371  -5.189  11.645  1.00  0.00     0.293 HD
ENDBRANCH   9  12
BRANCH   8  14
ATOM     14  O   UNL     1       0.277  -5.607  10.223  1.00  0.00    -0.504 OA
ATOM     15  H   UNL     1      -0.354  -6.259  10.673  1.00  0.00     0.293 HD
ENDBRANCH   8  14
TORSDOF 2
ENDMDL
MODEL 2
REMARK VINA RESULT:    -5.524      1.274      4.533
REMARK INTER + INTRA:          -5.847
REMARK INTER:                  -5.847
REMARK INTRA:                   0.000
REMARK UNBOUND:                 0.000
REMARK SMILES O=c1ccc2cc(O)c(O)cc2o1
REMARK SMILES IDX 4 1 3 2 2 3 1 4 13 5 12 6 11 7 9 8 7 9 6 10 5 11 8 12 10 14
REMARK H PARENT 8 13 10 15
REMARK Flexibility Score: inf
ROOT
ATOM      1  C   UNL     1       3.174  -5.258   9.617  1.00  0.00     0.019 A 
ATOM      2  C   UNL     1       2.108  -4.795  10.387  1.00  0.00     0.094 A 
ATOM      3  C   UNL     1       0.837  -5.343  10.186  1.00  0.00     0.336 A 
ATOM      4  O   UNL     1      -0.138  -4.938  10.871  1.00  0.00    -0.246 OA
ATOM      5  O   UNL     1       0.650  -6.293   9.272  1.00  0.00    -0.423 OA
ATOM      6  C   UNL     1       1.640  -6.763   8.516  1.00  0.00     0.142 A 
ATOM      7  C   UNL     1       1.383  -7.762   7.571  1.00  0.00     0.098 A 
ATOM      8  C   UNL     1       2.423  -8.262   6.772  1.00  0.00     0.161 A 
ATOM      9  C   UNL     1       3.724  -7.758   6.920  1.00  0.00     0.158 A 
ATOM     10  C   UNL     1       3.986  -6.757   7.865  1.00  0.00     0.062 A 
ATOM     11  C   UNL     1       2.949  -6.257   8.664  1.00  0.00     0.022 A 
ENDROOT
BRANCH   9  12
ATOM     12  O   UNL     1       4.750  -8.260   6.121  1.00  0.00    -0.504 OA
ATOM     13  H   UNL     1       5.156  -9.173   6.291  1.00  0.00     0.293 HD
ENDBRANCH   9  12
BRANCH   8  14
ATOM     14  O   UNL     1       2.171  -9.257   5.830  1.00  0.00    -0.504 OA
ATOM     15  H   UNL     1       2.889  -9.914   5.548  1.00  0.00     0.293 HD
ENDBRANCH   8  14
TORSDOF 2
ENDMDL
MODEL 3
REMARK VINA RESULT:    -5.449      1.332      4.998
REMARK INTER + INTRA:          -5.768
REMARK INTER:                  -5.768
REMARK INTRA:                   0.000
REMARK UNBOUND:                 0.000
REMARK SMILES O=c1ccc2cc(O)c(O)cc2o1
REMARK SMILES IDX 4 1 3 2 2 3 1 4 13 5 12 6 11 7 9 8 7 9 6 10 5 11 8 12 10 14
REMARK H PARENT 8 13 10 15
REMARK Flexibility Score: inf
ROOT
ATOM      1  C   UNL     1       0.772  -6.292   9.009  1.00  0.00     0.019 A 
ATOM      2  C   UNL     1       1.012  -5.153   9.777  1.00  0.00     0.094 A 
ATOM      3  C   UNL     1       2.289  -4.581   9.762  1.00  0.00     0.336 A 
ATOM      4  O   UNL     1       2.525  -3.554  10.449  1.00  0.00    -0.246 OA
ATOM      5  O   UNL     1       3.259  -5.118   9.025  1.00  0.00    -0.423 OA
ATOM      6  C   UNL     1       3.072  -6.204   8.279  1.00  0.00     0.142 A 
ATOM      7  C   UNL     1       4.130  -6.723   7.525  1.00  0.00     0.098 A 
ATOM      8  C   UNL     1       3.939  -7.867   6.735  1.00  0.00     0.161 A 
ATOM      9  C   UNL     1       2.684  -8.494   6.701  1.00  0.00     0.158 A 
ATOM     10  C   UNL     1       1.621  -7.977   7.455  1.00  0.00     0.062 A 
ATOM     11  C   UNL     1       1.811  -6.835   8.244  1.00  0.00     0.022 A 
ENDROOT
BRANCH   9  12
ATOM     12  O   UNL     1       2.503  -9.630   5.914  1.00  0.00    -0.504 OA
ATOM     13  H   UNL     1       3.236  -9.975   5.304  1.00  0.00     0.293 HD
ENDBRANCH   9  12
BRANCH   8  14
ATOM     14  O   UNL     1       4.990  -8.387   5.982  1.00  0.00    -0.504 OA
ATOM     15  H   UNL     1       5.924  -8.475   6.366  1.00  0.00     0.293 HD
ENDBRANCH   8  14
TORSDOF 2
ENDMDL
MODEL 4
REMARK VINA RESULT:    -5.289      2.456      6.139
REMARK INTER + INTRA:          -5.598
REMARK INTER:                  -5.598
REMARK INTRA:                   0.000
REMARK UNBOUND:                 0.000
REMARK SMILES O=c1ccc2cc(O)c(O)cc2o1
REMARK SMILES IDX 4 1 3 2 2 3 1 4 13 5 12 6 11 7 9 8 7 9 6 10 5 11 8 12 10 14
REMARK H PARENT 8 13 10 15
REMARK Flexibility Score: inf
ROOT
ATOM      1  C   UNL     1       1.733  -9.206   6.777  1.00  0.00     0.019 A 
ATOM      2  C   UNL     1       2.305  -8.223   7.583  1.00  0.00     0.094 A 
ATOM      3  C   UNL     1       3.443  -7.549   7.127  1.00  0.00     0.336 A 
ATOM      4  O   UNL     1       3.975  -6.659   7.841  1.00  0.00    -0.246 OA
ATOM      5  O   UNL     1       3.970  -7.843   5.940  1.00  0.00    -0.423 OA
ATOM      6  C   UNL     1       3.455  -8.773   5.140  1.00  0.00     0.142 A 
ATOM      7  C   UNL     1       4.052  -9.038   3.903  1.00  0.00     0.098 A 
ATOM      8  C   UNL     1       3.513 -10.018   3.055  1.00  0.00     0.161 A 
ATOM      9  C   UNL     1       2.372 -10.734   3.447  1.00  0.00     0.158 A 
ATOM     10  C   UNL     1       1.770 -10.472   4.686  1.00  0.00     0.062 A 
ATOM     11  C   UNL     1       2.307  -9.494   5.534  1.00  0.00     0.022 A 
ENDROOT
BRANCH   9  12
ATOM     12  O   UNL     1       1.844 -11.706   2.599  1.00  0.00    -0.504 OA
ATOM     13  H   UNL     1       2.127 -12.677   2.663  1.00  0.00     0.293 HD
ENDBRANCH   9  12
BRANCH   8  14
ATOM     14  O   UNL     1       4.105 -10.285   1.822  1.00  0.00    -0.504 OA
ATOM     15  H   UNL     1       3.977  -9.669   1.028  1.00  0.00     0.293 HD
ENDBRANCH   8  14
TORSDOF 2
ENDMDL
MODEL 5
REMARK VINA RESULT:    -4.989      1.185      2.283
REMARK INTER + INTRA:          -5.281
REMARK INTER:                  -5.281
REMARK INTRA:                   0.000
REMARK UNBOUND:                 0.000
REMARK SMILES O=c1ccc2cc(O)c(O)cc2o1
REMARK SMILES IDX 4 1 3 2 2 3 1 4 13 5 12 6 11 7 9 8 7 9 6 10 5 11 8 12 10 14
REMARK H PARENT 8 13 10 15
REMARK Flexibility Score: inf
ROOT
ATOM      1  C   UNL     1       1.586  -8.209   7.119  1.00  0.00     0.019 A 
ATOM      2  C   UNL     1       2.591  -8.701   6.287  1.00  0.00     0.094 A 
ATOM      3  C   UNL     1       3.860  -8.115   6.336  1.00  0.00     0.336 A 
ATOM      4  O   UNL     1       4.780  -8.545   5.592  1.00  0.00    -0.246 OA
ATOM      5  O   UNL     1       4.103  -7.102   7.164  1.00  0.00    -0.423 OA
ATOM      6  C   UNL     1       3.173  -6.602   7.974  1.00  0.00     0.142 A 
ATOM      7  C   UNL     1       3.487  -5.536   8.824  1.00  0.00     0.098 A 
ATOM      8  C   UNL     1       2.510  -5.005   9.681  1.00  0.00     0.161 A 
ATOM      9  C   UNL     1       1.214  -5.544   9.686  1.00  0.00     0.158 A 
ATOM     10  C   UNL     1       0.895  -6.612   8.836  1.00  0.00     0.062 A 
ATOM     11  C   UNL     1       1.870  -7.143   7.980  1.00  0.00     0.022 A 
ENDROOT
BRANCH   9  12
ATOM     12  O   UNL     1       0.251  -5.010  10.540  1.00  0.00    -0.504 OA
ATOM     13  H   UNL     1      -0.385  -4.283  10.233  1.00  0.00     0.293 HD
ENDBRANCH   9  12
BRANCH   8  14
ATOM     14  O   UNL     1       2.819  -3.943  10.529  1.00  0.00    -0.504 OA
ATOM     15  H   UNL     1       3.456  -4.056  11.308  1.00  0.00     0.293 HD
ENDBRANCH   8  14
TORSDOF 2
ENDMDL
MODEL 6
REMARK VINA RESULT:    -4.828      2.133      3.783
REMARK INTER + INTRA:          -5.110
REMARK INTER:                  -5.110
REMARK INTRA:                   0.000
REMARK UNBOUND:                 0.000
REMARK SMILES O=c1ccc2cc(O)c(O)cc2o1
REMARK SMILES IDX 4 1 3 2 2 3 1 4 13 5 12 6 11 7 9 8 7 9 6 10 5 11 8 12 10 14
REMARK H PARENT 8 13 10 15
REMARK Flexibility Score: inf
ROOT
ATOM      1  C   UNL     1       1.224 -10.203   5.544  1.00  0.00     0.019 A 
ATOM      2  C   UNL     1       1.427 -10.886   4.346  1.00  0.00     0.094 A 
ATOM      3  C   UNL     1       2.591 -10.634   3.610  1.00  0.00     0.336 A 
ATOM      4  O   UNL     1       2.792 -11.240   2.526  1.00  0.00    -0.246 OA
ATOM      5  O   UNL     1       3.489  -9.755   4.050  1.00  0.00    -0.423 OA
ATOM      6  C   UNL     1       3.333  -9.082   5.187  1.00  0.00     0.142 A 
ATOM      7  C   UNL     1       4.311  -8.171   5.599  1.00  0.00     0.098 A 
ATOM      8  C   UNL     1       4.153  -7.459   6.798  1.00  0.00     0.161 A 
ATOM      9  C   UNL     1       3.011  -7.661   7.587  1.00  0.00     0.158 A 
ATOM     10  C   UNL     1       2.028  -8.573   7.179  1.00  0.00     0.062 A 
ATOM     11  C   UNL     1       2.185  -9.285   5.982  1.00  0.00     0.022 A 
ENDROOT
BRANCH   9  12
ATOM     12  O   UNL     1       2.862  -6.949   8.776  1.00  0.00    -0.504 OA
ATOM     13  H   UNL     1       3.519  -6.226   9.048  1.00  0.00     0.293 HD
ENDBRANCH   9  12
BRANCH   8  14
ATOM     14  O   UNL     1       5.126  -6.550   7.211  1.00  0.00    -0.504 OA
ATOM     15  H   UNL     1       5.517  -5.868   6.573  1.00  0.00     0.293 HD
ENDBRANCH   8  14
TORSDOF 2
ENDMDL
MODEL 7
REMARK VINA RESULT:    -4.731      8.611     10.334
REMARK INTER + INTRA:          -5.007
REMARK INTER:                  -5.007
REMARK INTRA:                   0.000
REMARK UNBOUND:                 0.000
REMARK SMILES O=c1ccc2cc(O)c(O)cc2o1
REMARK SMILES IDX 4 1 3 2 2 3 1 4 13 5 12 6 11 7 9 8 7 9 6 10 5 11 8 12 10 14
REMARK H PARENT 8 13 10 15
REMARK Flexibility Score: inf
ROOT
ATOM      1  C   UNL     1      -2.218   1.916  12.799  1.00  0.00     0.019 A 
ATOM      2  C   UNL     1      -3.238   1.024  13.125  1.00  0.00     0.094 A 
ATOM      3  C   UNL     1      -3.457  -0.087  12.302  1.00  0.00     0.336 A 
ATOM      4  O   UNL     1      -4.374  -0.903  12.579  1.00  0.00    -0.246 OA
ATOM      5  O   UNL     1      -2.700  -0.286  11.225  1.00  0.00    -0.423 OA
ATOM      6  C   UNL     1      -1.717   0.541  10.879  1.00  0.00     0.142 A 
ATOM      7  C   UNL     1      -0.954   0.279   9.735  1.00  0.00     0.098 A 
ATOM      8  C   UNL     1       0.084   1.147   9.366  1.00  0.00     0.161 A 
ATOM      9  C   UNL     1       0.361   2.282  10.144  1.00  0.00     0.158 A 
ATOM     10  C   UNL     1      -0.400   2.548  11.291  1.00  0.00     0.062 A 
ATOM     11  C   UNL     1      -1.438   1.682  11.661  1.00  0.00     0.022 A 
ENDROOT
BRANCH   9  12
ATOM     12  O   UNL     1       1.394   3.138   9.769  1.00  0.00    -0.504 OA
ATOM     13  H   UNL     1       1.433   3.549   8.843  1.00  0.00     0.293 HD
ENDBRANCH   9  12
BRANCH   8  14
ATOM     14  O   UNL     1       0.846   0.890   8.227  1.00  0.00    -0.504 OA
ATOM     15  H   UNL     1       1.345   0.016   8.110  1.00  0.00     0.293 HD
ENDBRANCH   8  14
TORSDOF 2
ENDMDL
MODEL 8
REMARK VINA RESULT:    -4.707      8.398      9.765
REMARK INTER + INTRA:          -4.982
REMARK INTER:                  -4.982
REMARK INTRA:                   0.000
REMARK UNBOUND:                 0.000
REMARK SMILES O=c1ccc2cc(O)c(O)cc2o1
REMARK SMILES IDX 4 1 3 2 2 3 1 4 13 5 12 6 11 7 9 8 7 9 6 10 5 11 8 12 10 14
REMARK H PARENT 8 13 10 15
REMARK Flexibility Score: inf
ROOT
ATOM      1  C   UNL     1       1.393   0.750   8.575  1.00  0.00     0.019 A 
ATOM      2  C   UNL     1       2.368   1.719   8.338  1.00  0.00     0.094 A 
ATOM      3  C   UNL     1       2.283   2.945   9.006  1.00  0.00     0.336 A 
ATOM      4  O   UNL     1       3.153   3.832   8.804  1.00  0.00    -0.246 OA
ATOM      5  O   UNL     1       1.285   3.182   9.855  1.00  0.00    -0.423 OA
ATOM      6  C   UNL     1       0.335   2.286  10.110  1.00  0.00     0.142 A 
ATOM      7  C   UNL     1      -0.689   2.591  11.013  1.00  0.00     0.098 A 
ATOM      8  C   UNL     1      -1.693   1.650  11.286  1.00  0.00     0.161 A 
ATOM      9  C   UNL     1      -1.672   0.398  10.652  1.00  0.00     0.158 A 
ATOM     10  C   UNL     1      -0.647   0.087   9.747  1.00  0.00     0.062 A 
ATOM     11  C   UNL     1       0.356   1.027   9.473  1.00  0.00     0.022 A 
ENDROOT
BRANCH   9  12
ATOM     12  O   UNL     1      -2.673  -0.530  10.929  1.00  0.00    -0.504 OA
ATOM     13  H   UNL     1      -3.621  -0.241  11.143  1.00  0.00     0.293 HD
ENDBRANCH   9  12
BRANCH   8  14
ATOM     14  O   UNL     1      -2.715   1.951  12.184  1.00  0.00    -0.504 OA
ATOM     15  H   UNL     1      -3.683   1.993  11.891  1.00  0.00     0.293 HD
ENDBRANCH   8  14
TORSDOF 2
ENDMDL
MODEL 9
REMARK VINA RESULT:    -4.625      8.922     10.989
REMARK INTER + INTRA:          -4.895
REMARK INTER:                  -4.895
REMARK INTRA:                   0.000
REMARK UNBOUND:                 0.000
REMARK SMILES O=c1ccc2cc(O)c(O)cc2o1
REMARK SMILES IDX 4 1 3 2 2 3 1 4 13 5 12 6 11 7 9 8 7 9 6 10 5 11 8 12 10 14
REMARK H PARENT 8 13 10 15
REMARK Flexibility Score: inf
ROOT
ATOM      1  C   UNL     1       0.157   4.972  10.144  1.00  0.00     0.019 A 
ATOM      2  C   UNL     1       1.461   5.298   9.772  1.00  0.00     0.094 A 
ATOM      3  C   UNL     1       2.340   4.271   9.410  1.00  0.00     0.336 A 
ATOM      4  O   UNL     1       3.521   4.545   9.072  1.00  0.00    -0.246 OA
ATOM      5  O   UNL     1       1.936   3.003   9.421  1.00  0.00    -0.423 OA
ATOM      6  C   UNL     1       0.701   2.649   9.770  1.00  0.00     0.142 A 
ATOM      7  C   UNL     1       0.333   1.299   9.762  1.00  0.00     0.098 A 
ATOM      8  C   UNL     1      -0.968   0.920  10.128  1.00  0.00     0.161 A 
ATOM      9  C   UNL     1      -1.904   1.897  10.503  1.00  0.00     0.158 A 
ATOM     10  C   UNL     1      -1.539   3.251  10.511  1.00  0.00     0.062 A 
ATOM     11  C   UNL     1      -0.241   3.630  10.146  1.00  0.00     0.022 A 
ENDROOT
BRANCH   9  12
ATOM     12  O   UNL     1      -3.193   1.512  10.865  1.00  0.00    -0.504 OA
ATOM     13  H   UNL     1      -3.695   1.976  11.613  1.00  0.00     0.293 HD
ENDBRANCH   9  12
BRANCH   8  14
ATOM     14  O   UNL     1      -1.338  -0.423  10.122  1.00  0.00    -0.504 OA
ATOM     15  H   UNL     1      -0.647  -1.163  10.101  1.00  0.00     0.293 HD
ENDBRANCH   8  14
TORSDOF 2
ENDMDL
