MODEL 1
REMARK VINA RESULT:    -6.123      0.000      0.000
REMARK INTER + INTRA:          -8.191
REMARK INTER:                  -7.555
REMARK INTRA:                  -0.636
REMARK UNBOUND:                -0.636
REMARK SMILES CC(C)=CCC[C@@H](C)c1ccc(C)cc1
REMARK SMILES IDX 6 1 7 2 8 3 9 4 13 5 12 6 11 7 14 8 10 9 15 10 5 11 4 12
REMARK SMILES IDX 2 13 1 14 3 15
REMARK H PARENT
REMARK Flexibility Score: inf
ROOT
ATOM      1  C   UNL     1      12.518  -6.129  18.184  1.00  0.00     0.012 C 
ENDROOT
BRANCH   1   2
ATOM      2  C   UNL     1      12.590  -5.460  16.791  1.00  0.00     0.016 C 
ATOM      3  C   UNL     1      11.343  -4.606  16.536  1.00  0.00     0.013 C 
BRANCH   2   4
ATOM      4  C   UNL     1      13.850  -4.630  16.619  1.00  0.00    -0.045 A 
ATOM      5  C   UNL     1      17.454  -2.304  16.111  1.00  0.00     0.044 C 
ATOM      6  C   UNL     1      16.215  -3.126  16.311  1.00  0.00    -0.051 A 
ATOM      7  C   UNL     1      15.186  -2.662  17.140  1.00  0.00     0.004 A 
ATOM      8  C   UNL     1      16.047  -4.332  15.616  1.00  0.00     0.004 A 
ATOM      9  C   UNL     1      14.015  -3.409  17.300  1.00  0.00     0.004 A 
ATOM     10  C   UNL     1      14.879  -5.082  15.774  1.00  0.00     0.004 A 
ENDBRANCH   2   4
ENDBRANCH   1   2
BRANCH   1  11
ATOM     11  C   UNL     1      11.165  -6.802  18.478  1.00  0.00     0.028 C 
BRANCH  11  12
ATOM     12  C   UNL     1      10.636  -6.448  19.848  1.00  0.00    -0.028 C 
ATOM     13  C   UNL     1       9.508  -5.740  20.076  1.00  0.00    -0.080 C 
ATOM     14  C   UNL     1       8.677  -5.171  18.951  1.00  0.00     0.039 C 
ATOM     15  C   UNL     1       9.090  -5.499  21.504  1.00  0.00     0.039 C 
ENDBRANCH  11  12
ENDBRANCH   1  11
TORSDOF 4
ENDMDL
MODEL 2
REMARK VINA RESULT:    -6.120      0.035      1.251
REMARK INTER + INTRA:          -8.187
REMARK INTER:                  -7.550
REMARK INTRA:                  -0.636
REMARK UNBOUND:                -0.636
REMARK SMILES CC(C)=CCC[C@@H](C)c1ccc(C)cc1
REMARK SMILES IDX 6 1 7 2 8 3 9 4 13 5 12 6 11 7 14 8 10 9 15 10 5 11 4 12
REMARK SMILES IDX 2 13 1 14 3 15
REMARK H PARENT
REMARK Flexibility Score: inf
ROOT
ATOM      1  C   UNL     1      12.509  -6.093  18.198  1.00  0.00     0.012 C 
ENDROOT
BRANCH   1   2
ATOM      2  C   UNL     1      12.597  -5.452  16.793  1.00  0.00     0.016 C 
ATOM      3  C   UNL     1      11.358  -4.594  16.511  1.00  0.00     0.013 C 
BRANCH   2   4
ATOM      4  C   UNL     1      13.864  -4.633  16.617  1.00  0.00    -0.045 A 
ATOM      5  C   UNL     1      17.446  -2.268  16.134  1.00  0.00     0.044 C 
ATOM      6  C   UNL     1      16.190  -3.075  16.278  1.00  0.00    -0.051 A 
ATOM      7  C   UNL     1      16.061  -4.306  15.620  1.00  0.00     0.004 A 
ATOM      8  C   UNL     1      15.163  -2.638  17.126  1.00  0.00     0.004 A 
ATOM      9  C   UNL     1      14.906  -5.076  15.782  1.00  0.00     0.004 A 
ATOM     10  C   UNL     1      14.007  -3.406  17.289  1.00  0.00     0.004 A 
ENDBRANCH   2   4
ENDBRANCH   1   2
BRANCH   1  11
ATOM     11  C   UNL     1      11.164  -6.789  18.477  1.00  0.00     0.028 C 
BRANCH  11  12
ATOM     12  C   UNL     1      10.618  -6.451  19.844  1.00  0.00    -0.028 C 
ATOM     13  C   UNL     1       9.502  -5.723  20.066  1.00  0.00    -0.080 C 
ATOM     14  C   UNL     1       8.704  -5.112  18.938  1.00  0.00     0.039 C 
ATOM     15  C   UNL     1       9.063  -5.501  21.491  1.00  0.00     0.039 C 
ENDBRANCH  11  12
ENDBRANCH   1  11
TORSDOF 4
ENDMDL
MODEL 3
REMARK VINA RESULT:    -6.029      2.065      4.266
REMARK INTER + INTRA:          -8.075
REMARK INTER:                  -6.785
REMARK INTRA:                  -1.290
REMARK UNBOUND:                -0.636
REMARK SMILES CC(C)=CCC[C@@H](C)c1ccc(C)cc1
REMARK SMILES IDX 6 1 7 2 8 3 9 4 13 5 12 6 11 7 14 8 10 9 15 10 5 11 4 12
REMARK SMILES IDX 2 13 1 14 3 15
REMARK H PARENT
REMARK Flexibility Score: inf
ROOT
ATOM      1  C   UNL     1       9.109  -5.597  20.679  1.00  0.00     0.012 C 
ENDROOT
BRANCH   1   2
ATOM      2  C   UNL     1       8.895  -5.632  19.148  1.00  0.00     0.016 C 
ATOM      3  C   UNL     1       7.870  -4.575  18.720  1.00  0.00     0.013 C 
BRANCH   2   4
ATOM      4  C   UNL     1      10.196  -5.455  18.384  1.00  0.00    -0.045 A 
ATOM      5  C   UNL     1      13.871  -4.925  16.179  1.00  0.00     0.044 C 
ATOM      6  C   UNL     1      12.586  -5.130  16.925  1.00  0.00    -0.051 A 
ATOM      7  C   UNL     1      12.520  -6.055  17.976  1.00  0.00     0.004 A 
ATOM      8  C   UNL     1      11.462  -4.350  16.623  1.00  0.00     0.004 A 
ATOM      9  C   UNL     1      11.333  -6.222  18.696  1.00  0.00     0.004 A 
ATOM     10  C   UNL     1      10.274  -4.515  17.341  1.00  0.00     0.004 A 
ENDBRANCH   2   4
ENDBRANCH   1   2
BRANCH   1  11
ATOM     11  C   UNL     1       8.935  -4.197  21.296  1.00  0.00     0.028 C 
BRANCH  11  12
ATOM     12  C   UNL     1      10.250  -3.467  21.435  1.00  0.00    -0.028 C 
ATOM     13  C   UNL     1      10.541  -2.289  20.840  1.00  0.00    -0.080 C 
ATOM     14  C   UNL     1       9.573  -1.602  19.907  1.00  0.00     0.039 C 
ATOM     15  C   UNL     1      11.887  -1.665  21.106  1.00  0.00     0.039 C 
ENDBRANCH  11  12
ENDBRANCH   1  11
TORSDOF 4
ENDMDL
MODEL 4
REMARK VINA RESULT:    -5.891      1.102      6.873
REMARK INTER + INTRA:          -7.905
REMARK INTER:                  -7.389
REMARK INTRA:                  -0.516
REMARK UNBOUND:                -0.636
REMARK SMILES CC(C)=CCC[C@@H](C)c1ccc(C)cc1
REMARK SMILES IDX 6 1 7 2 8 3 9 4 13 5 12 6 11 7 14 8 10 9 15 10 5 11 4 12
REMARK SMILES IDX 2 13 1 14 3 15
REMARK H PARENT
REMARK Flexibility Score: inf
ROOT
ATOM      1  C   UNL     1      11.666  -5.267  16.863  1.00  0.00     0.012 C 
ENDROOT
BRANCH   1   2
ATOM      2  C   UNL     1      11.274  -6.319  17.928  1.00  0.00     0.016 C 
ATOM      3  C   UNL     1      12.494  -6.726  18.762  1.00  0.00     0.013 C 
BRANCH   2   4
ATOM      4  C   UNL     1      10.152  -5.831  18.828  1.00  0.00    -0.045 A 
ATOM      5  C   UNL     1       6.951  -4.413  21.357  1.00  0.00     0.044 C 
ATOM      6  C   UNL     1       8.079  -4.882  20.487  1.00  0.00    -0.051 A 
ATOM      7  C   UNL     1       9.046  -5.760  20.996  1.00  0.00     0.004 A 
ATOM      8  C   UNL     1       8.138  -4.501  19.139  1.00  0.00     0.004 A 
ATOM      9  C   UNL     1      10.078  -6.226  20.177  1.00  0.00     0.004 A 
ATOM     10  C   UNL     1       9.168  -4.965  18.318  1.00  0.00     0.004 A 
ENDBRANCH   2   4
ENDBRANCH   1   2
BRANCH   1  11
ATOM     11  C   UNL     1      13.159  -5.291  16.490  1.00  0.00     0.028 C 
BRANCH  11  12
ATOM     12  C   UNL     1      13.768  -3.909  16.478  1.00  0.00    -0.028 C 
ATOM     13  C   UNL     1      15.038  -3.633  16.111  1.00  0.00    -0.080 C 
ATOM     14  C   UNL     1      16.014  -4.718  15.722  1.00  0.00     0.039 C 
ATOM     15  C   UNL     1      15.489  -2.195  16.116  1.00  0.00     0.039 C 
ENDBRANCH  11  12
ENDBRANCH   1  11
TORSDOF 4
ENDMDL
MODEL 5
REMARK VINA RESULT:    -5.813      1.793      5.720
REMARK INTER + INTRA:          -7.808
REMARK INTER:                  -6.956
REMARK INTRA:                  -0.852
REMARK UNBOUND:                -0.636
REMARK SMILES CC(C)=CCC[C@@H](C)c1ccc(C)cc1
REMARK SMILES IDX 6 1 7 2 8 3 9 4 13 5 12 6 11 7 14 8 10 9 15 10 5 11 4 12
REMARK SMILES IDX 2 13 1 14 3 15
REMARK H PARENT
REMARK Flexibility Score: inf
ROOT
ATOM      1  C   UNL     1      14.917  -2.548  16.361  1.00  0.00     0.012 C 
ENDROOT
BRANCH   1   2
ATOM      2  C   UNL     1      14.301  -3.831  15.753  1.00  0.00     0.016 C 
ATOM      3  C   UNL     1      15.347  -4.950  15.679  1.00  0.00     0.013 C 
BRANCH   2   4
ATOM      4  C   UNL     1      13.075  -4.297  16.520  1.00  0.00    -0.045 A 
ATOM      5  C   UNL     1       9.598  -5.664  18.686  1.00  0.00     0.044 C 
ATOM      6  C   UNL     1      10.791  -5.192  17.908  1.00  0.00    -0.051 A 
ATOM      7  C   UNL     1      10.979  -3.824  17.665  1.00  0.00     0.004 A 
ATOM      8  C   UNL     1      11.761  -6.107  17.478  1.00  0.00     0.004 A 
ATOM      9  C   UNL     1      12.108  -3.379  16.971  1.00  0.00     0.004 A 
ATOM     10  C   UNL     1      12.890  -5.665  16.784  1.00  0.00     0.004 A 
ENDBRANCH   2   4
ENDBRANCH   1   2
BRANCH   1  11
ATOM     11  C   UNL     1      16.049  -2.823  17.367  1.00  0.00     0.028 C 
BRANCH  11  12
ATOM     12  C   UNL     1      16.300  -1.646  18.280  1.00  0.00    -0.028 C 
ATOM     13  C   UNL     1      15.611  -1.394  19.415  1.00  0.00    -0.080 C 
ATOM     14  C   UNL     1      14.454  -2.258  19.859  1.00  0.00     0.039 C 
ATOM     15  C   UNL     1      16.005  -0.197  20.242  1.00  0.00     0.039 C 
ENDBRANCH  11  12
ENDBRANCH   1  11
TORSDOF 4
ENDMDL
MODEL 6
REMARK VINA RESULT:    -5.789      1.163      2.109
REMARK INTER + INTRA:          -7.779
REMARK INTER:                  -7.094
REMARK INTRA:                  -0.685
REMARK UNBOUND:                -0.636
REMARK SMILES CC(C)=CCC[C@@H](C)c1ccc(C)cc1
REMARK SMILES IDX 6 1 7 2 8 3 9 4 13 5 12 6 11 7 14 8 10 9 15 10 5 11 4 12
REMARK SMILES IDX 2 13 1 14 3 15
REMARK H PARENT
REMARK Flexibility Score: inf
ROOT
ATOM      1  C   UNL     1      13.274  -5.598  16.883  1.00  0.00     0.012 C 
ENDROOT
BRANCH   1   2
ATOM      2  C   UNL     1      13.470  -4.080  16.656  1.00  0.00     0.016 C 
ATOM      3  C   UNL     1      13.299  -3.310  17.971  1.00  0.00     0.013 C 
BRANCH   2   4
ATOM      4  C   UNL     1      14.815  -3.764  16.024  1.00  0.00    -0.045 A 
ATOM      5  C   UNL     1      18.626  -2.823  14.225  1.00  0.00     0.044 C 
ATOM      6  C   UNL     1      17.290  -3.148  14.823  1.00  0.00    -0.051 A 
ATOM      7  C   UNL     1      16.871  -4.481  14.935  1.00  0.00     0.004 A 
ATOM      8  C   UNL     1      16.479  -2.126  15.337  1.00  0.00     0.004 A 
ATOM      9  C   UNL     1      15.641  -4.788  15.524  1.00  0.00     0.004 A 
ATOM     10  C   UNL     1      15.249  -2.431  15.926  1.00  0.00     0.004 A 
ENDBRANCH   2   4
ENDBRANCH   1   2
BRANCH   1  11
ATOM     11  C   UNL     1      11.798  -6.032  16.921  1.00  0.00     0.028 C 
BRANCH  11  12
ATOM     12  C   UNL     1      11.352  -6.420  18.311  1.00  0.00    -0.028 C 
ATOM     13  C   UNL     1      10.307  -5.866  18.964  1.00  0.00    -0.080 C 
ATOM     14  C   UNL     1       9.501  -4.733  18.374  1.00  0.00     0.039 C 
ATOM     15  C   UNL     1       9.962  -6.388  20.335  1.00  0.00     0.039 C 
ENDBRANCH  11  12
ENDBRANCH   1  11
TORSDOF 4
ENDMDL
MODEL 7
REMARK VINA RESULT:    -5.647      2.863      6.408
REMARK INTER + INTRA:          -7.604
REMARK INTER:                  -6.601
REMARK INTRA:                  -1.002
REMARK UNBOUND:                -0.636
REMARK SMILES CC(C)=CCC[C@@H](C)c1ccc(C)cc1
REMARK SMILES IDX 6 1 7 2 8 3 9 4 13 5 12 6 11 7 14 8 10 9 15 10 5 11 4 12
REMARK SMILES IDX 2 13 1 14 3 15
REMARK H PARENT
REMARK Flexibility Score: inf
ROOT
ATOM      1  C   UNL     1      11.161  -5.087  17.140  1.00  0.00     0.012 C 
ENDROOT
BRANCH   1   2
ATOM      2  C   UNL     1      10.754  -6.242  18.085  1.00  0.00     0.016 C 
ATOM      3  C   UNL     1      11.985  -6.828  18.786  1.00  0.00     0.013 C 
BRANCH   2   4
ATOM      4  C   UNL     1       9.715  -5.808  19.105  1.00  0.00    -0.045 A 
ATOM      5  C   UNL     1       6.742  -4.548  21.972  1.00  0.00     0.044 C 
ATOM      6  C   UNL     1       7.788  -4.959  20.980  1.00  0.00    -0.051 A 
ATOM      7  C   UNL     1       8.937  -5.640  21.406  1.00  0.00     0.004 A 
ATOM      8  C   UNL     1       7.594  -4.727  19.611  1.00  0.00     0.004 A 
ATOM      9  C   UNL     1       9.897  -6.056  20.478  1.00  0.00     0.004 A 
ATOM     10  C   UNL     1       8.551  -5.141  18.682  1.00  0.00     0.004 A 
ENDBRANCH   2   4
ENDBRANCH   1   2
BRANCH   1  11
ATOM     11  C   UNL     1      11.083  -3.696  17.795  1.00  0.00     0.028 C 
BRANCH  11  12
ATOM     12  C   UNL     1      12.321  -3.372  18.599  1.00  0.00    -0.028 C 
ATOM     13  C   UNL     1      12.312  -2.891  19.861  1.00  0.00    -0.080 C 
ATOM     14  C   UNL     1      11.029  -2.569  20.588  1.00  0.00     0.039 C 
ATOM     15  C   UNL     1      13.634  -2.652  20.545  1.00  0.00     0.039 C 
ENDBRANCH  11  12
ENDBRANCH   1  11
TORSDOF 4
ENDMDL
MODEL 8
REMARK VINA RESULT:    -5.630      1.880      3.562
REMARK INTER + INTRA:          -7.582
REMARK INTER:                  -6.479
REMARK INTRA:                  -1.103
REMARK UNBOUND:                -0.636
REMARK SMILES CC(C)=CCC[C@@H](C)c1ccc(C)cc1
REMARK SMILES IDX 6 1 7 2 8 3 9 4 13 5 12 6 11 7 14 8 10 9 15 10 5 11 4 12
REMARK SMILES IDX 2 13 1 14 3 15
REMARK H PARENT
REMARK Flexibility Score: inf
ROOT
ATOM      1  C   UNL     1       9.250  -5.618  18.853  1.00  0.00     0.012 C 
ENDROOT
BRANCH   1   2
ATOM      2  C   UNL     1      10.665  -5.708  19.472  1.00  0.00     0.016 C 
ATOM      3  C   UNL     1      10.998  -7.155  19.854  1.00  0.00     0.013 C 
BRANCH   2   4
ATOM      4  C   UNL     1      11.731  -5.140  18.551  1.00  0.00    -0.045 A 
ATOM      5  C   UNL     1      14.758  -3.486  15.953  1.00  0.00     0.044 C 
ATOM      6  C   UNL     1      13.686  -4.046  16.840  1.00  0.00    -0.051 A 
ATOM      7  C   UNL     1      13.082  -5.272  16.530  1.00  0.00     0.004 A 
ATOM      8  C   UNL     1      13.327  -3.381  18.021  1.00  0.00     0.004 A 
ATOM      9  C   UNL     1      12.108  -5.813  17.374  1.00  0.00     0.004 A 
ATOM     10  C   UNL     1      12.354  -3.919  18.866  1.00  0.00     0.004 A 
ENDBRANCH   2   4
ENDBRANCH   1   2
BRANCH   1  11
ATOM     11  C   UNL     1       8.277  -4.739  19.659  1.00  0.00     0.028 C 
BRANCH  11  12
ATOM     12  C   UNL     1       8.612  -3.270  19.554  1.00  0.00    -0.028 C 
ATOM     13  C   UNL     1       9.221  -2.551  20.522  1.00  0.00    -0.080 C 
ATOM     14  C   UNL     1       9.581  -3.150  21.860  1.00  0.00     0.039 C 
ATOM     15  C   UNL     1       9.523  -1.099  20.252  1.00  0.00     0.039 C 
ENDBRANCH  11  12
ENDBRANCH   1  11
TORSDOF 4
ENDMDL
MODEL 9
REMARK VINA RESULT:    -5.430      1.398      2.165
REMARK INTER + INTRA:          -7.336
REMARK INTER:                  -6.542
REMARK INTRA:                  -0.794
REMARK UNBOUND:                -0.636
REMARK SMILES CC(C)=CCC[C@@H](C)c1ccc(C)cc1
REMARK SMILES IDX 6 1 7 2 8 3 9 4 13 5 12 6 11 7 14 8 10 9 15 10 5 11 4 12
REMARK SMILES IDX 2 13 1 14 3 15
REMARK H PARENT
REMARK Flexibility Score: inf
ROOT
ATOM      1  C   UNL     1      13.183  -3.388  17.834  1.00  0.00     0.012 C 
ENDROOT
BRANCH   1   2
ATOM      2  C   UNL     1      13.698  -4.430  16.813  1.00  0.00     0.016 C 
ATOM      3  C   UNL     1      12.606  -4.774  15.793  1.00  0.00     0.013 C 
BRANCH   2   4
ATOM      4  C   UNL     1      14.960  -3.964  16.107  1.00  0.00    -0.045 A 
ATOM      5  C   UNL     1      18.562  -2.685  14.098  1.00  0.00     0.044 C 
ATOM      6  C   UNL     1      17.326  -3.133  14.821  1.00  0.00    -0.051 A 
ATOM      7  C   UNL     1      16.498  -2.194  15.451  1.00  0.00     0.004 A 
ATOM      8  C   UNL     1      16.955  -4.484  14.813  1.00  0.00     0.004 A 
ATOM      9  C   UNL     1      15.327  -2.606  16.095  1.00  0.00     0.004 A 
ATOM     10  C   UNL     1      15.785  -4.898  15.457  1.00  0.00     0.004 A 
ENDBRANCH   2   4
ENDBRANCH   1   2
BRANCH   1  11
ATOM     11  C   UNL     1      12.714  -4.005  19.164  1.00  0.00     0.028 C 
BRANCH  11  12
ATOM     12  C   UNL     1      11.239  -4.332  19.154  1.00  0.00    -0.028 C 
ATOM     13  C   UNL     1      10.730  -5.576  19.021  1.00  0.00    -0.080 C 
ATOM     14  C   UNL     1      11.610  -6.785  18.807  1.00  0.00     0.039 C 
ATOM     15  C   UNL     1       9.233  -5.746  19.068  1.00  0.00     0.039 C 
ENDBRANCH  11  12
ENDBRANCH   1  11
TORSDOF 4
ENDMDL
