MODEL 1
REMARK VINA RESULT:    -4.641      0.000      0.000
REMARK INTER + INTRA:          -7.210
REMARK INTER:                  -7.082
REMARK INTRA:                  -0.128
REMARK UNBOUND:                -0.128
REMARK SMILES CC1=CCC[C@H](C)C(=O)C[C@@H](C(C)C)C(=O)C1
REMARK SMILES IDX 8 1 9 2 6 3 7 4 5 5 4 6 3 7 2 8 1 9 10 11 11 12 15 13 16 14
REMARK SMILES IDX 17 15 12 17 13 18 14 19
REMARK H PARENT
REMARK Flexibility Score: 70.00
ROOT
ATOM      1  C   UNL     1      20.772  29.032 -12.408  1.00  0.00     0.136 C 
ATOM      2  O   UNL     1      20.907  28.145 -11.577  1.00  0.00    -0.299 OA
ENDROOT
BRANCH   1   3
ATOM      3  C   UNL     1      21.938  29.949 -12.743  1.00  0.00     0.053 C 
ATOM      4  C   UNL     1      22.341  30.842 -11.558  1.00  0.00     0.016 C 
BRANCH   3   5
ATOM      5  C   UNL     1      23.142  29.154 -13.288  1.00  0.00     0.015 C 
BRANCH   5   6
ATOM      6  C   UNL     1      22.763  28.103 -14.349  1.00  0.00     0.028 C 
BRANCH   6   7
ATOM      7  C   UNL     1      22.715  28.722 -15.721  1.00  0.00    -0.028 C 
ATOM      8  C   UNL     1      21.678  28.603 -16.583  1.00  0.00    -0.070 CG0
ATOM      9  C   UNL     1      21.748  29.362 -17.884  1.00  0.00     0.039 C 
ATOM     10  G   UNL     1      20.460  27.735 -16.302  1.00  0.00     0.000 G0
ENDBRANCH   6   7
ENDBRANCH   5   6
ENDBRANCH   3   5
ENDBRANCH   1   3
BRANCH   1  11
ATOM     11  C   UNL     1      19.436  29.197 -13.090  1.00  0.00     0.087 C 
BRANCH  11  12
ATOM     12  C   UNL     1      19.126  28.029 -14.061  1.00  0.00     0.066 C 
BRANCH  12  13
ATOM     13  C   UNL     1      19.387  28.425 -15.507  1.00  0.00     0.140 C 
ATOM     14  O   UNL     1      18.697  29.284 -16.037  1.00  0.00    -0.299 OA
BRANCH  13  15
ATOM     15  C   UNL     1      20.447  27.724 -16.322  1.00  0.00     0.106 CG0
ATOM     16  G   UNL     1      21.664  28.603 -16.571  1.00  0.00     0.000 G0
ENDBRANCH  13  15
ENDBRANCH  12  13
BRANCH  12  17
ATOM     17  C   UNL     1      17.691  27.454 -13.845  1.00  0.00    -0.006 C 
ATOM     18  C   UNL     1      17.311  26.324 -14.818  1.00  0.00     0.008 C 
ATOM     19  C   UNL     1      17.483  26.993 -12.394  1.00  0.00     0.008 C 
ENDBRANCH  12  17
ENDBRANCH  11  12
ENDBRANCH   1  11
TORSDOF 1
ENDMDL
MODEL 2
REMARK VINA RESULT:    -4.552      1.937      4.970
REMARK INTER + INTRA:          -7.076
REMARK INTER:                  -7.057
REMARK INTRA:                  -0.019
REMARK UNBOUND:                -0.128
REMARK SMILES CC1=CCC[C@H](C)C(=O)C[C@@H](C(C)C)C(=O)C1
REMARK SMILES IDX 8 1 9 2 6 3 7 4 5 5 4 6 3 7 2 8 1 9 10 11 11 12 15 13 16 14
REMARK SMILES IDX 17 15 12 17 13 18 14 19
REMARK H PARENT
REMARK Flexibility Score: 70.00
ROOT
ATOM      1  C   UNL     1      19.652  27.870 -16.052  1.00  0.00     0.136 C 
ATOM      2  O   UNL     1      19.872  26.730 -16.436  1.00  0.00    -0.299 OA
ENDROOT
BRANCH   1   3
ATOM      3  C   UNL     1      18.514  28.145 -15.084  1.00  0.00     0.053 C 
ATOM      4  C   UNL     1      17.812  26.857 -14.623  1.00  0.00     0.016 C 
BRANCH   3   5
ATOM      5  C   UNL     1      18.986  28.992 -13.884  1.00  0.00     0.015 C 
BRANCH   5   6
ATOM      6  C   UNL     1      19.984  28.261 -12.964  1.00  0.00     0.028 C 
BRANCH   6   7
ATOM      7  C   UNL     1      20.988  29.228 -12.393  1.00  0.00    -0.028 C 
ATOM      8  C   UNL     1      22.240  29.411 -12.875  1.00  0.00    -0.070 CG0
ATOM      9  C   UNL     1      23.091  30.485 -12.244  1.00  0.00     0.039 C 
ATOM     10  G   UNL     1      22.824  28.580 -14.007  1.00  0.00     0.000 G0
ENDBRANCH   6   7
ENDBRANCH   5   6
ENDBRANCH   3   5
ENDBRANCH   1   3
BRANCH   1  11
ATOM     11  C   UNL     1      20.530  28.991 -16.555  1.00  0.00     0.087 C 
BRANCH  11  12
ATOM     12  C   UNL     1      22.035  28.618 -16.520  1.00  0.00     0.066 C 
BRANCH  12  13
ATOM     13  C   UNL     1      22.742  29.272 -15.343  1.00  0.00     0.140 C 
ATOM     14  O   UNL     1      23.292  30.354 -15.487  1.00  0.00    -0.299 OA
BRANCH  13  15
ATOM     15  C   UNL     1      22.831  28.572 -14.008  1.00  0.00     0.106 CG0
ATOM     16  G   UNL     1      22.243  29.403 -12.877  1.00  0.00     0.000 G0
ENDBRANCH  13  15
ENDBRANCH  12  13
BRANCH  12  17
ATOM     17  C   UNL     1      22.740  28.908 -17.882  1.00  0.00    -0.006 C 
ATOM     18  C   UNL     1      24.013  28.077 -18.123  1.00  0.00     0.008 C 
ATOM     19  C   UNL     1      21.771  28.745 -19.063  1.00  0.00     0.008 C 
ENDBRANCH  12  17
ENDBRANCH  11  12
ENDBRANCH   1  11
TORSDOF 1
ENDMDL
MODEL 3
REMARK VINA RESULT:    -4.362      1.647      4.111
REMARK INTER + INTRA:          -6.785
REMARK INTER:                  -6.789
REMARK INTRA:                   0.004
REMARK UNBOUND:                -0.128
REMARK SMILES CC1=CCC[C@H](C)C(=O)C[C@@H](C(C)C)C(=O)C1
REMARK SMILES IDX 8 1 9 2 6 3 7 4 5 5 4 6 3 7 2 8 1 9 10 11 11 12 15 13 16 14
REMARK SMILES IDX 17 15 12 17 13 18 14 19
REMARK H PARENT
REMARK Flexibility Score: 70.00
ROOT
ATOM      1  C   UNL     1      22.875  29.606 -13.755  1.00  0.00     0.136 C 
ATOM      2  O   UNL     1      23.108  30.739 -14.150  1.00  0.00    -0.299 OA
ENDROOT
BRANCH   1   3
ATOM      3  C   UNL     1      22.710  29.333 -12.269  1.00  0.00     0.053 C 
ATOM      4  C   UNL     1      22.777  30.617 -11.426  1.00  0.00     0.016 C 
BRANCH   3   5
ATOM      5  C   UNL     1      21.421  28.535 -11.982  1.00  0.00     0.015 C 
BRANCH   5   6
ATOM      6  C   UNL     1      20.139  29.224 -12.489  1.00  0.00     0.028 C 
BRANCH   6   7
ATOM      7  C   UNL     1      19.071  28.206 -12.793  1.00  0.00    -0.028 C 
ATOM      8  C   UNL     1      18.672  27.859 -14.039  1.00  0.00    -0.070 CG0
ATOM      9  C   UNL     1      17.652  26.755 -14.173  1.00  0.00     0.039 C 
ATOM     10  G   UNL     1      19.193  28.536 -15.297  1.00  0.00     0.000 G0
ENDBRANCH   6   7
ENDBRANCH   5   6
ENDBRANCH   3   5
ENDBRANCH   1   3
BRANCH   1  11
ATOM     11  C   UNL     1      22.755  28.491 -14.766  1.00  0.00     0.087 C 
BRANCH  11  12
ATOM     12  C   UNL     1      21.737  28.823 -15.887  1.00  0.00     0.066 C 
BRANCH  12  13
ATOM     13  C   UNL     1      20.491  27.955 -15.780  1.00  0.00     0.140 C 
ATOM     14  O   UNL     1      20.531  26.786 -16.136  1.00  0.00    -0.299 OA
BRANCH  13  15
ATOM     15  C   UNL     1      19.182  28.535 -15.301  1.00  0.00     0.106 CG0
ATOM     16  G   UNL     1      18.666  27.844 -14.047  1.00  0.00     0.000 G0
ENDBRANCH  13  15
ENDBRANCH  12  13
BRANCH  12  17
ATOM     17  C   UNL     1      22.388  28.768 -17.304  1.00  0.00    -0.006 C 
ATOM     18  C   UNL     1      21.442  29.171 -18.450  1.00  0.00     0.008 C 
ATOM     19  C   UNL     1      23.675  29.604 -17.363  1.00  0.00     0.008 C 
ENDBRANCH  12  17
ENDBRANCH  11  12
ENDBRANCH   1  11
TORSDOF 1
ENDMDL
MODEL 4
REMARK VINA RESULT:    -4.240     15.375     17.439
REMARK INTER + INTRA:          -6.599
REMARK INTER:                  -6.390
REMARK INTRA:                  -0.209
REMARK UNBOUND:                -0.128
REMARK SMILES CC1=CCC[C@H](C)C(=O)C[C@@H](C(C)C)C(=O)C1
REMARK SMILES IDX 8 1 9 2 6 3 7 4 5 5 4 6 3 7 2 8 1 9 10 11 11 12 15 13 16 14
REMARK SMILES IDX 17 15 12 17 13 18 14 19
REMARK H PARENT
REMARK Flexibility Score: 70.00
ROOT
ATOM      1  C   UNL     1      31.794  35.932 -21.850  1.00  0.00     0.136 C 
ATOM      2  O   UNL     1      31.055  35.069 -21.399  1.00  0.00    -0.299 OA
ENDROOT
BRANCH   1   3
ATOM      3  C   UNL     1      33.088  35.543 -22.547  1.00  0.00     0.053 C 
ATOM      4  C   UNL     1      34.058  34.803 -21.611  1.00  0.00     0.016 C 
BRANCH   3   5
ATOM      5  C   UNL     1      32.816  34.735 -23.832  1.00  0.00     0.015 C 
BRANCH   5   6
ATOM      6  C   UNL     1      32.867  35.582 -25.119  1.00  0.00     0.028 C 
BRANCH   6   7
ATOM      7  C   UNL     1      34.052  36.513 -25.098  1.00  0.00    -0.028 C 
ATOM      8  C   UNL     1      33.969  37.860 -24.995  1.00  0.00    -0.070 CG0
ATOM      9  C   UNL     1      35.255  38.643 -24.896  1.00  0.00     0.039 C 
ATOM     10  G   UNL     1      32.647  38.613 -24.987  1.00  0.00     0.000 G0
ENDBRANCH   6   7
ENDBRANCH   5   6
ENDBRANCH   3   5
ENDBRANCH   1   3
BRANCH   1  11
ATOM     11  C   UNL     1      31.399  37.382 -21.704  1.00  0.00     0.087 C 
BRANCH  11  12
ATOM     12  C   UNL     1      30.978  38.013 -23.056  1.00  0.00     0.066 C 
BRANCH  12  13
ATOM     13  C   UNL     1      32.085  38.885 -23.631  1.00  0.00     0.140 C 
ATOM     14  O   UNL     1      32.499  39.842 -22.993  1.00  0.00    -0.299 OA
BRANCH  13  15
ATOM     15  C   UNL     1      32.638  38.623 -25.011  1.00  0.00     0.106 CG0
ATOM     16  G   UNL     1      33.957  37.865 -24.973  1.00  0.00     0.000 G0
ENDBRANCH  13  15
ENDBRANCH  12  13
BRANCH  12  17
ATOM     17  C   UNL     1      29.615  38.766 -22.951  1.00  0.00    -0.006 C 
ATOM     18  C   UNL     1      28.778  38.741 -24.242  1.00  0.00     0.008 C 
ATOM     19  C   UNL     1      28.778  38.250 -21.770  1.00  0.00     0.008 C 
ENDBRANCH  12  17
ENDBRANCH  11  12
ENDBRANCH   1  11
TORSDOF 1
ENDMDL
MODEL 5
REMARK VINA RESULT:    -4.216      2.689      4.529
REMARK INTER + INTRA:          -6.562
REMARK INTER:                  -6.570
REMARK INTRA:                   0.008
REMARK UNBOUND:                -0.128
REMARK SMILES CC1=CCC[C@H](C)C(=O)C[C@@H](C(C)C)C(=O)C1
REMARK SMILES IDX 8 1 9 2 6 3 7 4 5 5 4 6 3 7 2 8 1 9 10 11 11 12 15 13 16 14
REMARK SMILES IDX 17 15 12 17 13 18 14 19
REMARK H PARENT
REMARK Flexibility Score: 70.00
ROOT
ATOM      1  C   UNL     1      22.910  29.737 -13.873  1.00  0.00     0.136 C 
ATOM      2  O   UNL     1      23.100  30.217 -14.982  1.00  0.00    -0.299 OA
ENDROOT
BRANCH   1   3
ATOM      3  C   UNL     1      23.521  30.390 -12.644  1.00  0.00     0.053 C 
ATOM      4  C   UNL     1      22.709  31.603 -12.159  1.00  0.00     0.016 C 
BRANCH   3   5
ATOM      5  C   UNL     1      23.739  29.366 -11.511  1.00  0.00     0.015 C 
BRANCH   5   6
ATOM      6  C   UNL     1      23.072  29.764 -10.179  1.00  0.00     0.028 C 
BRANCH   6   7
ATOM      7  C   UNL     1      22.206  28.645  -9.661  1.00  0.00    -0.028 C 
ATOM      8  C   UNL     1      20.962  28.363 -10.113  1.00  0.00    -0.070 CG0
ATOM      9  C   UNL     1      20.263  27.150  -9.551  1.00  0.00     0.039 C 
ATOM     10  G   UNL     1      20.240  29.216 -11.146  1.00  0.00     0.000 G0
ENDBRANCH   6   7
ENDBRANCH   5   6
ENDBRANCH   3   5
ENDBRANCH   1   3
BRANCH   1  11
ATOM     11  C   UNL     1      22.062  28.495 -13.750  1.00  0.00     0.087 C 
BRANCH  11  12
ATOM     12  C   UNL     1      20.545  28.819 -13.744  1.00  0.00     0.066 C 
BRANCH  12  13
ATOM     13  C   UNL     1      19.903  28.446 -12.416  1.00  0.00     0.140 C 
ATOM     14  O   UNL     1      19.074  27.549 -12.371  1.00  0.00    -0.299 OA
BRANCH  13  15
ATOM     15  C   UNL     1      20.228  29.213 -11.156  1.00  0.00     0.106 CG0
ATOM     16  G   UNL     1      20.961  28.361 -10.131  1.00  0.00     0.000 G0
ENDBRANCH  13  15
ENDBRANCH  12  13
BRANCH  12  17
ATOM     17  C   UNL     1      19.808  28.189 -14.966  1.00  0.00    -0.006 C 
ATOM     18  C   UNL     1      18.948  29.183 -15.766  1.00  0.00     0.008 C 
ATOM     19  C   UNL     1      20.788  27.466 -15.902  1.00  0.00     0.008 C 
ENDBRANCH  12  17
ENDBRANCH  11  12
ENDBRANCH   1  11
TORSDOF 1
ENDMDL
MODEL 6
REMARK VINA RESULT:    -4.134     15.632     17.576
REMARK INTER + INTRA:          -6.437
REMARK INTER:                  -6.468
REMARK INTRA:                   0.031
REMARK UNBOUND:                -0.128
REMARK SMILES CC1=CCC[C@H](C)C(=O)C[C@@H](C(C)C)C(=O)C1
REMARK SMILES IDX 8 1 9 2 6 3 7 4 5 5 4 6 3 7 2 8 1 9 10 11 11 12 15 13 16 14
REMARK SMILES IDX 17 15 12 17 13 18 14 19
REMARK H PARENT
REMARK Flexibility Score: 70.00
ROOT
ATOM      1  C   UNL     1      31.319  36.933 -21.966  1.00  0.00     0.136 C 
ATOM      2  O   UNL     1      31.576  37.086 -20.780  1.00  0.00    -0.299 OA
ENDROOT
BRANCH   1   3
ATOM      3  C   UNL     1      30.342  37.865 -22.663  1.00  0.00     0.053 C 
ATOM      4  C   UNL     1      29.304  38.457 -21.696  1.00  0.00     0.016 C 
BRANCH   3   5
ATOM      5  C   UNL     1      31.079  38.971 -23.447  1.00  0.00     0.015 C 
BRANCH   5   6
ATOM      6  C   UNL     1      31.688  38.486 -24.778  1.00  0.00     0.028 C 
BRANCH   6   7
ATOM      7  C   UNL     1      33.153  38.829 -24.849  1.00  0.00    -0.028 C 
ATOM      8  C   UNL     1      34.155  37.919 -24.875  1.00  0.00    -0.070 CG0
ATOM      9  C   UNL     1      35.567  38.425 -25.039  1.00  0.00     0.039 C 
ATOM     10  G   UNL     1      33.922  36.422 -24.734  1.00  0.00     0.000 G0
ENDBRANCH   6   7
ENDBRANCH   5   6
ENDBRANCH   3   5
ENDBRANCH   1   3
BRANCH   1  11
ATOM     11  C   UNL     1      31.988  35.809 -22.718  1.00  0.00     0.087 C 
BRANCH  11  12
ATOM     12  C   UNL     1      33.456  35.592 -22.265  1.00  0.00     0.066 C 
BRANCH  12  13
ATOM     13  C   UNL     1      34.433  35.877 -23.395  1.00  0.00     0.140 C 
ATOM     14  O   UNL     1      35.633  35.729 -23.215  1.00  0.00    -0.299 OA
BRANCH  13  15
ATOM     15  C   UNL     1      33.948  36.405 -24.724  1.00  0.00     0.106 CG0
ATOM     16  G   UNL     1      34.153  37.906 -24.863  1.00  0.00     0.000 G0
ENDBRANCH  13  15
ENDBRANCH  12  13
BRANCH  12  17
ATOM     17  C   UNL     1      33.669  34.184 -21.627  1.00  0.00    -0.006 C 
ATOM     18  C   UNL     1      33.609  34.172 -20.089  1.00  0.00     0.008 C 
ATOM     19  C   UNL     1      32.686  33.152 -22.202  1.00  0.00     0.008 C 
ENDBRANCH  12  17
ENDBRANCH  11  12
ENDBRANCH   1  11
TORSDOF 1
ENDMDL
MODEL 7
REMARK VINA RESULT:    -4.065      2.407      4.009
REMARK INTER + INTRA:          -6.332
REMARK INTER:                  -6.250
REMARK INTRA:                  -0.082
REMARK UNBOUND:                -0.128
REMARK SMILES CC1=CCC[C@H](C)C(=O)C[C@@H](C(C)C)C(=O)C1
REMARK SMILES IDX 8 1 9 2 6 3 7 4 5 5 4 6 3 7 2 8 1 9 10 11 11 12 15 13 16 14
REMARK SMILES IDX 17 15 12 17 13 18 14 19
REMARK H PARENT
REMARK Flexibility Score: 70.00
ROOT
ATOM      1  C   UNL     1      19.022  28.113 -12.239  1.00  0.00     0.136 C 
ATOM      2  O   UNL     1      18.035  27.540 -12.678  1.00  0.00    -0.299 OA
ENDROOT
BRANCH   1   3
ATOM      3  C   UNL     1      19.471  27.876 -10.807  1.00  0.00     0.053 C 
ATOM      4  C   UNL     1      20.166  26.516 -10.628  1.00  0.00     0.016 C 
BRANCH   3   5
ATOM      5  C   UNL     1      20.351  29.033 -10.291  1.00  0.00     0.015 C 
BRANCH   5   6
ATOM      6  C   UNL     1      21.833  28.653 -10.113  1.00  0.00     0.028 C 
BRANCH   6   7
ATOM      7  C   UNL     1      22.730  29.715 -10.691  1.00  0.00    -0.028 C 
ATOM      8  C   UNL     1      23.254  29.684 -11.939  1.00  0.00    -0.070 CG0
ATOM      9  C   UNL     1      24.060  30.873 -12.399  1.00  0.00     0.039 C 
ATOM     10  G   UNL     1      23.075  28.507 -12.886  1.00  0.00     0.000 G0
ENDBRANCH   6   7
ENDBRANCH   5   6
ENDBRANCH   3   5
ENDBRANCH   1   3
BRANCH   1  11
ATOM     11  C   UNL     1      19.782  29.053 -13.143  1.00  0.00     0.087 C 
BRANCH  11  12
ATOM     12  C   UNL     1      20.735  28.298 -14.106  1.00  0.00     0.066 C 
BRANCH  12  13
ATOM     13  C   UNL     1      22.147  28.861 -14.046  1.00  0.00     0.140 C 
ATOM     14  O   UNL     1      22.565  29.556 -14.960  1.00  0.00    -0.299 OA
BRANCH  13  15
ATOM     15  C   UNL     1      23.067  28.521 -12.898  1.00  0.00     0.106 CG0
ATOM     16  G   UNL     1      23.257  29.688 -11.941  1.00  0.00     0.000 G0
ENDBRANCH  13  15
ENDBRANCH  12  13
BRANCH  12  17
ATOM     17  C   UNL     1      20.172  28.243 -15.561  1.00  0.00    -0.006 C 
ATOM     18  C   UNL     1      20.095  26.825 -16.155  1.00  0.00     0.008 C 
ATOM     19  C   UNL     1      18.802  28.932 -15.660  1.00  0.00     0.008 C 
ENDBRANCH  12  17
ENDBRANCH  11  12
ENDBRANCH   1  11
TORSDOF 1
ENDMDL
MODEL 8
REMARK VINA RESULT:    -4.061     14.834     16.944
REMARK INTER + INTRA:          -6.326
REMARK INTER:                  -6.779
REMARK INTRA:                   0.453
REMARK UNBOUND:                -0.128
REMARK SMILES CC1=CCC[C@H](C)C(=O)C[C@@H](C(C)C)C(=O)C1
REMARK SMILES IDX 8 1 9 2 6 3 7 4 5 5 4 6 3 7 2 8 1 9 10 11 11 12 15 13 16 14
REMARK SMILES IDX 17 15 12 17 13 18 14 19
REMARK H PARENT
REMARK Flexibility Score: 70.00
ROOT
ATOM      1  C   UNL     1      31.981  35.088 -20.904  1.00  0.00     0.136 C 
ATOM      2  O   UNL     1      30.926  34.490 -21.061  1.00  0.00    -0.299 OA
ENDROOT
BRANCH   1   3
ATOM      3  C   UNL     1      33.222  34.341 -20.443  1.00  0.00     0.053 C 
ATOM      4  C   UNL     1      32.881  33.018 -19.736  1.00  0.00     0.016 C 
BRANCH   3   5
ATOM      5  C   UNL     1      34.214  34.123 -21.603  1.00  0.00     0.015 C 
BRANCH   5   6
ATOM      6  C   UNL     1      35.146  35.324 -21.857  1.00  0.00     0.028 C 
BRANCH   6   7
ATOM      7  C   UNL     1      35.412  35.490 -23.330  1.00  0.00    -0.028 C 
ATOM      8  C   UNL     1      34.825  36.421 -24.118  1.00  0.00    -0.070 CG0
ATOM      9  C   UNL     1      35.269  36.515 -25.556  1.00  0.00     0.039 C 
ATOM     10  G   UNL     1      33.736  37.362 -23.622  1.00  0.00     0.000 G0
ENDBRANCH   6   7
ENDBRANCH   5   6
ENDBRANCH   3   5
ENDBRANCH   1   3
BRANCH   1  11
ATOM     11  C   UNL     1      32.028  36.572 -21.177  1.00  0.00     0.087 C 
BRANCH  11  12
ATOM     12  C   UNL     1      31.374  36.938 -22.535  1.00  0.00     0.066 C 
BRANCH  12  13
ATOM     13  C   UNL     1      32.354  36.770 -23.687  1.00  0.00     0.140 C 
ATOM     14  O   UNL     1      32.047  36.087 -24.652  1.00  0.00    -0.299 OA
BRANCH  13  15
ATOM     15  C   UNL     1      33.732  37.384 -23.626  1.00  0.00     0.106 CG0
ATOM     16  G   UNL     1      34.812  36.436 -24.123  1.00  0.00     0.000 G0
ENDBRANCH  13  15
ENDBRANCH  12  13
BRANCH  12  17
ATOM     17  C   UNL     1      30.719  38.355 -22.505  1.00  0.00    -0.006 C 
ATOM     18  C   UNL     1      30.906  39.164 -23.800  1.00  0.00     0.008 C 
ATOM     19  C   UNL     1      29.228  38.277 -22.142  1.00  0.00     0.008 C 
ENDBRANCH  12  17
ENDBRANCH  11  12
ENDBRANCH   1  11
TORSDOF 1
ENDMDL
MODEL 9
REMARK VINA RESULT:    -3.929     15.750     18.436
REMARK INTER + INTRA:          -6.125
REMARK INTER:                  -5.815
REMARK INTRA:                  -0.309
REMARK UNBOUND:                -0.128
REMARK SMILES CC1=CCC[C@H](C)C(=O)C[C@@H](C(C)C)C(=O)C1
REMARK SMILES IDX 8 1 9 2 6 3 7 4 5 5 4 6 3 7 2 8 1 9 10 11 11 12 15 13 16 14
REMARK SMILES IDX 17 15 12 17 13 18 14 19
REMARK H PARENT
REMARK Flexibility Score: 70.00
ROOT
ATOM      1  C   UNL     1      33.875  35.222 -22.793  1.00  0.00     0.136 C 
ATOM      2  O   UNL     1      34.810  34.952 -22.052  1.00  0.00    -0.299 OA
ENDROOT
BRANCH   1   3
ATOM      3  C   UNL     1      32.447  35.164 -22.275  1.00  0.00     0.053 C 
ATOM      4  C   UNL     1      31.976  33.724 -22.013  1.00  0.00     0.016 C 
BRANCH   3   5
ATOM      5  C   UNL     1      32.262  36.055 -21.030  1.00  0.00     0.015 C 
BRANCH   5   6
ATOM      6  C   UNL     1      32.252  37.564 -21.343  1.00  0.00     0.028 C 
BRANCH   6   7
ATOM      7  C   UNL     1      31.180  37.893 -22.348  1.00  0.00    -0.028 C 
ATOM      8  C   UNL     1      31.406  38.462 -23.556  1.00  0.00    -0.070 CG0
ATOM      9  C   UNL     1      30.232  38.643 -24.485  1.00  0.00     0.039 C 
ATOM     10  G   UNL     1      32.781  38.933 -24.007  1.00  0.00     0.000 G0
ENDBRANCH   6   7
ENDBRANCH   5   6
ENDBRANCH   3   5
ENDBRANCH   1   3
BRANCH   1  11
ATOM     11  C   UNL     1      34.166  35.613 -24.222  1.00  0.00     0.087 C 
BRANCH  11  12
ATOM     12  C   UNL     1      34.612  37.093 -24.345  1.00  0.00     0.066 C 
BRANCH  12  13
ATOM     13  C   UNL     1      33.496  37.965 -24.901  1.00  0.00     0.140 C 
ATOM     14  O   UNL     1      33.210  37.904 -26.088  1.00  0.00    -0.299 OA
BRANCH  13  15
ATOM     15  C   UNL     1      32.777  38.957 -24.018  1.00  0.00     0.106 CG0
ATOM     16  G   UNL     1      31.412  38.454 -23.574  1.00  0.00     0.000 G0
ENDBRANCH  13  15
ENDBRANCH  12  13
BRANCH  12  17
ATOM     17  C   UNL     1      35.943  37.236 -25.147  1.00  0.00    -0.006 C 
ATOM     18  C   UNL     1      36.528  38.660 -25.150  1.00  0.00     0.008 C 
ATOM     19  C   UNL     1      37.001  36.232 -24.665  1.00  0.00     0.008 C 
ENDBRANCH  12  17
ENDBRANCH  11  12
ENDBRANCH   1  11
TORSDOF 1
ENDMDL
