MODEL 1
REMARK VINA RESULT:    -2.993      0.000      0.000
REMARK INTER + INTRA:          -3.882
REMARK INTER:                  -3.518
REMARK INTRA:                  -0.365
REMARK UNBOUND:                -0.365
REMARK SMILES [NH3+][C@H](CO)C(=O)[O-]
REMARK SMILES IDX 3 1 2 2 1 3 5 7 6 8 7 9 4 10
REMARK H PARENT 1 4 1 5 1 6 4 11
REMARK Flexibility Score: inf
ROOT
ATOM      1  C   UNL     1      43.734  31.977  93.802  1.00  0.00     0.227 C 
ENDROOT
BRANCH   1   2
ATOM      2  C   UNL     1      44.004  30.732  92.940  1.00  0.00     0.253 C 
BRANCH   2   3
ATOM      3  N   UNL     1      42.776  29.953  92.730  1.00  0.00    -0.348 N 
ATOM      4  H   UNL     1      43.018  29.013  92.342  1.00  0.00     0.345 HD
ATOM      5  H   UNL     1      42.252  29.828  93.627  1.00  0.00     0.345 HD
ATOM      6  H   UNL     1      42.162  30.444  92.041  1.00  0.00     0.345 HD
ENDBRANCH   2   3
BRANCH   2   7
ATOM      7  C   UNL     1      44.631  31.117  91.626  1.00  0.00     0.102 C 
ATOM      8  O   UNL     1      43.913  31.436  90.640  1.00  0.00    -0.544 OA
ATOM      9  O   UNL     1      46.014  31.159  91.505  1.00  0.00    -0.544 OA
ENDBRANCH   2   7
ENDBRANCH   1   2
BRANCH   1  10
ATOM     10  O   UNL     1      44.504  33.063  93.359  1.00  0.00    -0.390 OA
ATOM     11  H   UNL     1      44.564  33.688  94.128  1.00  0.00     0.210 HD
ENDBRANCH   1  10
TORSDOF 4
ENDMDL
MODEL 2
REMARK VINA RESULT:    -2.900     17.507     18.412
REMARK INTER + INTRA:          -3.773
REMARK INTER:                  -3.532
REMARK INTRA:                  -0.241
REMARK UNBOUND:                -0.365
REMARK SMILES [NH3+][C@H](CO)C(=O)[O-]
REMARK SMILES IDX 3 1 2 2 1 3 5 7 6 8 7 9 4 10
REMARK H PARENT 1 4 1 5 1 6 4 11
REMARK Flexibility Score: inf
ROOT
ATOM      1  C   UNL     1      37.680  17.563  80.253  1.00  0.00     0.227 C 
ENDROOT
BRANCH   1   2
ATOM      2  C   UNL     1      37.558  19.088  80.403  1.00  0.00     0.253 C 
BRANCH   2   3
ATOM      3  N   UNL     1      36.976  19.452  81.702  1.00  0.00    -0.348 N 
ATOM      4  H   UNL     1      37.526  19.005  82.471  1.00  0.00     0.345 HD
ATOM      5  H   UNL     1      36.978  20.488  81.838  1.00  0.00     0.345 HD
ATOM      6  H   UNL     1      35.992  19.101  81.757  1.00  0.00     0.345 HD
ENDBRANCH   2   3
BRANCH   2   7
ATOM      7  C   UNL     1      38.894  19.754  80.204  1.00  0.00     0.102 C 
ATOM      8  O   UNL     1      39.954  19.198  80.599  1.00  0.00    -0.544 OA
ATOM      9  O   UNL     1      38.968  20.975  79.545  1.00  0.00    -0.544 OA
ENDBRANCH   2   7
ENDBRANCH   1   2
BRANCH   1  10
ATOM     10  O   UNL     1      38.445  17.234  79.124  1.00  0.00    -0.390 OA
ATOM     11  H   UNL     1      38.895  16.375  79.338  1.00  0.00     0.210 HD
ENDBRANCH   1  10
TORSDOF 4
ENDMDL
MODEL 3
REMARK VINA RESULT:    -2.830     17.562     18.518
REMARK INTER + INTRA:          -3.691
REMARK INTER:                  -3.685
REMARK INTRA:                  -0.005
REMARK UNBOUND:                -0.365
REMARK SMILES [NH3+][C@H](CO)C(=O)[O-]
REMARK SMILES IDX 3 1 2 2 1 3 5 7 6 8 7 9 4 10
REMARK H PARENT 1 4 1 5 1 6 4 11
REMARK Flexibility Score: inf
ROOT
ATOM      1  C   UNL     1      37.664  17.745  80.119  1.00  0.00     0.227 C 
ENDROOT
BRANCH   1   2
ATOM      2  C   UNL     1      38.499  18.962  80.552  1.00  0.00     0.253 C 
BRANCH   2   3
ATOM      3  N   UNL     1      39.671  19.141  79.685  1.00  0.00    -0.348 N 
ATOM      4  H   UNL     1      39.485  18.713  78.749  1.00  0.00     0.345 HD
ATOM      5  H   UNL     1      39.893  20.155  79.558  1.00  0.00     0.345 HD
ATOM      6  H   UNL     1      40.497  18.660  80.107  1.00  0.00     0.345 HD
ENDBRANCH   2   3
BRANCH   2   7
ATOM      7  C   UNL     1      37.653  20.208  80.582  1.00  0.00     0.102 C 
ATOM      8  O   UNL     1      37.966  21.214  79.890  1.00  0.00    -0.544 OA
ATOM      9  O   UNL     1      36.493  20.239  81.347  1.00  0.00    -0.544 OA
ENDBRANCH   2   7
ENDBRANCH   1   2
BRANCH   1  10
ATOM     10  O   UNL     1      38.399  16.921  79.255  1.00  0.00    -0.390 OA
ATOM     11  H   UNL     1      37.918  16.052  79.229  1.00  0.00     0.210 HD
ENDBRANCH   1  10
TORSDOF 4
ENDMDL
MODEL 4
REMARK VINA RESULT:    -2.820     19.653     20.341
REMARK INTER + INTRA:          -3.680
REMARK INTER:                  -3.291
REMARK INTRA:                  -0.389
REMARK UNBOUND:                -0.365
REMARK SMILES [NH3+][C@H](CO)C(=O)[O-]
REMARK SMILES IDX 3 1 2 2 1 3 5 7 6 8 7 9 4 10
REMARK H PARENT 1 4 1 5 1 6 4 11
REMARK Flexibility Score: inf
ROOT
ATOM      1  C   UNL     1      45.831  17.032  77.069  1.00  0.00     0.227 C 
ENDROOT
BRANCH   1   2
ATOM      2  C   UNL     1      45.882  18.449  77.663  1.00  0.00     0.253 C 
BRANCH   2   3
ATOM      3  N   UNL     1      46.908  18.553  78.710  1.00  0.00    -0.348 N 
ATOM      4  H   UNL     1      46.873  17.706  79.322  1.00  0.00     0.345 HD
ATOM      5  H   UNL     1      47.863  18.634  78.292  1.00  0.00     0.345 HD
ATOM      6  H   UNL     1      46.721  19.394  79.302  1.00  0.00     0.345 HD
ENDBRANCH   2   3
BRANCH   2   7
ATOM      7  C   UNL     1      46.108  19.474  76.582  1.00  0.00     0.102 C 
ATOM      8  O   UNL     1      47.251  19.971  76.397  1.00  0.00    -0.544 OA
ATOM      9  O   UNL     1      45.058  19.848  75.753  1.00  0.00    -0.544 OA
ENDBRANCH   2   7
ENDBRANCH   1   2
BRANCH   1  10
ATOM     10  O   UNL     1      46.165  17.051  75.708  1.00  0.00    -0.390 OA
ATOM     11  H   UNL     1      45.519  17.668  75.275  1.00  0.00     0.210 HD
ENDBRANCH   1  10
TORSDOF 4
ENDMDL
MODEL 5
REMARK VINA RESULT:    -2.675      2.086      2.194
REMARK INTER + INTRA:          -3.509
REMARK INTER:                  -3.503
REMARK INTRA:                  -0.006
REMARK UNBOUND:                -0.365
REMARK SMILES [NH3+][C@H](CO)C(=O)[O-]
REMARK SMILES IDX 3 1 2 2 1 3 5 7 6 8 7 9 4 10
REMARK H PARENT 1 4 1 5 1 6 4 11
REMARK Flexibility Score: inf
ROOT
ATOM      1  C   UNL     1      43.862  31.833  93.619  1.00  0.00     0.227 C 
ENDROOT
BRANCH   1   2
ATOM      2  C   UNL     1      44.183  31.003  92.365  1.00  0.00     0.253 C 
BRANCH   2   3
ATOM      3  N   UNL     1      45.172  31.680  91.516  1.00  0.00    -0.348 N 
ATOM      4  H   UNL     1      44.738  31.925  90.596  1.00  0.00     0.345 HD
ATOM      5  H   UNL     1      45.523  32.554  91.971  1.00  0.00     0.345 HD
ATOM      6  H   UNL     1      45.979  31.040  91.337  1.00  0.00     0.345 HD
ENDBRANCH   2   3
BRANCH   2   7
ATOM      7  C   UNL     1      44.652  29.622  92.744  1.00  0.00     0.102 C 
ATOM      8  O   UNL     1      43.977  28.909  93.533  1.00  0.00    -0.544 OA
ATOM      9  O   UNL     1      45.820  29.112  92.189  1.00  0.00    -0.544 OA
ENDBRANCH   2   7
ENDBRANCH   1   2
BRANCH   1  10
ATOM     10  O   UNL     1      44.392  33.127  93.507  1.00  0.00    -0.390 OA
ATOM     11  H   UNL     1      44.513  33.455  94.437  1.00  0.00     0.210 HD
ENDBRANCH   1  10
TORSDOF 4
ENDMDL
MODEL 6
REMARK VINA RESULT:    -2.669      8.340      8.635
REMARK INTER + INTRA:          -3.502
REMARK INTER:                  -3.133
REMARK INTRA:                  -0.370
REMARK UNBOUND:                -0.365
REMARK SMILES [NH3+][C@H](CO)C(=O)[O-]
REMARK SMILES IDX 3 1 2 2 1 3 5 7 6 8 7 9 4 10
REMARK H PARENT 1 4 1 5 1 6 4 11
REMARK Flexibility Score: inf
ROOT
ATOM      1  C   UNL     1      48.850  35.782  87.773  1.00  0.00     0.227 C 
ENDROOT
BRANCH   1   2
ATOM      2  C   UNL     1      48.577  34.751  86.665  1.00  0.00     0.253 C 
BRANCH   2   3
ATOM      3  N   UNL     1      47.929  35.374  85.504  1.00  0.00    -0.348 N 
ATOM      4  H   UNL     1      47.287  36.135  85.825  1.00  0.00     0.345 HD
ATOM      5  H   UNL     1      48.639  35.779  84.851  1.00  0.00     0.345 HD
ATOM      6  H   UNL     1      47.361  34.661  84.993  1.00  0.00     0.345 HD
ENDBRANCH   2   3
BRANCH   2   7
ATOM      7  C   UNL     1      49.848  34.049  86.263  1.00  0.00     0.102 C 
ATOM      8  O   UNL     1      50.424  34.336  85.179  1.00  0.00    -0.544 OA
ATOM      9  O   UNL     1      50.415  33.105  87.110  1.00  0.00    -0.544 OA
ENDBRANCH   2   7
ENDBRANCH   1   2
BRANCH   1  10
ATOM     10  O   UNL     1      50.209  36.125  87.809  1.00  0.00    -0.390 OA
ATOM     11  H   UNL     1      50.273  37.035  87.416  1.00  0.00     0.210 HD
ENDBRANCH   1  10
TORSDOF 4
ENDMDL
MODEL 7
REMARK VINA RESULT:    -2.539     17.707     17.901
REMARK INTER + INTRA:          -3.349
REMARK INTER:                  -3.137
REMARK INTRA:                  -0.212
REMARK UNBOUND:                -0.365
REMARK SMILES [NH3+][C@H](CO)C(=O)[O-]
REMARK SMILES IDX 3 1 2 2 1 3 5 7 6 8 7 9 4 10
REMARK H PARENT 1 4 1 5 1 6 4 11
REMARK Flexibility Score: inf
ROOT
ATOM      1  C   UNL     1      37.280  19.199  80.897  1.00  0.00     0.227 C 
ENDROOT
BRANCH   1   2
ATOM      2  C   UNL     1      38.662  18.701  80.441  1.00  0.00     0.253 C 
BRANCH   2   3
ATOM      3  N   UNL     1      38.540  17.619  79.455  1.00  0.00    -0.348 N 
ATOM      4  H   UNL     1      38.427  18.025  78.498  1.00  0.00     0.345 HD
ATOM      5  H   UNL     1      39.385  17.003  79.467  1.00  0.00     0.345 HD
ATOM      6  H   UNL     1      37.694  17.043  79.669  1.00  0.00     0.345 HD
ENDBRANCH   2   3
BRANCH   2   7
ATOM      7  C   UNL     1      39.487  19.838  79.896  1.00  0.00     0.102 C 
ATOM      8  O   UNL     1      38.979  20.979  79.731  1.00  0.00    -0.544 OA
ATOM      9  O   UNL     1      40.832  19.640  79.609  1.00  0.00    -0.544 OA
ENDBRANCH   2   7
ENDBRANCH   1   2
BRANCH   1  10
ATOM     10  O   UNL     1      37.378  19.890  82.113  1.00  0.00    -0.390 OA
ATOM     11  H   UNL     1      38.315  20.212  82.172  1.00  0.00     0.210 HD
ENDBRANCH   1  10
TORSDOF 4
ENDMDL
MODEL 8
REMARK VINA RESULT:    -2.536      1.927      2.403
REMARK INTER + INTRA:          -3.345
REMARK INTER:                  -2.957
REMARK INTRA:                  -0.388
REMARK UNBOUND:                -0.365
REMARK SMILES [NH3+][C@H](CO)C(=O)[O-]
REMARK SMILES IDX 3 1 2 2 1 3 5 7 6 8 7 9 4 10
REMARK H PARENT 1 4 1 5 1 6 4 11
REMARK Flexibility Score: inf
ROOT
ATOM      1  C   UNL     1      43.991  30.136  93.386  1.00  0.00     0.227 C 
ENDROOT
BRANCH   1   2
ATOM      2  C   UNL     1      44.149  31.323  92.420  1.00  0.00     0.253 C 
BRANCH   2   3
ATOM      3  N   UNL     1      44.562  32.539  93.132  1.00  0.00    -0.348 N 
ATOM      4  H   UNL     1      44.262  33.383  92.592  1.00  0.00     0.345 HD
ATOM      5  H   UNL     1      44.140  32.576  94.088  1.00  0.00     0.345 HD
ATOM      6  H   UNL     1      45.604  32.559  93.218  1.00  0.00     0.345 HD
ENDBRANCH   2   3
BRANCH   2   7
ATOM      7  C   UNL     1      45.117  30.988  91.315  1.00  0.00     0.102 C 
ATOM      8  O   UNL     1      46.302  31.414  91.349  1.00  0.00    -0.544 OA
ATOM      9  O   UNL     1      44.713  30.171  90.266  1.00  0.00    -0.544 OA
ENDBRANCH   2   7
ENDBRANCH   1   2
BRANCH   1  10
ATOM     10  O   UNL     1      44.996  29.182  93.169  1.00  0.00    -0.390 OA
ATOM     11  H   UNL     1      44.568  28.442  92.665  1.00  0.00     0.210 HD
ENDBRANCH   1  10
TORSDOF 4
ENDMDL
MODEL 9
REMARK VINA RESULT:    -2.470      8.227      9.034
REMARK INTER + INTRA:          -3.268
REMARK INTER:                  -2.886
REMARK INTRA:                  -0.382
REMARK UNBOUND:                -0.365
REMARK SMILES [NH3+][C@H](CO)C(=O)[O-]
REMARK SMILES IDX 3 1 2 2 1 3 5 7 6 8 7 9 4 10
REMARK H PARENT 1 4 1 5 1 6 4 11
REMARK Flexibility Score: inf
ROOT
ATOM      1  C   UNL     1      51.190  34.444  86.274  1.00  0.00     0.227 C 
ENDROOT
BRANCH   1   2
ATOM      2  C   UNL     1      50.737  34.849  87.687  1.00  0.00     0.253 C 
BRANCH   2   3
ATOM      3  N   UNL     1      51.397  36.086  88.126  1.00  0.00    -0.348 N 
ATOM      4  H   UNL     1      51.612  36.027  89.148  1.00  0.00     0.345 HD
ATOM      5  H   UNL     1      52.287  36.244  87.599  1.00  0.00     0.345 HD
ATOM      6  H   UNL     1      50.759  36.899  87.971  1.00  0.00     0.345 HD
ENDBRANCH   2   3
BRANCH   2   7
ATOM      7  C   UNL     1      49.238  34.987  87.748  1.00  0.00     0.102 C 
ATOM      8  O   UNL     1      48.697  36.125  87.757  1.00  0.00    -0.544 OA
ATOM      9  O   UNL     1      48.438  33.850  87.756  1.00  0.00    -0.544 OA
ENDBRANCH   2   7
ENDBRANCH   1   2
BRANCH   1  10
ATOM     10  O   UNL     1      50.147  34.608  85.351  1.00  0.00    -0.390 OA
ATOM     11  H   UNL     1      50.562  34.990  84.533  1.00  0.00     0.210 HD
ENDBRANCH   1  10
TORSDOF 4
ENDMDL
