MODEL 1
REMARK VINA RESULT:    -4.188      0.000      0.000
REMARK INTER + INTRA:          -4.751
REMARK INTER:                  -4.433
REMARK INTRA:                  -0.318
REMARK UNBOUND:                -0.318
REMARK SMILES c1ccc(-c2ccccc2)cc1
REMARK SMILES IDX 1 1 2 2 3 3 4 4 11 5 12 6 5 7 6 8 10 9 7 10 9 11 8 12
REMARK H PARENT
REMARK Flexibility Score: inf
ROOT
ATOM      1  C   UNL     1      30.875   7.894  21.844  1.00  0.00     0.000 A 
ATOM      2  C   UNL     1      30.875   8.998  22.700  1.00  0.00     0.001 A 
ATOM      3  C   UNL     1      31.996   9.832  22.769  1.00  0.00     0.009 A 
ATOM      4  C   UNL     1      33.132   9.568  21.980  1.00  0.00    -0.018 A 
ATOM      5  C   UNL     1      33.119   8.451  21.122  1.00  0.00     0.009 A 
ATOM      6  C   UNL     1      31.996   7.621  21.057  1.00  0.00     0.001 A 
ENDROOT
BRANCH   4   7
ATOM      7  C   UNL     1      34.323  10.451  22.053  1.00  0.00    -0.018 A 
ATOM      8  C   UNL     1      35.259  10.480  21.000  1.00  0.00     0.009 A 
ATOM      9  C   UNL     1      34.537  11.275  23.174  1.00  0.00     0.009 A 
ATOM     10  C   UNL     1      36.379  11.313  21.070  1.00  0.00     0.001 A 
ATOM     11  C   UNL     1      35.660  12.106  23.240  1.00  0.00     0.001 A 
ATOM     12  C   UNL     1      36.580  12.125  22.189  1.00  0.00     0.000 A 
ENDBRANCH   4   7
TORSDOF 1
ENDMDL
MODEL 2
REMARK VINA RESULT:    -4.180      1.551      5.208
REMARK INTER + INTRA:          -4.743
REMARK INTER:                  -4.444
REMARK INTRA:                  -0.299
REMARK UNBOUND:                -0.318
REMARK SMILES c1ccc(-c2ccccc2)cc1
REMARK SMILES IDX 1 1 2 2 3 3 4 4 11 5 12 6 5 7 6 8 10 9 7 10 9 11 8 12
REMARK H PARENT
REMARK Flexibility Score: inf
ROOT
ATOM      1  C   UNL     1      38.635  11.059  22.635  1.00  0.00     0.000 A 
ATOM      2  C   UNL     1      38.135   9.771  22.842  1.00  0.00     0.001 A 
ATOM      3  C   UNL     1      36.755   9.545  22.840  1.00  0.00     0.009 A 
ATOM      4  C   UNL     1      35.858  10.610  22.632  1.00  0.00    -0.018 A 
ATOM      5  C   UNL     1      36.375  11.904  22.425  1.00  0.00     0.009 A 
ATOM      6  C   UNL     1      37.755  12.124  22.428  1.00  0.00     0.001 A 
ENDROOT
BRANCH   4   7
ATOM      7  C   UNL     1      34.392  10.374  22.630  1.00  0.00    -0.018 A 
ATOM      8  C   UNL     1      33.545  11.122  23.471  1.00  0.00     0.009 A 
ATOM      9  C   UNL     1      33.825   9.399  21.788  1.00  0.00     0.009 A 
ATOM     10  C   UNL     1      32.165  10.898  23.466  1.00  0.00     0.001 A 
ATOM     11  C   UNL     1      32.444   9.178  21.788  1.00  0.00     0.001 A 
ATOM     12  C   UNL     1      31.615   9.926  22.627  1.00  0.00     0.000 A 
ENDBRANCH   4   7
TORSDOF 1
ENDMDL
MODEL 3
REMARK VINA RESULT:    -4.162      1.380      4.866
REMARK INTER + INTRA:          -4.724
REMARK INTER:                  -4.407
REMARK INTRA:                  -0.317
REMARK UNBOUND:                -0.318
REMARK SMILES c1ccc(-c2ccccc2)cc1
REMARK SMILES IDX 1 1 2 2 3 3 4 4 11 5 12 6 5 7 6 8 10 9 7 10 9 11 8 12
REMARK H PARENT
REMARK Flexibility Score: inf
ROOT
ATOM      1  C   UNL     1      38.484  11.134  22.452  1.00  0.00     0.000 A 
ATOM      2  C   UNL     1      37.605  12.125  22.895  1.00  0.00     0.001 A 
ATOM      3  C   UNL     1      36.230  11.877  22.932  1.00  0.00     0.009 A 
ATOM      4  C   UNL     1      35.718  10.631  22.522  1.00  0.00    -0.018 A 
ATOM      5  C   UNL     1      36.614   9.641  22.076  1.00  0.00     0.009 A 
ATOM      6  C   UNL     1      37.989   9.894  22.042  1.00  0.00     0.001 A 
ENDROOT
BRANCH   4   7
ATOM      7  C   UNL     1      34.257  10.366  22.559  1.00  0.00    -0.018 A 
ATOM      8  C   UNL     1      33.684   9.396  21.713  1.00  0.00     0.009 A 
ATOM      9  C   UNL     1      33.421  11.078  23.440  1.00  0.00     0.009 A 
ATOM     10  C   UNL     1      32.309   9.148  21.750  1.00  0.00     0.001 A 
ATOM     11  C   UNL     1      32.046  10.826  23.473  1.00  0.00     0.001 A 
ATOM     12  C   UNL     1      31.490   9.862  22.628  1.00  0.00     0.000 A 
ENDBRANCH   4   7
TORSDOF 1
ENDMDL
MODEL 4
REMARK VINA RESULT:    -4.131      1.443      2.369
REMARK INTER + INTRA:          -4.691
REMARK INTER:                  -4.378
REMARK INTRA:                  -0.313
REMARK UNBOUND:                -0.318
REMARK SMILES c1ccc(-c2ccccc2)cc1
REMARK SMILES IDX 1 1 2 2 3 3 4 4 11 5 12 6 5 7 6 8 10 9 7 10 9 11 8 12
REMARK H PARENT
REMARK Flexibility Score: inf
ROOT
ATOM      1  C   UNL     1      31.529   9.773  22.516  1.00  0.00     0.000 A 
ATOM      2  C   UNL     1      32.382   9.009  21.717  1.00  0.00     0.001 A 
ATOM      3  C   UNL     1      33.758   9.263  21.716  1.00  0.00     0.009 A 
ATOM      4  C   UNL     1      34.294  10.289  22.517  1.00  0.00    -0.018 A 
ATOM      5  C   UNL     1      33.423  11.053  23.318  1.00  0.00     0.009 A 
ATOM      6  C   UNL     1      32.049  10.795  23.315  1.00  0.00     0.001 A 
ENDROOT
BRANCH   4   7
ATOM      7  C   UNL     1      35.754  10.562  22.518  1.00  0.00    -0.018 A 
ATOM      8  C   UNL     1      36.678   9.518  22.316  1.00  0.00     0.009 A 
ATOM      9  C   UNL     1      36.238  11.869  22.719  1.00  0.00     0.009 A 
ATOM     10  C   UNL     1      38.051   9.778  22.316  1.00  0.00     0.001 A 
ATOM     11  C   UNL     1      37.613  12.123  22.719  1.00  0.00     0.001 A 
ATOM     12  C   UNL     1      38.519  11.079  22.518  1.00  0.00     0.000 A 
ENDBRANCH   4   7
TORSDOF 1
ENDMDL
MODEL 5
REMARK VINA RESULT:    -4.116      1.467      2.065
REMARK INTER + INTRA:          -4.674
REMARK INTER:                  -4.359
REMARK INTRA:                  -0.316
REMARK UNBOUND:                -0.318
REMARK SMILES c1ccc(-c2ccccc2)cc1
REMARK SMILES IDX 1 1 2 2 3 3 4 4 11 5 12 6 5 7 6 8 10 9 7 10 9 11 8 12
REMARK H PARENT
REMARK Flexibility Score: inf
ROOT
ATOM      1  C   UNL     1      31.596  10.006  22.512  1.00  0.00     0.000 A 
ATOM      2  C   UNL     1      32.149  11.000  23.322  1.00  0.00     0.001 A 
ATOM      3  C   UNL     1      33.531  11.212  23.329  1.00  0.00     0.009 A 
ATOM      4  C   UNL     1      34.377  10.426  22.523  1.00  0.00    -0.018 A 
ATOM      5  C   UNL     1      33.807   9.426  21.711  1.00  0.00     0.009 A 
ATOM      6  C   UNL     1      32.424   9.219  21.709  1.00  0.00     0.001 A 
ENDROOT
BRANCH   4   7
ATOM      7  C   UNL     1      35.846  10.648  22.529  1.00  0.00    -0.018 A 
ATOM      8  C   UNL     1      36.730   9.592  22.236  1.00  0.00     0.009 A 
ATOM      9  C   UNL     1      36.377  11.917  22.827  1.00  0.00     0.009 A 
ATOM     10  C   UNL     1      38.112   9.803  22.241  1.00  0.00     0.001 A 
ATOM     11  C   UNL     1      37.760  12.123  22.832  1.00  0.00     0.001 A 
ATOM     12  C   UNL     1      38.627  11.067  22.539  1.00  0.00     0.000 A 
ENDBRANCH   4   7
TORSDOF 1
ENDMDL
MODEL 6
REMARK VINA RESULT:    -4.071      0.321      2.001
REMARK INTER + INTRA:          -4.627
REMARK INTER:                  -4.311
REMARK INTRA:                  -0.316
REMARK UNBOUND:                -0.318
REMARK SMILES c1ccc(-c2ccccc2)cc1
REMARK SMILES IDX 1 1 2 2 3 3 4 4 11 5 12 6 5 7 6 8 10 9 7 10 9 11 8 12
REMARK H PARENT
REMARK Flexibility Score: inf
ROOT
ATOM      1  C   UNL     1      30.895   7.674  21.768  1.00  0.00     0.000 A 
ATOM      2  C   UNL     1      32.009   7.392  20.975  1.00  0.00     0.001 A 
ATOM      3  C   UNL     1      33.107   8.258  20.974  1.00  0.00     0.009 A 
ATOM      4  C   UNL     1      33.100   9.420  21.769  1.00  0.00    -0.018 A 
ATOM      5  C   UNL     1      31.970   9.694  22.563  1.00  0.00     0.009 A 
ATOM      6  C   UNL     1      30.875   8.825  22.560  1.00  0.00     0.001 A 
ENDROOT
BRANCH   4   7
ATOM      7  C   UNL     1      34.265  10.342  21.769  1.00  0.00    -0.018 A 
ATOM      8  C   UNL     1      34.553  11.131  22.900  1.00  0.00     0.009 A 
ATOM      9  C   UNL     1      35.099  10.442  20.640  1.00  0.00     0.009 A 
ATOM     10  C   UNL     1      35.650  11.997  22.897  1.00  0.00     0.001 A 
ATOM     11  C   UNL     1      36.195  11.311  20.642  1.00  0.00     0.001 A 
ATOM     12  C   UNL     1      36.470  12.088  21.770  1.00  0.00     0.000 A 
ENDBRANCH   4   7
TORSDOF 1
ENDMDL
MODEL 7
REMARK VINA RESULT:    -4.015      1.475      3.084
REMARK INTER + INTRA:          -4.568
REMARK INTER:                  -4.245
REMARK INTRA:                  -0.323
REMARK UNBOUND:                -0.318
REMARK SMILES c1ccc(-c2ccccc2)cc1
REMARK SMILES IDX 1 1 2 2 3 3 4 4 11 5 12 6 5 7 6 8 10 9 7 10 9 11 8 12
REMARK H PARENT
REMARK Flexibility Score: inf
ROOT
ATOM      1  C   UNL     1      31.795   5.525  19.672  1.00  0.00     0.000 A 
ATOM      2  C   UNL     1      30.875   6.020  20.599  1.00  0.00     0.001 A 
ATOM      3  C   UNL     1      31.145   7.203  21.294  1.00  0.00     0.009 A 
ATOM      4  C   UNL     1      32.345   7.905  21.068  1.00  0.00    -0.018 A 
ATOM      5  C   UNL     1      33.265   7.396  20.132  1.00  0.00     0.009 A 
ATOM      6  C   UNL     1      32.990   6.212  19.440  1.00  0.00     0.001 A 
ENDROOT
BRANCH   4   7
ATOM      7  C   UNL     1      32.635   9.161  21.806  1.00  0.00    -0.018 A 
ATOM      8  C   UNL     1      31.678   9.719  22.676  1.00  0.00     0.009 A 
ATOM      9  C   UNL     1      33.872   9.815  21.648  1.00  0.00     0.009 A 
ATOM     10  C   UNL     1      31.954  10.900  23.369  1.00  0.00     0.001 A 
ATOM     11  C   UNL     1      34.143  10.997  22.343  1.00  0.00     0.001 A 
ATOM     12  C   UNL     1      33.185  11.540  23.203  1.00  0.00     0.000 A 
ENDBRANCH   4   7
TORSDOF 1
ENDMDL
MODEL 8
REMARK VINA RESULT:    -4.006      1.460      3.279
REMARK INTER + INTRA:          -4.559
REMARK INTER:                  -4.237
REMARK INTRA:                  -0.322
REMARK UNBOUND:                -0.318
REMARK SMILES c1ccc(-c2ccccc2)cc1
REMARK SMILES IDX 1 1 2 2 3 3 4 4 11 5 12 6 5 7 6 8 10 9 7 10 9 11 8 12
REMARK H PARENT
REMARK Flexibility Score: inf
ROOT
ATOM      1  C   UNL     1      31.745   5.597  19.591  1.00  0.00     0.000 A 
ATOM      2  C   UNL     1      32.877   6.349  19.270  1.00  0.00     0.001 A 
ATOM      3  C   UNL     1      33.176   7.510  19.991  1.00  0.00     0.009 A 
ATOM      4  C   UNL     1      32.340   7.931  21.043  1.00  0.00    -0.018 A 
ATOM      5  C   UNL     1      31.201   7.165  21.356  1.00  0.00     0.009 A 
ATOM      6  C   UNL     1      30.907   6.005  20.632  1.00  0.00     0.001 A 
ENDROOT
BRANCH   4   7
ATOM      7  C   UNL     1      32.655   9.164  21.809  1.00  0.00    -0.018 A 
ATOM      8  C   UNL     1      31.716   9.707  22.709  1.00  0.00     0.009 A 
ATOM      9  C   UNL     1      33.896   9.809  21.650  1.00  0.00     0.009 A 
ATOM     10  C   UNL     1      32.015  10.867  23.429  1.00  0.00     0.001 A 
ATOM     11  C   UNL     1      34.189  10.970  22.373  1.00  0.00     0.001 A 
ATOM     12  C   UNL     1      33.250  11.498  23.262  1.00  0.00     0.000 A 
ENDBRANCH   4   7
TORSDOF 1
ENDMDL
MODEL 9
REMARK VINA RESULT:    -2.012      1.424      5.181
REMARK INTER + INTRA:          -2.447
REMARK INTER:                  -2.134
REMARK INTRA:                  -0.313
REMARK UNBOUND:                -0.318
REMARK SMILES c1ccc(-c2ccccc2)cc1
REMARK SMILES IDX 1 1 2 2 3 3 4 4 11 5 12 6 5 7 6 8 10 9 7 10 9 11 8 12
REMARK H PARENT
REMARK Flexibility Score: inf
ROOT
ATOM      1  C   UNL     1      33.604  11.355  23.252  1.00  0.00     0.000 A 
ATOM      2  C   UNL     1      34.534  10.650  22.486  1.00  0.00     0.001 A 
ATOM      3  C   UNL     1      34.127   9.545  21.731  1.00  0.00     0.009 A 
ATOM      4  C   UNL     1      32.781   9.133  21.737  1.00  0.00    -0.018 A 
ATOM      5  C   UNL     1      31.853   9.852  22.514  1.00  0.00     0.009 A 
ATOM      6  C   UNL     1      32.265  10.956  23.267  1.00  0.00     0.001 A 
ENDROOT
BRANCH   4   7
ATOM      7  C   UNL     1      32.347   7.959  20.937  1.00  0.00    -0.018 A 
ATOM      8  C   UNL     1      31.282   7.148  21.375  1.00  0.00     0.009 A 
ATOM      9  C   UNL     1      32.991   7.639  19.727  1.00  0.00     0.009 A 
ATOM     10  C   UNL     1      30.875   6.044  20.620  1.00  0.00     0.001 A 
ATOM     11  C   UNL     1      32.581   6.533  18.976  1.00  0.00     0.001 A 
ATOM     12  C   UNL     1      31.524   5.737  19.422  1.00  0.00     0.000 A 
ENDBRANCH   4   7
TORSDOF 1
ENDMDL
