MODEL 1
REMARK VINA RESULT:    -5.079      0.000      0.000
REMARK INTER + INTRA:          -5.228
REMARK INTER:                  -5.228
REMARK INTRA:                   0.000
REMARK UNBOUND:                 0.000
REMARK SMILES O=c1ccc2ccc(O)cc2o1
REMARK SMILES IDX 6 1 7 2 8 3 10 4 11 5 5 6 4 7 3 8 2 9 1 10 12 11 9 12
REMARK H PARENT 9 13
REMARK Flexibility Score: inf
ROOT
ATOM      1  C   UNL     1       8.238  -8.002  -6.767  1.00  0.00     0.016 A 
ATOM      2  C   UNL     1       7.627  -7.129  -5.860  1.00  0.00     0.047 A 
ATOM      3  C   UNL     1       8.066  -5.805  -5.747  1.00  0.00     0.119 A 
ATOM      4  C   UNL     1       9.125  -5.348  -6.546  1.00  0.00     0.094 A 
ATOM      5  C   UNL     1       9.742  -6.214  -7.455  1.00  0.00     0.142 A 
ATOM      6  C   UNL     1       9.296  -7.550  -7.567  1.00  0.00     0.018 A 
ATOM      7  C   UNL     1       9.932  -8.390  -8.486  1.00  0.00     0.019 A 
ATOM      8  C   UNL     1      10.980  -7.892  -9.259  1.00  0.00     0.094 A 
ATOM      9  C   UNL     1      11.368  -6.557  -9.094  1.00  0.00     0.336 A 
ATOM     10  O   UNL     1      12.312  -6.089  -9.782  1.00  0.00    -0.246 OA
ATOM     11  O   UNL     1      10.746  -5.778  -8.213  1.00  0.00    -0.423 OA
ENDROOT
BRANCH   3  12
ATOM     12  O   UNL     1       7.445  -4.952  -4.838  1.00  0.00    -0.508 OA
ATOM     13  H   UNL     1       7.334  -3.963  -5.031  1.00  0.00     0.293 HD
ENDBRANCH   3  12
TORSDOF 1
ENDMDL
MODEL 2
REMARK VINA RESULT:    -5.002     21.784     22.584
REMARK INTER + INTRA:          -5.149
REMARK INTER:                  -5.149
REMARK INTRA:                   0.000
REMARK UNBOUND:                 0.000
REMARK SMILES O=c1ccc2ccc(O)cc2o1
REMARK SMILES IDX 6 1 7 2 8 3 10 4 11 5 5 6 4 7 3 8 2 9 1 10 12 11 9 12
REMARK H PARENT 9 13
REMARK Flexibility Score: inf
ROOT
ATOM      1  C   UNL     1      19.175   7.726 -20.552  1.00  0.00     0.016 A 
ATOM      2  C   UNL     1      17.947   7.667 -21.221  1.00  0.00     0.047 A 
ATOM      3  C   UNL     1      17.854   7.051 -22.475  1.00  0.00     0.119 A 
ATOM      4  C   UNL     1      18.995   6.488 -23.065  1.00  0.00     0.094 A 
ATOM      5  C   UNL     1      20.226   6.542 -22.403  1.00  0.00     0.142 A 
ATOM      6  C   UNL     1      20.318   7.165 -21.139  1.00  0.00     0.018 A 
ATOM      7  C   UNL     1      21.562   7.202 -20.502  1.00  0.00     0.019 A 
ATOM      8  C   UNL     1      22.668   6.628 -21.127  1.00  0.00     0.094 A 
ATOM      9  C   UNL     1      22.503   6.028 -22.381  1.00  0.00     0.336 A 
ATOM     10  O   UNL     1      23.490   5.506 -22.961  1.00  0.00    -0.246 OA
ATOM     11  O   UNL     1      21.307   6.006 -22.965  1.00  0.00    -0.423 OA
ENDROOT
BRANCH   3  12
ATOM     12  O   UNL     1      16.622   7.003 -23.125  1.00  0.00    -0.508 OA
ATOM     13  H   UNL     1      15.763   6.822 -22.619  1.00  0.00     0.293 HD
ENDBRANCH   3  12
TORSDOF 1
ENDMDL
MODEL 3
REMARK VINA RESULT:    -4.962     21.674     22.456
REMARK INTER + INTRA:          -5.107
REMARK INTER:                  -5.107
REMARK INTRA:                   0.000
REMARK UNBOUND:                 0.000
REMARK SMILES O=c1ccc2ccc(O)cc2o1
REMARK SMILES IDX 6 1 7 2 8 3 10 4 11 5 5 6 4 7 3 8 2 9 1 10 12 11 9 12
REMARK H PARENT 9 13
REMARK Flexibility Score: inf
ROOT
ATOM      1  C   UNL     1      20.152   6.249 -23.125  1.00  0.00     0.016 A 
ATOM      2  C   UNL     1      21.397   5.880 -22.603  1.00  0.00     0.047 A 
ATOM      3  C   UNL     1      21.755   6.248 -21.301  1.00  0.00     0.119 A 
ATOM      4  C   UNL     1      20.863   6.989 -20.512  1.00  0.00     0.094 A 
ATOM      5  C   UNL     1      19.616   7.362 -21.026  1.00  0.00     0.142 A 
ATOM      6  C   UNL     1      19.257   6.990 -22.340  1.00  0.00     0.018 A 
ATOM      7  C   UNL     1      18.004   7.376 -22.824  1.00  0.00     0.019 A 
ATOM      8  C   UNL     1      17.151   8.113 -22.004  1.00  0.00     0.094 A 
ATOM      9  C   UNL     1      17.573   8.446 -20.712  1.00  0.00     0.336 A 
ATOM     10  O   UNL     1      16.817   9.111 -19.957  1.00  0.00    -0.246 OA
ATOM     11  O   UNL     1      18.771   8.065 -20.275  1.00  0.00    -0.423 OA
ENDROOT
BRANCH   3  12
ATOM     12  O   UNL     1      22.999   5.872 -20.800  1.00  0.00    -0.508 OA
ATOM     13  H   UNL     1      23.090   5.392 -19.912  1.00  0.00     0.293 HD
ENDBRANCH   3  12
TORSDOF 1
ENDMDL
MODEL 4
REMARK VINA RESULT:    -4.805     21.616     22.121
REMARK INTER + INTRA:          -4.946
REMARK INTER:                  -4.946
REMARK INTRA:                   0.000
REMARK UNBOUND:                 0.000
REMARK SMILES O=c1ccc2ccc(O)cc2o1
REMARK SMILES IDX 6 1 7 2 8 3 10 4 11 5 5 6 4 7 3 8 2 9 1 10 12 11 9 12
REMARK H PARENT 9 13
REMARK Flexibility Score: inf
ROOT
ATOM      1  C   UNL     1      17.869   7.324 -22.799  1.00  0.00     0.016 A 
ATOM      2  C   UNL     1      17.009   8.065 -21.982  1.00  0.00     0.047 A 
ATOM      3  C   UNL     1      17.418   8.469 -20.705  1.00  0.00     0.119 A 
ATOM      4  C   UNL     1      18.698   8.130 -20.241  1.00  0.00     0.094 A 
ATOM      5  C   UNL     1      19.565   7.390 -21.051  1.00  0.00     0.142 A 
ATOM      6  C   UNL     1      19.149   6.984 -22.339  1.00  0.00     0.018 A 
ATOM      7  C   UNL     1      20.039   6.246 -23.125  1.00  0.00     0.019 A 
ATOM      8  C   UNL     1      21.301   5.933 -22.621  1.00  0.00     0.094 A 
ATOM      9  C   UNL     1      21.645   6.369 -21.336  1.00  0.00     0.336 A 
ATOM     10  O   UNL     1      22.779   6.096 -20.864  1.00  0.00    -0.246 OA
ATOM     11  O   UNL     1      20.779   7.071 -20.608  1.00  0.00    -0.423 OA
ENDROOT
BRANCH   3  12
ATOM     12  O   UNL     1      16.546   9.205 -19.906  1.00  0.00    -0.508 OA
ATOM     13  H   UNL     1      16.543  10.218 -19.921  1.00  0.00     0.293 HD
ENDBRANCH   3  12
TORSDOF 1
ENDMDL
MODEL 5
REMARK VINA RESULT:    -4.776      9.738     10.868
REMARK INTER + INTRA:          -4.916
REMARK INTER:                  -4.916
REMARK INTRA:                   0.000
REMARK UNBOUND:                 0.000
REMARK SMILES O=c1ccc2ccc(O)cc2o1
REMARK SMILES IDX 6 1 7 2 8 3 10 4 11 5 5 6 4 7 3 8 2 9 1 10 12 11 9 12
REMARK H PARENT 9 13
REMARK Flexibility Score: inf
ROOT
ATOM      1  C   UNL     1      12.634   4.196  -3.317  1.00  0.00     0.016 A 
ATOM      2  C   UNL     1      11.455   3.586  -2.875  1.00  0.00     0.047 A 
ATOM      3  C   UNL     1      10.770   2.687  -3.702  1.00  0.00     0.119 A 
ATOM      4  C   UNL     1      11.267   2.395  -4.981  1.00  0.00     0.094 A 
ATOM      5  C   UNL     1      12.445   3.000  -5.431  1.00  0.00     0.142 A 
ATOM      6  C   UNL     1      13.134   3.906  -4.595  1.00  0.00     0.018 A 
ATOM      7  C   UNL     1      14.308   4.494  -5.073  1.00  0.00     0.019 A 
ATOM      8  C   UNL     1      14.764   4.172  -6.351  1.00  0.00     0.094 A 
ATOM      9  C   UNL     1      14.030   3.266  -7.124  1.00  0.00     0.336 A 
ATOM     10  O   UNL     1      14.424   2.963  -8.280  1.00  0.00    -0.246 OA
ATOM     11  O   UNL     1      12.914   2.720  -6.645  1.00  0.00    -0.423 OA
ENDROOT
BRANCH   3  12
ATOM     12  O   UNL     1       9.598   2.090  -3.243  1.00  0.00    -0.508 OA
ATOM     13  H   UNL     1       9.591   1.501  -2.419  1.00  0.00     0.293 HD
ENDBRANCH   3  12
TORSDOF 1
ENDMDL
MODEL 6
REMARK VINA RESULT:    -4.760     13.150     15.073
REMARK INTER + INTRA:          -4.899
REMARK INTER:                  -4.899
REMARK INTRA:                   0.000
REMARK UNBOUND:                 0.000
REMARK SMILES O=c1ccc2ccc(O)cc2o1
REMARK SMILES IDX 6 1 7 2 8 3 10 4 11 5 5 6 4 7 3 8 2 9 1 10 12 11 9 12
REMARK H PARENT 9 13
REMARK Flexibility Score: inf
ROOT
ATOM      1  C   UNL     1      18.131  -2.490 -16.398  1.00  0.00     0.016 A 
ATOM      2  C   UNL     1      18.122  -1.522 -15.388  1.00  0.00     0.047 A 
ATOM      3  C   UNL     1      18.864  -0.343 -15.531  1.00  0.00     0.119 A 
ATOM      4  C   UNL     1      19.622  -0.130 -16.692  1.00  0.00     0.094 A 
ATOM      5  C   UNL     1      19.637  -1.092 -17.707  1.00  0.00     0.142 A 
ATOM      6  C   UNL     1      18.887  -2.280 -17.560  1.00  0.00     0.018 A 
ATOM      7  C   UNL     1      18.922  -3.223 -18.592  1.00  0.00     0.019 A 
ATOM      8  C   UNL     1      19.689  -2.967 -19.727  1.00  0.00     0.094 A 
ATOM      9  C   UNL     1      20.407  -1.768 -19.804  1.00  0.00     0.336 A 
ATOM     10  O   UNL     1      21.105  -1.519 -20.821  1.00  0.00    -0.246 OA
ATOM     11  O   UNL     1      20.356  -0.887 -18.808  1.00  0.00    -0.423 OA
ENDROOT
BRANCH   3  12
ATOM     12  O   UNL     1      18.842   0.608 -14.514  1.00  0.00    -0.508 OA
ATOM     13  H   UNL     1      19.630   0.733 -13.888  1.00  0.00     0.293 HD
ENDBRANCH   3  12
TORSDOF 1
ENDMDL
MODEL 7
REMARK VINA RESULT:    -4.733      2.207      2.239
REMARK INTER + INTRA:          -4.872
REMARK INTER:                  -4.872
REMARK INTRA:                   0.000
REMARK UNBOUND:                 0.000
REMARK SMILES O=c1ccc2ccc(O)cc2o1
REMARK SMILES IDX 6 1 7 2 8 3 10 4 11 5 5 6 4 7 3 8 2 9 1 10 12 11 9 12
REMARK H PARENT 9 13
REMARK Flexibility Score: inf
ROOT
ATOM      1  C   UNL     1       7.802  -8.112  -6.619  1.00  0.00     0.016 A 
ATOM      2  C   UNL     1       7.687  -7.150  -5.610  1.00  0.00     0.047 A 
ATOM      3  C   UNL     1       7.729  -5.787  -5.924  1.00  0.00     0.119 A 
ATOM      4  C   UNL     1       7.886  -5.380  -7.257  1.00  0.00     0.094 A 
ATOM      5  C   UNL     1       8.001  -6.335  -8.273  1.00  0.00     0.142 A 
ATOM      6  C   UNL     1       7.959  -7.710  -7.953  1.00  0.00     0.018 A 
ATOM      7  C   UNL     1       8.075  -8.640  -8.990  1.00  0.00     0.019 A 
ATOM      8  C   UNL     1       8.229  -8.188 -10.301  1.00  0.00     0.094 A 
ATOM      9  C   UNL     1       8.263  -6.810 -10.543  1.00  0.00     0.336 A 
ATOM     10  O   UNL     1       8.402  -6.384 -11.719  1.00  0.00    -0.246 OA
ATOM     11  O   UNL     1       8.149  -5.946  -9.538  1.00  0.00    -0.423 OA
ENDROOT
BRANCH   3  12
ATOM     12  O   UNL     1       7.615  -4.844  -4.904  1.00  0.00    -0.508 OA
ATOM     13  H   UNL     1       7.704  -3.852  -5.088  1.00  0.00     0.293 HD
ENDBRANCH   3  12
TORSDOF 1
ENDMDL
MODEL 8
REMARK VINA RESULT:    -4.718     21.714     22.151
REMARK INTER + INTRA:          -4.856
REMARK INTER:                  -4.856
REMARK INTRA:                   0.000
REMARK UNBOUND:                 0.000
REMARK SMILES O=c1ccc2ccc(O)cc2o1
REMARK SMILES IDX 6 1 7 2 8 3 10 4 11 5 5 6 4 7 3 8 2 9 1 10 12 11 9 12
REMARK H PARENT 9 13
REMARK Flexibility Score: inf
ROOT
ATOM      1  C   UNL     1      17.878   8.603 -20.035  1.00  0.00     0.016 A 
ATOM      2  C   UNL     1      16.975   8.248 -21.042  1.00  0.00     0.047 A 
ATOM      3  C   UNL     1      17.395   7.472 -22.128  1.00  0.00     0.119 A 
ATOM      4  C   UNL     1      18.728   7.045 -22.210  1.00  0.00     0.094 A 
ATOM      5  C   UNL     1      19.639   7.395 -21.207  1.00  0.00     0.142 A 
ATOM      6  C   UNL     1      19.212   8.179 -20.112  1.00  0.00     0.018 A 
ATOM      7  C   UNL     1      20.145   8.511 -19.126  1.00  0.00     0.019 A 
ATOM      8  C   UNL     1      21.460   8.063 -19.249  1.00  0.00     0.094 A 
ATOM      9  C   UNL     1      21.812   7.290 -20.361  1.00  0.00     0.336 A 
ATOM     10  O   UNL     1      22.994   6.878 -20.490  1.00  0.00    -0.246 OA
ATOM     11  O   UNL     1      20.904   6.988 -21.286  1.00  0.00    -0.423 OA
ENDROOT
BRANCH   3  12
ATOM     12  O   UNL     1      16.479   7.130 -23.122  1.00  0.00    -0.508 OA
ATOM     13  H   UNL     1      16.550   7.507 -24.059  1.00  0.00     0.293 HD
ENDBRANCH   3  12
TORSDOF 1
ENDMDL
MODEL 9
REMARK VINA RESULT:    -4.599      2.474      2.967
REMARK INTER + INTRA:          -4.733
REMARK INTER:                  -4.733
REMARK INTRA:                   0.000
REMARK UNBOUND:                 0.000
REMARK SMILES O=c1ccc2ccc(O)cc2o1
REMARK SMILES IDX 6 1 7 2 8 3 10 4 11 5 5 6 4 7 3 8 2 9 1 10 12 11 9 12
REMARK H PARENT 9 13
REMARK Flexibility Score: inf
ROOT
ATOM      1  C   UNL     1       8.370  -5.380  -6.342  1.00  0.00     0.016 A 
ATOM      2  C   UNL     1       8.006  -5.844  -5.073  1.00  0.00     0.047 A 
ATOM      3  C   UNL     1       7.619  -7.177  -4.892  1.00  0.00     0.119 A 
ATOM      4  C   UNL     1       7.596  -8.055  -5.986  1.00  0.00     0.094 A 
ATOM      5  C   UNL     1       7.959  -7.599  -7.258  1.00  0.00     0.142 A 
ATOM      6  C   UNL     1       8.348  -6.254  -7.438  1.00  0.00     0.018 A 
ATOM      7  C   UNL     1       8.706  -5.829  -8.721  1.00  0.00     0.019 A 
ATOM      8  C   UNL     1       8.668  -6.737  -9.778  1.00  0.00     0.094 A 
ATOM      9  C   UNL     1       8.272  -8.056  -9.526  1.00  0.00     0.336 A 
ATOM     10  O   UNL     1       8.231  -8.890 -10.467  1.00  0.00    -0.246 OA
ATOM     11  O   UNL     1       7.937  -8.435  -8.295  1.00  0.00    -0.423 OA
ENDROOT
BRANCH   3  12
ATOM     12  O   UNL     1       7.260  -7.620  -3.621  1.00  0.00    -0.508 OA
ATOM     13  H   UNL     1       6.682  -7.057  -3.008  1.00  0.00     0.293 HD
ENDBRANCH   3  12
TORSDOF 1
ENDMDL
