MODEL 1
REMARK VINA RESULT:    -5.157      0.000      0.000
REMARK INTER + INTRA:          -5.861
REMARK INTER:                  -5.609
REMARK INTRA:                  -0.252
REMARK UNBOUND:                -0.252
REMARK SMILES O=C([O-])c1ccccc1O
REMARK SMILES IDX 4 1 9 2 5 3 8 4 6 5 7 6 2 7 1 8 3 9 10 10
REMARK H PARENT 10 11
REMARK Flexibility Score: inf
ROOT
ATOM      1  C   UNL     1      50.887  58.880  93.436  1.00  0.00     0.039 A 
ATOM      2  C   UNL     1      52.198  59.263  93.049  1.00  0.00     0.124 A 
ATOM      3  C   UNL     1      50.304  57.749  92.833  1.00  0.00     0.014 A 
ATOM      4  C   UNL     1      52.905  58.479  92.128  1.00  0.00     0.047 A 
ATOM      5  C   UNL     1      51.016  56.991  91.902  1.00  0.00     0.001 A 
ATOM      6  C   UNL     1      52.318  57.349  91.557  1.00  0.00     0.004 A 
ENDROOT
BRANCH   1   7
ATOM      7  C   UNL     1      50.115  59.599  94.473  1.00  0.00     0.075 C 
ATOM      8  O   UNL     1      49.438  58.971  95.328  1.00  0.00    -0.545 OA
ATOM      9  O   UNL     1      50.074  60.989  94.470  1.00  0.00    -0.545 OA
ENDBRANCH   1   7
BRANCH   2  10
ATOM     10  O   UNL     1      52.816  60.422  93.523  1.00  0.00    -0.507 OA
ATOM     11  H   UNL     1      52.676  61.336  93.117  1.00  0.00     0.293 HD
ENDBRANCH   2  10
TORSDOF 2
ENDMDL
MODEL 2
REMARK VINA RESULT:    -5.101      2.079      3.938
REMARK INTER + INTRA:          -5.800
REMARK INTER:                  -5.554
REMARK INTRA:                  -0.246
REMARK UNBOUND:                -0.252
REMARK SMILES O=C([O-])c1ccccc1O
REMARK SMILES IDX 4 1 9 2 5 3 8 4 6 5 7 6 2 7 1 8 3 9 10 10
REMARK H PARENT 10 11
REMARK Flexibility Score: inf
ROOT
ATOM      1  C   UNL     1      51.621  59.220  93.487  1.00  0.00     0.039 A 
ATOM      2  C   UNL     1      50.720  58.497  94.312  1.00  0.00     0.124 A 
ATOM      3  C   UNL     1      51.401  60.595  93.282  1.00  0.00     0.014 A 
ATOM      4  C   UNL     1      49.673  59.174  94.953  1.00  0.00     0.047 A 
ATOM      5  C   UNL     1      50.340  61.249  93.912  1.00  0.00     0.001 A 
ATOM      6  C   UNL     1      49.484  60.542  94.755  1.00  0.00     0.004 A 
ENDROOT
BRANCH   1   7
ATOM      7  C   UNL     1      52.804  58.598  92.855  1.00  0.00     0.075 C 
ATOM      8  O   UNL     1      53.551  57.820  93.504  1.00  0.00    -0.545 OA
ATOM      9  O   UNL     1      53.145  58.921  91.546  1.00  0.00    -0.545 OA
ENDBRANCH   1   7
BRANCH   2  10
ATOM     10  O   UNL     1      50.806  57.116  94.494  1.00  0.00    -0.507 OA
ATOM     11  H   UNL     1      50.651  56.444  93.755  1.00  0.00     0.293 HD
ENDBRANCH   2  10
TORSDOF 2
ENDMDL
MODEL 3
REMARK VINA RESULT:    -5.027      3.418      4.429
REMARK INTER + INTRA:          -5.720
REMARK INTER:                  -5.483
REMARK INTRA:                  -0.237
REMARK UNBOUND:                -0.252
REMARK SMILES O=C([O-])c1ccccc1O
REMARK SMILES IDX 4 1 9 2 5 3 8 4 6 5 7 6 2 7 1 8 3 9 10 10
REMARK H PARENT 10 11
REMARK Flexibility Score: inf
ROOT
ATOM      1  C   UNL     1      51.600  56.345  92.691  1.00  0.00     0.039 A 
ATOM      2  C   UNL     1      52.401  56.419  93.860  1.00  0.00     0.124 A 
ATOM      3  C   UNL     1      50.407  57.090  92.635  1.00  0.00     0.014 A 
ATOM      4  C   UNL     1      52.025  57.276  94.904  1.00  0.00     0.047 A 
ATOM      5  C   UNL     1      50.037  57.923  93.693  1.00  0.00     0.001 A 
ATOM      6  C   UNL     1      50.849  58.024  94.821  1.00  0.00     0.004 A 
ENDROOT
BRANCH   1   7
ATOM      7  C   UNL     1      51.979  55.540  91.509  1.00  0.00     0.075 C 
ATOM      8  O   UNL     1      51.983  56.045  90.356  1.00  0.00    -0.545 OA
ATOM      9  O   UNL     1      52.271  54.188  91.653  1.00  0.00    -0.545 OA
ENDBRANCH   1   7
BRANCH   2  10
ATOM     10  O   UNL     1      53.547  55.643  94.040  1.00  0.00    -0.507 OA
ATOM     11  H   UNL     1      53.530  54.688  94.369  1.00  0.00     0.293 HD
ENDBRANCH   2  10
TORSDOF 2
ENDMDL
MODEL 4
REMARK VINA RESULT:    -4.999      2.031      3.575
REMARK INTER + INTRA:          -5.689
REMARK INTER:                  -5.441
REMARK INTRA:                  -0.248
REMARK UNBOUND:                -0.252
REMARK SMILES O=C([O-])c1ccccc1O
REMARK SMILES IDX 4 1 9 2 5 3 8 4 6 5 7 6 2 7 1 8 3 9 10 10
REMARK H PARENT 10 11
REMARK Flexibility Score: inf
ROOT
ATOM      1  C   UNL     1      51.274  58.630  93.433  1.00  0.00     0.039 A 
ATOM      2  C   UNL     1      51.392  60.010  93.120  1.00  0.00     0.124 A 
ATOM      3  C   UNL     1      50.375  58.236  94.441  1.00  0.00     0.014 A 
ATOM      4  C   UNL     1      50.570  60.940  93.772  1.00  0.00     0.047 A 
ATOM      5  C   UNL     1      49.579  59.179  95.095  1.00  0.00     0.001 A 
ATOM      6  C   UNL     1      49.668  60.527  94.754  1.00  0.00     0.004 A 
ENDROOT
BRANCH   1   7
ATOM      7  C   UNL     1      52.035  57.580  92.722  1.00  0.00     0.075 C 
ATOM      8  O   UNL     1      52.330  57.706  91.504  1.00  0.00    -0.545 OA
ATOM      9  O   UNL     1      52.375  56.402  93.378  1.00  0.00    -0.545 OA
ENDBRANCH   1   7
BRANCH   2  10
ATOM     10  O   UNL     1      52.324  60.499  92.204  1.00  0.00    -0.507 OA
ATOM     11  H   UNL     1      53.121  61.063  92.464  1.00  0.00     0.293 HD
ENDBRANCH   2  10
TORSDOF 2
ENDMDL
MODEL 5
REMARK VINA RESULT:    -4.920      2.167      3.785
REMARK INTER + INTRA:          -5.604
REMARK INTER:                  -5.397
REMARK INTRA:                  -0.207
REMARK UNBOUND:                -0.252
REMARK SMILES O=C([O-])c1ccccc1O
REMARK SMILES IDX 4 1 9 2 5 3 8 4 6 5 7 6 2 7 1 8 3 9 10 10
REMARK H PARENT 10 11
REMARK Flexibility Score: inf
ROOT
ATOM      1  C   UNL     1      51.598  58.403  93.367  1.00  0.00     0.039 A 
ATOM      2  C   UNL     1      50.368  58.759  93.980  1.00  0.00     0.124 A 
ATOM      3  C   UNL     1      52.408  59.419  92.827  1.00  0.00     0.014 A 
ATOM      4  C   UNL     1      50.017  60.111  94.092  1.00  0.00     0.047 A 
ATOM      5  C   UNL     1      52.033  60.760  92.930  1.00  0.00     0.001 A 
ATOM      6  C   UNL     1      50.845  61.107  93.570  1.00  0.00     0.004 A 
ENDROOT
BRANCH   1   7
ATOM      7  C   UNL     1      52.083  57.007  93.297  1.00  0.00     0.075 C 
ATOM      8  O   UNL     1      51.449  56.132  92.651  1.00  0.00    -0.545 OA
ATOM      9  O   UNL     1      53.218  56.629  94.005  1.00  0.00    -0.545 OA
ENDBRANCH   1   7
BRANCH   2  10
ATOM     10  O   UNL     1      49.459  57.812  94.455  1.00  0.00    -0.507 OA
ATOM     11  H   UNL     1      49.161  57.008  93.922  1.00  0.00     0.293 HD
ENDBRANCH   2  10
TORSDOF 2
ENDMDL
MODEL 6
REMARK VINA RESULT:    -4.844      2.495      2.959
REMARK INTER + INTRA:          -5.520
REMARK INTER:                  -5.302
REMARK INTRA:                  -0.219
REMARK UNBOUND:                -0.252
REMARK SMILES O=C([O-])c1ccccc1O
REMARK SMILES IDX 4 1 9 2 5 3 8 4 6 5 7 6 2 7 1 8 3 9 10 10
REMARK H PARENT 10 11
REMARK Flexibility Score: inf
ROOT
ATOM      1  C   UNL     1      51.863  57.117  93.223  1.00  0.00     0.039 A 
ATOM      2  C   UNL     1      52.529  56.639  94.383  1.00  0.00     0.124 A 
ATOM      3  C   UNL     1      51.629  56.226  92.159  1.00  0.00     0.014 A 
ATOM      4  C   UNL     1      52.879  55.285  94.471  1.00  0.00     0.047 A 
ATOM      5  C   UNL     1      52.004  54.885  92.255  1.00  0.00     0.001 A 
ATOM      6  C   UNL     1      52.619  54.412  93.413  1.00  0.00     0.004 A 
ENDROOT
BRANCH   1   7
ATOM      7  C   UNL     1      51.375  58.507  93.095  1.00  0.00     0.075 C 
ATOM      8  O   UNL     1      52.172  59.480  93.145  1.00  0.00    -0.545 OA
ATOM      9  O   UNL     1      50.012  58.758  92.986  1.00  0.00    -0.545 OA
ENDBRANCH   1   7
BRANCH   2  10
ATOM     10  O   UNL     1      52.886  57.472  95.445  1.00  0.00    -0.507 OA
ATOM     11  H   UNL     1      52.866  58.481  95.395  1.00  0.00     0.293 HD
ENDBRANCH   2  10
TORSDOF 2
ENDMDL
MODEL 7
REMARK VINA RESULT:    -4.776      3.228      4.349
REMARK INTER + INTRA:          -5.447
REMARK INTER:                  -5.205
REMARK INTRA:                  -0.242
REMARK UNBOUND:                -0.252
REMARK SMILES O=C([O-])c1ccccc1O
REMARK SMILES IDX 4 1 9 2 5 3 8 4 6 5 7 6 2 7 1 8 3 9 10 10
REMARK H PARENT 10 11
REMARK Flexibility Score: inf
ROOT
ATOM      1  C   UNL     1      52.160  56.496  93.291  1.00  0.00     0.039 A 
ATOM      2  C   UNL     1      50.864  56.969  92.956  1.00  0.00     0.124 A 
ATOM      3  C   UNL     1      53.176  57.432  93.563  1.00  0.00     0.014 A 
ATOM      4  C   UNL     1      50.606  58.346  92.965  1.00  0.00     0.047 A 
ATOM      5  C   UNL     1      52.906  58.802  93.547  1.00  0.00     0.001 A 
ATOM      6  C   UNL     1      51.621  59.258  93.259  1.00  0.00     0.004 A 
ENDROOT
BRANCH   1   7
ATOM      7  C   UNL     1      52.486  55.057  93.399  1.00  0.00     0.075 C 
ATOM      8  O   UNL     1      51.925  54.209  92.656  1.00  0.00    -0.545 OA
ATOM      9  O   UNL     1      53.371  54.615  94.376  1.00  0.00    -0.545 OA
ENDBRANCH   1   7
BRANCH   2  10
ATOM     10  O   UNL     1      49.824  56.117  92.580  1.00  0.00    -0.507 OA
ATOM     11  H   UNL     1      49.963  55.263  92.058  1.00  0.00     0.293 HD
ENDBRANCH   2  10
TORSDOF 2
ENDMDL
MODEL 8
REMARK VINA RESULT:    -4.760      2.423      2.833
REMARK INTER + INTRA:          -5.430
REMARK INTER:                  -5.202
REMARK INTRA:                  -0.228
REMARK UNBOUND:                -0.252
REMARK SMILES O=C([O-])c1ccccc1O
REMARK SMILES IDX 4 1 9 2 5 3 8 4 6 5 7 6 2 7 1 8 3 9 10 10
REMARK H PARENT 10 11
REMARK Flexibility Score: inf
ROOT
ATOM      1  C   UNL     1      51.246  57.597  93.977  1.00  0.00     0.039 A 
ATOM      2  C   UNL     1      51.270  56.853  92.768  1.00  0.00     0.124 A 
ATOM      3  C   UNL     1      51.896  57.073  95.110  1.00  0.00     0.014 A 
ATOM      4  C   UNL     1      51.989  55.652  92.709  1.00  0.00     0.047 A 
ATOM      5  C   UNL     1      52.590  55.864  95.039  1.00  0.00     0.001 A 
ATOM      6  C   UNL     1      52.645  55.159  93.837  1.00  0.00     0.004 A 
ENDROOT
BRANCH   1   7
ATOM      7  C   UNL     1      50.593  58.919  94.092  1.00  0.00     0.075 C 
ATOM      8  O   UNL     1      50.868  59.849  93.289  1.00  0.00    -0.545 OA
ATOM      9  O   UNL     1      49.713  59.172  95.138  1.00  0.00    -0.545 OA
ENDBRANCH   1   7
BRANCH   2  10
ATOM     10  O   UNL     1      50.574  57.249  91.625  1.00  0.00    -0.507 OA
ATOM     11  H   UNL     1      49.713  57.776  91.650  1.00  0.00     0.293 HD
ENDBRANCH   2  10
TORSDOF 2
ENDMDL
MODEL 9
REMARK VINA RESULT:    -4.746      1.024      2.381
REMARK INTER + INTRA:          -5.414
REMARK INTER:                  -5.197
REMARK INTRA:                  -0.217
REMARK UNBOUND:                -0.252
REMARK SMILES O=C([O-])c1ccccc1O
REMARK SMILES IDX 4 1 9 2 5 3 8 4 6 5 7 6 2 7 1 8 3 9 10 10
REMARK H PARENT 10 11
REMARK Flexibility Score: inf
ROOT
ATOM      1  C   UNL     1      51.119  59.206  93.327  1.00  0.00     0.039 A 
ATOM      2  C   UNL     1      50.496  57.933  93.415  1.00  0.00     0.124 A 
ATOM      3  C   UNL     1      52.288  59.338  92.555  1.00  0.00     0.014 A 
ATOM      4  C   UNL     1      51.016  56.856  92.686  1.00  0.00     0.047 A 
ATOM      5  C   UNL     1      52.805  58.248  91.851  1.00  0.00     0.001 A 
ATOM      6  C   UNL     1      52.164  57.012  91.907  1.00  0.00     0.004 A 
ENDROOT
BRANCH   1   7
ATOM      7  C   UNL     1      50.575  60.412  93.988  1.00  0.00     0.075 C 
ATOM      8  O   UNL     1      50.988  61.561  93.680  1.00  0.00    -0.545 OA
ATOM      9  O   UNL     1      49.644  60.284  95.013  1.00  0.00    -0.545 OA
ENDBRANCH   1   7
BRANCH   2  10
ATOM     10  O   UNL     1      49.391  57.690  94.232  1.00  0.00    -0.507 OA
ATOM     11  H   UNL     1      49.326  56.906  94.866  1.00  0.00     0.293 HD
ENDBRANCH   2  10
TORSDOF 2
ENDMDL
