MODEL 1
REMARK VINA RESULT:    -2.502      0.000      0.000
REMARK INTER + INTRA:          -2.502
REMARK INTER:                  -2.502
REMARK INTRA:                   0.000
REMARK UNBOUND:                 0.000
REMARK SMILES CC(=O)[O-]
REMARK SMILES IDX 1 1 2 2 3 3 4 4
REMARK H PARENT
REMARK Flexibility Score: inf
ROOT
ATOM      1  C   UNL     1      28.475   3.611  11.120  1.00  0.00     0.063 C 
ATOM      2  C   UNL     1      28.500   5.092  11.286  1.00  0.00     0.038 C 
ATOM      3  O   UNL     1      29.010   5.603  12.318  1.00  0.00    -0.550 OA
ATOM      4  O   UNL     1      27.914   5.911  10.330  1.00  0.00    -0.550 OA
ENDROOT
TORSDOF 0
ENDMDL
MODEL 2
REMARK VINA RESULT:    -2.458      1.361      1.783
REMARK INTER + INTRA:          -2.458
REMARK INTER:                  -2.458
REMARK INTRA:                   0.000
REMARK UNBOUND:                 0.000
REMARK SMILES CC(=O)[O-]
REMARK SMILES IDX 1 1 2 2 3 3 4 4
REMARK H PARENT
REMARK Flexibility Score: inf
ROOT
ATOM      1  C   UNL     1      28.150   5.462  10.171  1.00  0.00     0.063 C 
ATOM      2  C   UNL     1      28.693   4.860  11.422  1.00  0.00     0.038 C 
ATOM      3  O   UNL     1      29.088   5.600  12.360  1.00  0.00    -0.550 OA
ATOM      4  O   UNL     1      28.815   3.481  11.536  1.00  0.00    -0.550 OA
ENDROOT
TORSDOF 0
ENDMDL
MODEL 3
REMARK VINA RESULT:    -2.371      1.659      1.922
REMARK INTER + INTRA:          -2.371
REMARK INTER:                  -2.371
REMARK INTRA:                   0.000
REMARK UNBOUND:                 0.000
REMARK SMILES CC(=O)[O-]
REMARK SMILES IDX 1 1 2 2 3 3 4 4
REMARK H PARENT
REMARK Flexibility Score: inf
ROOT
ATOM      1  C   UNL     1      28.882   5.486  11.996  1.00  0.00     0.063 C 
ATOM      2  C   UNL     1      28.767   4.320  11.074  1.00  0.00     0.038 C 
ATOM      3  O   UNL     1      28.791   3.148  11.531  1.00  0.00    -0.550 OA
ATOM      4  O   UNL     1      28.687   4.523   9.702  1.00  0.00    -0.550 OA
ENDROOT
TORSDOF 0
ENDMDL
MODEL 4
REMARK VINA RESULT:    -2.305      1.743      2.049
REMARK INTER + INTRA:          -2.305
REMARK INTER:                  -2.305
REMARK INTRA:                   0.000
REMARK UNBOUND:                 0.000
REMARK SMILES CC(=O)[O-]
REMARK SMILES IDX 1 1 2 2 3 3 4 4
REMARK H PARENT
REMARK Flexibility Score: inf
ROOT
ATOM      1  C   UNL     1      28.705   5.187  11.630  1.00  0.00     0.063 C 
ATOM      2  C   UNL     1      28.205   5.277  10.228  1.00  0.00     0.038 C 
ATOM      3  O   UNL     1      27.509   6.262   9.868  1.00  0.00    -0.550 OA
ATOM      4  O   UNL     1      28.461   4.249   9.330  1.00  0.00    -0.550 OA
ENDROOT
TORSDOF 0
ENDMDL
MODEL 5
REMARK VINA RESULT:    -2.055      1.895      2.035
REMARK INTER + INTRA:          -2.055
REMARK INTER:                  -2.055
REMARK INTRA:                   0.000
REMARK UNBOUND:                 0.000
REMARK SMILES CC(=O)[O-]
REMARK SMILES IDX 1 1 2 2 3 3 4 4
REMARK H PARENT
REMARK Flexibility Score: inf
ROOT
ATOM      1  C   UNL     1      28.478   5.254  11.413  1.00  0.00     0.063 C 
ATOM      2  C   UNL     1      27.309   5.650  10.576  1.00  0.00     0.038 C 
ATOM      3  O   UNL     1      26.149   5.284  10.898  1.00  0.00    -0.550 OA
ATOM      4  O   UNL     1      27.503   6.377   9.408  1.00  0.00    -0.550 OA
ENDROOT
TORSDOF 0
ENDMDL
MODEL 6
REMARK VINA RESULT:    -2.049      9.323      9.744
REMARK INTER + INTRA:          -2.049
REMARK INTER:                  -2.049
REMARK INTRA:                   0.000
REMARK UNBOUND:                 0.000
REMARK SMILES CC(=O)[O-]
REMARK SMILES IDX 1 1 2 2 3 3 4 4
REMARK H PARENT
REMARK Flexibility Score: inf
ROOT
ATOM      1  C   UNL     1      25.107   1.347  17.705  1.00  0.00     0.063 C 
ATOM      2  C   UNL     1      24.499   0.321  18.600  1.00  0.00     0.038 C 
ATOM      3  O   UNL     1      24.975  -0.844  18.639  1.00  0.00    -0.550 OA
ATOM      4  O   UNL     1      23.373   0.631  19.352  1.00  0.00    -0.550 OA
ENDROOT
TORSDOF 0
ENDMDL
MODEL 7
REMARK VINA RESULT:    -2.000      8.199      8.591
REMARK INTER + INTRA:          -2.000
REMARK INTER:                  -2.000
REMARK INTRA:                   0.000
REMARK UNBOUND:                 0.000
REMARK SMILES CC(=O)[O-]
REMARK SMILES IDX 1 1 2 2 3 3 4 4
REMARK H PARENT
REMARK Flexibility Score: inf
ROOT
ATOM      1  C   UNL     1      24.690   3.667  17.619  1.00  0.00     0.063 C 
ATOM      2  C   UNL     1      24.556   2.249  18.060  1.00  0.00     0.038 C 
ATOM      3  O   UNL     1      25.289   1.359  17.555  1.00  0.00    -0.550 OA
ATOM      4  O   UNL     1      23.586   1.897  18.989  1.00  0.00    -0.550 OA
ENDROOT
TORSDOF 0
ENDMDL
MODEL 8
REMARK VINA RESULT:    -1.983      9.263      9.725
REMARK INTER + INTRA:          -1.983
REMARK INTER:                  -1.983
REMARK INTRA:                   0.000
REMARK UNBOUND:                 0.000
REMARK SMILES CC(=O)[O-]
REMARK SMILES IDX 1 1 2 2 3 3 4 4
REMARK H PARENT
REMARK Flexibility Score: inf
ROOT
ATOM      1  C   UNL     1      23.440   0.818  19.219  1.00  0.00     0.063 C 
ATOM      2  C   UNL     1      24.655   0.303  18.526  1.00  0.00     0.038 C 
ATOM      3  O   UNL     1      25.375   1.084  17.850  1.00  0.00    -0.550 OA
ATOM      4  O   UNL     1      24.968  -1.049  18.580  1.00  0.00    -0.550 OA
ENDROOT
TORSDOF 0
ENDMDL
MODEL 9
REMARK VINA RESULT:    -0.631      1.412      1.978
REMARK INTER + INTRA:          -0.631
REMARK INTER:                  -0.631
REMARK INTRA:                   0.000
REMARK UNBOUND:                 0.000
REMARK SMILES CC(=O)[O-]
REMARK SMILES IDX 1 1 2 2 3 3 4 4
REMARK H PARENT
REMARK Flexibility Score: inf
ROOT
ATOM      1  C   UNL     1      28.088   5.422  10.228  1.00  0.00     0.063 C 
ATOM      2  C   UNL     1      28.677   4.783  11.439  1.00  0.00     0.038 C 
ATOM      3  O   UNL     1      28.727   3.529  11.531  1.00  0.00    -0.550 OA
ATOM      4  O   UNL     1      29.125   5.569  12.494  1.00  0.00    -0.550 OA
ENDROOT
TORSDOF 0
ENDMDL
