MODEL 1
REMARK VINA RESULT:    -4.316      0.000      0.000
REMARK INTER + INTRA:          -7.732
REMARK INTER:                  -7.344
REMARK INTRA:                  -0.387
REMARK UNBOUND:                -0.387
REMARK SMILES CCCCCCCCCCCCCC(=O)[O-]
REMARK SMILES IDX 8 1 9 2 10 3 11 4 12 5 13 6 14 7 15 8 16 9 7 10 6 11 5 12
REMARK SMILES IDX 4 13 3 14 2 15 1 16
REMARK H PARENT
REMARK Flexibility Score: inf
ROOT
ATOM      1  C   UNL     1      27.454   3.693   3.876  1.00  0.00     0.000 C 
ENDROOT
BRANCH   1   2
ATOM      2  C   UNL     1      27.250   2.865   5.156  1.00  0.00     0.000 C 
BRANCH   2   3
ATOM      3  C   UNL     1      27.073   1.365   4.864  1.00  0.00     0.000 C 
BRANCH   3   4
ATOM      4  C   UNL     1      27.584   0.468   6.007  1.00  0.00     0.000 C 
BRANCH   4   5
ATOM      5  C   UNL     1      29.045   0.003   5.868  1.00  0.00     0.006 C 
BRANCH   5   6
ATOM      6  C   UNL     1      29.193  -1.258   5.006  1.00  0.00     0.053 C 
BRANCH   6   7
ATOM      7  C   UNL     1      28.775  -0.978   3.597  1.00  0.00     0.041 C 
ATOM      8  O   UNL     1      29.449  -0.193   2.880  1.00  0.00    -0.550 OA
ATOM      9  O   UNL     1      27.613  -1.547   3.090  1.00  0.00    -0.550 OA
ENDBRANCH   6   7
ENDBRANCH   5   6
ENDBRANCH   4   5
ENDBRANCH   3   4
ENDBRANCH   2   3
ENDBRANCH   1   2
BRANCH   1  10
ATOM     10  C   UNL     1      28.865   4.303   3.788  1.00  0.00     0.000 C 
BRANCH  10  11
ATOM     11  C   UNL     1      29.883   3.571   4.677  1.00  0.00    -0.000 C 
BRANCH  11  12
ATOM     12  C   UNL     1      30.834   4.537   5.406  1.00  0.00    -0.000 C 
BRANCH  12  13
ATOM     13  C   UNL     1      30.315   5.985   5.407  1.00  0.00    -0.000 C 
BRANCH  13  14
ATOM     14  C   UNL     1      29.294   6.249   6.528  1.00  0.00    -0.000 C 
BRANCH  14  15
ATOM     15  C   UNL     1      28.957   4.981   7.327  1.00  0.00    -0.003 C 
ATOM     16  C   UNL     1      29.046   5.196   8.838  1.00  0.00     0.004 C 
ENDBRANCH  14  15
ENDBRANCH  13  14
ENDBRANCH  12  13
ENDBRANCH  11  12
ENDBRANCH  10  11
ENDBRANCH   1  10
TORSDOF 12
ENDMDL
MODEL 2
REMARK VINA RESULT:    -3.967     16.815     18.868
REMARK INTER + INTRA:          -7.137
REMARK INTER:                  -5.757
REMARK INTRA:                  -1.380
REMARK UNBOUND:                -0.387
REMARK SMILES CCCCCCCCCCCCCC(=O)[O-]
REMARK SMILES IDX 8 1 9 2 10 3 11 4 12 5 13 6 14 7 15 8 16 9 7 10 6 11 5 12
REMARK SMILES IDX 4 13 3 14 2 15 1 16
REMARK H PARENT
REMARK Flexibility Score: inf
ROOT
ATOM      1  C   UNL     1      31.016  12.644  20.919  1.00  0.00     0.000 C 
ENDROOT
BRANCH   1   2
ATOM      2  C   UNL     1      31.775  13.402  19.817  1.00  0.00     0.000 C 
BRANCH   2   3
ATOM      3  C   UNL     1      31.891  14.908  20.111  1.00  0.00     0.000 C 
BRANCH   3   4
ATOM      4  C   UNL     1      31.381  15.786  18.953  1.00  0.00     0.000 C 
BRANCH   4   5
ATOM      5  C   UNL     1      29.903  15.578  18.576  1.00  0.00     0.006 C 
BRANCH   5   6
ATOM      6  C   UNL     1      29.664  15.594  17.061  1.00  0.00     0.053 C 
BRANCH   6   7
ATOM      7  C   UNL     1      30.508  14.557  16.388  1.00  0.00     0.041 C 
ATOM      8  O   UNL     1      30.363  13.340  16.673  1.00  0.00    -0.550 OA
ATOM      9  O   UNL     1      31.489  14.940  15.483  1.00  0.00    -0.550 OA
ENDBRANCH   6   7
ENDBRANCH   5   6
ENDBRANCH   4   5
ENDBRANCH   3   4
ENDBRANCH   2   3
ENDBRANCH   1   2
BRANCH   1  10
ATOM     10  C   UNL     1      30.224  13.586  21.843  1.00  0.00     0.000 C 
BRANCH  10  11
ATOM     11  C   UNL     1      28.703  13.460  21.655  1.00  0.00    -0.000 C 
BRANCH  11  12
ATOM     12  C   UNL     1      28.325  12.833  20.301  1.00  0.00    -0.000 C 
BRANCH  12  13
ATOM     13  C   UNL     1      27.592  11.491  20.458  1.00  0.00    -0.000 C 
BRANCH  13  14
ATOM     14  C   UNL     1      27.661  10.940  21.894  1.00  0.00    -0.000 C 
BRANCH  14  15
ATOM     15  C   UNL     1      28.486   9.648  21.989  1.00  0.00    -0.003 C 
ATOM     16  C   UNL     1      27.625   8.419  22.281  1.00  0.00     0.004 C 
ENDBRANCH  14  15
ENDBRANCH  13  14
ENDBRANCH  12  13
ENDBRANCH  11  12
ENDBRANCH  10  11
ENDBRANCH   1  10
TORSDOF 12
ENDMDL
MODEL 3
REMARK VINA RESULT:    -3.942      2.592      6.061
REMARK INTER + INTRA:          -7.094
REMARK INTER:                  -6.567
REMARK INTRA:                  -0.527
REMARK UNBOUND:                -0.387
REMARK SMILES CCCCCCCCCCCCCC(=O)[O-]
REMARK SMILES IDX 8 1 9 2 10 3 11 4 12 5 13 6 14 7 15 8 16 9 7 10 6 11 5 12
REMARK SMILES IDX 4 13 3 14 2 15 1 16
REMARK H PARENT
REMARK Flexibility Score: inf
ROOT
ATOM      1  C   UNL     1      27.719   3.455   3.624  1.00  0.00     0.000 C 
ENDROOT
BRANCH   1   2
ATOM      2  C   UNL     1      27.166   4.326   4.763  1.00  0.00     0.000 C 
BRANCH   2   3
ATOM      3  C   UNL     1      27.739   5.754   4.745  1.00  0.00     0.000 C 
BRANCH   3   4
ATOM      4  C   UNL     1      29.158   5.823   4.150  1.00  0.00     0.000 C 
BRANCH   4   5
ATOM      5  C   UNL     1      30.288   6.017   5.177  1.00  0.00     0.006 C 
BRANCH   5   6
ATOM      6  C   UNL     1      29.768   6.256   6.600  1.00  0.00     0.053 C 
BRANCH   6   7
ATOM      7  C   UNL     1      29.478   4.953   7.276  1.00  0.00     0.041 C 
ATOM      8  O   UNL     1      29.860   3.872   6.758  1.00  0.00    -0.550 OA
ATOM      9  O   UNL     1      28.741   4.930   8.454  1.00  0.00    -0.550 OA
ENDBRANCH   6   7
ENDBRANCH   5   6
ENDBRANCH   4   5
ENDBRANCH   3   4
ENDBRANCH   2   3
ENDBRANCH   1   2
BRANCH   1  10
ATOM     10  C   UNL     1      28.403   2.176   4.140  1.00  0.00     0.000 C 
BRANCH  10  11
ATOM     11  C   UNL     1      27.705   1.588   5.377  1.00  0.00    -0.000 C 
BRANCH  11  12
ATOM     12  C   UNL     1      28.564   0.533   6.095  1.00  0.00    -0.000 C 
BRANCH  12  13
ATOM     13  C   UNL     1      28.549  -0.827   5.377  1.00  0.00    -0.000 C 
BRANCH  13  14
ATOM     14  C   UNL     1      29.459  -0.853   4.135  1.00  0.00    -0.000 C 
BRANCH  14  15
ATOM     15  C   UNL     1      28.732  -1.368   2.884  1.00  0.00    -0.003 C 
ATOM     16  C   UNL     1      27.212  -1.235   2.989  1.00  0.00     0.004 C 
ENDBRANCH  14  15
ENDBRANCH  13  14
ENDBRANCH  12  13
ENDBRANCH  11  12
ENDBRANCH  10  11
ENDBRANCH   1  10
TORSDOF 12
ENDMDL
MODEL 4
REMARK VINA RESULT:    -3.808     16.996     19.145
REMARK INTER + INTRA:          -6.867
REMARK INTER:                  -5.427
REMARK INTRA:                  -1.440
REMARK UNBOUND:                -0.387
REMARK SMILES CCCCCCCCCCCCCC(=O)[O-]
REMARK SMILES IDX 8 1 9 2 10 3 11 4 12 5 13 6 14 7 15 8 16 9 7 10 6 11 5 12
REMARK SMILES IDX 4 13 3 14 2 15 1 16
REMARK H PARENT
REMARK Flexibility Score: inf
ROOT
ATOM      1  C   UNL     1      31.316  12.233  22.504  1.00  0.00     0.000 C 
ENDROOT
BRANCH   1   2
ATOM      2  C   UNL     1      31.030  12.573  21.032  1.00  0.00     0.000 C 
BRANCH   2   3
ATOM      3  C   UNL     1      31.935  13.699  20.501  1.00  0.00     0.000 C 
BRANCH   3   4
ATOM      4  C   UNL     1      31.337  14.423  19.280  1.00  0.00     0.000 C 
BRANCH   4   5
ATOM      5  C   UNL     1      30.325  13.600  18.463  1.00  0.00     0.006 C 
BRANCH   5   6
ATOM      6  C   UNL     1      30.343  13.944  16.968  1.00  0.00     0.053 C 
BRANCH   6   7
ATOM      7  C   UNL     1      29.565  15.196  16.712  1.00  0.00     0.041 C 
ATOM      8  O   UNL     1      29.939  16.003  15.821  1.00  0.00    -0.550 OA
ATOM      9  O   UNL     1      28.453  15.495  17.489  1.00  0.00    -0.550 OA
ENDBRANCH   6   7
ENDBRANCH   5   6
ENDBRANCH   4   5
ENDBRANCH   3   4
ENDBRANCH   2   3
ENDBRANCH   1   2
BRANCH   1  10
ATOM     10  C   UNL     1      30.318  11.209  23.075  1.00  0.00     0.000 C 
BRANCH  10  11
ATOM     11  C   UNL     1      29.865  10.177  22.031  1.00  0.00    -0.000 C 
BRANCH  11  12
ATOM     12  C   UNL     1      28.334  10.130  21.871  1.00  0.00    -0.000 C 
BRANCH  12  13
ATOM     13  C   UNL     1      27.602  10.887  22.992  1.00  0.00    -0.000 C 
BRANCH  13  14
ATOM     14  C   UNL     1      26.908  12.166  22.490  1.00  0.00    -0.000 C 
BRANCH  14  15
ATOM     15  C   UNL     1      27.247  12.484  21.027  1.00  0.00    -0.003 C 
ATOM     16  C   UNL     1      27.543  13.966  20.798  1.00  0.00     0.004 C 
ENDBRANCH  14  15
ENDBRANCH  13  14
ENDBRANCH  12  13
ENDBRANCH  11  12
ENDBRANCH  10  11
ENDBRANCH   1  10
TORSDOF 12
ENDMDL
MODEL 5
REMARK VINA RESULT:    -3.767     16.608     18.791
REMARK INTER + INTRA:          -6.797
REMARK INTER:                  -5.107
REMARK INTRA:                  -1.690
REMARK UNBOUND:                -0.387
REMARK SMILES CCCCCCCCCCCCCC(=O)[O-]
REMARK SMILES IDX 8 1 9 2 10 3 11 4 12 5 13 6 14 7 15 8 16 9 7 10 6 11 5 12
REMARK SMILES IDX 4 13 3 14 2 15 1 16
REMARK H PARENT
REMARK Flexibility Score: inf
ROOT
ATOM      1  C   UNL     1      28.287  14.183  20.101  1.00  0.00     0.000 C 
ENDROOT
BRANCH   1   2
ATOM      2  C   UNL     1      29.526  15.084  20.223  1.00  0.00     0.000 C 
BRANCH   2   3
ATOM      3  C   UNL     1      30.713  14.569  19.390  1.00  0.00     0.000 C 
BRANCH   3   4
ATOM      4  C   UNL     1      30.350  13.353  18.517  1.00  0.00     0.000 C 
BRANCH   4   5
ATOM      5  C   UNL     1      30.251  13.639  17.007  1.00  0.00     0.006 C 
BRANCH   5   6
ATOM      6  C   UNL     1      30.173  15.138  16.686  1.00  0.00     0.053 C 
BRANCH   6   7
ATOM      7  C   UNL     1      31.276  15.530  15.754  1.00  0.00     0.041 C 
ATOM      8  O   UNL     1      31.854  16.640  15.888  1.00  0.00    -0.550 OA
ATOM      9  O   UNL     1      31.632  14.690  14.707  1.00  0.00    -0.550 OA
ENDBRANCH   6   7
ENDBRANCH   5   6
ENDBRANCH   4   5
ENDBRANCH   3   4
ENDBRANCH   2   3
ENDBRANCH   1   2
BRANCH   1  10
ATOM     10  C   UNL     1      27.489  14.098  21.416  1.00  0.00     0.000 C 
BRANCH  10  11
ATOM     11  C   UNL     1      26.983  12.677  21.712  1.00  0.00    -0.000 C 
BRANCH  11  12
ATOM     12  C   UNL     1      27.648  11.615  20.817  1.00  0.00    -0.000 C 
BRANCH  12  13
ATOM     13  C   UNL     1      28.076  10.366  21.606  1.00  0.00    -0.000 C 
BRANCH  13  14
ATOM     14  C   UNL     1      29.335  10.604  22.459  1.00  0.00    -0.000 C 
BRANCH  14  15
ATOM     15  C   UNL     1      30.373  11.481  21.743  1.00  0.00    -0.003 C 
ATOM     16  C   UNL     1      30.936  12.582  22.642  1.00  0.00     0.004 C 
ENDBRANCH  14  15
ENDBRANCH  13  14
ENDBRANCH  12  13
ENDBRANCH  11  12
ENDBRANCH  10  11
ENDBRANCH   1  10
TORSDOF 12
ENDMDL
MODEL 6
REMARK VINA RESULT:    -3.676     17.590     19.871
REMARK INTER + INTRA:          -6.641
REMARK INTER:                  -4.591
REMARK INTRA:                  -2.051
REMARK UNBOUND:                -0.387
REMARK SMILES CCCCCCCCCCCCCC(=O)[O-]
REMARK SMILES IDX 8 1 9 2 10 3 11 4 12 5 13 6 14 7 15 8 16 9 7 10 6 11 5 12
REMARK SMILES IDX 4 13 3 14 2 15 1 16
REMARK H PARENT
REMARK Flexibility Score: inf
ROOT
ATOM      1  C   UNL     1      30.276  11.177  21.650  1.00  0.00     0.000 C 
ENDROOT
BRANCH   1   2
ATOM      2  C   UNL     1      28.946  10.546  22.092  1.00  0.00     0.000 C 
BRANCH   2   3
ATOM      3  C   UNL     1      27.724  11.343  21.601  1.00  0.00     0.000 C 
BRANCH   3   4
ATOM      4  C   UNL     1      28.022  12.182  20.344  1.00  0.00     0.000 C 
BRANCH   4   5
ATOM      5  C   UNL     1      27.892  13.705  20.529  1.00  0.00     0.006 C 
BRANCH   5   6
ATOM      6  C   UNL     1      28.039  14.144  21.992  1.00  0.00     0.053 C 
BRANCH   6   7
ATOM      7  C   UNL     1      28.769  15.448  22.074  1.00  0.00     0.041 C 
ATOM      8  O   UNL     1      29.558  15.672  23.028  1.00  0.00    -0.550 OA
ATOM      9  O   UNL     1      28.541  16.434  21.122  1.00  0.00    -0.550 OA
ENDBRANCH   6   7
ENDBRANCH   5   6
ENDBRANCH   4   5
ENDBRANCH   3   4
ENDBRANCH   2   3
ENDBRANCH   1   2
BRANCH   1  10
ATOM     10  C   UNL     1      30.942  11.993  22.773  1.00  0.00     0.000 C 
BRANCH  10  11
ATOM     11  C   UNL     1      31.876  13.089  22.234  1.00  0.00    -0.000 C 
BRANCH  11  12
ATOM     12  C   UNL     1      31.771  13.257  20.707  1.00  0.00    -0.000 C 
BRANCH  12  13
ATOM     13  C   UNL     1      31.912  14.724  20.266  1.00  0.00    -0.000 C 
BRANCH  13  14
ATOM     14  C   UNL     1      31.094  15.045  19.002  1.00  0.00    -0.000 C 
BRANCH  14  15
ATOM     15  C   UNL     1      30.645  13.781  18.255  1.00  0.00    -0.003 C 
ATOM     16  C   UNL     1      30.298  14.052  16.791  1.00  0.00     0.004 C 
ENDBRANCH  14  15
ENDBRANCH  13  14
ENDBRANCH  12  13
ENDBRANCH  11  12
ENDBRANCH  10  11
ENDBRANCH   1  10
TORSDOF 12
ENDMDL
MODEL 7
REMARK VINA RESULT:    -3.654     16.750     18.543
REMARK INTER + INTRA:          -6.604
REMARK INTER:                  -5.518
REMARK INTRA:                  -1.086
REMARK UNBOUND:                -0.387
REMARK SMILES CCCCCCCCCCCCCC(=O)[O-]
REMARK SMILES IDX 8 1 9 2 10 3 11 4 12 5 13 6 14 7 15 8 16 9 7 10 6 11 5 12
REMARK SMILES IDX 4 13 3 14 2 15 1 16
REMARK H PARENT
REMARK Flexibility Score: inf
ROOT
ATOM      1  C   UNL     1      31.310  13.301  19.754  1.00  0.00     0.000 C 
ENDROOT
BRANCH   1   2
ATOM      2  C   UNL     1      30.997  14.368  20.816  1.00  0.00     0.000 C 
BRANCH   2   3
ATOM      3  C   UNL     1      30.632  13.753  22.179  1.00  0.00     0.000 C 
BRANCH   3   4
ATOM      4  C   UNL     1      31.251  12.359  22.392  1.00  0.00     0.000 C 
BRANCH   4   5
ATOM      5  C   UNL     1      30.287  11.294  22.947  1.00  0.00     0.006 C 
BRANCH   5   6
ATOM      6  C   UNL     1      29.557  10.516  21.845  1.00  0.00     0.053 C 
BRANCH   6   7
ATOM      7  C   UNL     1      28.183  11.069  21.639  1.00  0.00     0.041 C 
ATOM      8  O   UNL     1      27.368  11.117  22.597  1.00  0.00    -0.550 OA
ATOM      9  O   UNL     1      27.783  11.486  20.375  1.00  0.00    -0.550 OA
ENDBRANCH   6   7
ENDBRANCH   5   6
ENDBRANCH   4   5
ENDBRANCH   3   4
ENDBRANCH   2   3
ENDBRANCH   1   2
BRANCH   1  10
ATOM     10  C   UNL     1      30.252  13.256  18.636  1.00  0.00     0.000 C 
BRANCH  10  11
ATOM     11  C   UNL     1      29.519  14.596  18.460  1.00  0.00    -0.000 C 
BRANCH  11  12
ATOM     12  C   UNL     1      29.710  15.195  17.055  1.00  0.00    -0.000 C 
BRANCH  12  13
ATOM     13  C   UNL     1      30.648  14.349  16.177  1.00  0.00    -0.000 C 
BRANCH  13  14
ATOM     14  C   UNL     1      31.485  15.202  15.208  1.00  0.00    -0.000 C 
BRANCH  14  15
ATOM     15  C   UNL     1      30.773  16.501  14.801  1.00  0.00    -0.003 C 
ATOM     16  C   UNL     1      30.699  16.683  13.285  1.00  0.00     0.004 C 
ENDBRANCH  14  15
ENDBRANCH  13  14
ENDBRANCH  12  13
ENDBRANCH  11  12
ENDBRANCH  10  11
ENDBRANCH   1  10
TORSDOF 12
ENDMDL
MODEL 8
REMARK VINA RESULT:    -3.646     16.980     19.089
REMARK INTER + INTRA:          -6.590
REMARK INTER:                  -5.348
REMARK INTRA:                  -1.242
REMARK UNBOUND:                -0.387
REMARK SMILES CCCCCCCCCCCCCC(=O)[O-]
REMARK SMILES IDX 8 1 9 2 10 3 11 4 12 5 13 6 14 7 15 8 16 9 7 10 6 11 5 12
REMARK SMILES IDX 4 13 3 14 2 15 1 16
REMARK H PARENT
REMARK Flexibility Score: inf
ROOT
ATOM      1  C   UNL     1      31.246  12.595  20.747  1.00  0.00     0.000 C 
ENDROOT
BRANCH   1   2
ATOM      2  C   UNL     1      31.779  13.889  20.111  1.00  0.00     0.000 C 
BRANCH   2   3
ATOM      3  C   UNL     1      30.703  14.986  20.017  1.00  0.00     0.000 C 
BRANCH   3   4
ATOM      4  C   UNL     1      31.209  16.265  19.325  1.00  0.00     0.000 C 
BRANCH   4   5
ATOM      5  C   UNL     1      30.656  16.503  17.908  1.00  0.00     0.006 C 
BRANCH   5   6
ATOM      6  C   UNL     1      31.673  16.175  16.806  1.00  0.00     0.053 C 
BRANCH   6   7
ATOM      7  C   UNL     1      31.132  15.118  15.896  1.00  0.00     0.041 C 
ATOM      8  O   UNL     1      30.576  14.095  16.373  1.00  0.00    -0.550 OA
ATOM      9  O   UNL     1      31.287  15.239  14.520  1.00  0.00    -0.550 OA
ENDBRANCH   6   7
ENDBRANCH   5   6
ENDBRANCH   4   5
ENDBRANCH   3   4
ENDBRANCH   2   3
ENDBRANCH   1   2
BRANCH   1  10
ATOM     10  C   UNL     1      31.288  12.635  22.285  1.00  0.00     0.000 C 
BRANCH  10  11
ATOM     11  C   UNL     1      30.170  11.799  22.930  1.00  0.00    -0.000 C 
BRANCH  11  12
ATOM     12  C   UNL     1      30.141  10.350  22.410  1.00  0.00    -0.000 C 
BRANCH  12  13
ATOM     13  C   UNL     1      28.749   9.934  21.906  1.00  0.00    -0.000 C 
BRANCH  13  14
ATOM     14  C   UNL     1      27.744  11.100  21.903  1.00  0.00    -0.000 C 
BRANCH  14  15
ATOM     15  C   UNL     1      27.564  11.719  20.509  1.00  0.00    -0.003 C 
ATOM     16  C   UNL     1      27.580  13.247  20.536  1.00  0.00     0.004 C 
ENDBRANCH  14  15
ENDBRANCH  13  14
ENDBRANCH  12  13
ENDBRANCH  11  12
ENDBRANCH  10  11
ENDBRANCH   1  10
TORSDOF 12
ENDMDL
MODEL 9
REMARK VINA RESULT:    -3.622     17.719     19.300
REMARK INTER + INTRA:          -6.550
REMARK INTER:                  -4.623
REMARK INTRA:                  -1.927
REMARK UNBOUND:                -0.387
REMARK SMILES CCCCCCCCCCCCCC(=O)[O-]
REMARK SMILES IDX 8 1 9 2 10 3 11 4 12 5 13 6 14 7 15 8 16 9 7 10 6 11 5 12
REMARK SMILES IDX 4 13 3 14 2 15 1 16
REMARK H PARENT
REMARK Flexibility Score: inf
ROOT
ATOM      1  C   UNL     1      31.518  15.432  21.603  1.00  0.00     0.000 C 
ENDROOT
BRANCH   1   2
ATOM      2  C   UNL     1      32.456  14.289  21.181  1.00  0.00     0.000 C 
BRANCH   2   3
ATOM      3  C   UNL     1      31.861  12.900  21.475  1.00  0.00     0.000 C 
BRANCH   3   4
ATOM      4  C   UNL     1      31.097  12.845  22.811  1.00  0.00     0.000 C 
BRANCH   4   5
ATOM      5  C   UNL     1      29.736  12.129  22.757  1.00  0.00     0.006 C 
BRANCH   5   6
ATOM      6  C   UNL     1      29.850  10.659  22.331  1.00  0.00     0.053 C 
BRANCH   6   7
ATOM      7  C   UNL     1      28.541  10.168  21.798  1.00  0.00     0.041 C 
ATOM      8  O   UNL     1      27.752  10.963  21.225  1.00  0.00    -0.550 OA
ATOM      9  O   UNL     1      28.171   8.841  21.979  1.00  0.00    -0.550 OA
ENDBRANCH   6   7
ENDBRANCH   5   6
ENDBRANCH   4   5
ENDBRANCH   3   4
ENDBRANCH   2   3
ENDBRANCH   1   2
BRANCH   1  10
ATOM     10  C   UNL     1      31.402  16.526  20.526  1.00  0.00     0.000 C 
BRANCH  10  11
ATOM     11  C   UNL     1      31.774  16.017  19.123  1.00  0.00    -0.000 C 
BRANCH  11  12
ATOM     12  C   UNL     1      30.728  16.399  18.060  1.00  0.00    -0.000 C 
BRANCH  12  13
ATOM     13  C   UNL     1      30.007  15.172  17.476  1.00  0.00    -0.000 C 
BRANCH  13  14
ATOM     14  C   UNL     1      30.349  13.871  18.224  1.00  0.00    -0.000 C 
BRANCH  14  15
ATOM     15  C   UNL     1      29.124  13.249  18.911  1.00  0.00    -0.003 C 
ATOM     16  C   UNL     1      28.484  14.185  19.936  1.00  0.00     0.004 C 
ENDBRANCH  14  15
ENDBRANCH  13  14
ENDBRANCH  12  13
ENDBRANCH  11  12
ENDBRANCH  10  11
ENDBRANCH   1  10
TORSDOF 12
ENDMDL
