MODEL 1
REMARK VINA RESULT:    -4.086      0.000      0.000
REMARK INTER + INTRA:          -5.461
REMARK INTER:                  -5.997
REMARK INTRA:                   0.536
REMARK UNBOUND:                 0.536
REMARK SMILES C=C1CC=CC(C)(C)CC=C(C)CCC1
REMARK SMILES IDX 2 1 1 2 15 3 14 4 13 5 11 6 12 7 10 8 3 10 4 11 5 12 6 13
REMARK SMILES IDX 7 14 8 15 9 16
REMARK H PARENT
REMARK Flexibility Score: 60.00
ROOT
ATOM      1  C   UNL     1     144.208 141.684 160.847  1.00  0.00    -0.074 C 
ATOM      2  C   UNL     1     143.242 141.002 160.209  1.00  0.00     0.008 C 
ENDROOT
BRANCH   1   3
ATOM      3  C   UNL     1     145.377 140.945 161.476  1.00  0.00     0.031 C 
BRANCH   3   4
ATOM      4  C   UNL     1     144.953 140.141 162.724  1.00  0.00     0.009 C 
BRANCH   4   5
ATOM      5  C   UNL     1     145.121 140.934 164.040  1.00  0.00     0.030 C 
BRANCH   5   6
ATOM      6  C   UNL     1     143.780 141.385 164.595  1.00  0.00    -0.077 C 
ATOM      7  C   UNL     1     142.791 140.316 164.987  1.00  0.00     0.039 C 
ATOM      8  C   UNL     1     143.400 142.680 164.741  1.00  0.00    -0.027 CG0
ATOM      9  G   UNL     1     144.215 143.919 164.416  1.00  0.00     0.000 G0
ENDBRANCH   5   6
ENDBRANCH   4   5
ENDBRANCH   3   4
ENDBRANCH   1   3
BRANCH   1  10
ATOM     10  C   UNL     1     144.111 143.189 160.953  1.00  0.00     0.057 C 
BRANCH  10  11
ATOM     11  C   UNL     1     142.753 143.579 161.480  1.00  0.00    -0.026 C 
ATOM     12  C   UNL     1     142.487 144.342 162.562  1.00  0.00    -0.024 C 
BRANCH  12  13
ATOM     13  C   UNL     1     143.473 144.982 163.548  1.00  0.00    -0.014 C 
ATOM     14  C   UNL     1     144.481 145.885 162.801  1.00  0.00     0.016 C 
ATOM     15  C   UNL     1     142.661 145.902 164.494  1.00  0.00     0.016 C 
BRANCH  13  16
ATOM     16  C   UNL     1     144.234 143.927 164.409  1.00  0.00     0.038 CG0
ATOM     17  G   UNL     1     143.402 142.697 164.732  1.00  0.00     0.000 G0
ENDBRANCH  13  16
ENDBRANCH  12  13
ENDBRANCH  10  11
ENDBRANCH   1  10
TORSDOF 0
ENDMDL
MODEL 2
REMARK VINA RESULT:    -4.068      3.641      5.744
REMARK INTER + INTRA:          -5.434
REMARK INTER:                  -5.815
REMARK INTRA:                   0.381
REMARK UNBOUND:                 0.536
REMARK SMILES C=C1CC=CC(C)(C)CC=C(C)CCC1
REMARK SMILES IDX 2 1 1 2 15 3 14 4 13 5 11 6 12 7 10 8 3 10 4 11 5 12 6 13
REMARK SMILES IDX 7 14 8 15 9 16
REMARK H PARENT
REMARK Flexibility Score: 60.00
ROOT
ATOM      1  C   UNL     1     140.588 146.233 164.073  1.00  0.00    -0.074 C 
ATOM      2  C   UNL     1     140.101 145.741 165.225  1.00  0.00     0.008 C 
ENDROOT
BRANCH   1   3
ATOM      3  C   UNL     1     141.229 147.610 164.041  1.00  0.00     0.031 C 
BRANCH   3   4
ATOM      4  C   UNL     1     142.563 147.649 164.816  1.00  0.00     0.009 C 
BRANCH   4   5
ATOM      5  C   UNL     1     143.636 146.711 164.220  1.00  0.00     0.030 C 
BRANCH   5   6
ATOM      6  C   UNL     1     144.201 147.261 162.921  1.00  0.00    -0.077 C 
ATOM      7  C   UNL     1     144.810 148.641 162.953  1.00  0.00     0.039 C 
ATOM      8  C   UNL     1     144.176 146.611 161.730  1.00  0.00    -0.027 CG0
ATOM      9  G   UNL     1     143.618 145.226 161.451  1.00  0.00     0.000 G0
ENDBRANCH   5   6
ENDBRANCH   4   5
ENDBRANCH   3   4
ENDBRANCH   1   3
BRANCH   1  10
ATOM     10  C   UNL     1     140.472 145.415 162.807  1.00  0.00     0.057 C 
BRANCH  10  11
ATOM     11  C   UNL     1     140.563 146.318 161.603  1.00  0.00    -0.026 C 
ATOM     12  C   UNL     1     141.417 146.207 160.564  1.00  0.00    -0.024 C 
BRANCH  12  13
ATOM     13  C   UNL     1     142.526 145.170 160.343  1.00  0.00    -0.014 C 
ATOM     14  C   UNL     1     141.929 143.748 160.235  1.00  0.00     0.016 C 
ATOM     15  C   UNL     1     143.195 145.481 158.980  1.00  0.00     0.016 C 
BRANCH  13  16
ATOM     16  C   UNL     1     143.619 145.210 161.456  1.00  0.00     0.038 CG0
ATOM     17  G   UNL     1     144.158 146.605 161.722  1.00  0.00     0.000 G0
ENDBRANCH  13  16
ENDBRANCH  12  13
ENDBRANCH  10  11
ENDBRANCH   1  10
TORSDOF 0
ENDMDL
MODEL 3
REMARK VINA RESULT:    -3.904      3.716      5.774
REMARK INTER + INTRA:          -5.195
REMARK INTER:                  -5.627
REMARK INTRA:                   0.433
REMARK UNBOUND:                 0.536
REMARK SMILES C=C1CC=CC(C)(C)CC=C(C)CCC1
REMARK SMILES IDX 2 1 1 2 15 3 14 4 13 5 11 6 12 7 10 8 3 10 4 11 5 12 6 13
REMARK SMILES IDX 7 14 8 15 9 16
REMARK H PARENT
REMARK Flexibility Score: 60.00
ROOT
ATOM      1  C   UNL     1     145.645 149.323 162.371  1.00  0.00    -0.074 C 
ATOM      2  C   UNL     1     145.858 150.610 162.048  1.00  0.00     0.008 C 
ENDROOT
BRANCH   1   3
ATOM      3  C   UNL     1     146.796 148.332 162.362  1.00  0.00     0.031 C 
BRANCH   3   4
ATOM      4  C   UNL     1     147.740 148.527 163.568  1.00  0.00     0.009 C 
BRANCH   4   5
ATOM      5  C   UNL     1     147.157 147.975 164.888  1.00  0.00     0.030 C 
BRANCH   5   6
ATOM      6  C   UNL     1     146.870 146.486 164.793  1.00  0.00    -0.077 C 
ATOM      7  C   UNL     1     148.030 145.568 164.498  1.00  0.00     0.039 C 
ATOM      8  C   UNL     1     145.641 145.925 164.931  1.00  0.00    -0.027 CG0
ATOM      9  G   UNL     1     144.333 146.638 165.225  1.00  0.00     0.000 G0
ENDBRANCH   5   6
ENDBRANCH   4   5
ENDBRANCH   3   4
ENDBRANCH   1   3
BRANCH   1  10
ATOM     10  C   UNL     1     144.247 148.866 162.722  1.00  0.00     0.057 C 
BRANCH  10  11
ATOM     11  C   UNL     1     143.998 147.494 162.150  1.00  0.00    -0.026 C 
ATOM     12  C   UNL     1     143.528 146.411 162.805  1.00  0.00    -0.024 C 
BRANCH  12  13
ATOM     13  C   UNL     1     143.156 146.276 164.287  1.00  0.00    -0.014 C 
ATOM     14  C   UNL     1     141.919 147.141 164.620  1.00  0.00     0.016 C 
ATOM     15  C   UNL     1     142.754 144.800 164.537  1.00  0.00     0.016 C 
BRANCH  13  16
ATOM     16  C   UNL     1     144.337 146.639 165.240  1.00  0.00     0.038 CG0
ATOM     17  G   UNL     1     145.623 145.898 164.919  1.00  0.00     0.000 G0
ENDBRANCH  13  16
ENDBRANCH  12  13
ENDBRANCH  10  11
ENDBRANCH   1  10
TORSDOF 0
ENDMDL
MODEL 4
REMARK VINA RESULT:    -3.881      1.568      4.073
REMARK INTER + INTRA:          -5.160
REMARK INTER:                  -5.663
REMARK INTRA:                   0.503
REMARK UNBOUND:                 0.536
REMARK SMILES C=C1CC=CC(C)(C)CC=C(C)CCC1
REMARK SMILES IDX 2 1 1 2 15 3 14 4 13 5 11 6 12 7 10 8 3 10 4 11 5 12 6 13
REMARK SMILES IDX 7 14 8 15 9 16
REMARK H PARENT
REMARK Flexibility Score: 60.00
ROOT
ATOM      1  C   UNL     1     144.443 140.624 163.757  1.00  0.00    -0.074 C 
ATOM      2  C   UNL     1     144.975 140.132 164.888  1.00  0.00     0.008 C 
ENDROOT
BRANCH   1   3
ATOM      3  C   UNL     1     143.271 141.590 163.820  1.00  0.00     0.031 C 
BRANCH   3   4
ATOM      4  C   UNL     1     143.469 142.674 164.900  1.00  0.00     0.009 C 
BRANCH   4   5
ATOM      5  C   UNL     1     144.388 143.827 164.438  1.00  0.00     0.030 C 
BRANCH   5   6
ATOM      6  C   UNL     1     143.889 144.458 163.148  1.00  0.00    -0.077 C 
ATOM      7  C   UNL     1     142.616 145.264 163.213  1.00  0.00     0.039 C 
ATOM      8  C   UNL     1     144.492 144.328 161.939  1.00  0.00    -0.027 CG0
ATOM      9  G   UNL     1     145.770 143.569 161.627  1.00  0.00     0.000 G0
ENDBRANCH   5   6
ENDBRANCH   4   5
ENDBRANCH   3   4
ENDBRANCH   1   3
BRANCH   1  10
ATOM     10  C   UNL     1     145.004 140.193 162.421  1.00  0.00     0.057 C 
BRANCH  10  11
ATOM     11  C   UNL     1     144.131 140.711 161.306  1.00  0.00    -0.026 C 
ATOM     12  C   UNL     1     144.414 141.714 160.449  1.00  0.00    -0.024 C 
BRANCH  12  13
ATOM     13  C   UNL     1     145.662 142.604 160.395  1.00  0.00    -0.014 C 
ATOM     14  C   UNL     1     146.940 141.743 160.269  1.00  0.00     0.016 C 
ATOM     15  C   UNL     1     145.571 143.463 159.109  1.00  0.00     0.016 C 
BRANCH  13  16
ATOM     16  C   UNL     1     145.776 143.557 161.625  1.00  0.00     0.038 CG0
ATOM     17  G   UNL     1     144.498 144.325 161.915  1.00  0.00     0.000 G0
ENDBRANCH  13  16
ENDBRANCH  12  13
ENDBRANCH  10  11
ENDBRANCH   1  10
TORSDOF 0
ENDMDL
MODEL 5
REMARK VINA RESULT:    -3.866      1.633      2.333
REMARK INTER + INTRA:          -5.138
REMARK INTER:                  -5.598
REMARK INTRA:                   0.460
REMARK UNBOUND:                 0.536
REMARK SMILES C=C1CC=CC(C)(C)CC=C(C)CCC1
REMARK SMILES IDX 2 1 1 2 15 3 14 4 13 5 11 6 12 7 10 8 3 10 4 11 5 12 6 13
REMARK SMILES IDX 7 14 8 15 9 16
REMARK H PARENT
REMARK Flexibility Score: 60.00
ROOT
ATOM      1  C   UNL     1     142.569 143.760 159.636  1.00  0.00    -0.074 C 
ATOM      2  C   UNL     1     143.295 143.778 158.505  1.00  0.00     0.008 C 
ENDROOT
BRANCH   1   3
ATOM      3  C   UNL     1     142.094 142.439 160.218  1.00  0.00     0.031 C 
BRANCH   3   4
ATOM      4  C   UNL     1     143.256 141.611 160.805  1.00  0.00     0.009 C 
BRANCH   4   5
ATOM      5  C   UNL     1     144.076 142.383 161.863  1.00  0.00     0.030 C 
BRANCH   5   6
ATOM      6  C   UNL     1     143.385 142.380 163.217  1.00  0.00    -0.077 C 
ATOM      7  C   UNL     1     143.075 141.042 163.840  1.00  0.00     0.039 C 
ATOM      8  C   UNL     1     143.006 143.493 163.895  1.00  0.00    -0.027 CG0
ATOM      9  G   UNL     1     143.207 144.939 163.472  1.00  0.00     0.000 G0
ENDBRANCH   5   6
ENDBRANCH   4   5
ENDBRANCH   3   4
ENDBRANCH   1   3
BRANCH   1  10
ATOM     10  C   UNL     1     142.211 145.064 160.311  1.00  0.00     0.057 C 
BRANCH  10  11
ATOM     11  C   UNL     1     140.982 144.880 161.164  1.00  0.00    -0.026 C 
ATOM     12  C   UNL     1     140.843 145.189 162.470  1.00  0.00    -0.024 C 
BRANCH  12  13
ATOM     13  C   UNL     1     141.886 145.772 163.432  1.00  0.00    -0.014 C 
ATOM     14  C   UNL     1     142.192 147.245 163.076  1.00  0.00     0.016 C 
ATOM     15  C   UNL     1     141.265 145.773 164.853  1.00  0.00     0.016 C 
BRANCH  13  16
ATOM     16  C   UNL     1     143.206 144.942 163.465  1.00  0.00     0.038 CG0
ATOM     17  G   UNL     1     143.006 143.505 163.917  1.00  0.00     0.000 G0
ENDBRANCH  13  16
ENDBRANCH  12  13
ENDBRANCH  10  11
ENDBRANCH   1  10
TORSDOF 0
ENDMDL
MODEL 6
REMARK VINA RESULT:    -3.841      4.466      7.072
REMARK INTER + INTRA:          -5.102
REMARK INTER:                  -5.801
REMARK INTRA:                   0.699
REMARK UNBOUND:                 0.536
REMARK SMILES C=C1CC=CC(C)(C)CC=C(C)CCC1
REMARK SMILES IDX 2 1 1 2 15 3 14 4 13 5 11 6 12 7 10 8 3 10 4 11 5 12 6 13
REMARK SMILES IDX 7 14 8 15 9 16
REMARK H PARENT
REMARK Flexibility Score: 60.00
ROOT
ATOM      1  C   UNL     1     146.340 150.215 163.841  1.00  0.00    -0.074 C 
ATOM      2  C   UNL     1     145.884 150.947 164.871  1.00  0.00     0.008 C 
ENDROOT
BRANCH   1   3
ATOM      3  C   UNL     1     147.600 149.380 163.994  1.00  0.00     0.031 C 
BRANCH   3   4
ATOM      4  C   UNL     1     147.405 148.207 164.978  1.00  0.00     0.009 C 
BRANCH   4   5
ATOM      5  C   UNL     1     147.617 146.825 164.321  1.00  0.00     0.030 C 
BRANCH   5   6
ATOM      6  C   UNL     1     146.365 146.350 163.602  1.00  0.00    -0.077 C 
ATOM      7  C   UNL     1     145.291 145.691 164.431  1.00  0.00     0.039 C 
ATOM      8  C   UNL     1     146.154 146.454 162.265  1.00  0.00    -0.027 CG0
ATOM      9  G   UNL     1     147.083 147.071 161.234  1.00  0.00     0.000 G0
ENDBRANCH   5   6
ENDBRANCH   4   5
ENDBRANCH   3   4
ENDBRANCH   1   3
BRANCH   1  10
ATOM     10  C   UNL     1     145.601 150.245 162.523  1.00  0.00     0.057 C 
BRANCH  10  11
ATOM     11  C   UNL     1     146.580 150.420 161.390  1.00  0.00    -0.026 C 
ATOM     12  C   UNL     1     146.895 149.516 160.439  1.00  0.00    -0.024 C 
BRANCH  12  13
ATOM     13  C   UNL     1     146.378 148.081 160.273  1.00  0.00    -0.014 C 
ATOM     14  C   UNL     1     144.846 148.028 160.474  1.00  0.00     0.016 C 
ATOM     15  C   UNL     1     146.654 147.649 158.810  1.00  0.00     0.016 C 
BRANCH  13  16
ATOM     16  C   UNL     1     147.080 147.072 161.232  1.00  0.00     0.038 CG0
ATOM     17  G   UNL     1     146.146 146.476 162.272  1.00  0.00     0.000 G0
ENDBRANCH  13  16
ENDBRANCH  12  13
ENDBRANCH  10  11
ENDBRANCH   1  10
TORSDOF 0
ENDMDL
MODEL 7
REMARK VINA RESULT:    -3.820      2.075      4.980
REMARK INTER + INTRA:          -5.070
REMARK INTER:                  -5.761
REMARK INTRA:                   0.691
REMARK UNBOUND:                 0.536
REMARK SMILES C=C1CC=CC(C)(C)CC=C(C)CCC1
REMARK SMILES IDX 2 1 1 2 15 3 14 4 13 5 11 6 12 7 10 8 3 10 4 11 5 12 6 13
REMARK SMILES IDX 7 14 8 15 9 16
REMARK H PARENT
REMARK Flexibility Score: 60.00
ROOT
ATOM      1  C   UNL     1     141.206 146.035 162.615  1.00  0.00    -0.074 C 
ATOM      2  C   UNL     1     140.421 145.866 161.537  1.00  0.00     0.008 C 
ENDROOT
BRANCH   1   3
ATOM      3  C   UNL     1     141.589 147.433 163.070  1.00  0.00     0.031 C 
BRANCH   3   4
ATOM      4  C   UNL     1     143.113 147.666 163.015  1.00  0.00     0.009 C 
BRANCH   4   5
ATOM      5  C   UNL     1     143.785 147.608 164.405  1.00  0.00     0.030 C 
BRANCH   5   6
ATOM      6  C   UNL     1     145.145 146.932 164.342  1.00  0.00    -0.077 C 
ATOM      7  C   UNL     1     146.312 147.756 163.858  1.00  0.00     0.039 C 
ATOM      8  C   UNL     1     145.380 145.635 164.666  1.00  0.00    -0.027 CG0
ATOM      9  G   UNL     1     144.372 144.617 165.171  1.00  0.00     0.000 G0
ENDBRANCH   5   6
ENDBRANCH   4   5
ENDBRANCH   3   4
ENDBRANCH   1   3
BRANCH   1  10
ATOM     10  C   UNL     1     141.721 144.823 163.357  1.00  0.00     0.057 C 
BRANCH  10  11
ATOM     11  C   UNL     1     142.751 144.109 162.519  1.00  0.00    -0.026 C 
ATOM     12  C   UNL     1     143.844 143.449 162.959  1.00  0.00    -0.024 C 
BRANCH  12  13
ATOM     13  C   UNL     1     144.342 143.276 164.399  1.00  0.00    -0.014 C 
ATOM     14  C   UNL     1     143.486 142.231 165.150  1.00  0.00     0.016 C 
ATOM     15  C   UNL     1     145.784 142.710 164.332  1.00  0.00     0.016 C 
BRANCH  13  16
ATOM     16  C   UNL     1     144.370 144.619 165.193  1.00  0.00     0.038 CG0
ATOM     17  G   UNL     1     145.376 145.620 164.653  1.00  0.00     0.000 G0
ENDBRANCH  13  16
ENDBRANCH  12  13
ENDBRANCH  10  11
ENDBRANCH   1  10
TORSDOF 0
ENDMDL
MODEL 8
REMARK VINA RESULT:    -3.776      4.347      5.675
REMARK INTER + INTRA:          -5.006
REMARK INTER:                  -5.449
REMARK INTRA:                   0.443
REMARK UNBOUND:                 0.536
REMARK SMILES C=C1CC=CC(C)(C)CC=C(C)CCC1
REMARK SMILES IDX 2 1 1 2 15 3 14 4 13 5 11 6 12 7 10 8 3 10 4 11 5 12 6 13
REMARK SMILES IDX 7 14 8 15 9 16
REMARK H PARENT
REMARK Flexibility Score: 60.00
ROOT
ATOM      1  C   UNL     1     150.111 144.549 163.677  1.00  0.00    -0.074 C 
ATOM      2  C   UNL     1     150.681 144.960 164.821  1.00  0.00     0.008 C 
ENDROOT
BRANCH   1   3
ATOM      3  C   UNL     1     149.354 143.232 163.629  1.00  0.00     0.031 C 
BRANCH   3   4
ATOM      4  C   UNL     1     148.266 143.147 164.721  1.00  0.00     0.009 C 
BRANCH   4   5
ATOM      5  C   UNL     1     147.089 144.118 164.480  1.00  0.00     0.030 C 
BRANCH   5   6
ATOM      6  C   UNL     1     146.298 143.740 163.238  1.00  0.00    -0.077 C 
ATOM      7  C   UNL     1     145.504 142.458 163.280  1.00  0.00     0.039 C 
ATOM      8  C   UNL     1     146.274 144.459 162.088  1.00  0.00    -0.027 CG0
ATOM      9  G   UNL     1     146.989 145.770 161.808  1.00  0.00     0.000 G0
ENDBRANCH   5   6
ENDBRANCH   4   5
ENDBRANCH   3   4
ENDBRANCH   1   3
BRANCH   1  10
ATOM     10  C   UNL     1     150.247 145.396 162.432  1.00  0.00     0.057 C 
BRANCH  10  11
ATOM     11  C   UNL     1     149.914 144.573 161.213  1.00  0.00    -0.026 C 
ATOM     12  C   UNL     1     148.876 144.751 160.369  1.00  0.00    -0.024 C 
BRANCH  12  13
ATOM     13  C   UNL     1     147.756 145.798 160.435  1.00  0.00    -0.014 C 
ATOM     14  C   UNL     1     148.316 147.212 160.159  1.00  0.00     0.016 C 
ATOM     15  C   UNL     1     146.751 145.483 159.299  1.00  0.00     0.016 C 
BRANCH  13  16
ATOM     16  C   UNL     1     146.994 145.779 161.796  1.00  0.00     0.038 CG0
ATOM     17  G   UNL     1     146.283 144.466 162.072  1.00  0.00     0.000 G0
ENDBRANCH  13  16
ENDBRANCH  12  13
ENDBRANCH  10  11
ENDBRANCH   1  10
TORSDOF 0
ENDMDL
MODEL 9
REMARK VINA RESULT:    -3.769      4.454      6.493
REMARK INTER + INTRA:          -4.996
REMARK INTER:                  -5.550
REMARK INTRA:                   0.555
REMARK UNBOUND:                 0.536
REMARK SMILES C=C1CC=CC(C)(C)CC=C(C)CCC1
REMARK SMILES IDX 2 1 1 2 15 3 14 4 13 5 11 6 12 7 10 8 3 10 4 11 5 12 6 13
REMARK SMILES IDX 7 14 8 15 9 16
REMARK H PARENT
REMARK Flexibility Score: 60.00
ROOT
ATOM      1  C   UNL     1     147.430 148.893 164.030  1.00  0.00    -0.074 C 
ATOM      2  C   UNL     1     147.592 149.923 164.878  1.00  0.00     0.008 C 
ENDROOT
BRANCH   1   3
ATOM      3  C   UNL     1     147.471 147.465 164.545  1.00  0.00     0.031 C 
BRANCH   3   4
ATOM      4  C   UNL     1     146.090 146.987 165.044  1.00  0.00     0.009 C 
BRANCH   4   5
ATOM      5  C   UNL     1     145.389 146.027 164.056  1.00  0.00     0.030 C 
BRANCH   5   6
ATOM      6  C   UNL     1     144.056 146.585 163.585  1.00  0.00    -0.077 C 
ATOM      7  C   UNL     1     142.895 146.525 164.546  1.00  0.00     0.039 C 
ATOM      8  C   UNL     1     143.829 147.111 162.354  1.00  0.00    -0.027 CG0
ATOM      9  G   UNL     1     144.833 147.274 161.226  1.00  0.00     0.000 G0
ENDBRANCH   5   6
ENDBRANCH   4   5
ENDBRANCH   3   4
ENDBRANCH   1   3
BRANCH   1  10
ATOM     10  C   UNL     1     147.232 149.168 162.557  1.00  0.00     0.057 C 
BRANCH  10  11
ATOM     11  C   UNL     1     146.022 150.046 162.358  1.00  0.00    -0.026 C 
ATOM     12  C   UNL     1     144.991 149.833 161.514  1.00  0.00    -0.024 C 
BRANCH  12  13
ATOM     13  C   UNL     1     144.786 148.678 160.525  1.00  0.00    -0.014 C 
ATOM     14  C   UNL     1     143.454 148.847 159.758  1.00  0.00     0.016 C 
ATOM     15  C   UNL     1     145.922 148.754 159.473  1.00  0.00     0.016 C 
BRANCH  13  16
ATOM     16  C   UNL     1     144.835 147.279 161.213  1.00  0.00     0.038 CG0
ATOM     17  G   UNL     1     143.837 147.129 162.349  1.00  0.00     0.000 G0
ENDBRANCH  13  16
ENDBRANCH  12  13
ENDBRANCH  10  11
ENDBRANCH   1  10
TORSDOF 0
ENDMDL
