MODEL 1
REMARK VINA RESULT:    -5.505      0.000      0.000
REMARK INTER + INTRA:          -5.666
REMARK INTER:                  -5.666
REMARK INTRA:                   0.000
REMARK UNBOUND:                 0.000
REMARK SMILES Oc1ccc2[nH]ccc2c1
REMARK SMILES IDX 3 1 4 2 5 3 9 4 8 5 7 6 6 7 10 8 2 9 1 11
REMARK H PARENT 6 10 1 12
REMARK Flexibility Score: inf
ROOT
ATOM      1  C   UNL     1       0.668  13.681   6.183  1.00  0.00     0.048 A 
ATOM      2  C   UNL     1       0.051  13.705   4.918  1.00  0.00     0.030 A 
ATOM      3  C   UNL     1       0.865  13.571   3.795  1.00  0.00     0.046 A 
ATOM      4  C   UNL     1       2.222  13.420   3.902  1.00  0.00     0.003 A 
ATOM      5  C   UNL     1       2.728  13.315   2.625  1.00  0.00     0.028 A 
ATOM      6  C   UNL     1       1.620  13.411   1.787  1.00  0.00     0.083 A 
ATOM      7  N   UNL     1       0.485  13.567   2.506  1.00  0.00    -0.361 N 
ATOM      8  C   UNL     1       2.864  13.393   5.138  1.00  0.00     0.056 A 
ATOM      9  C   UNL     1       2.069  13.526   6.297  1.00  0.00     0.116 A 
ATOM     10  H   UNL     1      -0.485  13.663   2.132  1.00  0.00     0.166 HD
ENDROOT
BRANCH   9  11
ATOM     11  O   UNL     1       2.655  13.505   7.560  1.00  0.00    -0.508 OA
ATOM     12  H   UNL     1       2.795  14.355   8.092  1.00  0.00     0.293 HD
ENDBRANCH   9  11
TORSDOF 1
ENDMDL
MODEL 2
REMARK VINA RESULT:    -5.399      1.850      3.153
REMARK INTER + INTRA:          -5.557
REMARK INTER:                  -5.557
REMARK INTRA:                   0.000
REMARK UNBOUND:                 0.000
REMARK SMILES Oc1ccc2[nH]ccc2c1
REMARK SMILES IDX 3 1 4 2 5 3 9 4 8 5 7 6 6 7 10 8 2 9 1 11
REMARK H PARENT 6 10 1 12
REMARK Flexibility Score: inf
ROOT
ATOM      1  C   UNL     1       2.600  13.930   2.856  1.00  0.00     0.048 A 
ATOM      2  C   UNL     1       1.223  14.056   3.116  1.00  0.00     0.030 A 
ATOM      3  C   UNL     1       0.771  13.743   4.397  1.00  0.00     0.046 A 
ATOM      4  C   UNL     1       1.628  13.323   5.380  1.00  0.00     0.003 A 
ATOM      5  C   UNL     1       0.877  13.098   6.513  1.00  0.00     0.028 A 
ATOM      6  C   UNL     1      -0.432  13.401   6.147  1.00  0.00     0.083 A 
ATOM      7  N   UNL     1      -0.490  13.794   4.854  1.00  0.00    -0.361 N 
ATOM      8  C   UNL     1       2.996  13.188   5.156  1.00  0.00     0.056 A 
ATOM      9  C   UNL     1       3.487  13.497   3.869  1.00  0.00     0.116 A 
ATOM     10  H   UNL     1      -1.344  14.078   4.324  1.00  0.00     0.166 HD
ENDROOT
BRANCH   9  11
ATOM     11  O   UNL     1       4.846  13.381   3.586  1.00  0.00    -0.508 OA
ATOM     12  H   UNL     1       5.440  12.742   4.100  1.00  0.00     0.293 HD
ENDBRANCH   9  11
TORSDOF 1
ENDMDL
MODEL 3
REMARK VINA RESULT:    -5.206      1.932      2.588
REMARK INTER + INTRA:          -5.358
REMARK INTER:                  -5.358
REMARK INTRA:                   0.000
REMARK UNBOUND:                 0.000
REMARK SMILES Oc1ccc2[nH]ccc2c1
REMARK SMILES IDX 3 1 4 2 5 3 9 4 8 5 7 6 6 7 10 8 2 9 1 11
REMARK H PARENT 6 10 1 12
REMARK Flexibility Score: inf
ROOT
ATOM      1  C   UNL     1       3.039  13.195   5.013  1.00  0.00     0.048 A 
ATOM      2  C   UNL     1       1.645  13.159   5.206  1.00  0.00     0.030 A 
ATOM      3  C   UNL     1       0.835  13.644   4.181  1.00  0.00     0.046 A 
ATOM      4  C   UNL     1       1.363  14.144   3.020  1.00  0.00     0.003 A 
ATOM      5  C   UNL     1       0.310  14.536   2.223  1.00  0.00     0.028 A 
ATOM      6  C   UNL     1      -0.833  14.247   2.964  1.00  0.00     0.083 A 
ATOM      7  N   UNL     1      -0.507  13.702   4.158  1.00  0.00    -0.361 N 
ATOM      8  C   UNL     1       2.737  14.194   2.798  1.00  0.00     0.056 A 
ATOM      9  C   UNL     1       3.587  13.710   3.816  1.00  0.00     0.116 A 
ATOM     10  H   UNL     1      -1.166  13.392   4.906  1.00  0.00     0.166 HD
ENDROOT
BRANCH   9  11
ATOM     11  O   UNL     1       4.970  13.734   3.650  1.00  0.00    -0.508 OA
ATOM     12  H   UNL     1       5.525  12.889   3.714  1.00  0.00     0.293 HD
ENDBRANCH   9  11
TORSDOF 1
ENDMDL
MODEL 4
REMARK VINA RESULT:    -5.131      2.037      2.649
REMARK INTER + INTRA:          -5.281
REMARK INTER:                  -5.281
REMARK INTRA:                   0.000
REMARK UNBOUND:                 0.000
REMARK SMILES Oc1ccc2[nH]ccc2c1
REMARK SMILES IDX 3 1 4 2 5 3 9 4 8 5 7 6 6 7 10 8 2 9 1 11
REMARK H PARENT 6 10 1 12
REMARK Flexibility Score: inf
ROOT
ATOM      1  C   UNL     1       0.639  13.551   6.516  1.00  0.00     0.048 A 
ATOM      2  C   UNL     1       2.027  13.362   6.370  1.00  0.00     0.030 A 
ATOM      3  C   UNL     1       2.552  13.371   5.080  1.00  0.00     0.046 A 
ATOM      4  C   UNL     1       1.757  13.556   3.979  1.00  0.00     0.003 A 
ATOM      5  C   UNL     1       2.572  13.512   2.869  1.00  0.00     0.028 A 
ATOM      6  C   UNL     1       3.854  13.296   3.369  1.00  0.00     0.083 A 
ATOM      7  N   UNL     1       3.836  13.211   4.718  1.00  0.00    -0.361 N 
ATOM      8  C   UNL     1       0.382  13.745   4.088  1.00  0.00     0.056 A 
ATOM      9  C   UNL     1      -0.184  13.742   5.381  1.00  0.00     0.116 A 
ATOM     10  H   UNL     1       4.655  13.054   5.347  1.00  0.00     0.166 HD
ENDROOT
BRANCH   9  11
ATOM     11  O   UNL     1      -1.554  13.927   5.553  1.00  0.00    -0.508 OA
ATOM     12  H   UNL     1      -1.937  14.828   5.811  1.00  0.00     0.293 HD
ENDBRANCH   9  11
TORSDOF 1
ENDMDL
MODEL 5
REMARK VINA RESULT:    -5.127      0.770      2.174
REMARK INTER + INTRA:          -5.277
REMARK INTER:                  -5.277
REMARK INTRA:                   0.000
REMARK UNBOUND:                 0.000
REMARK SMILES Oc1ccc2[nH]ccc2c1
REMARK SMILES IDX 3 1 4 2 5 3 9 4 8 5 7 6 6 7 10 8 2 9 1 11
REMARK H PARENT 6 10 1 12
REMARK Flexibility Score: inf
ROOT
ATOM      1  C   UNL     1       3.016  13.294   5.197  1.00  0.00     0.048 A 
ATOM      2  C   UNL     1       2.553  13.377   3.870  1.00  0.00     0.030 A 
ATOM      3  C   UNL     1       1.206  13.668   3.669  1.00  0.00     0.046 A 
ATOM      4  C   UNL     1       0.347  13.868   4.718  1.00  0.00     0.003 A 
ATOM      5  C   UNL     1      -0.897  14.132   4.188  1.00  0.00     0.028 A 
ATOM      6  C   UNL     1      -0.723  14.077   2.807  1.00  0.00     0.083 A 
ATOM      7  N   UNL     1       0.563  13.793   2.496  1.00  0.00    -0.361 N 
ATOM      8  C   UNL     1       0.773  13.792   6.042  1.00  0.00     0.056 A 
ATOM      9  C   UNL     1       2.132  13.499   6.282  1.00  0.00     0.116 A 
ATOM     10  H   UNL     1       0.968  13.693   1.539  1.00  0.00     0.166 HD
ENDROOT
BRANCH   9  11
ATOM     11  O   UNL     1       2.616  13.411   7.585  1.00  0.00    -0.508 OA
ATOM     12  H   UNL     1       2.729  12.517   8.047  1.00  0.00     0.293 HD
ENDBRANCH   9  11
TORSDOF 1
ENDMDL
MODEL 6
REMARK VINA RESULT:    -4.898      2.607      4.032
REMARK INTER + INTRA:          -5.041
REMARK INTER:                  -5.041
REMARK INTRA:                   0.000
REMARK UNBOUND:                 0.000
REMARK SMILES Oc1ccc2[nH]ccc2c1
REMARK SMILES IDX 3 1 4 2 5 3 9 4 8 5 7 6 6 7 10 8 2 9 1 11
REMARK H PARENT 6 10 1 12
REMARK Flexibility Score: inf
ROOT
ATOM      1  C   UNL     1       3.196  13.143   3.041  1.00  0.00     0.048 A 
ATOM      2  C   UNL     1       3.409  13.133   4.432  1.00  0.00     0.030 A 
ATOM      3  C   UNL     1       2.312  13.364   5.260  1.00  0.00     0.046 A 
ATOM      4  C   UNL     1       1.061  13.595   4.751  1.00  0.00     0.003 A 
ATOM      5  C   UNL     1       0.210  13.783   5.817  1.00  0.00     0.028 A 
ATOM      6  C   UNL     1       1.012  13.653   6.948  1.00  0.00     0.083 A 
ATOM      7  N   UNL     1       2.294  13.397   6.602  1.00  0.00    -0.361 N 
ATOM      8  C   UNL     1       0.816  13.612   3.379  1.00  0.00     0.056 A 
ATOM      9  C   UNL     1       1.906  13.381   2.512  1.00  0.00     0.116 A 
ATOM     10  H   UNL     1       3.101  13.255   7.250  1.00  0.00     0.166 HD
ENDROOT
BRANCH   9  11
ATOM     11  O   UNL     1       1.722  13.386   1.132  1.00  0.00    -0.508 OA
ATOM     12  H   UNL     1       1.906  14.212   0.576  1.00  0.00     0.293 HD
ENDBRANCH   9  11
TORSDOF 1
ENDMDL
MODEL 7
REMARK VINA RESULT:    -4.830      2.688      3.470
REMARK INTER + INTRA:          -4.971
REMARK INTER:                  -4.971
REMARK INTRA:                   0.000
REMARK UNBOUND:                 0.000
REMARK SMILES Oc1ccc2[nH]ccc2c1
REMARK SMILES IDX 3 1 4 2 5 3 9 4 8 5 7 6 6 7 10 8 2 9 1 11
REMARK H PARENT 6 10 1 12
REMARK Flexibility Score: inf
ROOT
ATOM      1  C   UNL     1      -0.891  13.871   4.750  1.00  0.00     0.048 A 
ATOM      2  C   UNL     1      -0.144  13.786   5.940  1.00  0.00     0.030 A 
ATOM      3  C   UNL     1       1.242  13.693   5.832  1.00  0.00     0.046 A 
ATOM      4  C   UNL     1       1.871  13.683   4.615  1.00  0.00     0.003 A 
ATOM      5  C   UNL     1       3.224  13.583   4.851  1.00  0.00     0.028 A 
ATOM      6  C   UNL     1       3.348  13.536   6.237  1.00  0.00     0.083 A 
ATOM      7  N   UNL     1       2.135  13.604   6.831  1.00  0.00    -0.361 N 
ATOM      8  C   UNL     1       1.161  13.765   3.419  1.00  0.00     0.056 A 
ATOM      9  C   UNL     1      -0.245  13.861   3.492  1.00  0.00     0.116 A 
ATOM     10  H   UNL     1       1.938  13.589   7.857  1.00  0.00     0.166 HD
ENDROOT
BRANCH   9  11
ATOM     11  O   UNL     1      -1.007  13.946   2.330  1.00  0.00    -0.508 OA
ATOM     12  H   UNL     1      -0.887  13.289   1.569  1.00  0.00     0.293 HD
ENDBRANCH   9  11
TORSDOF 1
ENDMDL
MODEL 8
REMARK VINA RESULT:    -4.728      2.597      4.024
REMARK INTER + INTRA:          -4.867
REMARK INTER:                  -4.867
REMARK INTRA:                   0.000
REMARK UNBOUND:                 0.000
REMARK SMILES Oc1ccc2[nH]ccc2c1
REMARK SMILES IDX 3 1 4 2 5 3 9 4 8 5 7 6 6 7 10 8 2 9 1 11
REMARK H PARENT 6 10 1 12
REMARK Flexibility Score: inf
ROOT
ATOM      1  C   UNL     1       1.187  13.950   2.348  1.00  0.00     0.048 A 
ATOM      2  C   UNL     1       2.262  13.707   3.224  1.00  0.00     0.030 A 
ATOM      3  C   UNL     1       1.980  13.593   4.584  1.00  0.00     0.046 A 
ATOM      4  C   UNL     1       0.703  13.713   5.067  1.00  0.00     0.003 A 
ATOM      5  C   UNL     1       0.763  13.552   6.434  1.00  0.00     0.028 A 
ATOM      6  C   UNL     1       2.110  13.338   6.716  1.00  0.00     0.083 A 
ATOM      7  N   UNL     1       2.848  13.363   5.583  1.00  0.00    -0.361 N 
ATOM      8  C   UNL     1      -0.382  13.954   4.228  1.00  0.00     0.056 A 
ATOM      9  C   UNL     1      -0.132  14.074   2.844  1.00  0.00     0.116 A 
ATOM     10  H   UNL     1       3.881  13.231   5.504  1.00  0.00     0.166 HD
ENDROOT
BRANCH   9  11
ATOM     11  O   UNL     1      -1.177  14.315   1.957  1.00  0.00    -0.508 OA
ATOM     12  H   UNL     1      -1.181  13.920   1.024  1.00  0.00     0.293 HD
ENDBRANCH   9  11
TORSDOF 1
ENDMDL
MODEL 9
REMARK VINA RESULT:    -4.717      2.236      3.128
REMARK INTER + INTRA:          -4.855
REMARK INTER:                  -4.855
REMARK INTRA:                   0.000
REMARK UNBOUND:                 0.000
REMARK SMILES Oc1ccc2[nH]ccc2c1
REMARK SMILES IDX 3 1 4 2 5 3 9 4 8 5 7 6 6 7 10 8 2 9 1 11
REMARK H PARENT 6 10 1 12
REMARK Flexibility Score: inf
ROOT
ATOM      1  C   UNL     1      -1.103  14.128   4.115  1.00  0.00     0.048 A 
ATOM      2  C   UNL     1       0.155  13.996   3.497  1.00  0.00     0.030 A 
ATOM      3  C   UNL     1       1.257  13.744   4.313  1.00  0.00     0.046 A 
ATOM      4  C   UNL     1       1.135  13.628   5.672  1.00  0.00     0.003 A 
ATOM      5  C   UNL     1       2.393  13.383   6.179  1.00  0.00     0.028 A 
ATOM      6  C   UNL     1       3.234  13.363   5.070  1.00  0.00     0.083 A 
ATOM      7  N   UNL     1       2.535  13.584   3.933  1.00  0.00    -0.361 N 
ATOM      8  C   UNL     1      -0.094  13.753   6.315  1.00  0.00     0.056 A 
ATOM      9  C   UNL     1      -1.231  14.008   5.519  1.00  0.00     0.116 A 
ATOM     10  H   UNL     1       2.916  13.622   2.961  1.00  0.00     0.166 HD
ENDROOT
BRANCH   9  11
ATOM     11  O   UNL     1      -2.487  14.143   6.105  1.00  0.00    -0.508 OA
ATOM     12  H   UNL     1      -3.001  15.015   6.059  1.00  0.00     0.293 HD
ENDBRANCH   9  11
TORSDOF 1
ENDMDL
