MODEL 1
REMARK VINA RESULT:    -3.013      0.000      0.000
REMARK INTER + INTRA:          -3.988
REMARK INTER:                  -3.806
REMARK INTRA:                  -0.182
REMARK UNBOUND:                -0.182
REMARK SMILES CCCCCCO
REMARK SMILES IDX 4 1 3 2 2 3 1 4 5 5 6 6 7 7
REMARK H PARENT 7 8
REMARK Flexibility Score: inf
ROOT
ATOM      1  C   UNL     1     170.398 170.578 164.797  1.00  0.00     0.002 C 
ENDROOT
BRANCH   1   2
ATOM      2  C   UNL     1     169.997 169.388 163.916  1.00  0.00    -0.000 C 
BRANCH   2   3
ATOM      3  C   UNL     1     168.739 169.706 163.102  1.00  0.00    -0.003 C 
ATOM      4  C   UNL     1     168.110 171.023 163.549  1.00  0.00     0.004 C 
ENDBRANCH   2   3
ENDBRANCH   1   2
BRANCH   1   5
ATOM      5  C   UNL     1     171.839 171.017 164.507  1.00  0.00     0.028 C 
BRANCH   5   6
ATOM      6  C   UNL     1     171.893 172.363 163.779  1.00  0.00     0.156 C 
BRANCH   6   7
ATOM      7  O   UNL     1     170.943 173.251 164.305  1.00  0.00    -0.396 OA
ATOM      8  H   UNL     1     171.419 174.100 164.501  1.00  0.00     0.210 HD
ENDBRANCH   6   7
ENDBRANCH   5   6
ENDBRANCH   1   5
TORSDOF 5
ENDMDL
MODEL 2
REMARK VINA RESULT:    -3.001      1.028      1.663
REMARK INTER + INTRA:          -3.973
REMARK INTER:                  -3.851
REMARK INTRA:                  -0.122
REMARK UNBOUND:                -0.182
REMARK SMILES CCCCCCO
REMARK SMILES IDX 4 1 3 2 2 3 1 4 5 5 6 6 7 7
REMARK H PARENT 7 8
REMARK Flexibility Score: inf
ROOT
ATOM      1  C   UNL     1     169.862 170.942 164.651  1.00  0.00     0.002 C 
ENDROOT
BRANCH   1   2
ATOM      2  C   UNL     1     169.152 169.940 163.732  1.00  0.00    -0.000 C 
BRANCH   2   3
ATOM      3  C   UNL     1     169.838 168.570 163.779  1.00  0.00    -0.003 C 
ATOM      4  C   UNL     1     169.733 167.855 162.435  1.00  0.00     0.004 C 
ENDBRANCH   2   3
ENDBRANCH   1   2
BRANCH   1   5
ATOM      5  C   UNL     1     171.385 170.758 164.592  1.00  0.00     0.028 C 
BRANCH   5   6
ATOM      6  C   UNL     1     172.071 171.901 163.839  1.00  0.00     0.156 C 
BRANCH   6   7
ATOM      7  O   UNL     1     171.623 173.145 164.306  1.00  0.00    -0.396 OA
ATOM      8  H   UNL     1     172.122 173.839 163.801  1.00  0.00     0.210 HD
ENDBRANCH   6   7
ENDBRANCH   5   6
ENDBRANCH   1   5
TORSDOF 5
ENDMDL
MODEL 3
REMARK VINA RESULT:    -2.992      1.304      2.924
REMARK INTER + INTRA:          -3.962
REMARK INTER:                  -3.731
REMARK INTRA:                  -0.231
REMARK UNBOUND:                -0.182
REMARK SMILES CCCCCCO
REMARK SMILES IDX 4 1 3 2 2 3 1 4 5 5 6 6 7 7
REMARK H PARENT 7 8
REMARK Flexibility Score: inf
ROOT
ATOM      1  C   UNL     1     169.592 171.041 164.878  1.00  0.00     0.002 C 
ENDROOT
BRANCH   1   2
ATOM      2  C   UNL     1     170.776 170.302 164.242  1.00  0.00    -0.000 C 
BRANCH   2   3
ATOM      3  C   UNL     1     172.076 171.094 164.419  1.00  0.00    -0.003 C 
ATOM      4  C   UNL     1     172.445 171.840 163.140  1.00  0.00     0.004 C 
ENDBRANCH   2   3
ENDBRANCH   1   2
BRANCH   1   5
ATOM      5  C   UNL     1     168.726 171.716 163.807  1.00  0.00     0.028 C 
BRANCH   5   6
ATOM      6  C   UNL     1     168.949 173.230 163.759  1.00  0.00     0.156 C 
BRANCH   6   7
ATOM      7  O   UNL     1     169.446 173.698 164.985  1.00  0.00    -0.396 OA
ATOM      8  H   UNL     1     168.831 174.414 165.291  1.00  0.00     0.210 HD
ENDBRANCH   6   7
ENDBRANCH   5   6
ENDBRANCH   1   5
TORSDOF 5
ENDMDL
MODEL 4
REMARK VINA RESULT:    -2.965      2.158      3.830
REMARK INTER + INTRA:          -3.927
REMARK INTER:                  -3.775
REMARK INTRA:                  -0.152
REMARK UNBOUND:                -0.182
REMARK SMILES CCCCCCO
REMARK SMILES IDX 4 1 3 2 2 3 1 4 5 5 6 6 7 7
REMARK H PARENT 7 8
REMARK Flexibility Score: inf
ROOT
ATOM      1  C   UNL     1     169.806 170.574 164.663  1.00  0.00     0.002 C 
ENDROOT
BRANCH   1   2
ATOM      2  C   UNL     1     170.659 171.731 164.128  1.00  0.00    -0.000 C 
BRANCH   2   3
ATOM      3  C   UNL     1     172.143 171.351 164.097  1.00  0.00    -0.003 C 
ATOM      4  C   UNL     1     172.825 171.895 162.845  1.00  0.00     0.004 C 
ENDBRANCH   2   3
ENDBRANCH   1   2
BRANCH   1   5
ATOM      5  C   UNL     1     169.172 169.780 163.514  1.00  0.00     0.028 C 
BRANCH   5   6
ATOM      6  C   UNL     1     169.605 168.312 163.524  1.00  0.00     0.156 C 
BRANCH   6   7
ATOM      7  O   UNL     1     170.742 168.134 164.326  1.00  0.00    -0.396 OA
ATOM      8  H   UNL     1     170.660 167.240 164.749  1.00  0.00     0.210 HD
ENDBRANCH   6   7
ENDBRANCH   5   6
ENDBRANCH   1   5
TORSDOF 5
ENDMDL
MODEL 5
REMARK VINA RESULT:    -2.933      2.273      4.095
REMARK INTER + INTRA:          -3.887
REMARK INTER:                  -3.810
REMARK INTRA:                  -0.077
REMARK UNBOUND:                -0.182
REMARK SMILES CCCCCCO
REMARK SMILES IDX 4 1 3 2 2 3 1 4 5 5 6 6 7 7
REMARK H PARENT 7 8
REMARK Flexibility Score: inf
ROOT
ATOM      1  C   UNL     1     172.099 171.083 164.290  1.00  0.00     0.002 C 
ENDROOT
BRANCH   1   2
ATOM      2  C   UNL     1     172.024 172.489 163.679  1.00  0.00    -0.000 C 
BRANCH   2   3
ATOM      3  C   UNL     1     172.652 172.514 162.282  1.00  0.00    -0.003 C 
ATOM      4  C   UNL     1     174.055 171.913 162.296  1.00  0.00     0.004 C 
ENDBRANCH   2   3
ENDBRANCH   1   2
BRANCH   1   5
ATOM      5  C   UNL     1     170.705 170.587 164.697  1.00  0.00     0.028 C 
BRANCH   5   6
ATOM      6  C   UNL     1     170.249 169.398 163.847  1.00  0.00     0.156 C 
BRANCH   6   7
ATOM      7  O   UNL     1     170.754 168.195 164.362  1.00  0.00    -0.396 OA
ATOM      8  H   UNL     1     171.738 168.303 164.435  1.00  0.00     0.210 HD
ENDBRANCH   6   7
ENDBRANCH   5   6
ENDBRANCH   1   5
TORSDOF 5
ENDMDL
MODEL 6
REMARK VINA RESULT:    -2.814      2.507      3.387
REMARK INTER + INTRA:          -3.736
REMARK INTER:                  -3.617
REMARK INTRA:                  -0.119
REMARK UNBOUND:                -0.182
REMARK SMILES CCCCCCO
REMARK SMILES IDX 4 1 3 2 2 3 1 4 5 5 6 6 7 7
REMARK H PARENT 7 8
REMARK Flexibility Score: inf
ROOT
ATOM      1  C   UNL     1     170.713 170.627 164.517  1.00  0.00     0.002 C 
ENDROOT
BRANCH   1   2
ATOM      2  C   UNL     1     170.845 172.035 163.924  1.00  0.00    -0.000 C 
BRANCH   2   3
ATOM      3  C   UNL     1     169.486 172.565 163.457  1.00  0.00    -0.003 C 
ATOM      4  C   UNL     1     169.044 173.763 164.293  1.00  0.00     0.004 C 
ENDBRANCH   2   3
ENDBRANCH   1   2
BRANCH   1   5
ATOM      5  C   UNL     1     169.495 169.898 163.934  1.00  0.00     0.028 C 
BRANCH   5   6
ATOM      6  C   UNL     1     169.816 168.445 163.572  1.00  0.00     0.156 C 
BRANCH   6   7
ATOM      7  O   UNL     1     170.909 167.977 164.316  1.00  0.00    -0.396 OA
ATOM      8  H   UNL     1     171.368 168.775 164.687  1.00  0.00     0.210 HD
ENDBRANCH   6   7
ENDBRANCH   5   6
ENDBRANCH   1   5
TORSDOF 5
ENDMDL
MODEL 7
REMARK VINA RESULT:    -2.812      2.322      2.962
REMARK INTER + INTRA:          -3.734
REMARK INTER:                  -3.625
REMARK INTRA:                  -0.109
REMARK UNBOUND:                -0.182
REMARK SMILES CCCCCCO
REMARK SMILES IDX 4 1 3 2 2 3 1 4 5 5 6 6 7 7
REMARK H PARENT 7 8
REMARK Flexibility Score: inf
ROOT
ATOM      1  C   UNL     1     169.135 171.357 164.294  1.00  0.00     0.002 C 
ENDROOT
BRANCH   1   2
ATOM      2  C   UNL     1     167.996 170.636 163.564  1.00  0.00    -0.000 C 
BRANCH   2   3
ATOM      3  C   UNL     1     167.407 171.517 162.457  1.00  0.00    -0.003 C 
ATOM      4  C   UNL     1     166.804 172.795 163.032  1.00  0.00     0.004 C 
ENDBRANCH   2   3
ENDBRANCH   1   2
BRANCH   1   5
ATOM      5  C   UNL     1     170.373 170.458 164.406  1.00  0.00     0.028 C 
BRANCH   5   6
ATOM      6  C   UNL     1     170.183 169.128 163.670  1.00  0.00     0.156 C 
BRANCH   6   7
ATOM      7  O   UNL     1     170.786 168.078 164.379  1.00  0.00    -0.396 OA
ATOM      8  H   UNL     1     170.057 167.464 164.659  1.00  0.00     0.210 HD
ENDBRANCH   6   7
ENDBRANCH   5   6
ENDBRANCH   1   5
TORSDOF 5
ENDMDL
MODEL 8
REMARK VINA RESULT:    -2.740      1.576      2.822
REMARK INTER + INTRA:          -3.643
REMARK INTER:                  -3.403
REMARK INTRA:                  -0.240
REMARK UNBOUND:                -0.182
REMARK SMILES CCCCCCO
REMARK SMILES IDX 4 1 3 2 2 3 1 4 5 5 6 6 7 7
REMARK H PARENT 7 8
REMARK Flexibility Score: inf
ROOT
ATOM      1  C   UNL     1     171.190 172.191 162.617  1.00  0.00     0.002 C 
ENDROOT
BRANCH   1   2
ATOM      2  C   UNL     1     172.203 171.579 163.593  1.00  0.00    -0.000 C 
BRANCH   2   3
ATOM      3  C   UNL     1     171.498 170.742 164.665  1.00  0.00    -0.003 C 
ATOM      4  C   UNL     1     170.277 170.028 164.092  1.00  0.00     0.004 C 
ENDBRANCH   2   3
ENDBRANCH   1   2
BRANCH   1   5
ATOM      5  C   UNL     1     170.885 173.649 162.984  1.00  0.00     0.028 C 
BRANCH   5   6
ATOM      6  C   UNL     1     169.474 173.813 163.557  1.00  0.00     0.156 C 
BRANCH   6   7
ATOM      7  O   UNL     1     169.490 173.708 164.956  1.00  0.00    -0.396 OA
ATOM      8  H   UNL     1     169.683 174.615 165.311  1.00  0.00     0.210 HD
ENDBRANCH   6   7
ENDBRANCH   5   6
ENDBRANCH   1   5
TORSDOF 5
ENDMDL
MODEL 9
REMARK VINA RESULT:    -2.733      2.292      3.285
REMARK INTER + INTRA:          -3.634
REMARK INTER:                  -3.493
REMARK INTRA:                  -0.141
REMARK UNBOUND:                -0.182
REMARK SMILES CCCCCCO
REMARK SMILES IDX 4 1 3 2 2 3 1 4 5 5 6 6 7 7
REMARK H PARENT 7 8
REMARK Flexibility Score: inf
ROOT
ATOM      1  C   UNL     1     171.942 172.751 163.694  1.00  0.00     0.002 C 
ENDROOT
BRANCH   1   2
ATOM      2  C   UNL     1     170.823 172.998 162.675  1.00  0.00    -0.000 C 
BRANCH   2   3
ATOM      3  C   UNL     1     169.931 174.166 163.111  1.00  0.00    -0.003 C 
ATOM      4  C   UNL     1     169.024 173.765 164.270  1.00  0.00     0.004 C 
ENDBRANCH   2   3
ENDBRANCH   1   2
BRANCH   1   5
ATOM      5  C   UNL     1     172.157 171.249 163.921  1.00  0.00     0.028 C 
BRANCH   5   6
ATOM      6  C   UNL     1     170.923 170.579 164.533  1.00  0.00     0.156 C 
BRANCH   6   7
ATOM      7  O   UNL     1     171.024 169.182 164.453  1.00  0.00    -0.396 OA
ATOM      8  H   UNL     1     170.113 168.837 164.262  1.00  0.00     0.210 HD
ENDBRANCH   6   7
ENDBRANCH   5   6
ENDBRANCH   1   5
TORSDOF 5
ENDMDL
