MODEL 1
REMARK VINA RESULT:    -3.632      0.000      0.000
REMARK INTER + INTRA:          -5.905
REMARK INTER:                  -5.543
REMARK INTRA:                  -0.363
REMARK UNBOUND:                -0.363
REMARK SMILES CC1=CCC[C@H](C)C(=O)C[C@H](C(C)C)C(=O)C1
REMARK SMILES IDX 8 1 9 2 6 3 7 4 5 5 4 6 3 7 2 8 1 9 10 11 11 12 15 13 16 14
REMARK SMILES IDX 17 15 12 17 13 18 14 19
REMARK H PARENT
REMARK Flexibility Score: 70.00
ROOT
ATOM      1  C   UNL     1       8.535 -16.494  24.571  1.00  0.00     0.136 C 
ATOM      2  O   UNL     1       8.091 -16.085  25.634  1.00  0.00    -0.299 OA
ENDROOT
BRANCH   1   3
ATOM      3  C   UNL     1       8.832 -15.515  23.450  1.00  0.00     0.053 C 
ATOM      4  C   UNL     1       7.625 -14.596  23.228  1.00  0.00     0.016 C 
BRANCH   3   5
ATOM      5  C   UNL     1      10.108 -14.675  23.703  1.00  0.00     0.015 C 
BRANCH   5   6
ATOM      6  C   UNL     1      11.310 -14.998  22.791  1.00  0.00     0.028 C 
BRANCH   6   7
ATOM      7  C   UNL     1      12.285 -15.965  23.423  1.00  0.00    -0.028 C 
ATOM      8  C   UNL     1      12.408 -17.276  23.105  1.00  0.00    -0.070 CG0
ATOM      9  C   UNL     1      13.467 -18.079  23.817  1.00  0.00     0.039 C 
ATOM     10  G   UNL     1      11.511 -17.978  22.097  1.00  0.00     0.000 G0
ENDBRANCH   6   7
ENDBRANCH   5   6
ENDBRANCH   3   5
ENDBRANCH   1   3
BRANCH   1  11
ATOM     11  C   UNL     1       8.720 -17.982  24.354  1.00  0.00     0.087 C 
BRANCH  11  12
ATOM     12  C   UNL     1       9.010 -18.406  22.883  1.00  0.00     0.066 C 
BRANCH  12  13
ATOM     13  C   UNL     1      10.455 -18.868  22.737  1.00  0.00     0.140 C 
ATOM     14  O   UNL     1      10.781 -19.973  23.150  1.00  0.00    -0.299 OA
BRANCH  13  15
ATOM     15  C   UNL     1      11.504 -17.998  22.092  1.00  0.00     0.106 CG0
ATOM     16  G   UNL     1      12.391 -17.294  23.107  1.00  0.00     0.000 G0
ENDBRANCH  13  15
ENDBRANCH  12  13
BRANCH  12  17
ATOM     17  C   UNL     1       8.005 -19.460  22.307  1.00  0.00    -0.006 C 
ATOM     18  C   UNL     1       7.184 -18.860  21.148  1.00  0.00     0.008 C 
ATOM     19  C   UNL     1       7.026 -19.995  23.371  1.00  0.00     0.008 C 
ENDBRANCH  12  17
ENDBRANCH  11  12
ENDBRANCH   1  11
TORSDOF 1
ENDMDL
MODEL 2
REMARK VINA RESULT:    -3.545      2.101      4.224
REMARK INTER + INTRA:          -5.772
REMARK INTER:                  -5.528
REMARK INTRA:                  -0.245
REMARK UNBOUND:                -0.363
REMARK SMILES CC1=CCC[C@H](C)C(=O)C[C@H](C(C)C)C(=O)C1
REMARK SMILES IDX 8 1 9 2 6 3 7 4 5 5 4 6 3 7 2 8 1 9 10 11 11 12 15 13 16 14
REMARK SMILES IDX 17 15 12 17 13 18 14 19
REMARK H PARENT
REMARK Flexibility Score: 70.00
ROOT
ATOM      1  C   UNL     1       7.038 -17.640  24.202  1.00  0.00     0.136 C 
ATOM      2  O   UNL     1       5.866 -17.312  24.311  1.00  0.00    -0.299 OA
ENDROOT
BRANCH   1   3
ATOM      3  C   UNL     1       7.426 -19.103  24.306  1.00  0.00     0.053 C 
ATOM      4  C   UNL     1       7.103 -19.628  25.710  1.00  0.00     0.016 C 
BRANCH   3   5
ATOM      5  C   UNL     1       6.745 -19.987  23.232  1.00  0.00     0.015 C 
BRANCH   5   6
ATOM      6  C   UNL     1       7.248 -19.785  21.787  1.00  0.00     0.028 C 
BRANCH   6   7
ATOM      7  C   UNL     1       8.717 -20.101  21.626  1.00  0.00    -0.028 C 
ATOM      8  C   UNL     1       9.693 -19.192  21.385  1.00  0.00    -0.070 CG0
ATOM      9  C   UNL     1      11.114 -19.691  21.293  1.00  0.00     0.039 C 
ATOM     10  G   UNL     1       9.421 -17.712  21.168  1.00  0.00     0.000 G0
ENDBRANCH   6   7
ENDBRANCH   5   6
ENDBRANCH   3   5
ENDBRANCH   1   3
BRANCH   1  11
ATOM     11  C   UNL     1       8.106 -16.577  24.032  1.00  0.00     0.087 C 
BRANCH  11  12
ATOM     12  C   UNL     1       9.539 -17.118  23.749  1.00  0.00     0.066 C 
BRANCH  12  13
ATOM     13  C   UNL     1       9.936 -16.844  22.304  1.00  0.00     0.140 C 
ATOM     14  O   UNL     1      10.680 -15.907  22.048  1.00  0.00    -0.299 OA
BRANCH  13  15
ATOM     15  C   UNL     1       9.435 -17.702  21.168  1.00  0.00     0.106 CG0
ATOM     16  G   UNL     1       9.686 -19.184  21.394  1.00  0.00     0.000 G0
ENDBRANCH  13  15
ENDBRANCH  12  13
BRANCH  12  17
ATOM     17  C   UNL     1      10.628 -16.610  24.754  1.00  0.00    -0.006 C 
ATOM     18  C   UNL     1      11.958 -17.362  24.549  1.00  0.00     0.008 C 
ATOM     19  C   UNL     1      10.201 -16.767  26.226  1.00  0.00     0.008 C 
ENDBRANCH  12  17
ENDBRANCH  11  12
ENDBRANCH   1  11
TORSDOF 1
ENDMDL
MODEL 3
REMARK VINA RESULT:    -3.541      2.232      4.795
REMARK INTER + INTRA:          -5.767
REMARK INTER:                  -5.336
REMARK INTRA:                  -0.431
REMARK UNBOUND:                -0.363
REMARK SMILES CC1=CCC[C@H](C)C(=O)C[C@H](C(C)C)C(=O)C1
REMARK SMILES IDX 8 1 9 2 6 3 7 4 5 5 4 6 3 7 2 8 1 9 10 11 11 12 15 13 16 14
REMARK SMILES IDX 17 15 12 17 13 18 14 19
REMARK H PARENT
REMARK Flexibility Score: 70.00
ROOT
ATOM      1  C   UNL     1       9.622 -18.622  22.129  1.00  0.00     0.136 C 
ATOM      2  O   UNL     1       9.274 -19.689  21.645  1.00  0.00    -0.299 OA
ENDROOT
BRANCH   1   3
ATOM      3  C   UNL     1       9.323 -17.327  21.398  1.00  0.00     0.053 C 
ATOM      4  C   UNL     1      10.042 -17.316  20.044  1.00  0.00     0.016 C 
BRANCH   3   5
ATOM      5  C   UNL     1       7.806 -17.079  21.203  1.00  0.00     0.015 C 
BRANCH   5   6
ATOM      6  C   UNL     1       7.113 -16.277  22.324  1.00  0.00     0.028 C 
BRANCH   6   7
ATOM      7  C   UNL     1       6.784 -17.122  23.534  1.00  0.00    -0.028 C 
ATOM      8  C   UNL     1       7.399 -17.041  24.738  1.00  0.00    -0.070 CG0
ATOM      9  C   UNL     1       6.907 -17.942  25.844  1.00  0.00     0.039 C 
ATOM     10  G   UNL     1       8.575 -16.118  25.015  1.00  0.00     0.000 G0
ENDBRANCH   6   7
ENDBRANCH   5   6
ENDBRANCH   3   5
ENDBRANCH   1   3
BRANCH   1  11
ATOM     11  C   UNL     1      10.411 -18.603  23.423  1.00  0.00     0.087 C 
BRANCH  11  12
ATOM     12  C   UNL     1      10.767 -17.186  23.961  1.00  0.00     0.066 C 
BRANCH  12  13
ATOM     13  C   UNL     1       9.903 -16.841  25.168  1.00  0.00     0.140 C 
ATOM     14  O   UNL     1      10.275 -17.160  26.289  1.00  0.00    -0.299 OA
BRANCH  13  15
ATOM     15  C   UNL     1       8.591 -16.112  25.021  1.00  0.00     0.106 CG0
ATOM     16  G   UNL     1       7.426 -17.046  24.734  1.00  0.00     0.000 G0
ENDBRANCH  13  15
ENDBRANCH  12  13
BRANCH  12  17
ATOM     17  C   UNL     1      12.290 -16.975  24.262  1.00  0.00    -0.006 C 
ATOM     18  C   UNL     1      12.953 -16.118  23.165  1.00  0.00     0.008 C 
ATOM     19  C   UNL     1      13.064 -18.303  24.377  1.00  0.00     0.008 C 
ENDBRANCH  12  17
ENDBRANCH  11  12
ENDBRANCH   1  11
TORSDOF 1
ENDMDL
MODEL 4
REMARK VINA RESULT:    -3.522      2.280      3.731
REMARK INTER + INTRA:          -5.737
REMARK INTER:                  -5.275
REMARK INTRA:                  -0.462
REMARK UNBOUND:                -0.363
REMARK SMILES CC1=CCC[C@H](C)C(=O)C[C@H](C(C)C)C(=O)C1
REMARK SMILES IDX 8 1 9 2 6 3 7 4 5 5 4 6 3 7 2 8 1 9 10 11 11 12 15 13 16 14
REMARK SMILES IDX 17 15 12 17 13 18 14 19
REMARK H PARENT
REMARK Flexibility Score: 70.00
ROOT
ATOM      1  C   UNL     1       8.017 -17.557  21.702  1.00  0.00     0.136 C 
ATOM      2  O   UNL     1       7.115 -18.369  21.851  1.00  0.00    -0.299 OA
ENDROOT
BRANCH   1   3
ATOM      3  C   UNL     1       7.689 -16.084  21.548  1.00  0.00     0.053 C 
ATOM      4  C   UNL     1       6.744 -15.883  20.357  1.00  0.00     0.016 C 
BRANCH   3   5
ATOM      5  C   UNL     1       7.079 -15.463  22.829  1.00  0.00     0.015 C 
BRANCH   5   6
ATOM      6  C   UNL     1       8.071 -14.721  23.748  1.00  0.00     0.028 C 
BRANCH   6   7
ATOM      7  C   UNL     1       8.647 -15.608  24.829  1.00  0.00    -0.028 C 
ATOM      8  C   UNL     1       9.940 -16.006  24.911  1.00  0.00    -0.070 CG0
ATOM      9  C   UNL     1      10.341 -16.862  26.087  1.00  0.00     0.039 C 
ATOM     10  G   UNL     1      10.988 -15.663  23.864  1.00  0.00     0.000 G0
ENDBRANCH   6   7
ENDBRANCH   5   6
ENDBRANCH   3   5
ENDBRANCH   1   3
BRANCH   1  11
ATOM     11  C   UNL     1       9.452 -18.034  21.602  1.00  0.00     0.087 C 
BRANCH  11  12
ATOM     12  C   UNL     1      10.524 -16.905  21.563  1.00  0.00     0.066 C 
BRANCH  12  13
ATOM     13  C   UNL     1      11.248 -16.812  22.900  1.00  0.00     0.140 C 
ATOM     14  O   UNL     1      12.055 -17.677  23.213  1.00  0.00    -0.299 OA
BRANCH  13  15
ATOM     15  C   UNL     1      11.000 -15.674  23.859  1.00  0.00     0.106 CG0
ATOM     16  G   UNL     1       9.954 -16.007  24.911  1.00  0.00     0.000 G0
ENDBRANCH  13  15
ENDBRANCH  12  13
BRANCH  12  17
ATOM     17  C   UNL     1      11.530 -17.014  20.367  1.00  0.00    -0.006 C 
ATOM     18  C   UNL     1      12.269 -15.679  20.148  1.00  0.00     0.008 C 
ATOM     19  C   UNL     1      10.844 -17.414  19.046  1.00  0.00     0.008 C 
ENDBRANCH  12  17
ENDBRANCH  11  12
ENDBRANCH   1  11
TORSDOF 1
ENDMDL
MODEL 5
REMARK VINA RESULT:    -3.416      1.925      3.941
REMARK INTER + INTRA:          -5.576
REMARK INTER:                  -5.377
REMARK INTRA:                  -0.199
REMARK UNBOUND:                -0.363
REMARK SMILES CC1=CCC[C@H](C)C(=O)C[C@H](C(C)C)C(=O)C1
REMARK SMILES IDX 8 1 9 2 6 3 7 4 5 5 4 6 3 7 2 8 1 9 10 11 11 12 15 13 16 14
REMARK SMILES IDX 17 15 12 17 13 18 14 19
REMARK H PARENT
REMARK Flexibility Score: 70.00
ROOT
ATOM      1  C   UNL     1       9.937 -18.703  21.529  1.00  0.00     0.136 C 
ATOM      2  O   UNL     1      10.218 -19.448  20.601  1.00  0.00    -0.299 OA
ENDROOT
BRANCH   1   3
ATOM      3  C   UNL     1      10.933 -18.488  22.653  1.00  0.00     0.053 C 
ATOM      4  C   UNL     1      11.712 -19.782  22.914  1.00  0.00     0.016 C 
BRANCH   3   5
ATOM      5  C   UNL     1      11.911 -17.318  22.377  1.00  0.00     0.015 C 
BRANCH   5   6
ATOM      6  C   UNL     1      11.445 -15.931  22.866  1.00  0.00     0.028 C 
BRANCH   6   7
ATOM      7  C   UNL     1      10.865 -15.963  24.262  1.00  0.00    -0.028 C 
ATOM      8  C   UNL     1       9.564 -15.753  24.575  1.00  0.00    -0.070 CG0
ATOM      9  C   UNL     1       9.161 -15.864  26.025  1.00  0.00     0.039 C 
ATOM     10  G   UNL     1       8.507 -15.378  23.549  1.00  0.00     0.000 G0
ENDBRANCH   6   7
ENDBRANCH   5   6
ENDBRANCH   3   5
ENDBRANCH   1   3
BRANCH   1  11
ATOM     11  C   UNL     1       8.568 -18.055  21.589  1.00  0.00     0.087 C 
BRANCH  11  12
ATOM     12  C   UNL     1       7.964 -17.913  23.017  1.00  0.00     0.066 C 
BRANCH  12  13
ATOM     13  C   UNL     1       7.508 -16.480  23.263  1.00  0.00     0.140 C 
ATOM     14  O   UNL     1       6.315 -16.211  23.232  1.00  0.00    -0.299 OA
BRANCH  13  15
ATOM     15  C   UNL     1       8.492 -15.373  23.546  1.00  0.00     0.106 CG0
ATOM     16  G   UNL     1       9.544 -15.767  24.570  1.00  0.00     0.000 G0
ENDBRANCH  13  15
ENDBRANCH  12  13
BRANCH  12  17
ATOM     17  C   UNL     1       6.830 -18.944  23.342  1.00  0.00    -0.006 C 
ATOM     18  C   UNL     1       7.018 -19.544  24.749  1.00  0.00     0.008 C 
ATOM     19  C   UNL     1       6.766 -20.100  22.324  1.00  0.00     0.008 C 
ENDBRANCH  12  17
ENDBRANCH  11  12
ENDBRANCH   1  11
TORSDOF 1
ENDMDL
MODEL 6
REMARK VINA RESULT:    -3.390      1.903      3.917
REMARK INTER + INTRA:          -5.537
REMARK INTER:                  -5.179
REMARK INTRA:                  -0.357
REMARK UNBOUND:                -0.363
REMARK SMILES CC1=CCC[C@H](C)C(=O)C[C@H](C(C)C)C(=O)C1
REMARK SMILES IDX 8 1 9 2 6 3 7 4 5 5 4 6 3 7 2 8 1 9 10 11 11 12 15 13 16 14
REMARK SMILES IDX 17 15 12 17 13 18 14 19
REMARK H PARENT
REMARK Flexibility Score: 70.00
ROOT
ATOM      1  C   UNL     1       8.064 -17.859  22.039  1.00  0.00     0.136 C 
ATOM      2  O   UNL     1       7.082 -17.587  21.364  1.00  0.00    -0.299 OA
ENDROOT
BRANCH   1   3
ATOM      3  C   UNL     1       8.212 -19.248  22.632  1.00  0.00     0.053 C 
ATOM      4  C   UNL     1       6.833 -19.805  23.002  1.00  0.00     0.016 C 
BRANCH   3   5
ATOM      5  C   UNL     1       8.954 -20.230  21.693  1.00  0.00     0.015 C 
BRANCH   5   6
ATOM      6  C   UNL     1      10.468 -20.384  21.951  1.00  0.00     0.028 C 
BRANCH   6   7
ATOM      7  C   UNL     1      11.306 -19.442  21.116  1.00  0.00    -0.028 C 
ATOM      8  C   UNL     1      12.093 -18.452  21.603  1.00  0.00    -0.070 CG0
ATOM      9  C   UNL     1      12.889 -17.635  20.616  1.00  0.00     0.039 C 
ATOM     10  G   UNL     1      12.184 -18.108  23.081  1.00  0.00     0.000 G0
ENDBRANCH   6   7
ENDBRANCH   5   6
ENDBRANCH   3   5
ENDBRANCH   1   3
BRANCH   1  11
ATOM     11  C   UNL     1       9.094 -16.788  22.337  1.00  0.00     0.087 C 
BRANCH  11  12
ATOM     12  C   UNL     1       9.872 -16.971  23.674  1.00  0.00     0.066 C 
BRANCH  12  13
ATOM     13  C   UNL     1      11.373 -16.881  23.434  1.00  0.00     0.140 C 
ATOM     14  O   UNL     1      11.937 -15.799  23.530  1.00  0.00    -0.299 OA
BRANCH  13  15
ATOM     15  C   UNL     1      12.194 -18.096  23.080  1.00  0.00     0.106 CG0
ATOM     16  G   UNL     1      12.112 -18.452  21.604  1.00  0.00     0.000 G0
ENDBRANCH  13  15
ENDBRANCH  12  13
BRANCH  12  17
ATOM     17  C   UNL     1       9.410 -16.011  24.823  1.00  0.00    -0.006 C 
ATOM     18  C   UNL     1       8.386 -16.706  25.742  1.00  0.00     0.008 C 
ATOM     19  C   UNL     1       8.784 -14.706  24.294  1.00  0.00     0.008 C 
ENDBRANCH  12  17
ENDBRANCH  11  12
ENDBRANCH   1  11
TORSDOF 1
ENDMDL
MODEL 7
REMARK VINA RESULT:    -3.388      1.757      2.603
REMARK INTER + INTRA:          -5.534
REMARK INTER:                  -5.352
REMARK INTRA:                  -0.182
REMARK UNBOUND:                -0.363
REMARK SMILES CC1=CCC[C@H](C)C(=O)C[C@H](C(C)C)C(=O)C1
REMARK SMILES IDX 8 1 9 2 6 3 7 4 5 5 4 6 3 7 2 8 1 9 10 11 11 12 15 13 16 14
REMARK SMILES IDX 17 15 12 17 13 18 14 19
REMARK H PARENT
REMARK Flexibility Score: 70.00
ROOT
ATOM      1  C   UNL     1       7.092 -17.597  23.870  1.00  0.00     0.136 C 
ATOM      2  O   UNL     1       6.449 -16.727  23.300  1.00  0.00    -0.299 OA
ENDROOT
BRANCH   1   3
ATOM      3  C   UNL     1       7.332 -17.502  25.365  1.00  0.00     0.053 C 
ATOM      4  C   UNL     1       7.934 -18.815  25.880  1.00  0.00     0.016 C 
BRANCH   3   5
ATOM      5  C   UNL     1       8.237 -16.307  25.756  1.00  0.00     0.015 C 
BRANCH   5   6
ATOM      6  C   UNL     1       9.705 -16.659  26.076  1.00  0.00     0.028 C 
BRANCH   6   7
ATOM      7  C   UNL     1      10.658 -16.266  24.971  1.00  0.00    -0.028 C 
ATOM      8  C   UNL     1      11.183 -17.111  24.051  1.00  0.00    -0.070 CG0
ATOM      9  C   UNL     1      12.090 -16.529  22.995  1.00  0.00     0.039 C 
ATOM     10  G   UNL     1      10.932 -18.611  24.054  1.00  0.00     0.000 G0
ENDBRANCH   6   7
ENDBRANCH   5   6
ENDBRANCH   3   5
ENDBRANCH   1   3
BRANCH   1  11
ATOM     11  C   UNL     1       7.703 -18.729  23.069  1.00  0.00     0.087 C 
BRANCH  11  12
ATOM     12  C   UNL     1       8.992 -18.359  22.276  1.00  0.00     0.066 C 
BRANCH  12  13
ATOM     13  C   UNL     1      10.196 -19.104  22.838  1.00  0.00     0.140 C 
ATOM     14  O   UNL     1      10.580 -20.131  22.295  1.00  0.00    -0.299 OA
BRANCH  13  15
ATOM     15  C   UNL     1      10.937 -18.608  24.055  1.00  0.00     0.106 CG0
ATOM     16  G   UNL     1      11.178 -17.107  24.027  1.00  0.00     0.000 G0
ENDBRANCH  13  15
ENDBRANCH  12  13
BRANCH  12  17
ATOM     17  C   UNL     1       8.869 -18.546  20.725  1.00  0.00    -0.006 C 
ATOM     18  C   UNL     1       9.758 -17.533  19.977  1.00  0.00     0.008 C 
ATOM     19  C   UNL     1       7.421 -18.392  20.219  1.00  0.00     0.008 C 
ENDBRANCH  12  17
ENDBRANCH  11  12
ENDBRANCH   1  11
TORSDOF 1
ENDMDL
MODEL 8
REMARK VINA RESULT:    -3.313      2.208      4.256
REMARK INTER + INTRA:          -5.418
REMARK INTER:                  -4.945
REMARK INTRA:                  -0.473
REMARK UNBOUND:                -0.363
REMARK SMILES CC1=CCC[C@H](C)C(=O)C[C@H](C(C)C)C(=O)C1
REMARK SMILES IDX 8 1 9 2 6 3 7 4 5 5 4 6 3 7 2 8 1 9 10 11 11 12 15 13 16 14
REMARK SMILES IDX 17 15 12 17 13 18 14 19
REMARK H PARENT
REMARK Flexibility Score: 70.00
ROOT
ATOM      1  C   UNL     1      10.683 -17.512  23.908  1.00  0.00     0.136 C 
ATOM      2  O   UNL     1      11.496 -17.962  24.703  1.00  0.00    -0.299 OA
ENDROOT
BRANCH   1   3
ATOM      3  C   UNL     1      11.161 -16.887  22.610  1.00  0.00     0.053 C 
ATOM      4  C   UNL     1      12.324 -15.929  22.891  1.00  0.00     0.016 C 
BRANCH   3   5
ATOM      5  C   UNL     1      11.575 -17.939  21.551  1.00  0.00     0.015 C 
BRANCH   5   6
ATOM      6  C   UNL     1      10.514 -18.254  20.476  1.00  0.00     0.028 C 
BRANCH   6   7
ATOM      7  C   UNL     1       9.793 -19.560  20.726  1.00  0.00    -0.028 C 
ATOM      8  C   UNL     1       8.471 -19.687  20.993  1.00  0.00    -0.070 CG0
ATOM      9  C   UNL     1       7.919 -21.079  21.178  1.00  0.00     0.039 C 
ATOM     10  G   UNL     1       7.532 -18.501  21.149  1.00  0.00     0.000 G0
ENDBRANCH   6   7
ENDBRANCH   5   6
ENDBRANCH   3   5
ENDBRANCH   1   3
BRANCH   1  11
ATOM     11  C   UNL     1       9.208 -17.516  24.255  1.00  0.00     0.087 C 
BRANCH  11  12
ATOM     12  C   UNL     1       8.267 -16.937  23.157  1.00  0.00     0.066 C 
BRANCH  12  13
ATOM     13  C   UNL     1       7.382 -18.034  22.581  1.00  0.00     0.140 C 
ATOM     14  O   UNL     1       6.534 -18.561  23.288  1.00  0.00    -0.299 OA
BRANCH  13  15
ATOM     15  C   UNL     1       7.519 -18.494  21.151  1.00  0.00     0.106 CG0
ATOM     16  G   UNL     1       8.457 -19.681  21.001  1.00  0.00     0.000 G0
ENDBRANCH  13  15
ENDBRANCH  12  13
BRANCH  12  17
ATOM     17  C   UNL     1       7.427 -15.697  23.618  1.00  0.00    -0.006 C 
ATOM     18  C   UNL     1       6.583 -15.141  22.453  1.00  0.00     0.008 C 
ATOM     19  C   UNL     1       8.302 -14.557  24.174  1.00  0.00     0.008 C 
ENDBRANCH  12  17
ENDBRANCH  11  12
ENDBRANCH   1  11
TORSDOF 1
ENDMDL
MODEL 9
REMARK VINA RESULT:    -3.271      2.095      4.121
REMARK INTER + INTRA:          -5.354
REMARK INTER:                  -5.043
REMARK INTRA:                  -0.312
REMARK UNBOUND:                -0.363
REMARK SMILES CC1=CCC[C@H](C)C(=O)C[C@H](C(C)C)C(=O)C1
REMARK SMILES IDX 8 1 9 2 6 3 7 4 5 5 4 6 3 7 2 8 1 9 10 11 11 12 15 13 16 14
REMARK SMILES IDX 17 15 12 17 13 18 14 19
REMARK H PARENT
REMARK Flexibility Score: 70.00
ROOT
ATOM      1  C   UNL     1       9.587 -19.628  20.849  1.00  0.00     0.136 C 
ATOM      2  O   UNL     1       9.519 -19.525  19.633  1.00  0.00    -0.299 OA
ENDROOT
BRANCH   1   3
ATOM      3  C   UNL     1      10.122 -20.905  21.471  1.00  0.00     0.053 C 
ATOM      4  C   UNL     1       9.319 -22.108  20.964  1.00  0.00     0.016 C 
BRANCH   3   5
ATOM      5  C   UNL     1      11.634 -21.118  21.205  1.00  0.00     0.015 C 
BRANCH   5   6
ATOM      6  C   UNL     1      12.558 -19.967  21.654  1.00  0.00     0.028 C 
BRANCH   6   7
ATOM      7  C   UNL     1      12.808 -19.960  23.145  1.00  0.00    -0.028 C 
ATOM      8  C   UNL     1      12.270 -19.084  24.027  1.00  0.00    -0.070 CG0
ATOM      9  C   UNL     1      12.605 -19.257  25.487  1.00  0.00     0.039 C 
ATOM     10  G   UNL     1      11.380 -17.922  23.613  1.00  0.00     0.000 G0
ENDBRANCH   6   7
ENDBRANCH   5   6
ENDBRANCH   3   5
ENDBRANCH   1   3
BRANCH   1  11
ATOM     11  C   UNL     1       9.070 -18.509  21.731  1.00  0.00     0.087 C 
BRANCH  11  12
ATOM     12  C   UNL     1       8.939 -18.863  23.242  1.00  0.00     0.066 C 
BRANCH  12  13
ATOM     13  C   UNL     1       9.951 -18.075  24.064  1.00  0.00     0.140 C 
ATOM     14  O   UNL     1       9.603 -17.553  25.114  1.00  0.00    -0.299 OA
BRANCH  13  15
ATOM     15  C   UNL     1      11.384 -17.919  23.619  1.00  0.00     0.106 CG0
ATOM     16  G   UNL     1      12.264 -19.083  24.047  1.00  0.00     0.000 G0
ENDBRANCH  13  15
ENDBRANCH  12  13
BRANCH  12  17
ATOM     17  C   UNL     1       7.487 -18.713  23.814  1.00  0.00    -0.006 C 
ATOM     18  C   UNL     1       6.554 -19.795  23.234  1.00  0.00     0.008 C 
ATOM     19  C   UNL     1       6.871 -17.331  23.523  1.00  0.00     0.008 C 
ENDBRANCH  12  17
ENDBRANCH  11  12
ENDBRANCH   1  11
TORSDOF 1
ENDMDL
