MODEL 1
REMARK VINA RESULT:    -2.597      0.000      0.000
REMARK INTER + INTRA:          -2.920
REMARK INTER:                  -2.749
REMARK INTRA:                  -0.171
REMARK UNBOUND:                -0.171
REMARK SMILES C=C(C)[C@@H]1CC[C@]2(C)CCCC(=C)[C@H]2C1
REMARK SMILES IDX 4 1 5 2 6 3 7 4 9 5 10 6 11 7 12 8 13 9 14 10 15 11 8 12
REMARK SMILES IDX 2 13 3 14 1 15
REMARK H PARENT
REMARK Flexibility Score: inf
ROOT
ATOM      1  C   UNL     1     166.061 175.660 141.183  1.00  0.00     0.015 C 
ATOM      2  C   UNL     1     165.485 175.825 139.764  1.00  0.00     0.008 C 
ATOM      3  C   UNL     1     166.597 175.895 138.699  1.00  0.00     0.008 C 
ATOM      4  C   UNL     1     167.785 174.891 138.929  1.00  0.00    -0.026 C 
ATOM      5  C   UNL     1     168.134 174.212 137.570  1.00  0.00     0.008 C 
ATOM      6  C   UNL     1     169.230 173.141 137.694  1.00  0.00     0.005 C 
ATOM      7  C   UNL     1     168.857 172.064 138.716  1.00  0.00     0.031 C 
ATOM      8  C   UNL     1     168.432 172.683 140.027  1.00  0.00    -0.074 C 
ATOM      9  C   UNL     1     168.873 172.145 141.181  1.00  0.00     0.008 C 
ATOM     10  C   UNL     1     167.374 173.785 139.956  1.00  0.00     0.021 C 
ATOM     11  C   UNL     1     166.960 174.399 141.321  1.00  0.00     0.016 C 
ATOM     12  C   UNL     1     169.022 175.683 139.438  1.00  0.00     0.012 C 
ENDROOT
BRANCH   1  13
ATOM     13  C   UNL     1     164.954 175.682 142.229  1.00  0.00    -0.077 C 
ATOM     14  C   UNL     1     163.519 175.890 141.813  1.00  0.00     0.039 C 
ATOM     15  C   UNL     1     165.228 175.512 143.533  1.00  0.00     0.008 C 
ENDBRANCH   1  13
TORSDOF 1
ENDMDL
MODEL 2
REMARK VINA RESULT:    -2.596     15.329     17.698
REMARK INTER + INTRA:          -2.918
REMARK INTER:                  -2.745
REMARK INTRA:                  -0.173
REMARK UNBOUND:                -0.171
REMARK SMILES C=C(C)[C@@H]1CC[C@]2(C)CCCC(=C)[C@H]2C1
REMARK SMILES IDX 4 1 5 2 6 3 7 4 9 5 10 6 11 7 12 8 13 9 14 10 15 11 8 12
REMARK SMILES IDX 2 13 3 14 1 15
REMARK H PARENT
REMARK Flexibility Score: inf
ROOT
ATOM      1  C   UNL     1     165.959 156.298 141.216  1.00  0.00     0.015 C 
ATOM      2  C   UNL     1     166.544 156.145 139.799  1.00  0.00     0.008 C 
ATOM      3  C   UNL     1     165.438 156.088 138.727  1.00  0.00     0.008 C 
ATOM      4  C   UNL     1     164.252 157.093 138.959  1.00  0.00    -0.026 C 
ATOM      5  C   UNL     1     163.913 157.786 137.605  1.00  0.00     0.008 C 
ATOM      6  C   UNL     1     162.820 158.859 137.731  1.00  0.00     0.005 C 
ATOM      7  C   UNL     1     163.189 159.926 138.766  1.00  0.00     0.031 C 
ATOM      8  C   UNL     1     163.604 159.293 140.074  1.00  0.00    -0.074 C 
ATOM      9  C   UNL     1     163.157 159.821 141.230  1.00  0.00     0.008 C 
ATOM     10  C   UNL     1     164.659 158.188 139.999  1.00  0.00     0.021 C 
ATOM     11  C   UNL     1     165.063 157.561 141.361  1.00  0.00     0.016 C 
ATOM     12  C   UNL     1     163.010 156.300 139.452  1.00  0.00     0.012 C 
ENDROOT
BRANCH   1  13
ATOM     13  C   UNL     1     167.060 156.263 142.268  1.00  0.00    -0.077 C 
ATOM     14  C   UNL     1     166.762 156.654 143.694  1.00  0.00     0.039 C 
ATOM     15  C   UNL     1     168.309 155.881 141.953  1.00  0.00     0.008 C 
ENDBRANCH   1  13
TORSDOF 1
ENDMDL
MODEL 3
REMARK VINA RESULT:    -2.410     14.705     17.332
REMARK INTER + INTRA:          -2.722
REMARK INTER:                  -2.544
REMARK INTRA:                  -0.178
REMARK UNBOUND:                -0.171
REMARK SMILES C=C(C)[C@@H]1CC[C@]2(C)CCCC(=C)[C@H]2C1
REMARK SMILES IDX 4 1 5 2 6 3 7 4 9 5 10 6 11 7 12 8 13 9 14 10 15 11 8 12
REMARK SMILES IDX 2 13 3 14 1 15
REMARK H PARENT
REMARK Flexibility Score: inf
ROOT
ATOM      1  C   UNL     1     167.519 157.090 140.287  1.00  0.00     0.015 C 
ATOM      2  C   UNL     1     167.097 155.922 139.377  1.00  0.00     0.008 C 
ATOM      3  C   UNL     1     165.569 155.875 139.177  1.00  0.00     0.008 C 
ATOM      4  C   UNL     1     164.894 157.281 138.978  1.00  0.00    -0.026 C 
ATOM      5  C   UNL     1     163.881 157.185 137.797  1.00  0.00     0.008 C 
ATOM      6  C   UNL     1     163.223 158.531 137.454  1.00  0.00     0.005 C 
ATOM      7  C   UNL     1     164.265 159.609 137.140  1.00  0.00     0.031 C 
ATOM      8  C   UNL     1     165.316 159.680 138.223  1.00  0.00    -0.074 C 
ATOM      9  C   UNL     1     165.730 160.886 138.658  1.00  0.00     0.008 C 
ATOM     10  C   UNL     1     165.973 158.360 138.633  1.00  0.00     0.021 C 
ATOM     11  C   UNL     1     167.048 158.470 139.747  1.00  0.00     0.016 C 
ATOM     12  C   UNL     1     164.130 157.661 140.277  1.00  0.00     0.012 C 
ENDROOT
BRANCH   1  13
ATOM     13  C   UNL     1     169.021 157.067 140.545  1.00  0.00    -0.077 C 
ATOM     14  C   UNL     1     169.990 157.026 139.391  1.00  0.00     0.039 C 
ATOM     15  C   UNL     1     169.510 157.088 141.796  1.00  0.00     0.008 C 
ENDBRANCH   1  13
TORSDOF 1
ENDMDL
MODEL 4
REMARK VINA RESULT:    -2.399      1.251      4.906
REMARK INTER + INTRA:          -2.710
REMARK INTER:                  -2.528
REMARK INTRA:                  -0.182
REMARK UNBOUND:                -0.171
REMARK SMILES C=C(C)[C@@H]1CC[C@]2(C)CCCC(=C)[C@H]2C1
REMARK SMILES IDX 4 1 5 2 6 3 7 4 9 5 10 6 11 7 12 8 13 9 14 10 15 11 8 12
REMARK SMILES IDX 2 13 3 14 1 15
REMARK H PARENT
REMARK Flexibility Score: inf
ROOT
ATOM      1  C   UNL     1     168.366 173.483 138.604  1.00  0.00     0.015 C 
ATOM      2  C   UNL     1     168.249 174.994 138.333  1.00  0.00     0.008 C 
ATOM      3  C   UNL     1     166.857 175.537 138.711  1.00  0.00     0.008 C 
ATOM      4  C   UNL     1     166.270 174.954 140.046  1.00  0.00    -0.026 C 
ATOM      5  C   UNL     1     165.669 176.125 140.881  1.00  0.00     0.008 C 
ATOM      6  C   UNL     1     165.142 175.680 142.255  1.00  0.00     0.005 C 
ATOM      7  C   UNL     1     166.225 174.977 143.078  1.00  0.00     0.031 C 
ATOM      8  C   UNL     1     166.892 173.883 142.276  1.00  0.00    -0.074 C 
ATOM      9  C   UNL     1     167.147 172.699 142.866  1.00  0.00     0.008 C 
ATOM     10  C   UNL     1     167.397 174.263 140.883  1.00  0.00     0.021 C 
ATOM     11  C   UNL     1     168.078 173.116 140.087  1.00  0.00     0.016 C 
ATOM     12  C   UNL     1     165.142 173.942 139.701  1.00  0.00     0.012 C 
ENDROOT
BRANCH   1  13
ATOM     13  C   UNL     1     169.716 172.947 138.142  1.00  0.00    -0.077 C 
ATOM     14  C   UNL     1     170.882 172.899 139.097  1.00  0.00     0.039 C 
ATOM     15  C   UNL     1     169.893 172.505 136.885  1.00  0.00     0.008 C 
ENDBRANCH   1  13
TORSDOF 1
ENDMDL
MODEL 5
REMARK VINA RESULT:    -2.395     15.942     17.189
REMARK INTER + INTRA:          -2.705
REMARK INTER:                  -2.523
REMARK INTRA:                  -0.183
REMARK UNBOUND:                -0.171
REMARK SMILES C=C(C)[C@@H]1CC[C@]2(C)CCCC(=C)[C@H]2C1
REMARK SMILES IDX 4 1 5 2 6 3 7 4 9 5 10 6 11 7 12 8 13 9 14 10 15 11 8 12
REMARK SMILES IDX 2 13 3 14 1 15
REMARK H PARENT
REMARK Flexibility Score: inf
ROOT
ATOM      1  C   UNL     1     163.616 158.540 138.630  1.00  0.00     0.015 C 
ATOM      2  C   UNL     1     163.801 157.061 138.243  1.00  0.00     0.008 C 
ATOM      3  C   UNL     1     165.230 156.566 138.544  1.00  0.00     0.008 C 
ATOM      4  C   UNL     1     165.824 157.079 139.906  1.00  0.00    -0.026 C 
ATOM      5  C   UNL     1     166.507 155.883 140.635  1.00  0.00     0.008 C 
ATOM      6  C   UNL     1     167.050 156.252 142.025  1.00  0.00     0.005 C 
ATOM      7  C   UNL     1     165.956 156.834 142.925  1.00  0.00     0.031 C 
ATOM      8  C   UNL     1     165.212 157.947 142.224  1.00  0.00    -0.074 C 
ATOM      9  C   UNL     1     164.913 159.069 142.908  1.00  0.00     0.008 C 
ATOM     10  C   UNL     1     164.687 157.646 140.819  1.00  0.00     0.021 C 
ATOM     11  C   UNL     1     163.927 158.810 140.129  1.00  0.00     0.016 C 
ATOM     12  C   UNL     1     166.889 158.172 139.610  1.00  0.00     0.012 C 
ENDROOT
BRANCH   1  13
ATOM     13  C   UNL     1     162.228 159.037 138.243  1.00  0.00    -0.077 C 
ATOM     14  C   UNL     1     161.983 159.622 136.875  1.00  0.00     0.039 C 
ATOM     15  C   UNL     1     161.199 158.959 139.104  1.00  0.00     0.008 C 
ENDBRANCH   1  13
TORSDOF 1
ENDMDL
MODEL 6
REMARK VINA RESULT:    -2.362      1.765      2.611
REMARK INTER + INTRA:          -2.671
REMARK INTER:                  -2.498
REMARK INTRA:                  -0.173
REMARK UNBOUND:                -0.171
REMARK SMILES C=C(C)[C@@H]1CC[C@]2(C)CCCC(=C)[C@H]2C1
REMARK SMILES IDX 4 1 5 2 6 3 7 4 9 5 10 6 11 7 12 8 13 9 14 10 15 11 8 12
REMARK SMILES IDX 2 13 3 14 1 15
REMARK H PARENT
REMARK Flexibility Score: inf
ROOT
ATOM      1  C   UNL     1     164.602 174.790 139.950  1.00  0.00     0.015 C 
ATOM      2  C   UNL     1     165.360 176.123 139.805  1.00  0.00     0.008 C 
ATOM      3  C   UNL     1     166.799 176.025 140.348  1.00  0.00     0.008 C 
ATOM      4  C   UNL     1     167.539 174.684 139.997  1.00  0.00    -0.026 C 
ATOM      5  C   UNL     1     168.984 175.022 139.520  1.00  0.00     0.008 C 
ATOM      6  C   UNL     1     169.775 173.785 139.065  1.00  0.00     0.005 C 
ATOM      7  C   UNL     1     169.045 173.021 137.957  1.00  0.00     0.031 C 
ATOM      8  C   UNL     1     167.611 172.742 138.345  1.00  0.00    -0.074 C 
ATOM      9  C   UNL     1     167.085 171.528 138.090  1.00  0.00     0.008 C 
ATOM     10  C   UNL     1     166.791 173.932 138.847  1.00  0.00     0.021 C 
ATOM     11  C   UNL     1     165.322 173.611 139.235  1.00  0.00     0.016 C 
ATOM     12  C   UNL     1     167.615 173.801 141.273  1.00  0.00     0.012 C 
ENDROOT
BRANCH   1  13
ATOM     13  C   UNL     1     163.156 174.930 139.490  1.00  0.00    -0.077 C 
ATOM     14  C   UNL     1     162.255 173.722 139.436  1.00  0.00     0.039 C 
ATOM     15  C   UNL     1     162.655 176.124 139.130  1.00  0.00     0.008 C 
ENDBRANCH   1  13
TORSDOF 1
ENDMDL
MODEL 7
REMARK VINA RESULT:    -2.327      1.617      5.026
REMARK INTER + INTRA:          -2.634
REMARK INTER:                  -2.447
REMARK INTRA:                  -0.186
REMARK UNBOUND:                -0.171
REMARK SMILES C=C(C)[C@@H]1CC[C@]2(C)CCCC(=C)[C@H]2C1
REMARK SMILES IDX 4 1 5 2 6 3 7 4 9 5 10 6 11 7 12 8 13 9 14 10 15 11 8 12
REMARK SMILES IDX 2 13 3 14 1 15
REMARK H PARENT
REMARK Flexibility Score: inf
ROOT
ATOM      1  C   UNL     1     169.656 171.668 139.663  1.00  0.00     0.015 C 
ATOM      2  C   UNL     1     170.348 172.536 138.594  1.00  0.00     0.008 C 
ATOM      3  C   UNL     1     169.326 173.284 137.715  1.00  0.00     0.008 C 
ATOM      4  C   UNL     1     168.098 173.873 138.499  1.00  0.00    -0.026 C 
ATOM      5  C   UNL     1     167.840 175.327 138.003  1.00  0.00     0.008 C 
ATOM      6  C   UNL     1     166.711 176.036 138.767  1.00  0.00     0.005 C 
ATOM      7  C   UNL     1     166.973 176.057 140.275  1.00  0.00     0.031 C 
ATOM      8  C   UNL     1     167.308 174.675 140.787  1.00  0.00    -0.074 C 
ATOM      9  C   UNL     1     166.762 174.253 141.945  1.00  0.00     0.008 C 
ATOM     10  C   UNL     1     168.397 173.909 140.035  1.00  0.00     0.021 C 
ATOM     11  C   UNL     1     168.717 172.493 140.588  1.00  0.00     0.016 C 
ATOM     12  C   UNL     1     166.846 173.002 138.202  1.00  0.00     0.012 C 
ENDROOT
BRANCH   1  13
ATOM     13  C   UNL     1     170.677 170.869 140.463  1.00  0.00    -0.077 C 
ATOM     14  C   UNL     1     171.035 171.284 141.868  1.00  0.00     0.039 C 
ATOM     15  C   UNL     1     171.272 169.784 139.941  1.00  0.00     0.008 C 
ENDBRANCH   1  13
TORSDOF 1
ENDMDL
MODEL 8
REMARK VINA RESULT:    -2.308     14.911     16.526
REMARK INTER + INTRA:          -2.613
REMARK INTER:                  -2.426
REMARK INTRA:                  -0.188
REMARK UNBOUND:                -0.171
REMARK SMILES C=C(C)[C@@H]1CC[C@]2(C)CCCC(=C)[C@H]2C1
REMARK SMILES IDX 4 1 5 2 6 3 7 4 9 5 10 6 11 7 12 8 13 9 14 10 15 11 8 12
REMARK SMILES IDX 2 13 3 14 1 15
REMARK H PARENT
REMARK Flexibility Score: inf
ROOT
ATOM      1  C   UNL     1     162.536 159.887 139.924  1.00  0.00     0.015 C 
ATOM      2  C   UNL     1     161.936 158.895 138.910  1.00  0.00     0.008 C 
ATOM      3  C   UNL     1     163.025 158.239 138.038  1.00  0.00     0.008 C 
ATOM      4  C   UNL     1     164.331 157.839 138.817  1.00  0.00    -0.026 C 
ATOM      5  C   UNL     1     164.756 156.406 138.376  1.00  0.00     0.008 C 
ATOM      6  C   UNL     1     165.978 155.875 139.142  1.00  0.00     0.005 C 
ATOM      7  C   UNL     1     165.749 155.890 140.656  1.00  0.00     0.031 C 
ATOM      8  C   UNL     1     165.257 157.242 141.117  1.00  0.00    -0.074 C 
ATOM      9  C   UNL     1     165.768 157.779 142.242  1.00  0.00     0.008 C 
ATOM     10  C   UNL     1     164.068 157.836 140.359  1.00  0.00     0.021 C 
ATOM     11  C   UNL     1     163.587 159.225 140.860  1.00  0.00     0.016 C 
ATOM     12  C   UNL     1     165.461 158.842 138.453  1.00  0.00     0.012 C 
ENDROOT
BRANCH   1  13
ATOM     13  C   UNL     1     161.440 160.591 140.714  1.00  0.00    -0.077 C 
ATOM     14  C   UNL     1     161.343 160.409 142.208  1.00  0.00     0.039 C 
ATOM     15  C   UNL     1     160.546 161.387 140.103  1.00  0.00     0.008 C 
ENDBRANCH   1  13
TORSDOF 1
ENDMDL
MODEL 9
REMARK VINA RESULT:    -1.916     14.859     16.322
REMARK INTER + INTRA:          -2.198
REMARK INTER:                  -2.011
REMARK INTRA:                  -0.188
REMARK UNBOUND:                -0.171
REMARK SMILES C=C(C)[C@@H]1CC[C@]2(C)CCCC(=C)[C@H]2C1
REMARK SMILES IDX 4 1 5 2 6 3 7 4 9 5 10 6 11 7 12 8 13 9 14 10 15 11 8 12
REMARK SMILES IDX 2 13 3 14 1 15
REMARK H PARENT
REMARK Flexibility Score: inf
ROOT
ATOM      1  C   UNL     1     160.029 159.491 138.731  1.00  0.00     0.015 C 
ATOM      2  C   UNL     1     160.228 159.645 137.211  1.00  0.00     0.008 C 
ATOM      3  C   UNL     1     161.488 160.470 136.880  1.00  0.00     0.008 C 
ATOM      4  C   UNL     1     162.733 160.151 137.784  1.00  0.00    -0.026 C 
ATOM      5  C   UNL     1     163.992 160.029 136.875  1.00  0.00     0.008 C 
ATOM      6  C   UNL     1     165.260 159.630 137.647  1.00  0.00     0.005 C 
ATOM      7  C   UNL     1     165.066 158.322 138.419  1.00  0.00     0.031 C 
ATOM      8  C   UNL     1     163.808 158.365 139.254  1.00  0.00    -0.074 C 
ATOM      9  C   UNL     1     163.838 157.884 140.513  1.00  0.00     0.008 C 
ATOM     10  C   UNL     1     162.525 158.798 138.543  1.00  0.00     0.021 C 
ATOM     11  C   UNL     1     161.251 158.831 139.431  1.00  0.00     0.016 C 
ATOM     12  C   UNL     1     162.938 161.319 138.789  1.00  0.00     0.012 C 
ENDROOT
BRANCH   1  13
ATOM     13  C   UNL     1     158.734 158.751 139.040  1.00  0.00    -0.077 C 
ATOM     14  C   UNL     1     157.402 159.406 138.775  1.00  0.00     0.039 C 
ATOM     15  C   UNL     1     158.750 157.506 139.546  1.00  0.00     0.008 C 
ENDBRANCH   1  13
TORSDOF 1
ENDMDL
