MODEL 1
REMARK VINA RESULT:    -3.381      0.000      0.000
REMARK INTER + INTRA:          -4.641
REMARK INTER:                  -4.171
REMARK INTRA:                  -0.470
REMARK UNBOUND:                -0.470
REMARK SMILES C=CC[C@@H](C)C(=O)CC
REMARK SMILES IDX 4 1 5 2 6 3 7 4 8 5 9 6 3 7 2 8 1 9
REMARK H PARENT
REMARK Flexibility Score: inf
ROOT
ATOM      1  C   UNL     1       8.634 -14.705  24.474  1.00  0.00     0.057 C 
ATOM      2  C   UNL     1       9.963 -14.658  23.708  1.00  0.00     0.016 C 
ENDROOT
BRANCH   1   3
ATOM      3  C   UNL     1       7.539 -15.234  23.573  1.00  0.00     0.135 C 
ATOM      4  O   UNL     1       7.140 -14.551  22.640  1.00  0.00    -0.299 OA
BRANCH   3   5
ATOM      5  C   UNL     1       6.935 -16.595  23.796  1.00  0.00     0.072 C 
ATOM      6  C   UNL     1       7.519 -17.612  22.822  1.00  0.00     0.012 C 
ENDBRANCH   3   5
ENDBRANCH   1   3
BRANCH   1   7
ATOM      7  C   UNL     1       8.738 -15.575  25.745  1.00  0.00     0.038 C 
BRANCH   7   8
ATOM      8  C   UNL     1      10.062 -16.284  25.848  1.00  0.00    -0.034 C 
ATOM      9  C   UNL     1      10.142 -17.590  26.118  1.00  0.00     0.004 C 
ENDBRANCH   7   8
ENDBRANCH   1   7
TORSDOF 4
ENDMDL
MODEL 2
REMARK VINA RESULT:    -3.283      2.021      3.638
REMARK INTER + INTRA:          -4.520
REMARK INTER:                  -4.045
REMARK INTRA:                  -0.476
REMARK UNBOUND:                -0.470
REMARK SMILES C=CC[C@@H](C)C(=O)CC
REMARK SMILES IDX 4 1 5 2 6 3 7 4 8 5 9 6 3 7 2 8 1 9
REMARK H PARENT
REMARK Flexibility Score: inf
ROOT
ATOM      1  C   UNL     1       8.770 -15.044  25.043  1.00  0.00     0.057 C 
ATOM      2  C   UNL     1       8.104 -16.113  25.921  1.00  0.00     0.016 C 
ENDROOT
BRANCH   1   3
ATOM      3  C   UNL     1      10.143 -15.514  24.613  1.00  0.00     0.135 C 
ATOM      4  O   UNL     1      10.767 -16.293  25.321  1.00  0.00    -0.299 OA
BRANCH   3   5
ATOM      5  C   UNL     1      10.756 -15.049  23.319  1.00  0.00     0.072 C 
ATOM      6  C   UNL     1      11.010 -16.229  22.386  1.00  0.00     0.012 C 
ENDBRANCH   3   5
ENDBRANCH   1   3
BRANCH   1   7
ATOM      7  C   UNL     1       7.914 -14.709  23.804  1.00  0.00     0.038 C 
BRANCH   7   8
ATOM      8  C   UNL     1       6.998 -15.839  23.416  1.00  0.00    -0.034 C 
ATOM      9  C   UNL     1       7.168 -16.526  22.283  1.00  0.00     0.004 C 
ENDBRANCH   7   8
ENDBRANCH   1   7
TORSDOF 4
ENDMDL
MODEL 3
REMARK VINA RESULT:    -3.257      1.994      2.981
REMARK INTER + INTRA:          -4.489
REMARK INTER:                  -4.033
REMARK INTRA:                  -0.455
REMARK UNBOUND:                -0.470
REMARK SMILES C=CC[C@@H](C)C(=O)CC
REMARK SMILES IDX 4 1 5 2 6 3 7 4 8 5 9 6 3 7 2 8 1 9
REMARK H PARENT
REMARK Flexibility Score: inf
ROOT
ATOM      1  C   UNL     1       8.573 -17.203  25.170  1.00  0.00     0.057 C 
ATOM      2  C   UNL     1       9.490 -18.192  25.902  1.00  0.00     0.016 C 
ENDROOT
BRANCH   1   3
ATOM      3  C   UNL     1       7.147 -17.709  25.194  1.00  0.00     0.135 C 
ATOM      4  O   UNL     1       6.727 -18.291  26.185  1.00  0.00    -0.299 OA
BRANCH   3   5
ATOM      5  C   UNL     1       6.225 -17.501  24.022  1.00  0.00     0.072 C 
ATOM      6  C   UNL     1       7.022 -17.267  22.742  1.00  0.00     0.012 C 
ENDBRANCH   3   5
ENDBRANCH   1   3
BRANCH   1   7
ATOM      7  C   UNL     1       8.643 -15.792  25.790  1.00  0.00     0.038 C 
BRANCH   7   8
ATOM      8  C   UNL     1       8.834 -14.718  24.752  1.00  0.00    -0.034 C 
ATOM      9  C   UNL     1       9.850 -14.749  23.886  1.00  0.00     0.004 C 
ENDBRANCH   7   8
ENDBRANCH   1   7
TORSDOF 4
ENDMDL
MODEL 4
REMARK VINA RESULT:    -3.256      1.627      2.329
REMARK INTER + INTRA:          -4.488
REMARK INTER:                  -4.024
REMARK INTRA:                  -0.463
REMARK UNBOUND:                -0.470
REMARK SMILES C=CC[C@@H](C)C(=O)CC
REMARK SMILES IDX 4 1 5 2 6 3 7 4 8 5 9 6 3 7 2 8 1 9
REMARK H PARENT
REMARK Flexibility Score: inf
ROOT
ATOM      1  C   UNL     1       9.236 -15.535  25.570  1.00  0.00     0.057 C 
ATOM      2  C   UNL     1      10.455 -16.468  25.593  1.00  0.00     0.016 C 
ENDROOT
BRANCH   1   3
ATOM      3  C   UNL     1       9.122 -14.871  24.214  1.00  0.00     0.135 C 
ATOM      4  O   UNL     1      10.117 -14.394  23.687  1.00  0.00    -0.299 OA
BRANCH   3   5
ATOM      5  C   UNL     1       7.803 -14.794  23.493  1.00  0.00     0.072 C 
ATOM      6  C   UNL     1       7.792 -15.726  22.285  1.00  0.00     0.012 C 
ENDBRANCH   3   5
ENDBRANCH   1   3
BRANCH   1   7
ATOM      7  C   UNL     1       7.932 -16.292  25.898  1.00  0.00     0.038 C 
BRANCH   7   8
ATOM      8  C   UNL     1       8.060 -17.777  25.682  1.00  0.00    -0.034 C 
ATOM      9  C   UNL     1       7.152 -18.468  24.989  1.00  0.00     0.004 C 
ENDBRANCH   7   8
ENDBRANCH   1   7
TORSDOF 4
ENDMDL
MODEL 5
REMARK VINA RESULT:    -3.255      1.957      3.757
REMARK INTER + INTRA:          -4.486
REMARK INTER:                  -4.277
REMARK INTRA:                  -0.208
REMARK UNBOUND:                -0.470
REMARK SMILES C=CC[C@@H](C)C(=O)CC
REMARK SMILES IDX 4 1 5 2 6 3 7 4 8 5 9 6 3 7 2 8 1 9
REMARK H PARENT
REMARK Flexibility Score: inf
ROOT
ATOM      1  C   UNL     1       7.250 -16.555  23.575  1.00  0.00     0.057 C 
ATOM      2  C   UNL     1       6.493 -15.455  22.818  1.00  0.00     0.016 C 
ENDROOT
BRANCH   1   3
ATOM      3  C   UNL     1       7.898 -15.975  24.814  1.00  0.00     0.135 C 
ATOM      4  O   UNL     1       7.711 -16.504  25.900  1.00  0.00    -0.299 OA
BRANCH   3   5
ATOM      5  C   UNL     1       8.781 -14.758  24.734  1.00  0.00     0.072 C 
ATOM      6  C   UNL     1      10.110 -15.097  24.065  1.00  0.00     0.012 C 
ENDBRANCH   3   5
ENDBRANCH   1   3
BRANCH   1   7
ATOM      7  C   UNL     1       6.320 -17.723  23.965  1.00  0.00     0.038 C 
BRANCH   7   8
ATOM      8  C   UNL     1       6.894 -19.064  23.590  1.00  0.00    -0.034 C 
ATOM      9  C   UNL     1       6.206 -19.944  22.858  1.00  0.00     0.004 C 
ENDBRANCH   7   8
ENDBRANCH   1   7
TORSDOF 4
ENDMDL
MODEL 6
REMARK VINA RESULT:    -3.246      1.746      2.477
REMARK INTER + INTRA:          -4.475
REMARK INTER:                  -4.057
REMARK INTRA:                  -0.418
REMARK UNBOUND:                -0.470
REMARK SMILES C=CC[C@@H](C)C(=O)CC
REMARK SMILES IDX 4 1 5 2 6 3 7 4 8 5 9 6 3 7 2 8 1 9
REMARK H PARENT
REMARK Flexibility Score: inf
ROOT
ATOM      1  C   UNL     1       8.109 -16.183  24.432  1.00  0.00     0.057 C 
ATOM      2  C   UNL     1       7.815 -16.664  25.860  1.00  0.00     0.016 C 
ENDROOT
BRANCH   1   3
ATOM      3  C   UNL     1       6.858 -16.286  23.587  1.00  0.00     0.135 C 
ATOM      4  O   UNL     1       5.986 -17.089  23.889  1.00  0.00    -0.299 OA
BRANCH   3   5
ATOM      5  C   UNL     1       6.659 -15.408  22.380  1.00  0.00     0.072 C 
ATOM      6  C   UNL     1       7.321 -16.021  21.150  1.00  0.00     0.012 C 
ENDBRANCH   3   5
ENDBRANCH   1   3
BRANCH   1   7
ATOM      7  C   UNL     1       8.640 -14.735  24.416  1.00  0.00     0.038 C 
BRANCH   7   8
ATOM      8  C   UNL     1       9.995 -14.627  23.766  1.00  0.00    -0.034 C 
ATOM      9  C   UNL     1      10.807 -15.681  23.653  1.00  0.00     0.004 C 
ENDBRANCH   7   8
ENDBRANCH   1   7
TORSDOF 4
ENDMDL
MODEL 7
REMARK VINA RESULT:    -3.190      1.547      3.345
REMARK INTER + INTRA:          -4.406
REMARK INTER:                  -4.124
REMARK INTRA:                  -0.282
REMARK UNBOUND:                -0.470
REMARK SMILES C=CC[C@@H](C)C(=O)CC
REMARK SMILES IDX 4 1 5 2 6 3 7 4 8 5 9 6 3 7 2 8 1 9
REMARK H PARENT
REMARK Flexibility Score: inf
ROOT
ATOM      1  C   UNL     1       9.057 -15.711  24.017  1.00  0.00     0.057 C 
ATOM      2  C   UNL     1      10.203 -14.783  23.593  1.00  0.00     0.016 C 
ENDROOT
BRANCH   1   3
ATOM      3  C   UNL     1       9.134 -15.976  25.506  1.00  0.00     0.135 C 
ATOM      4  O   UNL     1       8.298 -15.487  26.253  1.00  0.00    -0.299 OA
BRANCH   3   5
ATOM      5  C   UNL     1      10.219 -16.843  26.088  1.00  0.00     0.072 C 
ATOM      6  C   UNL     1       9.849 -18.319  25.976  1.00  0.00     0.012 C 
ENDBRANCH   3   5
ENDBRANCH   1   3
BRANCH   1   7
ATOM      7  C   UNL     1       7.679 -15.118  23.658  1.00  0.00     0.038 C 
BRANCH   7   8
ATOM      8  C   UNL     1       6.753 -16.141  23.055  1.00  0.00    -0.034 C 
ATOM      9  C   UNL     1       6.274 -17.164  23.769  1.00  0.00     0.004 C 
ENDBRANCH   7   8
ENDBRANCH   1   7
TORSDOF 4
ENDMDL
MODEL 8
REMARK VINA RESULT:    -3.189      1.289      2.875
REMARK INTER + INTRA:          -4.404
REMARK INTER:                  -3.909
REMARK INTRA:                  -0.495
REMARK UNBOUND:                -0.470
REMARK SMILES C=CC[C@@H](C)C(=O)CC
REMARK SMILES IDX 4 1 5 2 6 3 7 4 8 5 9 6 3 7 2 8 1 9
REMARK H PARENT
REMARK Flexibility Score: inf
ROOT
ATOM      1  C   UNL     1       7.568 -16.728  23.298  1.00  0.00     0.057 C 
ATOM      2  C   UNL     1       7.443 -17.012  21.794  1.00  0.00     0.016 C 
ENDROOT
BRANCH   1   3
ATOM      3  C   UNL     1       7.764 -15.245  23.527  1.00  0.00     0.135 C 
ATOM      4  O   UNL     1       7.115 -14.440  22.874  1.00  0.00    -0.299 OA
BRANCH   3   5
ATOM      5  C   UNL     1       8.740 -14.737  24.555  1.00  0.00     0.072 C 
ATOM      6  C   UNL     1      10.040 -15.534  24.507  1.00  0.00     0.012 C 
ENDBRANCH   3   5
ENDBRANCH   1   3
BRANCH   1   7
ATOM      7  C   UNL     1       6.332 -17.224  24.077  1.00  0.00     0.038 C 
BRANCH   7   8
ATOM      8  C   UNL     1       6.682 -17.716  25.456  1.00  0.00    -0.034 C 
ATOM      9  C   UNL     1       7.791 -18.424  25.690  1.00  0.00     0.004 C 
ENDBRANCH   7   8
ENDBRANCH   1   7
TORSDOF 4
ENDMDL
MODEL 9
REMARK VINA RESULT:    -3.150     10.548     12.106
REMARK INTER + INTRA:          -4.356
REMARK INTER:                  -3.966
REMARK INTRA:                  -0.390
REMARK UNBOUND:                -0.470
REMARK SMILES C=CC[C@@H](C)C(=O)CC
REMARK SMILES IDX 4 1 5 2 6 3 7 4 8 5 9 6 3 7 2 8 1 9
REMARK H PARENT
REMARK Flexibility Score: inf
ROOT
ATOM      1  C   UNL     1      18.842 -22.250  23.551  1.00  0.00     0.057 C 
ATOM      2  C   UNL     1      18.506 -23.724  23.281  1.00  0.00     0.016 C 
ENDROOT
BRANCH   1   3
ATOM      3  C   UNL     1      17.695 -21.587  24.282  1.00  0.00     0.135 C 
ATOM      4  O   UNL     1      17.523 -21.812  25.472  1.00  0.00    -0.299 OA
BRANCH   3   5
ATOM      5  C   UNL     1      16.761 -20.642  23.573  1.00  0.00     0.072 C 
ATOM      6  C   UNL     1      17.536 -19.496  22.930  1.00  0.00     0.012 C 
ENDBRANCH   3   5
ENDBRANCH   1   3
BRANCH   1   7
ATOM      7  C   UNL     1      20.144 -22.101  24.366  1.00  0.00     0.038 C 
BRANCH   7   8
ATOM      8  C   UNL     1      21.270 -21.527  23.548  1.00  0.00    -0.034 C 
ATOM      9  C   UNL     1      21.124 -20.404  22.839  1.00  0.00     0.004 C 
ENDBRANCH   7   8
ENDBRANCH   1   7
TORSDOF 4
ENDMDL
