MODEL 1
REMARK VINA RESULT:    -4.559      0.000      0.000
REMARK INTER + INTRA:          -6.263
REMARK INTER:                  -6.158
REMARK INTRA:                  -0.105
REMARK UNBOUND:                -0.105
REMARK SMILES [NH3+]CCCC[C@@H]([NH3+])C(=O)[O-]
REMARK SMILES IDX 4 1 3 2 2 3 1 4 5 8 6 9 7 10 8 14 9 15 10 16
REMARK H PARENT 1 5 1 6 1 7 7 11 7 12 7 13
REMARK Flexibility Score: inf
ROOT
ATOM      1  C   UNL     1      36.345 106.441  74.211  1.00  0.00     0.012 C 
ENDROOT
BRANCH   1   2
ATOM      2  C   UNL     1      36.901 106.274  72.792  1.00  0.00     0.061 C 
BRANCH   2   3
ATOM      3  C   UNL     1      37.307 107.627  72.194  1.00  0.00     0.258 C 
BRANCH   3   4
ATOM      4  N   UNL     1      37.458 108.637  73.241  1.00  0.00    -0.358 N 
ATOM      5  H   UNL     1      37.000 108.311  74.123  1.00  0.00     0.344 HD
ATOM      6  H   UNL     1      38.477 108.790  73.425  1.00  0.00     0.344 HD
ATOM      7  H   UNL     1      37.031 109.540  72.934  1.00  0.00     0.344 HD
ENDBRANCH   3   4
ENDBRANCH   2   3
ENDBRANCH   1   2
BRANCH   1   8
ATOM      8  C   UNL     1      35.013 105.689  74.371  1.00  0.00     0.072 C 
BRANCH   8   9
ATOM      9  C   UNL     1      34.122 106.209  75.523  1.00  0.00     0.227 C 
BRANCH   9  10
ATOM     10  N   UNL     1      34.717 107.370  76.200  1.00  0.00    -0.350 N 
ATOM     11  H   UNL     1      35.216 107.053  77.063  1.00  0.00     0.345 HD
ATOM     12  H   UNL     1      33.989 108.069  76.472  1.00  0.00     0.345 HD
ATOM     13  H   UNL     1      35.415 107.830  75.570  1.00  0.00     0.345 HD
ENDBRANCH   9  10
BRANCH   9  14
ATOM     14  C   UNL     1      32.722 106.509  75.049  1.00  0.00     0.099 C 
ATOM     15  O   UNL     1      32.201 105.802  74.147  1.00  0.00    -0.544 OA
ATOM     16  O   UNL     1      32.013 107.589  75.562  1.00  0.00    -0.544 OA
ENDBRANCH   9  14
ENDBRANCH   8   9
ENDBRANCH   1   8
TORSDOF 7
ENDMDL
MODEL 2
REMARK VINA RESULT:    -4.545      2.576      2.763
REMARK INTER + INTRA:          -6.245
REMARK INTER:                  -5.744
REMARK INTRA:                  -0.500
REMARK UNBOUND:                -0.105
REMARK SMILES [NH3+]CCCC[C@@H]([NH3+])C(=O)[O-]
REMARK SMILES IDX 4 1 3 2 2 3 1 4 5 8 6 9 7 10 8 14 9 15 10 16
REMARK H PARENT 1 5 1 6 1 7 7 11 7 12 7 13
REMARK Flexibility Score: inf
ROOT
ATOM      1  C   UNL     1      35.599 105.778  73.535  1.00  0.00     0.012 C 
ENDROOT
BRANCH   1   2
ATOM      2  C   UNL     1      37.041 106.161  73.181  1.00  0.00     0.061 C 
BRANCH   2   3
ATOM      3  C   UNL     1      37.080 107.436  72.328  1.00  0.00     0.258 C 
BRANCH   3   4
ATOM      4  N   UNL     1      37.449 108.596  73.138  1.00  0.00    -0.358 N 
ATOM      5  H   UNL     1      37.059 108.498  74.103  1.00  0.00     0.344 HD
ATOM      6  H   UNL     1      38.492 108.653  73.199  1.00  0.00     0.344 HD
ATOM      7  H   UNL     1      37.088 109.472  72.697  1.00  0.00     0.344 HD
ENDBRANCH   3   4
ENDBRANCH   2   3
ENDBRANCH   1   2
BRANCH   1   8
ATOM      8  C   UNL     1      35.403 105.728  75.060  1.00  0.00     0.072 C 
BRANCH   8   9
ATOM      9  C   UNL     1      35.019 107.085  75.696  1.00  0.00     0.227 C 
BRANCH   9  10
ATOM     10  N   UNL     1      33.762 107.004  76.453  1.00  0.00    -0.350 N 
ATOM     11  H   UNL     1      33.226 107.895  76.334  1.00  0.00     0.345 HD
ATOM     12  H   UNL     1      33.937 106.854  77.473  1.00  0.00     0.345 HD
ATOM     13  H   UNL     1      33.176 106.220  76.086  1.00  0.00     0.345 HD
ENDBRANCH   9  10
BRANCH   9  14
ATOM     14  C   UNL     1      36.137 107.633  76.548  1.00  0.00     0.099 C 
ATOM     15  O   UNL     1      37.093 108.247  76.006  1.00  0.00    -0.544 OA
ATOM     16  O   UNL     1      36.152 107.426  77.922  1.00  0.00    -0.544 OA
ENDBRANCH   9  14
ENDBRANCH   8   9
ENDBRANCH   1   8
TORSDOF 7
ENDMDL
MODEL 3
REMARK VINA RESULT:    -4.390      2.634      4.377
REMARK INTER + INTRA:          -6.034
REMARK INTER:                  -5.793
REMARK INTRA:                  -0.241
REMARK UNBOUND:                -0.105
REMARK SMILES [NH3+]CCCC[C@@H]([NH3+])C(=O)[O-]
REMARK SMILES IDX 4 1 3 2 2 3 1 4 5 8 6 9 7 10 8 14 9 15 10 16
REMARK H PARENT 1 5 1 6 1 7 7 11 7 12 7 13
REMARK Flexibility Score: inf
ROOT
ATOM      1  C   UNL     1      34.697 105.843  75.524  1.00  0.00     0.012 C 
ENDROOT
BRANCH   1   2
ATOM      2  C   UNL     1      33.304 105.946  74.893  1.00  0.00     0.061 C 
BRANCH   2   3
ATOM      3  C   UNL     1      32.484 107.068  75.542  1.00  0.00     0.258 C 
BRANCH   3   4
ATOM      4  N   UNL     1      33.143 107.565  76.749  1.00  0.00    -0.358 N 
ATOM      5  H   UNL     1      32.432 107.935  77.420  1.00  0.00     0.344 HD
ATOM      6  H   UNL     1      33.662 106.779  77.205  1.00  0.00     0.344 HD
ATOM      7  H   UNL     1      33.823 108.320  76.502  1.00  0.00     0.344 HD
ENDBRANCH   3   4
ENDBRANCH   2   3
ENDBRANCH   1   2
BRANCH   1   8
ATOM      8  C   UNL     1      35.789 106.233  74.512  1.00  0.00     0.072 C 
BRANCH   8   9
ATOM      9  C   UNL     1      36.958 107.042  75.118  1.00  0.00     0.227 C 
BRANCH   9  10
ATOM     10  N   UNL     1      37.184 108.307  74.403  1.00  0.00    -0.350 N 
ATOM     11  H   UNL     1      38.180 108.355  74.086  1.00  0.00     0.345 HD
ATOM     12  H   UNL     1      36.987 109.132  75.014  1.00  0.00     0.345 HD
ATOM     13  H   UNL     1      36.570 108.352  73.558  1.00  0.00     0.345 HD
ENDBRANCH   9  10
BRANCH   9  14
ATOM     14  C   UNL     1      36.765 107.275  76.595  1.00  0.00     0.099 C 
ATOM     15  O   UNL     1      36.140 108.293  76.992  1.00  0.00    -0.544 OA
ATOM     16  O   UNL     1      37.311 106.403  77.530  1.00  0.00    -0.544 OA
ENDBRANCH   9  14
ENDBRANCH   8   9
ENDBRANCH   1   8
TORSDOF 7
ENDMDL
MODEL 4
REMARK VINA RESULT:    -4.387      2.676      3.351
REMARK INTER + INTRA:          -6.030
REMARK INTER:                  -5.955
REMARK INTRA:                  -0.076
REMARK UNBOUND:                -0.105
REMARK SMILES [NH3+]CCCC[C@@H]([NH3+])C(=O)[O-]
REMARK SMILES IDX 4 1 3 2 2 3 1 4 5 8 6 9 7 10 8 14 9 15 10 16
REMARK H PARENT 1 5 1 6 1 7 7 11 7 12 7 13
REMARK Flexibility Score: inf
ROOT
ATOM      1  C   UNL     1      37.057 106.317  72.274  1.00  0.00     0.012 C 
ENDROOT
BRANCH   1   2
ATOM      2  C   UNL     1      37.203 104.986  71.527  1.00  0.00     0.061 C 
BRANCH   2   3
ATOM      3  C   UNL     1      38.383 105.027  70.548  1.00  0.00     0.258 C 
BRANCH   3   4
ATOM      4  N   UNL     1      39.426 104.083  70.947  1.00  0.00    -0.358 N 
ATOM      5  H   UNL     1      39.753 104.298  71.917  1.00  0.00     0.344 HD
ATOM      6  H   UNL     1      39.035 103.113  70.929  1.00  0.00     0.344 HD
ATOM      7  H   UNL     1      40.232 104.135  70.283  1.00  0.00     0.344 HD
ENDBRANCH   3   4
ENDBRANCH   2   3
ENDBRANCH   1   2
BRANCH   1   8
ATOM      8  C   UNL     1      36.340 106.115  73.620  1.00  0.00     0.072 C 
BRANCH   8   9
ATOM      9  C   UNL     1      36.781 107.097  74.730  1.00  0.00     0.227 C 
BRANCH   9  10
ATOM     10  N   UNL     1      37.261 108.373  74.179  1.00  0.00    -0.350 N 
ATOM     11  H   UNL     1      37.528 109.012  74.963  1.00  0.00     0.345 HD
ATOM     12  H   UNL     1      36.526 108.841  73.602  1.00  0.00     0.345 HD
ATOM     13  H   UNL     1      38.108 108.209  73.589  1.00  0.00     0.345 HD
ENDBRANCH   9  10
BRANCH   9  14
ATOM     14  C   UNL     1      35.688 107.314  75.745  1.00  0.00     0.099 C 
ATOM     15  O   UNL     1      35.962 107.829  76.861  1.00  0.00    -0.544 OA
ATOM     16  O   UNL     1      34.384 106.907  75.485  1.00  0.00    -0.544 OA
ENDBRANCH   9  14
ENDBRANCH   8   9
ENDBRANCH   1   8
TORSDOF 7
ENDMDL
MODEL 5
REMARK VINA RESULT:    -4.315      2.647      3.030
REMARK INTER + INTRA:          -5.933
REMARK INTER:                  -5.759
REMARK INTRA:                  -0.174
REMARK UNBOUND:                -0.105
REMARK SMILES [NH3+]CCCC[C@@H]([NH3+])C(=O)[O-]
REMARK SMILES IDX 4 1 3 2 2 3 1 4 5 8 6 9 7 10 8 14 9 15 10 16
REMARK H PARENT 1 5 1 6 1 7 7 11 7 12 7 13
REMARK Flexibility Score: inf
ROOT
ATOM      1  C   UNL     1      35.420 105.643  73.935  1.00  0.00     0.012 C 
ENDROOT
BRANCH   1   2
ATOM      2  C   UNL     1      36.654 106.532  74.124  1.00  0.00     0.061 C 
BRANCH   2   3
ATOM      3  C   UNL     1      36.988 107.296  72.837  1.00  0.00     0.258 C 
BRANCH   3   4
ATOM      4  N   UNL     1      37.469 108.644  73.138  1.00  0.00    -0.358 N 
ATOM      5  H   UNL     1      38.257 108.599  73.824  1.00  0.00     0.344 HD
ATOM      6  H   UNL     1      37.813 109.090  72.256  1.00  0.00     0.344 HD
ATOM      7  H   UNL     1      36.691 109.224  73.528  1.00  0.00     0.344 HD
ENDBRANCH   3   4
ENDBRANCH   2   3
ENDBRANCH   1   2
BRANCH   1   8
ATOM      8  C   UNL     1      34.598 105.561  75.234  1.00  0.00     0.072 C 
BRANCH   8   9
ATOM      9  C   UNL     1      35.362 106.013  76.500  1.00  0.00     0.227 C 
BRANCH   9  10
ATOM     10  N   UNL     1      34.641 107.063  77.234  1.00  0.00    -0.350 N 
ATOM     11  H   UNL     1      33.637 107.066  76.943  1.00  0.00     0.345 HD
ATOM     12  H   UNL     1      35.047 108.008  77.046  1.00  0.00     0.345 HD
ATOM     13  H   UNL     1      34.683 106.871  78.261  1.00  0.00     0.345 HD
ENDBRANCH   9  10
BRANCH   9  14
ATOM     14  C   UNL     1      35.690 104.845  77.395  1.00  0.00     0.099 C 
ATOM     15  O   UNL     1      36.272 105.043  78.495  1.00  0.00    -0.544 OA
ATOM     16  O   UNL     1      35.405 103.543  77.001  1.00  0.00    -0.544 OA
ENDBRANCH   9  14
ENDBRANCH   8   9
ENDBRANCH   1   8
TORSDOF 7
ENDMDL
MODEL 6
REMARK VINA RESULT:    -4.257      4.608      6.300
REMARK INTER + INTRA:          -5.855
REMARK INTER:                  -5.822
REMARK INTRA:                  -0.033
REMARK UNBOUND:                -0.105
REMARK SMILES [NH3+]CCCC[C@@H]([NH3+])C(=O)[O-]
REMARK SMILES IDX 4 1 3 2 2 3 1 4 5 8 6 9 7 10 8 14 9 15 10 16
REMARK H PARENT 1 5 1 6 1 7 7 11 7 12 7 13
REMARK Flexibility Score: inf
ROOT
ATOM      1  C   UNL     1      36.796 105.157  71.637  1.00  0.00     0.012 C 
ENDROOT
BRANCH   1   2
ATOM      2  C   UNL     1      37.112 106.174  72.740  1.00  0.00     0.061 C 
BRANCH   2   3
ATOM      3  C   UNL     1      37.273 107.585  72.161  1.00  0.00     0.258 C 
BRANCH   3   4
ATOM      4  N   UNL     1      37.466 108.568  73.227  1.00  0.00    -0.358 N 
ATOM      5  H   UNL     1      36.686 108.505  73.920  1.00  0.00     0.344 HD
ATOM      6  H   UNL     1      38.370 108.369  73.716  1.00  0.00     0.344 HD
ATOM      7  H   UNL     1      37.505 109.532  72.824  1.00  0.00     0.344 HD
ENDBRANCH   3   4
ENDBRANCH   2   3
ENDBRANCH   1   2
BRANCH   1   8
ATOM      8  C   UNL     1      38.082 104.482  71.128  1.00  0.00     0.072 C 
BRANCH   8   9
ATOM      9  C   UNL     1      38.630 105.073  69.808  1.00  0.00     0.227 C 
BRANCH   9  10
ATOM     10  N   UNL     1      40.057 104.772  69.619  1.00  0.00    -0.350 N 
ATOM     11  H   UNL     1      40.222 104.474  68.630  1.00  0.00     0.345 HD
ATOM     12  H   UNL     1      40.374 104.006  70.256  1.00  0.00     0.345 HD
ATOM     13  H   UNL     1      40.628 105.628  69.802  1.00  0.00     0.345 HD
ENDBRANCH   9  10
BRANCH   9  14
ATOM     14  C   UNL     1      37.814 104.630  68.621  1.00  0.00     0.099 C 
ATOM     15  O   UNL     1      37.940 105.224  67.517  1.00  0.00    -0.544 OA
ATOM     16  O   UNL     1      36.885 103.603  68.739  1.00  0.00    -0.544 OA
ENDBRANCH   9  14
ENDBRANCH   8   9
ENDBRANCH   1   8
TORSDOF 7
ENDMDL
MODEL 7
REMARK VINA RESULT:    -4.253      2.935      4.590
REMARK INTER + INTRA:          -5.850
REMARK INTER:                  -5.392
REMARK INTRA:                  -0.458
REMARK UNBOUND:                -0.105
REMARK SMILES [NH3+]CCCC[C@@H]([NH3+])C(=O)[O-]
REMARK SMILES IDX 4 1 3 2 2 3 1 4 5 8 6 9 7 10 8 14 9 15 10 16
REMARK H PARENT 1 5 1 6 1 7 7 11 7 12 7 13
REMARK Flexibility Score: inf
ROOT
ATOM      1  C   UNL     1      36.440 108.246  77.117  1.00  0.00     0.012 C 
ENDROOT
BRANCH   1   2
ATOM      2  C   UNL     1      35.878 107.188  78.074  1.00  0.00     0.061 C 
BRANCH   2   3
ATOM      3  C   UNL     1      36.519 105.818  77.822  1.00  0.00     0.258 C 
BRANCH   3   4
ATOM      4  N   UNL     1      35.497 104.797  77.596  1.00  0.00    -0.358 N 
ATOM      5  H   UNL     1      35.462 104.542  76.582  1.00  0.00     0.344 HD
ATOM      6  H   UNL     1      35.737 103.943  78.152  1.00  0.00     0.344 HD
ATOM      7  H   UNL     1      34.562 105.148  77.905  1.00  0.00     0.344 HD
ENDBRANCH   3   4
ENDBRANCH   2   3
ENDBRANCH   1   2
BRANCH   1   8
ATOM      8  C   UNL     1      37.252 107.588  75.988  1.00  0.00     0.072 C 
BRANCH   8   9
ATOM      9  C   UNL     1      36.602 107.697  74.589  1.00  0.00     0.227 C 
BRANCH   9  10
ATOM     10  N   UNL     1      37.392 108.537  73.677  1.00  0.00    -0.350 N 
ATOM     11  H   UNL     1      37.033 108.425  72.701  1.00  0.00     0.345 HD
ATOM     12  H   UNL     1      38.404 108.274  73.694  1.00  0.00     0.345 HD
ATOM     13  H   UNL     1      37.295 109.543  73.947  1.00  0.00     0.345 HD
ENDBRANCH   9  10
BRANCH   9  14
ATOM     14  C   UNL     1      36.339 106.338  73.992  1.00  0.00     0.099 C 
ATOM     15  O   UNL     1      35.482 105.579  74.516  1.00  0.00    -0.544 OA
ATOM     16  O   UNL     1      37.067 105.888  72.896  1.00  0.00    -0.544 OA
ENDBRANCH   9  14
ENDBRANCH   8   9
ENDBRANCH   1   8
TORSDOF 7
ENDMDL
MODEL 8
REMARK VINA RESULT:    -4.198      3.365      4.515
REMARK INTER + INTRA:          -5.775
REMARK INTER:                  -5.711
REMARK INTRA:                  -0.064
REMARK UNBOUND:                -0.105
REMARK SMILES [NH3+]CCCC[C@@H]([NH3+])C(=O)[O-]
REMARK SMILES IDX 4 1 3 2 2 3 1 4 5 8 6 9 7 10 8 14 9 15 10 16
REMARK H PARENT 1 5 1 6 1 7 7 11 7 12 7 13
REMARK Flexibility Score: inf
ROOT
ATOM      1  C   UNL     1      35.376 105.598  73.876  1.00  0.00     0.012 C 
ENDROOT
BRANCH   1   2
ATOM      2  C   UNL     1      34.301 104.539  74.148  1.00  0.00     0.061 C 
BRANCH   2   3
ATOM      3  C   UNL     1      33.796 103.916  72.840  1.00  0.00     0.258 C 
BRANCH   3   4
ATOM      4  N   UNL     1      32.571 103.150  73.066  1.00  0.00    -0.358 N 
ATOM      5  H   UNL     1      32.657 102.584  73.941  1.00  0.00     0.344 HD
ATOM      6  H   UNL     1      31.767 103.812  73.169  1.00  0.00     0.344 HD
ATOM      7  H   UNL     1      32.386 102.519  72.253  1.00  0.00     0.344 HD
ENDBRANCH   3   4
ENDBRANCH   2   3
ENDBRANCH   1   2
BRANCH   1   8
ATOM      8  C   UNL     1      35.363 106.685  74.965  1.00  0.00     0.072 C 
BRANCH   8   9
ATOM      9  C   UNL     1      36.767 107.162  75.404  1.00  0.00     0.227 C 
BRANCH   9  10
ATOM     10  N   UNL     1      37.237 108.305  74.607  1.00  0.00    -0.350 N 
ATOM     11  H   UNL     1      36.421 108.903  74.342  1.00  0.00     0.345 HD
ATOM     12  H   UNL     1      37.718 107.991  73.735  1.00  0.00     0.345 HD
ATOM     13  H   UNL     1      37.897 108.885  75.174  1.00  0.00     0.345 HD
ENDBRANCH   9  10
BRANCH   9  14
ATOM     14  C   UNL     1      36.813 107.467  76.880  1.00  0.00     0.099 C 
ATOM     15  O   UNL     1      36.439 108.595  77.298  1.00  0.00    -0.544 OA
ATOM     16  O   UNL     1      37.310 106.536  77.785  1.00  0.00    -0.544 OA
ENDBRANCH   9  14
ENDBRANCH   8   9
ENDBRANCH   1   8
TORSDOF 7
ENDMDL
MODEL 9
REMARK VINA RESULT:    -4.154      1.643      2.232
REMARK INTER + INTRA:          -5.716
REMARK INTER:                  -5.509
REMARK INTRA:                  -0.207
REMARK UNBOUND:                -0.105
REMARK SMILES [NH3+]CCCC[C@@H]([NH3+])C(=O)[O-]
REMARK SMILES IDX 4 1 3 2 2 3 1 4 5 8 6 9 7 10 8 14 9 15 10 16
REMARK H PARENT 1 5 1 6 1 7 7 11 7 12 7 13
REMARK Flexibility Score: inf
ROOT
ATOM      1  C   UNL     1      35.974 107.567  76.785  1.00  0.00     0.012 C 
ENDROOT
BRANCH   1   2
ATOM      2  C   UNL     1      37.003 108.207  75.846  1.00  0.00     0.061 C 
BRANCH   2   3
ATOM      3  C   UNL     1      36.868 107.657  74.420  1.00  0.00     0.258 C 
BRANCH   3   4
ATOM      4  N   UNL     1      37.368 108.618  73.439  1.00  0.00    -0.358 N 
ATOM      5  H   UNL     1      38.407 108.541  73.357  1.00  0.00     0.344 HD
ATOM      6  H   UNL     1      36.939 108.411  72.507  1.00  0.00     0.344 HD
ATOM      7  H   UNL     1      37.106 109.590  73.722  1.00  0.00     0.344 HD
ENDBRANCH   3   4
ENDBRANCH   2   3
ENDBRANCH   1   2
BRANCH   1   8
ATOM      8  C   UNL     1      35.502 106.208  76.239  1.00  0.00     0.072 C 
BRANCH   8   9
ATOM      9  C   UNL     1      33.967 106.073  76.110  1.00  0.00     0.227 C 
BRANCH   9  10
ATOM     10  N   UNL     1      33.265 107.279  76.572  1.00  0.00    -0.350 N 
ATOM     11  H   UNL     1      33.628 108.113  76.057  1.00  0.00     0.345 HD
ATOM     12  H   UNL     1      33.403 107.433  77.597  1.00  0.00     0.345 HD
ATOM     13  H   UNL     1      32.242 107.192  76.374  1.00  0.00     0.345 HD
ENDBRANCH   9  10
BRANCH   9  14
ATOM     14  C   UNL     1      33.559 105.707  74.705  1.00  0.00     0.099 C 
ATOM     15  O   UNL     1      32.401 105.982  74.297  1.00  0.00    -0.544 OA
ATOM     16  O   UNL     1      34.431 105.021  73.866  1.00  0.00    -0.544 OA
ENDBRANCH   9  14
ENDBRANCH   8   9
ENDBRANCH   1   8
TORSDOF 7
ENDMDL
