MODEL 1
REMARK VINA RESULT:   -11.212      0.000      0.000
REMARK INTER + INTRA:         -19.389
REMARK INTER:                 -17.767
REMARK INTRA:                  -1.623
REMARK UNBOUND:                -1.623
REMARK SMILES C[C@H]1O[C@@H](O[C@@H]2CC[C@@]3(C)[C@H](CC[C@]4(C)[C@H]3C=C[C@@]35OC[C@]6(CCC(C)(C)C[C@@H]63)[C@@H](O)C[C@]45C)[C@@]2(C)CO)[C@H](O)[C@@H](O[C@@H]2O[C@@H](CO)[C@@H](O)[C@@H](O)[C@H]2O)[C@H]1O
REMARK SMILES IDX 1 1 2 2 54 3 41 4 39 5 4 6 3 7 55 8 42 10 43 11 52 12 44 13
REMARK SMILES IDX 50 14 45 15 48 16 53 17 51 19 46 21 47 22 49 24 5 26 6 27
REMARK SMILES IDX 7 28 35 29 8 30 11 31 36 32 9 33 12 34 10 35 16 36 13 37
REMARK SMILES IDX 14 38 17 39 15 40 33 41 18 42 19 43 32 44 34 45 29 46 20 47
REMARK SMILES IDX 30 48 22 49 28 50 21 51 23 52 25 53 24 54 26 55 27 56 37 57
REMARK SMILES IDX 38 58 31 60 40 62
REMARK H PARENT 55 9 53 18 51 20 47 23 49 25 38 59 31 61 40 63
REMARK Flexibility Score: inf
ROOT
ATOM      1  C   UNL     1      10.887   0.251   8.870  1.00  0.00     0.041 C 
ATOM      2  C   UNL     1      11.303  -1.076   9.514  1.00  0.00     0.150 C 
ATOM      3  C   UNL     1      11.070  -2.289   8.574  1.00  0.00     0.175 C 
ATOM      4  C   UNL     1      11.057  -3.636   9.357  1.00  0.00     0.186 C 
ATOM      5  C   UNL     1      11.739  -3.478  10.731  1.00  0.00     0.202 C 
ATOM      6  C   UNL     1      11.116  -2.286  11.527  1.00  0.00     0.282 C 
ATOM      7  O   UNL     1      10.572  -1.257  10.706  1.00  0.00    -0.344 OA
ENDROOT
BRANCH   3   8
ATOM      8  O   UNL     1       9.901  -2.147   7.800  1.00  0.00    -0.388 OA
ATOM      9  H   UNL     1      10.078  -1.452   7.114  1.00  0.00     0.211 HD
ENDBRANCH   3   8
BRANCH   4  10
ATOM     10  O   UNL     1       9.723  -4.087   9.572  1.00  0.00    -0.341 OA
BRANCH  10  11
ATOM     11  C   UNL     1       9.688  -5.371  10.184  1.00  0.00     0.282 C 
ATOM     12  C   UNL     1       8.291  -5.642  10.787  1.00  0.00     0.202 C 
ATOM     13  O   UNL     1      10.065  -6.381   9.258  1.00  0.00    -0.341 OA
ATOM     14  C   UNL     1       7.245  -5.854   9.678  1.00  0.00     0.179 C 
ATOM     15  C   UNL     1       9.151  -6.467   8.173  1.00  0.00     0.178 C 
ATOM     16  C   UNL     1       7.743  -6.888   8.658  1.00  0.00     0.177 C 
BRANCH  12  17
ATOM     17  O   UNL     1       8.339  -6.779  11.614  1.00  0.00    -0.385 OA
ATOM     18  H   UNL     1       7.400  -7.086  11.740  1.00  0.00     0.211 HD
ENDBRANCH  12  17
BRANCH  14  19
ATOM     19  O   UNL     1       6.025  -6.277  10.228  1.00  0.00    -0.387 OA
ATOM     20  H   UNL     1       5.359  -6.262   9.492  1.00  0.00     0.211 HD
ENDBRANCH  14  19
BRANCH  15  21
ATOM     21  C   UNL     1       9.702  -7.421   7.103  1.00  0.00     0.191 C 
BRANCH  21  22
ATOM     22  O   UNL     1       8.747  -8.385   6.739  1.00  0.00    -0.394 OA
ATOM     23  H   UNL     1       9.203  -9.032   6.141  1.00  0.00     0.210 HD
ENDBRANCH  21  22
ENDBRANCH  15  21
BRANCH  16  24
ATOM     24  O   UNL     1       7.781  -8.163   9.250  1.00  0.00    -0.387 OA
ATOM     25  H   UNL     1       8.376  -8.100  10.043  1.00  0.00     0.211 HD
ENDBRANCH  16  24
ENDBRANCH  10  11
ENDBRANCH   4  10
BRANCH   6  26
ATOM     26  O   UNL     1      10.044  -2.771  12.317  1.00  0.00    -0.346 OA
BRANCH  26  27
ATOM     27  C   UNL     1       9.285  -1.751  12.948  1.00  0.00     0.130 C 
ATOM     28  C   UNL     1      10.277  -0.861  13.703  1.00  0.00     0.033 C 
ATOM     29  C   UNL     1       8.207  -2.355  13.919  1.00  0.00     0.020 C 
ATOM     30  C   UNL     1      10.970  -1.593  14.872  1.00  0.00     0.010 C 
ATOM     31  C   UNL     1       8.898  -3.036  15.196  1.00  0.00     0.006 C 
ATOM     32  C   UNL     1       7.331  -3.402  13.154  1.00  0.00     0.017 C 
ATOM     33  C   UNL     1       9.995  -2.164  15.960  1.00  0.00    -0.022 C 
ATOM     34  C   UNL     1       9.423  -4.468  14.836  1.00  0.00     0.005 C 
ATOM     35  C   UNL     1       9.353  -0.955  16.719  1.00  0.00     0.012 C 
ATOM     36  C   UNL     1      10.771  -3.005  17.117  1.00  0.00     0.024 C 
ATOM     37  C   UNL     1      10.556  -5.021  15.700  1.00  0.00     0.008 C 
ATOM     38  C   UNL     1      10.498  -4.560  17.182  1.00  0.00    -0.017 C 
ATOM     39  C   UNL     1      12.260  -2.652  17.175  1.00  0.00    -0.024 C 
ATOM     40  C   UNL     1       9.057  -4.860  17.754  1.00  0.00     0.013 C 
ATOM     41  C   UNL     1      11.597  -5.270  18.138  1.00  0.00     0.009 C 
ATOM     42  C   UNL     1      13.263  -3.528  17.358  1.00  0.00     0.005 C 
ATOM     43  C   UNL     1      13.049  -5.009  17.567  1.00  0.00     0.096 C 
ATOM     44  C   UNL     1      11.380  -6.825  18.245  1.00  0.00     0.043 C 
ATOM     45  C   UNL     1      11.471  -4.661  19.588  1.00  0.00     0.015 C 
ATOM     46  C   UNL     1      14.192  -5.615  18.395  1.00  0.00     0.037 C 
ATOM     47  O   UNL     1      13.193  -5.691  16.324  1.00  0.00    -0.369 OA
ATOM     48  C   UNL     1      12.636  -7.633  18.691  1.00  0.00     0.124 C 
ATOM     49  C   UNL     1      13.983  -7.078  18.100  1.00  0.00     0.026 C 
ATOM     50  C   UNL     1      14.529  -5.328  19.866  1.00  0.00     0.014 C 
ATOM     51  C   UNL     1      13.826  -6.943  16.579  1.00  0.00     0.171 C 
ATOM     52  C   UNL     1      15.201  -7.942  18.559  1.00  0.00     0.013 C 
ATOM     53  C   UNL     1      15.855  -6.073  20.285  1.00  0.00    -0.035 C 
ATOM     54  C   UNL     1      16.338  -7.123  19.218  1.00  0.00     0.007 C 
ATOM     55  C   UNL     1      16.980  -5.032  20.469  1.00  0.00     0.011 C 
ATOM     56  C   UNL     1      15.645  -6.792  21.637  1.00  0.00     0.011 C 
BRANCH  29  57
ATOM     57  C   UNL     1       7.192  -1.242  14.356  1.00  0.00     0.165 C 
BRANCH  57  58
ATOM     58  O   UNL     1       6.220  -1.753  15.237  1.00  0.00    -0.396 OA
ATOM     59  H   UNL     1       5.968  -2.654  14.896  1.00  0.00     0.210 HD
ENDBRANCH  57  58
ENDBRANCH  29  57
BRANCH  48  60
ATOM     60  O   UNL     1      12.691  -7.719  20.091  1.00  0.00    -0.392 OA
ATOM     61  H   UNL     1      13.137  -6.895  20.418  1.00  0.00     0.210 HD
ENDBRANCH  48  60
ENDBRANCH  26  27
ENDBRANCH   6  26
BRANCH   5  62
ATOM     62  O   UNL     1      13.121  -3.264  10.565  1.00  0.00    -0.385 OA
ATOM     63  H   UNL     1      13.245  -2.290  10.414  1.00  0.00     0.211 HD
ENDBRANCH   5  62
TORSDOF 14
ENDMDL
MODEL 2
REMARK VINA RESULT:   -11.077      1.866      3.163
REMARK INTER + INTRA:         -19.176
REMARK INTER:                 -17.101
REMARK INTRA:                  -2.075
REMARK UNBOUND:                -1.623
REMARK SMILES C[C@H]1O[C@@H](O[C@@H]2CC[C@@]3(C)[C@H](CC[C@]4(C)[C@H]3C=C[C@@]35OC[C@]6(CCC(C)(C)C[C@@H]63)[C@@H](O)C[C@]45C)[C@@]2(C)CO)[C@H](O)[C@@H](O[C@@H]2O[C@@H](CO)[C@@H](O)[C@@H](O)[C@H]2O)[C@H]1O
REMARK SMILES IDX 1 1 2 2 54 3 41 4 39 5 4 6 3 7 55 8 42 10 43 11 52 12 44 13
REMARK SMILES IDX 50 14 45 15 48 16 53 17 51 19 46 21 47 22 49 24 5 26 6 27
REMARK SMILES IDX 7 28 35 29 8 30 11 31 36 32 9 33 12 34 10 35 16 36 13 37
REMARK SMILES IDX 14 38 17 39 15 40 33 41 18 42 19 43 32 44 34 45 29 46 20 47
REMARK SMILES IDX 30 48 22 49 28 50 21 51 23 52 25 53 24 54 26 55 27 56 37 57
REMARK SMILES IDX 38 58 31 60 40 62
REMARK H PARENT 55 9 53 18 51 20 47 23 49 25 38 59 31 61 40 63
REMARK Flexibility Score: inf
ROOT
ATOM      1  C   UNL     1      12.657  -2.669   6.213  1.00  0.00     0.041 C 
ATOM      2  C   UNL     1      12.268  -3.043   7.646  1.00  0.00     0.150 C 
ATOM      3  C   UNL     1      11.735  -4.497   7.756  1.00  0.00     0.175 C 
ATOM      4  C   UNL     1      10.936  -4.726   9.073  1.00  0.00     0.186 C 
ATOM      5  C   UNL     1      11.280  -3.644  10.117  1.00  0.00     0.202 C 
ATOM      6  C   UNL     1      11.098  -2.213   9.515  1.00  0.00     0.282 C 
ATOM      7  O   UNL     1      11.282  -2.145   8.105  1.00  0.00    -0.344 OA
ENDROOT
BRANCH   3   8
ATOM      8  O   UNL     1      10.970  -4.869   6.633  1.00  0.00    -0.388 OA
ATOM      9  H   UNL     1      11.458  -4.568   5.823  1.00  0.00     0.211 HD
ENDBRANCH   3   8
BRANCH   4  10
ATOM     10  O   UNL     1       9.533  -4.680   8.831  1.00  0.00    -0.341 OA
BRANCH  10  11
ATOM     11  C   UNL     1       8.793  -5.294   9.880  1.00  0.00     0.282 C 
ATOM     12  C   UNL     1       7.565  -4.432  10.249  1.00  0.00     0.202 C 
ATOM     13  O   UNL     1       8.416  -6.618   9.523  1.00  0.00    -0.341 OA
ATOM     14  C   UNL     1       6.510  -4.470   9.129  1.00  0.00     0.179 C 
ATOM     15  C   UNL     1       7.543  -6.632   8.402  1.00  0.00     0.178 C 
ATOM     16  C   UNL     1       6.208  -5.919   8.722  1.00  0.00     0.177 C 
BRANCH  12  17
ATOM     17  O   UNL     1       6.996  -4.895  11.449  1.00  0.00    -0.385 OA
ATOM     18  H   UNL     1       6.244  -5.499  11.199  1.00  0.00     0.211 HD
ENDBRANCH  12  17
BRANCH  14  19
ATOM     19  O   UNL     1       5.328  -3.836   9.545  1.00  0.00    -0.387 OA
ATOM     20  H   UNL     1       5.561  -3.291  10.340  1.00  0.00     0.211 HD
ENDBRANCH  14  19
BRANCH  15  21
ATOM     21  C   UNL     1       7.328  -8.078   7.930  1.00  0.00     0.191 C 
BRANCH  21  22
ATOM     22  O   UNL     1       7.352  -8.975   9.011  1.00  0.00    -0.394 OA
ATOM     23  H   UNL     1       8.050  -9.651   8.809  1.00  0.00     0.210 HD
ENDBRANCH  21  22
ENDBRANCH  15  21
BRANCH  16  24
ATOM     24  O   UNL     1       5.530  -6.577   9.764  1.00  0.00    -0.387 OA
ATOM     25  H   UNL     1       5.196  -5.876  10.384  1.00  0.00     0.211 HD
ENDBRANCH  16  24
ENDBRANCH  10  11
ENDBRANCH   4  10
BRANCH   6  26
ATOM     26  O   UNL     1       9.773  -1.774   9.763  1.00  0.00    -0.346 OA
BRANCH  26  27
ATOM     27  C   UNL     1       9.651  -0.371   9.933  1.00  0.00     0.130 C 
ATOM     28  C   UNL     1      10.989   0.127  10.490  1.00  0.00     0.033 C 
ATOM     29  C   UNL     1       8.463  -0.008  10.895  1.00  0.00     0.020 C 
ATOM     30  C   UNL     1      11.280  -0.402  11.911  1.00  0.00     0.010 C 
ATOM     31  C   UNL     1       8.783  -0.458  12.401  1.00  0.00     0.006 C 
ATOM     32  C   UNL     1       7.148  -0.693  10.394  1.00  0.00     0.017 C 
ATOM     33  C   UNL     1      10.204  -0.023  12.986  1.00  0.00    -0.022 C 
ATOM     34  C   UNL     1       8.510  -1.990  12.585  1.00  0.00     0.005 C 
ATOM     35  C   UNL     1      10.284   1.521  13.231  1.00  0.00     0.012 C 
ATOM     36  C   UNL     1      10.512  -0.683  14.442  1.00  0.00     0.024 C 
ATOM     37  C   UNL     1       9.256  -2.689  13.721  1.00  0.00     0.008 C 
ATOM     38  C   UNL     1       9.505  -1.786  14.960  1.00  0.00    -0.017 C 
ATOM     39  C   UNL     1      11.980  -1.096  14.579  1.00  0.00    -0.024 C 
ATOM     40  C   UNL     1       8.135  -1.139  15.404  1.00  0.00     0.013 C 
ATOM     41  C   UNL     1      10.149  -2.563  16.227  1.00  0.00     0.009 C 
ATOM     42  C   UNL     1      12.423  -2.225  15.160  1.00  0.00     0.005 C 
ATOM     43  C   UNL     1      11.510  -3.247  15.797  1.00  0.00     0.096 C 
ATOM     44  C   UNL     1       9.193  -3.679  16.791  1.00  0.00     0.043 C 
ATOM     45  C   UNL     1      10.411  -1.518  17.379  1.00  0.00     0.015 C 
ATOM     46  C   UNL     1      12.238  -4.006  16.917  1.00  0.00     0.037 C 
ATOM     47  O   UNL     1      11.237  -4.289  14.865  1.00  0.00    -0.369 OA
ATOM     48  C   UNL     1       9.900  -4.785  17.631  1.00  0.00     0.124 C 
ATOM     49  C   UNL     1      11.316  -5.187  17.077  1.00  0.00     0.026 C 
ATOM     50  C   UNL     1      12.742  -3.437  18.252  1.00  0.00     0.014 C 
ATOM     51  C   UNL     1      11.175  -5.518  15.584  1.00  0.00     0.171 C 
ATOM     52  C   UNL     1      11.963  -6.316  17.941  1.00  0.00     0.013 C 
ATOM     53  C   UNL     1      13.539  -4.535  19.055  1.00  0.00    -0.035 C 
ATOM     54  C   UNL     1      13.386  -5.978  18.449  1.00  0.00     0.007 C 
ATOM     55  C   UNL     1      15.041  -4.174  19.046  1.00  0.00     0.011 C 
ATOM     56  C   UNL     1      13.064  -4.555  20.526  1.00  0.00     0.011 C 
BRANCH  29  57
ATOM     57  C   UNL     1       8.158   1.528  10.820  1.00  0.00     0.165 C 
BRANCH  57  58
ATOM     58  O   UNL     1       7.048   1.868  11.617  1.00  0.00    -0.396 OA
ATOM     59  H   UNL     1       6.340   2.198  10.998  1.00  0.00     0.210 HD
ENDBRANCH  57  58
ENDBRANCH  29  57
BRANCH  48  60
ATOM     60  O   UNL     1       9.971  -4.405  18.981  1.00  0.00    -0.392 OA
ATOM     61  H   UNL     1       9.862  -5.229  19.523  1.00  0.00     0.210 HD
ENDBRANCH  48  60
ENDBRANCH  26  27
ENDBRANCH   6  26
BRANCH   5  62
ATOM     62  O   UNL     1      12.605  -3.803  10.563  1.00  0.00    -0.385 OA
ATOM     63  H   UNL     1      13.171  -3.213   9.999  1.00  0.00     0.211 HD
ENDBRANCH   5  62
TORSDOF 14
ENDMDL
MODEL 3
REMARK VINA RESULT:   -10.946      2.158      3.885
REMARK INTER + INTRA:         -18.969
REMARK INTER:                 -16.557
REMARK INTRA:                  -2.411
REMARK UNBOUND:                -1.623
REMARK SMILES C[C@H]1O[C@@H](O[C@@H]2CC[C@@]3(C)[C@H](CC[C@]4(C)[C@H]3C=C[C@@]35OC[C@]6(CCC(C)(C)C[C@@H]63)[C@@H](O)C[C@]45C)[C@@]2(C)CO)[C@H](O)[C@@H](O[C@@H]2O[C@@H](CO)[C@@H](O)[C@@H](O)[C@H]2O)[C@H]1O
REMARK SMILES IDX 1 1 2 2 54 3 41 4 39 5 4 6 3 7 55 8 42 10 43 11 52 12 44 13
REMARK SMILES IDX 50 14 45 15 48 16 53 17 51 19 46 21 47 22 49 24 5 26 6 27
REMARK SMILES IDX 7 28 35 29 8 30 11 31 36 32 9 33 12 34 10 35 16 36 13 37
REMARK SMILES IDX 14 38 17 39 15 40 33 41 18 42 19 43 32 44 34 45 29 46 20 47
REMARK SMILES IDX 30 48 22 49 28 50 21 51 23 52 25 53 24 54 26 55 27 56 37 57
REMARK SMILES IDX 38 58 31 60 40 62
REMARK H PARENT 55 9 53 18 51 20 47 23 49 25 38 59 31 61 40 63
REMARK Flexibility Score: inf
ROOT
ATOM      1  C   UNL     1       9.782  -1.966   4.172  1.00  0.00     0.041 C 
ATOM      2  C   UNL     1      10.481  -2.800   5.251  1.00  0.00     0.150 C 
ATOM      3  C   UNL     1       9.817  -4.188   5.449  1.00  0.00     0.175 C 
ATOM      4  C   UNL     1      10.216  -4.835   6.809  1.00  0.00     0.186 C 
ATOM      5  C   UNL     1      11.499  -4.186   7.368  1.00  0.00     0.202 C 
ATOM      6  C   UNL     1      11.352  -2.632   7.434  1.00  0.00     0.282 C 
ATOM      7  O   UNL     1      10.457  -2.089   6.469  1.00  0.00    -0.344 OA
ENDROOT
BRANCH   3   8
ATOM      8  O   UNL     1       8.416  -4.134   5.311  1.00  0.00    -0.388 OA
ATOM      9  H   UNL     1       8.024  -4.766   5.968  1.00  0.00     0.211 HD
ENDBRANCH   3   8
BRANCH   4  10
ATOM     10  O   UNL     1       9.179  -4.674   7.772  1.00  0.00    -0.341 OA
BRANCH  10  11
ATOM     11  C   UNL     1       8.392  -5.851   7.907  1.00  0.00     0.282 C 
ATOM     12  C   UNL     1       8.705  -6.559   9.245  1.00  0.00     0.202 C 
ATOM     13  O   UNL     1       7.008  -5.549   7.785  1.00  0.00    -0.341 OA
ATOM     14  C   UNL     1       8.166  -5.747  10.436  1.00  0.00     0.179 C 
ATOM     15  C   UNL     1       6.564  -4.690   8.827  1.00  0.00     0.178 C 
ATOM     16  C   UNL     1       6.694  -5.371  10.209  1.00  0.00     0.177 C 
BRANCH  12  17
ATOM     17  O   UNL     1       8.134  -7.844   9.253  1.00  0.00    -0.385 OA
ATOM     18  H   UNL     1       7.599  -7.929   8.417  1.00  0.00     0.211 HD
ENDBRANCH  12  17
BRANCH  14  19
ATOM     19  O   UNL     1       8.292  -6.478  11.627  1.00  0.00    -0.387 OA
ATOM     20  H   UNL     1       8.806  -5.910  12.258  1.00  0.00     0.211 HD
ENDBRANCH  14  19
BRANCH  15  21
ATOM     21  C   UNL     1       5.127  -4.229   8.542  1.00  0.00     0.191 C 
BRANCH  21  22
ATOM     22  O   UNL     1       4.239  -5.318   8.511  1.00  0.00    -0.394 OA
ATOM     23  H   UNL     1       3.652  -5.234   9.307  1.00  0.00     0.210 HD
ENDBRANCH  21  22
ENDBRANCH  15  21
BRANCH  16  24
ATOM     24  O   UNL     1       5.891  -6.524  10.274  1.00  0.00    -0.387 OA
ATOM     25  H   UNL     1       6.188  -7.044  11.066  1.00  0.00     0.211 HD
ENDBRANCH  16  24
ENDBRANCH  10  11
ENDBRANCH   4  10
BRANCH   6  26
ATOM     26  O   UNL     1      10.833  -2.271   8.703  1.00  0.00    -0.346 OA
BRANCH  26  27
ATOM     27  C   UNL     1      10.474  -0.903   8.812  1.00  0.00     0.130 C 
ATOM     28  C   UNL     1      11.711  -0.158   9.323  1.00  0.00     0.033 C 
ATOM     29  C   UNL     1       9.250  -0.705   9.777  1.00  0.00     0.020 C 
ATOM     30  C   UNL     1      12.102  -0.562  10.761  1.00  0.00     0.010 C 
ATOM     31  C   UNL     1       9.656  -1.022  11.296  1.00  0.00     0.006 C 
ATOM     32  C   UNL     1       8.067  -1.627   9.329  1.00  0.00     0.017 C 
ATOM     33  C   UNL     1      10.986  -0.323  11.837  1.00  0.00    -0.022 C 
ATOM     34  C   UNL     1       9.652  -2.568  11.553  1.00  0.00     0.005 C 
ATOM     35  C   UNL     1      10.801   1.221  12.011  1.00  0.00     0.012 C 
ATOM     36  C   UNL     1      11.416  -0.852  13.315  1.00  0.00     0.024 C 
ATOM     37  C   UNL     1      10.518  -3.075  12.705  1.00  0.00     0.008 C 
ATOM     38  C   UNL     1      10.618  -2.085  13.898  1.00  0.00    -0.017 C 
ATOM     39  C   UNL     1      12.935  -1.001  13.445  1.00  0.00    -0.024 C 
ATOM     40  C   UNL     1       9.161  -1.663  14.336  1.00  0.00     0.013 C 
ATOM     41  C   UNL     1      11.398  -2.681  15.187  1.00  0.00     0.009 C 
ATOM     42  C   UNL     1      13.570  -2.008  14.068  1.00  0.00     0.005 C 
ATOM     43  C   UNL     1      12.852  -3.140  14.766  1.00  0.00     0.096 C 
ATOM     44  C   UNL     1      10.654  -3.916  15.817  1.00  0.00     0.043 C 
ATOM     45  C   UNL     1      11.487  -1.554  16.288  1.00  0.00     0.015 C 
ATOM     46  C   UNL     1      13.710  -3.710  15.906  1.00  0.00     0.037 C 
ATOM     47  O   UNL     1      12.754  -4.257  13.886  1.00  0.00    -0.369 OA
ATOM     48  C   UNL     1      11.548  -4.845  16.693  1.00  0.00     0.124 C 
ATOM     49  C   UNL     1      13.006  -5.023  16.134  1.00  0.00     0.026 C 
ATOM     50  C   UNL     1      14.121  -3.001  17.205  1.00  0.00     0.014 C 
ATOM     51  C   UNL     1      12.911  -5.443  14.659  1.00  0.00     0.171 C 
ATOM     52  C   UNL     1      13.846  -5.983  17.036  1.00  0.00     0.013 C 
ATOM     53  C   UNL     1      15.102  -3.908  18.043  1.00  0.00    -0.035 C 
ATOM     54  C   UNL     1      15.194  -5.383  17.504  1.00  0.00     0.007 C 
ATOM     55  C   UNL     1      16.519  -3.295  17.992  1.00  0.00     0.011 C 
ATOM     56  C   UNL     1      14.651  -3.941  19.521  1.00  0.00     0.011 C 
BRANCH  29  57
ATOM     57  C   UNL     1       8.684   0.751   9.639  1.00  0.00     0.165 C 
BRANCH  57  58
ATOM     58  O   UNL     1       7.492   0.908  10.371  1.00  0.00    -0.396 OA
ATOM     59  H   UNL     1       7.470   1.854  10.684  1.00  0.00     0.210 HD
ENDBRANCH  57  58
ENDBRANCH  29  57
BRANCH  48  60
ATOM     60  O   UNL     1      11.564  -4.395  18.023  1.00  0.00    -0.392 OA
ATOM     61  H   UNL     1      12.422  -4.694  18.423  1.00  0.00     0.210 HD
ENDBRANCH  48  60
ENDBRANCH  26  27
ENDBRANCH   6  26
BRANCH   5  62
ATOM     62  O   UNL     1      12.603  -4.523   6.564  1.00  0.00    -0.385 OA
ATOM     63  H   UNL     1      12.385  -5.385   6.121  1.00  0.00     0.211 HD
ENDBRANCH   5  62
TORSDOF 14
ENDMDL
MODEL 4
REMARK VINA RESULT:   -10.855      2.479      9.707
REMARK INTER + INTRA:         -18.823
REMARK INTER:                 -17.036
REMARK INTRA:                  -1.788
REMARK UNBOUND:                -1.623
REMARK SMILES C[C@H]1O[C@@H](O[C@@H]2CC[C@@]3(C)[C@H](CC[C@]4(C)[C@H]3C=C[C@@]35OC[C@]6(CCC(C)(C)C[C@@H]63)[C@@H](O)C[C@]45C)[C@@]2(C)CO)[C@H](O)[C@@H](O[C@@H]2O[C@@H](CO)[C@@H](O)[C@@H](O)[C@H]2O)[C@H]1O
REMARK SMILES IDX 1 1 2 2 54 3 41 4 39 5 4 6 3 7 55 8 42 10 43 11 52 12 44 13
REMARK SMILES IDX 50 14 45 15 48 16 53 17 51 19 46 21 47 22 49 24 5 26 6 27
REMARK SMILES IDX 7 28 35 29 8 30 11 31 36 32 9 33 12 34 10 35 16 36 13 37
REMARK SMILES IDX 14 38 17 39 15 40 33 41 18 42 19 43 32 44 34 45 29 46 20 47
REMARK SMILES IDX 30 48 22 49 28 50 21 51 23 52 25 53 24 54 26 55 27 56 37 57
REMARK SMILES IDX 38 58 31 60 40 62
REMARK H PARENT 55 9 53 18 51 20 47 23 49 25 38 59 31 61 40 63
REMARK Flexibility Score: inf
ROOT
ATOM      1  C   UNL     1       9.242   0.635  17.947  1.00  0.00     0.041 C 
ATOM      2  C   UNL     1       9.164  -0.659  17.130  1.00  0.00     0.150 C 
ATOM      3  C   UNL     1       9.731  -1.881  17.900  1.00  0.00     0.175 C 
ATOM      4  C   UNL     1      10.068  -3.065  16.946  1.00  0.00     0.186 C 
ATOM      5  C   UNL     1       9.326  -2.913  15.602  1.00  0.00     0.202 C 
ATOM      6  C   UNL     1       9.595  -1.507  14.975  1.00  0.00     0.282 C 
ATOM      7  O   UNL     1       9.879  -0.488  15.927  1.00  0.00    -0.344 OA
ENDROOT
BRANCH   3   8
ATOM      8  O   UNL     1      10.847  -1.541  18.692  1.00  0.00    -0.388 OA
ATOM      9  H   UNL     1      11.309  -0.782  18.250  1.00  0.00     0.211 HD
ENDBRANCH   3   8
BRANCH   4  10
ATOM     10  O   UNL     1      11.466  -3.120  16.678  1.00  0.00    -0.341 OA
BRANCH  10  11
ATOM     11  C   UNL     1      12.031  -4.368  17.064  1.00  0.00     0.282 C 
ATOM     12  C   UNL     1      12.030  -5.352  15.872  1.00  0.00     0.202 C 
ATOM     13  O   UNL     1      13.339  -4.187  17.593  1.00  0.00    -0.341 OA
ATOM     14  C   UNL     1      13.051  -4.922  14.803  1.00  0.00     0.179 C 
ATOM     15  C   UNL     1      14.232  -3.666  16.619  1.00  0.00     0.178 C 
ATOM     16  C   UNL     1      14.420  -4.654  15.444  1.00  0.00     0.177 C 
BRANCH  12  17
ATOM     17  O   UNL     1      12.334  -6.650  16.321  1.00  0.00    -0.385 OA
ATOM     18  H   UNL     1      11.546  -6.970  16.838  1.00  0.00     0.211 HD
ENDBRANCH  12  17
BRANCH  14  19
ATOM     19  O   UNL     1      13.173  -5.912  13.815  1.00  0.00    -0.387 OA
ATOM     20  H   UNL     1      12.615  -6.678  14.107  1.00  0.00     0.211 HD
ENDBRANCH  14  19
BRANCH  15  21
ATOM     21  C   UNL     1      15.567  -3.297  17.284  1.00  0.00     0.191 C 
BRANCH  21  22
ATOM     22  O   UNL     1      16.369  -2.529  16.423  1.00  0.00    -0.394 OA
ATOM     23  H   UNL     1      16.744  -1.786  16.964  1.00  0.00     0.210 HD
ENDBRANCH  21  22
ENDBRANCH  15  21
BRANCH  16  24
ATOM     24  O   UNL     1      14.982  -5.862  15.895  1.00  0.00    -0.387 OA
ATOM     25  H   UNL     1      14.882  -6.523  15.161  1.00  0.00     0.211 HD
ENDBRANCH  16  24
ENDBRANCH  10  11
ENDBRANCH   4  10
BRANCH   6  26
ATOM     26  O   UNL     1      10.732  -1.589  14.131  1.00  0.00    -0.346 OA
BRANCH  26  27
ATOM     27  C   UNL     1      11.040  -0.378  13.458  1.00  0.00     0.130 C 
ATOM     28  C   UNL     1       9.740   0.118  12.818  1.00  0.00     0.033 C 
ATOM     29  C   UNL     1      12.163  -0.589  12.380  1.00  0.00     0.020 C 
ATOM     30  C   UNL     1       9.229  -0.815  11.700  1.00  0.00     0.010 C 
ATOM     31  C   UNL     1      11.627  -1.474  11.155  1.00  0.00     0.006 C 
ATOM     32  C   UNL     1      13.408  -1.273  13.038  1.00  0.00     0.017 C 
ATOM     33  C   UNL     1      10.233  -1.031  10.514  1.00  0.00    -0.022 C 
ATOM     34  C   UNL     1      11.651  -2.997  11.527  1.00  0.00     0.005 C 
ATOM     35  C   UNL     1      10.357   0.318   9.730  1.00  0.00     0.012 C 
ATOM     36  C   UNL     1       9.682  -2.095   9.412  1.00  0.00     0.024 C 
ATOM     37  C   UNL     1      10.696  -3.907  10.756  1.00  0.00     0.008 C 
ATOM     38  C   UNL     1      10.457  -3.466   9.286  1.00  0.00    -0.017 C 
ATOM     39  C   UNL     1       8.163  -2.266   9.498  1.00  0.00    -0.024 C 
ATOM     40  C   UNL     1      11.854  -3.266   8.579  1.00  0.00     0.013 C 
ATOM     41  C   UNL     1       9.578  -4.513   8.416  1.00  0.00     0.009 C 
ATOM     42  C   UNL     1       7.501  -3.431   9.385  1.00  0.00     0.005 C 
ATOM     43  C   UNL     1       8.183  -4.754   9.123  1.00  0.00     0.096 C 
ATOM     44  C   UNL     1      10.295  -5.905   8.254  1.00  0.00     0.043 C 
ATOM     45  C   UNL     1       9.355  -3.909   6.976  1.00  0.00     0.015 C 
ATOM     46  C   UNL     1       7.239  -5.718   8.387  1.00  0.00     0.037 C 
ATOM     47  O   UNL     1       8.394  -5.434  10.357  1.00  0.00    -0.369 OA
ATOM     48  C   UNL     1       9.350  -7.093   7.904  1.00  0.00     0.124 C 
ATOM     49  C   UNL     1       7.956  -7.022   8.627  1.00  0.00     0.026 C 
ATOM     50  C   UNL     1       6.689  -5.574   6.960  1.00  0.00     0.014 C 
ATOM     51  C   UNL     1       8.199  -6.828  10.131  1.00  0.00     0.171 C 
ATOM     52  C   UNL     1       7.063  -8.250   8.260  1.00  0.00     0.013 C 
ATOM     53  C   UNL     1       5.660  -6.726   6.645  1.00  0.00    -0.035 C 
ATOM     54  C   UNL     1       5.661  -7.869   7.727  1.00  0.00     0.007 C 
ATOM     55  C   UNL     1       4.237  -6.128   6.588  1.00  0.00     0.011 C 
ATOM     56  C   UNL     1       5.973  -7.343   5.263  1.00  0.00     0.011 C 
BRANCH  29  57
ATOM     57  C   UNL     1      12.698   0.797  11.880  1.00  0.00     0.165 C 
BRANCH  57  58
ATOM     58  O   UNL     1      14.101   0.868  11.973  1.00  0.00    -0.396 OA
ATOM     59  H   UNL     1      14.321   0.946  12.941  1.00  0.00     0.210 HD
ENDBRANCH  57  58
ENDBRANCH  29  57
BRANCH  48  60
ATOM     60  O   UNL     1       9.197  -7.204   6.513  1.00  0.00    -0.392 OA
ATOM     61  H   UNL     1      10.102  -7.139   6.112  1.00  0.00     0.210 HD
ENDBRANCH  48  60
ENDBRANCH  26  27
ENDBRANCH   6  26
BRANCH   5  62
ATOM     62  O   UNL     1       7.942  -3.089  15.789  1.00  0.00    -0.385 OA
ATOM     63  H   UNL     1       7.829  -3.587  16.641  1.00  0.00     0.211 HD
ENDBRANCH   5  62
TORSDOF 14
ENDMDL
MODEL 5
REMARK VINA RESULT:   -10.802      2.468      9.468
REMARK INTER + INTRA:         -18.739
REMARK INTER:                 -16.315
REMARK INTRA:                  -2.424
REMARK UNBOUND:                -1.623
REMARK SMILES C[C@H]1O[C@@H](O[C@@H]2CC[C@@]3(C)[C@H](CC[C@]4(C)[C@H]3C=C[C@@]35OC[C@]6(CCC(C)(C)C[C@@H]63)[C@@H](O)C[C@]45C)[C@@]2(C)CO)[C@H](O)[C@@H](O[C@@H]2O[C@@H](CO)[C@@H](O)[C@@H](O)[C@H]2O)[C@H]1O
REMARK SMILES IDX 1 1 2 2 54 3 41 4 39 5 4 6 3 7 55 8 42 10 43 11 52 12 44 13
REMARK SMILES IDX 50 14 45 15 48 16 53 17 51 19 46 21 47 22 49 24 5 26 6 27
REMARK SMILES IDX 7 28 35 29 8 30 11 31 36 32 9 33 12 34 10 35 16 36 13 37
REMARK SMILES IDX 14 38 17 39 15 40 33 41 18 42 19 43 32 44 34 45 29 46 20 47
REMARK SMILES IDX 30 48 22 49 28 50 21 51 23 52 25 53 24 54 26 55 27 56 37 57
REMARK SMILES IDX 38 58 31 60 40 62
REMARK H PARENT 55 9 53 18 51 20 47 23 49 25 38 59 31 61 40 63
REMARK Flexibility Score: inf
ROOT
ATOM      1  C   UNL     1      10.052  -1.733  20.971  1.00  0.00     0.041 C 
ATOM      2  C   UNL     1       9.687  -2.668  19.814  1.00  0.00     0.150 C 
ATOM      3  C   UNL     1      10.631  -3.897  19.726  1.00  0.00     0.175 C 
ATOM      4  C   UNL     1      10.561  -4.586  18.330  1.00  0.00     0.186 C 
ATOM      5  C   UNL     1       9.267  -4.190  17.590  1.00  0.00     0.202 C 
ATOM      6  C   UNL     1       9.114  -2.636  17.529  1.00  0.00     0.282 C 
ATOM      7  O   UNL     1       9.742  -1.946  18.604  1.00  0.00    -0.344 OA
ENDROOT
BRANCH   3   8
ATOM      8  O   UNL     1      11.961  -3.573  20.058  1.00  0.00    -0.388 OA
ATOM      9  H   UNL     1      12.373  -4.377  20.469  1.00  0.00     0.211 HD
ENDBRANCH   3   8
BRANCH   4  10
ATOM     10  O   UNL     1      11.670  -4.209  17.520  1.00  0.00    -0.341 OA
BRANCH  10  11
ATOM     11  C   UNL     1      12.644  -5.243  17.439  1.00  0.00     0.282 C 
ATOM     12  C   UNL     1      12.649  -5.868  16.025  1.00  0.00     0.202 C 
ATOM     13  O   UNL     1      13.929  -4.756  17.802  1.00  0.00    -0.341 OA
ATOM     14  C   UNL     1      13.227  -4.884  14.992  1.00  0.00     0.179 C 
ATOM     15  C   UNL     1      14.383  -3.753  16.903  1.00  0.00     0.178 C 
ATOM     16  C   UNL     1      14.570  -4.321  15.477  1.00  0.00     0.177 C 
BRANCH  12  17
ATOM     17  O   UNL     1      13.410  -7.051  16.026  1.00  0.00    -0.385 OA
ATOM     18  H   UNL     1      12.888  -7.731  16.534  1.00  0.00     0.211 HD
ENDBRANCH  12  17
BRANCH  14  19
ATOM     19  O   UNL     1      13.396  -5.518  13.751  1.00  0.00    -0.387 OA
ATOM     20  H   UNL     1      14.372  -5.542  13.574  1.00  0.00     0.211 HD
ENDBRANCH  14  19
BRANCH  15  21
ATOM     21  C   UNL     1      15.672  -3.116  17.445  1.00  0.00     0.191 C 
BRANCH  21  22
ATOM     22  O   UNL     1      16.405  -2.498  16.418  1.00  0.00    -0.394 OA
ATOM     23  H   UNL     1      17.235  -2.144  16.830  1.00  0.00     0.210 HD
ENDBRANCH  21  22
ENDBRANCH  15  21
BRANCH  16  24
ATOM     24  O   UNL     1      15.545  -5.335  15.468  1.00  0.00    -0.387 OA
ATOM     25  H   UNL     1      16.230  -5.088  16.143  1.00  0.00     0.211 HD
ENDBRANCH  16  24
ENDBRANCH  10  11
ENDBRANCH   4  10
BRANCH   6  26
ATOM     26  O   UNL     1       9.725  -2.160  16.341  1.00  0.00    -0.346 OA
BRANCH  26  27
ATOM     27  C   UNL     1       9.529  -0.774  16.107  1.00  0.00     0.130 C 
ATOM     28  C   UNL     1       8.098  -0.609  15.588  1.00  0.00     0.033 C 
ATOM     29  C   UNL     1      10.577  -0.210  15.082  1.00  0.00     0.020 C 
ATOM     30  C   UNL     1       7.884  -1.258  14.204  1.00  0.00     0.010 C 
ATOM     31  C   UNL     1      10.316  -0.793  13.611  1.00  0.00     0.006 C 
ATOM     32  C   UNL     1      12.026  -0.565  15.555  1.00  0.00     0.017 C 
ATOM     33  C   UNL     1       8.816  -0.708  13.069  1.00  0.00    -0.022 C 
ATOM     34  C   UNL     1      10.913  -2.237  13.480  1.00  0.00     0.005 C 
ATOM     35  C   UNL     1       8.391   0.766  12.763  1.00  0.00     0.012 C 
ATOM     36  C   UNL     1       8.614  -1.492  11.657  1.00  0.00     0.024 C 
ATOM     37  C   UNL     1      10.302  -3.138  12.407  1.00  0.00     0.008 C 
ATOM     38  C   UNL     1       9.821  -2.373  11.143  1.00  0.00    -0.017 C 
ATOM     39  C   UNL     1       7.269  -2.222  11.600  1.00  0.00    -0.024 C 
ATOM     40  C   UNL     1      11.001  -1.467  10.615  1.00  0.00     0.013 C 
ATOM     41  C   UNL     1       9.323  -3.335   9.938  1.00  0.00     0.009 C 
ATOM     42  C   UNL     1       7.066  -3.447  11.085  1.00  0.00     0.005 C 
ATOM     43  C   UNL     1       8.160  -4.276  10.453  1.00  0.00     0.096 C 
ATOM     44  C   UNL     1      10.482  -4.243   9.381  1.00  0.00     0.043 C 
ATOM     45  C   UNL     1       8.801  -2.432   8.755  1.00  0.00     0.015 C 
ATOM     46  C   UNL     1       7.581  -5.231   9.398  1.00  0.00     0.037 C 
ATOM     47  O   UNL     1       8.686  -5.186  11.416  1.00  0.00    -0.369 OA
ATOM     48  C   UNL     1      10.009  -5.517   8.619  1.00  0.00     0.124 C 
ATOM     49  C   UNL     1       8.735  -6.190   9.249  1.00  0.00     0.026 C 
ATOM     50  C   UNL     1       6.922  -4.854   8.063  1.00  0.00     0.014 C 
ATOM     51  C   UNL     1       8.993  -6.407  10.748  1.00  0.00     0.171 C 
ATOM     52  C   UNL     1       8.324  -7.475   8.462  1.00  0.00     0.013 C 
ATOM     53  C   UNL     1       6.360  -6.138   7.341  1.00  0.00    -0.035 C 
ATOM     54  C   UNL     1       6.846  -7.481   8.001  1.00  0.00     0.007 C 
ATOM     55  C   UNL     1       4.817  -6.112   7.399  1.00  0.00     0.011 C 
ATOM     56  C   UNL     1       6.780  -6.128   5.854  1.00  0.00     0.011 C 
BRANCH  29  57
ATOM     57  C   UNL     1      10.540   1.357  15.079  1.00  0.00     0.165 C 
BRANCH  57  58
ATOM     58  O   UNL     1      10.766   1.876  16.368  1.00  0.00    -0.396 OA
ATOM     59  H   UNL     1      10.394   2.800  16.376  1.00  0.00     0.210 HD
ENDBRANCH  57  58
ENDBRANCH  29  57
BRANCH  48  60
ATOM     60  O   UNL     1       9.813  -5.230   7.259  1.00  0.00    -0.392 OA
ATOM     61  H   UNL     1      10.560  -4.642   6.973  1.00  0.00     0.210 HD
ENDBRANCH  48  60
ENDBRANCH  26  27
ENDBRANCH   6  26
BRANCH   5  62
ATOM     62  O   UNL     1       8.148  -4.750  18.234  1.00  0.00    -0.385 OA
ATOM     63  H   UNL     1       8.488  -5.476  18.821  1.00  0.00     0.211 HD
ENDBRANCH   5  62
TORSDOF 14
ENDMDL
MODEL 6
REMARK VINA RESULT:   -10.647      2.184      3.821
REMARK INTER + INTRA:         -18.494
REMARK INTER:                 -16.434
REMARK INTRA:                  -2.060
REMARK UNBOUND:                -1.623
REMARK SMILES C[C@H]1O[C@@H](O[C@@H]2CC[C@@]3(C)[C@H](CC[C@]4(C)[C@H]3C=C[C@@]35OC[C@]6(CCC(C)(C)C[C@@H]63)[C@@H](O)C[C@]45C)[C@@]2(C)CO)[C@H](O)[C@@H](O[C@@H]2O[C@@H](CO)[C@@H](O)[C@@H](O)[C@H]2O)[C@H]1O
REMARK SMILES IDX 1 1 2 2 54 3 41 4 39 5 4 6 3 7 55 8 42 10 43 11 52 12 44 13
REMARK SMILES IDX 50 14 45 15 48 16 53 17 51 19 46 21 47 22 49 24 5 26 6 27
REMARK SMILES IDX 7 28 35 29 8 30 11 31 36 32 9 33 12 34 10 35 16 36 13 37
REMARK SMILES IDX 14 38 17 39 15 40 33 41 18 42 19 43 32 44 34 45 29 46 20 47
REMARK SMILES IDX 30 48 22 49 28 50 21 51 23 52 25 53 24 54 26 55 27 56 37 57
REMARK SMILES IDX 38 58 31 60 40 62
REMARK H PARENT 55 9 53 18 51 20 47 23 49 25 38 59 31 61 40 63
REMARK Flexibility Score: inf
ROOT
ATOM      1  C   UNL     1       9.518   1.755  13.831  1.00  0.00     0.041 C 
ATOM      2  C   UNL     1      10.653   0.753  13.597  1.00  0.00     0.150 C 
ATOM      3  C   UNL     1      10.616   0.137  12.172  1.00  0.00     0.175 C 
ATOM      4  C   UNL     1      11.454  -1.173  12.083  1.00  0.00     0.186 C 
ATOM      5  C   UNL     1      12.463  -1.258  13.246  1.00  0.00     0.202 C 
ATOM      6  C   UNL     1      11.743  -1.068  14.621  1.00  0.00     0.282 C 
ATOM      7  O   UNL     1      10.561  -0.278  14.556  1.00  0.00    -0.344 OA
ENDROOT
BRANCH   3   8
ATOM      8  O   UNL     1       9.300  -0.076  11.718  1.00  0.00    -0.388 OA
ATOM      9  H   UNL     1       9.351  -0.645  10.906  1.00  0.00     0.211 HD
ENDBRANCH   3   8
BRANCH   4  10
ATOM     10  O   UNL     1      10.611  -2.320  12.139  1.00  0.00    -0.341 OA
BRANCH  10  11
ATOM     11  C   UNL     1      10.747  -3.136  10.982  1.00  0.00     0.282 C 
ATOM     12  C   UNL     1      11.424  -4.477  11.344  1.00  0.00     0.202 C 
ATOM     13  O   UNL     1       9.486  -3.338  10.357  1.00  0.00    -0.341 OA
ATOM     14  C   UNL     1      10.481  -5.362  12.178  1.00  0.00     0.179 C 
ATOM     15  C   UNL     1       8.588  -4.045  11.201  1.00  0.00     0.178 C 
ATOM     16  C   UNL     1       9.107  -5.471  11.502  1.00  0.00     0.177 C 
BRANCH  12  17
ATOM     17  O   UNL     1      11.797  -5.159  10.172  1.00  0.00    -0.385 OA
ATOM     18  H   UNL     1      12.530  -5.785  10.421  1.00  0.00     0.211 HD
ENDBRANCH  12  17
BRANCH  14  19
ATOM     19  O   UNL     1      11.031  -6.642  12.349  1.00  0.00    -0.387 OA
ATOM     20  H   UNL     1      11.616  -6.597  13.149  1.00  0.00     0.211 HD
ENDBRANCH  14  19
BRANCH  15  21
ATOM     21  C   UNL     1       7.187  -4.061  10.571  1.00  0.00     0.191 C 
BRANCH  21  22
ATOM     22  O   UNL     1       6.544  -5.291  10.791  1.00  0.00    -0.394 OA
ATOM     23  H   UNL     1       6.469  -5.739   9.909  1.00  0.00     0.210 HD
ENDBRANCH  21  22
ENDBRANCH  15  21
BRANCH  16  24
ATOM     24  O   UNL     1       9.216  -6.222  10.317  1.00  0.00    -0.387 OA
ATOM     25  H   UNL     1      10.171  -6.475  10.218  1.00  0.00     0.211 HD
ENDBRANCH  16  24
ENDBRANCH  10  11
ENDBRANCH   4  10
BRANCH   6  26
ATOM     26  O   UNL     1      11.345  -2.337  15.112  1.00  0.00    -0.346 OA
BRANCH  26  27
ATOM     27  C   UNL     1      10.400  -2.277  16.168  1.00  0.00     0.130 C 
ATOM     28  C   UNL     1      11.121  -1.670  17.375  1.00  0.00     0.033 C 
ATOM     29  C   UNL     1       9.822  -3.699  16.505  1.00  0.00     0.020 C 
ATOM     30  C   UNL     1      12.242  -2.579  17.923  1.00  0.00     0.010 C 
ATOM     31  C   UNL     1      10.943  -4.634  17.169  1.00  0.00     0.006 C 
ATOM     32  C   UNL     1       9.263  -4.365  15.204  1.00  0.00     0.017 C 
ATOM     33  C   UNL     1      11.769  -4.002  18.381  1.00  0.00    -0.022 C 
ATOM     34  C   UNL     1      11.878  -5.238  16.065  1.00  0.00     0.005 C 
ATOM     35  C   UNL     1      10.885  -3.832  19.661  1.00  0.00     0.012 C 
ATOM     36  C   UNL     1      13.003  -4.949  18.860  1.00  0.00     0.024 C 
ATOM     37  C   UNL     1      13.276  -5.667  16.509  1.00  0.00     0.008 C 
ATOM     38  C   UNL     1      13.335  -6.207  17.964  1.00  0.00    -0.017 C 
ATOM     39  C   UNL     1      14.242  -4.126  19.226  1.00  0.00    -0.024 C 
ATOM     40  C   UNL     1      12.241  -7.332  18.137  1.00  0.00     0.013 C 
ATOM     41  C   UNL     1      14.778  -6.814  18.386  1.00  0.00     0.009 C 
ATOM     42  C   UNL     1      15.511  -4.449  18.924  1.00  0.00     0.005 C 
ATOM     43  C   UNL     1      15.897  -5.713  18.191  1.00  0.00     0.096 C 
ATOM     44  C   UNL     1      15.170  -8.073  17.526  1.00  0.00     0.043 C 
ATOM     45  C   UNL     1      14.715  -7.258  19.898  1.00  0.00     0.015 C 
ATOM     46  C   UNL     1      17.317  -6.155  18.575  1.00  0.00     0.037 C 
ATOM     47  O   UNL     1      16.042  -5.433  16.802  1.00  0.00    -0.369 OA
ATOM     48  C   UNL     1      16.694  -8.396  17.493  1.00  0.00     0.124 C 
ATOM     49  C   UNL     1      17.607  -7.116  17.451  1.00  0.00     0.026 C 
ATOM     50  C   UNL     1      17.798  -6.652  19.946  1.00  0.00     0.014 C 
ATOM     51  C   UNL     1      17.125  -6.215  16.304  1.00  0.00     0.171 C 
ATOM     52  C   UNL     1      19.120  -7.501  17.391  1.00  0.00     0.013 C 
ATOM     53  C   UNL     1      19.358  -6.887  19.934  1.00  0.00    -0.035 C 
ATOM     54  C   UNL     1      19.980  -6.831  18.490  1.00  0.00     0.007 C 
ATOM     55  C   UNL     1      20.037  -5.792  20.786  1.00  0.00     0.011 C 
ATOM     56  C   UNL     1      19.686  -8.256  20.570  1.00  0.00     0.011 C 
BRANCH  29  57
ATOM     57  C   UNL     1       8.573  -3.565  17.443  1.00  0.00     0.165 C 
BRANCH  57  58
ATOM     58  O   UNL     1       8.130  -4.826  17.887  1.00  0.00    -0.396 OA
ATOM     59  H   UNL     1       8.570  -4.993  18.765  1.00  0.00     0.210 HD
ENDBRANCH  57  58
ENDBRANCH  29  57
BRANCH  48  60
ATOM     60  O   UNL     1      17.041  -9.234  18.564  1.00  0.00    -0.392 OA
ATOM     61  H   UNL     1      18.015  -9.125  18.718  1.00  0.00     0.210 HD
ENDBRANCH  48  60
ENDBRANCH  26  27
ENDBRANCH   6  26
BRANCH   5  62
ATOM     62  O   UNL     1      13.461  -0.278  13.096  1.00  0.00    -0.385 OA
ATOM     63  H   UNL     1      13.895  -0.172  13.984  1.00  0.00     0.211 HD
ENDBRANCH   5  62
TORSDOF 14
ENDMDL
MODEL 7
REMARK VINA RESULT:   -10.574      1.750      2.593
REMARK INTER + INTRA:         -18.379
REMARK INTER:                 -16.023
REMARK INTRA:                  -2.356
REMARK UNBOUND:                -1.623
REMARK SMILES C[C@H]1O[C@@H](O[C@@H]2CC[C@@]3(C)[C@H](CC[C@]4(C)[C@H]3C=C[C@@]35OC[C@]6(CCC(C)(C)C[C@@H]63)[C@@H](O)C[C@]45C)[C@@]2(C)CO)[C@H](O)[C@@H](O[C@@H]2O[C@@H](CO)[C@@H](O)[C@@H](O)[C@H]2O)[C@H]1O
REMARK SMILES IDX 1 1 2 2 54 3 41 4 39 5 4 6 3 7 55 8 42 10 43 11 52 12 44 13
REMARK SMILES IDX 50 14 45 15 48 16 53 17 51 19 46 21 47 22 49 24 5 26 6 27
REMARK SMILES IDX 7 28 35 29 8 30 11 31 36 32 9 33 12 34 10 35 16 36 13 37
REMARK SMILES IDX 14 38 17 39 15 40 33 41 18 42 19 43 32 44 34 45 29 46 20 47
REMARK SMILES IDX 30 48 22 49 28 50 21 51 23 52 25 53 24 54 26 55 27 56 37 57
REMARK SMILES IDX 38 58 31 60 40 62
REMARK H PARENT 55 9 53 18 51 20 47 23 49 25 38 59 31 61 40 63
REMARK Flexibility Score: inf
ROOT
ATOM      1  C   UNL     1       9.352   2.440  10.638  1.00  0.00     0.041 C 
ATOM      2  C   UNL     1      10.477   1.436  10.908  1.00  0.00     0.150 C 
ATOM      3  C   UNL     1      10.556   0.329   9.823  1.00  0.00     0.175 C 
ATOM      4  C   UNL     1      11.364  -0.909  10.313  1.00  0.00     0.186 C 
ATOM      5  C   UNL     1      12.260  -0.538  11.513  1.00  0.00     0.202 C 
ATOM      6  C   UNL     1      11.422   0.148  12.640  1.00  0.00     0.282 C 
ATOM      7  O   UNL     1      10.272   0.843  12.171  1.00  0.00    -0.344 OA
ENDROOT
BRANCH   3   8
ATOM      8  O   UNL     1       9.282  -0.055   9.360  1.00  0.00    -0.388 OA
ATOM      9  H   UNL     1       8.854   0.745   8.958  1.00  0.00     0.211 HD
ENDBRANCH   3   8
BRANCH   4  10
ATOM     10  O   UNL     1      10.491  -1.959  10.718  1.00  0.00    -0.341 OA
BRANCH  10  11
ATOM     11  C   UNL     1      10.633  -3.114   9.897  1.00  0.00     0.282 C 
ATOM     12  C   UNL     1      11.564  -4.144  10.574  1.00  0.00     0.202 C 
ATOM     13  O   UNL     1       9.363  -3.675   9.593  1.00  0.00    -0.341 OA
ATOM     14  C   UNL     1      10.884  -4.778  11.801  1.00  0.00     0.179 C 
ATOM     15  C   UNL     1       8.698  -4.135  10.762  1.00  0.00     0.178 C 
ATOM     16  C   UNL     1       9.482  -5.286  11.436  1.00  0.00     0.177 C 
BRANCH  12  17
ATOM     17  O   UNL     1      11.914  -5.151   9.656  1.00  0.00    -0.385 OA
ATOM     18  H   UNL     1      11.070  -5.608   9.391  1.00  0.00     0.211 HD
ENDBRANCH  12  17
BRANCH  14  19
ATOM     19  O   UNL     1      11.659  -5.837  12.301  1.00  0.00    -0.387 OA
ATOM     20  H   UNL     1      12.602  -5.636  12.066  1.00  0.00     0.211 HD
ENDBRANCH  14  19
BRANCH  15  21
ATOM     21  C   UNL     1       7.259  -4.543  10.414  1.00  0.00     0.191 C 
BRANCH  21  22
ATOM     22  O   UNL     1       6.955  -5.819  10.916  1.00  0.00    -0.394 OA
ATOM     23  H   UNL     1       7.614  -6.448  10.523  1.00  0.00     0.210 HD
ENDBRANCH  21  22
ENDBRANCH  15  21
BRANCH  16  24
ATOM     24  O   UNL     1       9.583  -6.392  10.573  1.00  0.00    -0.387 OA
ATOM     25  H   UNL     1      10.023  -6.074   9.742  1.00  0.00     0.211 HD
ENDBRANCH  16  24
ENDBRANCH  10  11
ENDBRANCH   4  10
BRANCH   6  26
ATOM     26  O   UNL     1      10.949  -0.846  13.533  1.00  0.00    -0.346 OA
BRANCH  26  27
ATOM     27  C   UNL     1       9.969  -0.382  14.447  1.00  0.00     0.130 C 
ATOM     28  C   UNL     1      10.721   0.257  15.618  1.00  0.00     0.033 C 
ATOM     29  C   UNL     1       9.038  -1.550  14.936  1.00  0.00     0.020 C 
ATOM     30  C   UNL     1      11.542  -0.766  16.433  1.00  0.00     0.010 C 
ATOM     31  C   UNL     1       9.844  -2.576  15.868  1.00  0.00     0.006 C 
ATOM     32  C   UNL     1       8.436  -2.299  13.701  1.00  0.00     0.017 C 
ATOM     33  C   UNL     1      10.703  -1.937  17.052  1.00  0.00    -0.022 C 
ATOM     34  C   UNL     1      10.685  -3.567  14.993  1.00  0.00     0.005 C 
ATOM     35  C   UNL     1       9.791  -1.340  18.176  1.00  0.00     0.012 C 
ATOM     36  C   UNL     1      11.629  -3.034  17.819  1.00  0.00     0.024 C 
ATOM     37  C   UNL     1      11.899  -4.213  15.661  1.00  0.00     0.008 C 
ATOM     38  C   UNL     1      11.713  -4.477  17.180  1.00  0.00    -0.017 C 
ATOM     39  C   UNL     1      12.999  -2.460  18.192  1.00  0.00    -0.024 C 
ATOM     40  C   UNL     1      10.368  -5.274  17.400  1.00  0.00     0.013 C 
ATOM     41  C   UNL     1      12.927  -5.307  17.860  1.00  0.00     0.009 C 
ATOM     42  C   UNL     1      14.171  -3.111  18.097  1.00  0.00     0.005 C 
ATOM     43  C   UNL     1      14.292  -4.542  17.626  1.00  0.00     0.096 C 
ATOM     44  C   UNL     1      13.066  -6.758  17.265  1.00  0.00     0.043 C 
ATOM     45  C   UNL     1      12.643  -5.440  19.406  1.00  0.00     0.015 C 
ATOM     46  C   UNL     1      15.529  -5.216  18.240  1.00  0.00     0.037 C 
ATOM     47  O   UNL     1      14.608  -4.561  16.237  1.00  0.00    -0.369 OA
ATOM     48  C   UNL     1      14.464  -7.417  17.463  1.00  0.00     0.124 C 
ATOM     49  C   UNL     1      15.661  -6.407  17.326  1.00  0.00     0.026 C 
ATOM     50  C   UNL     1      15.768  -5.550  19.721  1.00  0.00     0.014 C 
ATOM     51  C   UNL     1      15.503  -5.645  16.002  1.00  0.00     0.171 C 
ATOM     52  C   UNL     1      17.035  -7.128  17.507  1.00  0.00     0.013 C 
ATOM     53  C   UNL     1      17.220  -6.129  19.929  1.00  0.00    -0.035 C 
ATOM     54  C   UNL     1      17.945  -6.481  18.579  1.00  0.00     0.007 C 
ATOM     55  C   UNL     1      18.077  -5.080  20.670  1.00  0.00     0.011 C 
ATOM     56  C   UNL     1      17.155  -7.398  20.810  1.00  0.00     0.011 C 
BRANCH  29  57
ATOM     57  C   UNL     1       7.791  -0.968  15.687  1.00  0.00     0.165 C 
BRANCH  57  58
ATOM     58  O   UNL     1       6.617  -1.665  15.345  1.00  0.00    -0.396 OA
ATOM     59  H   UNL     1       6.791  -2.629  15.530  1.00  0.00     0.210 HD
ENDBRANCH  57  58
ENDBRANCH  29  57
BRANCH  48  60
ATOM     60  O   UNL     1      14.513  -8.101  18.688  1.00  0.00    -0.392 OA
ATOM     61  H   UNL     1      13.601  -8.071  19.078  1.00  0.00     0.210 HD
ENDBRANCH  48  60
ENDBRANCH  26  27
ENDBRANCH   6  26
BRANCH   5  62
ATOM     62  O   UNL     1      13.292   0.324  11.100  1.00  0.00    -0.385 OA
ATOM     63  H   UNL     1      13.015   1.245  11.350  1.00  0.00     0.211 HD
ENDBRANCH   5  62
TORSDOF 14
ENDMDL
MODEL 8
REMARK VINA RESULT:   -10.544      2.421     10.103
REMARK INTER + INTRA:         -18.331
REMARK INTER:                 -16.316
REMARK INTRA:                  -2.015
REMARK UNBOUND:                -1.623
REMARK SMILES C[C@H]1O[C@@H](O[C@@H]2CC[C@@]3(C)[C@H](CC[C@]4(C)[C@H]3C=C[C@@]35OC[C@]6(CCC(C)(C)C[C@@H]63)[C@@H](O)C[C@]45C)[C@@]2(C)CO)[C@H](O)[C@@H](O[C@@H]2O[C@@H](CO)[C@@H](O)[C@@H](O)[C@H]2O)[C@H]1O
REMARK SMILES IDX 1 1 2 2 54 3 41 4 39 5 4 6 3 7 55 8 42 10 43 11 52 12 44 13
REMARK SMILES IDX 50 14 45 15 48 16 53 17 51 19 46 21 47 22 49 24 5 26 6 27
REMARK SMILES IDX 7 28 35 29 8 30 11 31 36 32 9 33 12 34 10 35 16 36 13 37
REMARK SMILES IDX 14 38 17 39 15 40 33 41 18 42 19 43 32 44 34 45 29 46 20 47
REMARK SMILES IDX 30 48 22 49 28 50 21 51 23 52 25 53 24 54 26 55 27 56 37 57
REMARK SMILES IDX 38 58 31 60 40 62
REMARK H PARENT 55 9 53 18 51 20 47 23 49 25 38 59 31 61 40 63
REMARK Flexibility Score: inf
ROOT
ATOM      1  C   UNL     1      11.852  -3.970  21.771  1.00  0.00     0.041 C 
ATOM      2  C   UNL     1      11.767  -4.868  20.533  1.00  0.00     0.150 C 
ATOM      3  C   UNL     1      12.892  -5.937  20.497  1.00  0.00     0.175 C 
ATOM      4  C   UNL     1      13.084  -6.533  19.071  1.00  0.00     0.186 C 
ATOM      5  C   UNL     1      11.835  -6.282  18.201  1.00  0.00     0.202 C 
ATOM      6  C   UNL     1      11.454  -4.766  18.200  1.00  0.00     0.282 C 
ATOM      7  O   UNL     1      11.844  -4.066  19.376  1.00  0.00    -0.344 OA
ENDROOT
BRANCH   3   8
ATOM      8  O   UNL     1      14.111  -5.444  21.003  1.00  0.00    -0.388 OA
ATOM      9  H   UNL     1      14.142  -5.657  21.972  1.00  0.00     0.211 HD
ENDBRANCH   3   8
BRANCH   4  10
ATOM     10  O   UNL     1      14.206  -5.943  18.420  1.00  0.00    -0.341 OA
BRANCH  10  11
ATOM     11  C   UNL     1      15.299  -6.849  18.323  1.00  0.00     0.282 C 
ATOM     12  C   UNL     1      15.772  -6.968  16.857  1.00  0.00     0.202 C 
ATOM     13  O   UNL     1      16.359  -6.454  19.185  1.00  0.00    -0.341 OA
ATOM     14  C   UNL     1      16.463  -5.673  16.395  1.00  0.00     0.179 C 
ATOM     15  C   UNL     1      16.894  -5.191  18.814  1.00  0.00     0.178 C 
ATOM     16  C   UNL     1      17.535  -5.244  17.407  1.00  0.00     0.177 C 
BRANCH  12  17
ATOM     17  O   UNL     1      16.660  -8.051  16.725  1.00  0.00    -0.385 OA
ATOM     18  H   UNL     1      16.109  -8.880  16.735  1.00  0.00     0.211 HD
ENDBRANCH  12  17
BRANCH  14  19
ATOM     19  O   UNL     1      17.047  -5.851  15.130  1.00  0.00    -0.387 OA
ATOM     20  H   UNL     1      17.429  -6.767  15.119  1.00  0.00     0.211 HD
ENDBRANCH  14  19
BRANCH  15  21
ATOM     21  C   UNL     1      17.888  -4.714  19.884  1.00  0.00     0.191 C 
BRANCH  21  22
ATOM     22  O   UNL     1      19.105  -4.315  19.307  1.00  0.00    -0.394 OA
ATOM     23  H   UNL     1      19.829  -4.717  19.854  1.00  0.00     0.210 HD
ENDBRANCH  21  22
ENDBRANCH  15  21
BRANCH  16  24
ATOM     24  O   UNL     1      18.607  -6.155  17.383  1.00  0.00    -0.387 OA
ATOM     25  H   UNL     1      19.220  -5.866  16.658  1.00  0.00     0.211 HD
ENDBRANCH  16  24
ENDBRANCH  10  11
ENDBRANCH   4  10
BRANCH   6  26
ATOM     26  O   UNL     1      12.113  -4.126  17.119  1.00  0.00    -0.346 OA
BRANCH  26  27
ATOM     27  C   UNL     1      12.210  -2.717  17.256  1.00  0.00     0.130 C 
ATOM     28  C   UNL     1      10.795  -2.156  17.085  1.00  0.00     0.033 C 
ATOM     29  C   UNL     1      13.198  -2.104  16.200  1.00  0.00     0.020 C 
ATOM     30  C   UNL     1      10.238  -2.360  15.660  1.00  0.00     0.010 C 
ATOM     31  C   UNL     1      12.598  -2.213  14.717  1.00  0.00     0.006 C 
ATOM     32  C   UNL     1      14.579  -2.836  16.279  1.00  0.00     0.017 C 
ATOM     33  C   UNL     1      11.096  -1.709  14.519  1.00  0.00    -0.022 C 
ATOM     34  C   UNL     1      12.821  -3.653  14.140  1.00  0.00     0.005 C 
ATOM     35  C   UNL     1      10.982  -0.154  14.653  1.00  0.00     0.012 C 
ATOM     36  C   UNL     1      10.514  -2.034  13.034  1.00  0.00     0.024 C 
ATOM     37  C   UNL     1      11.869  -4.104  13.032  1.00  0.00     0.008 C 
ATOM     38  C   UNL     1      11.398  -2.954  12.101  1.00  0.00    -0.017 C 
ATOM     39  C   UNL     1       9.044  -2.458  13.080  1.00  0.00    -0.024 C 
ATOM     40  C   UNL     1      12.665  -2.174  11.571  1.00  0.00     0.013 C 
ATOM     41  C   UNL     1      10.521  -3.448  10.831  1.00  0.00     0.009 C 
ATOM     42  C   UNL     1       8.492  -3.442  12.348  1.00  0.00     0.005 C 
ATOM     43  C   UNL     1       9.261  -4.259  11.336  1.00  0.00     0.096 C 
ATOM     44  C   UNL     1      11.346  -4.372   9.859  1.00  0.00     0.043 C 
ATOM     45  C   UNL     1      10.055  -2.179  10.017  1.00  0.00     0.015 C 
ATOM     46  C   UNL     1       8.330  -4.772  10.227  1.00  0.00     0.037 C 
ATOM     47  O   UNL     1       9.697  -5.475  11.938  1.00  0.00    -0.369 OA
ATOM     48  C   UNL     1      10.486  -5.284   8.934  1.00  0.00     0.124 C 
ATOM     49  C   UNL     1       9.197  -5.852   9.633  1.00  0.00     0.026 C 
ATOM     50  C   UNL     1       7.588  -3.934   9.174  1.00  0.00     0.014 C 
ATOM     51  C   UNL     1       9.614  -6.507  10.959  1.00  0.00     0.171 C 
ATOM     52  C   UNL     1       8.391  -6.779   8.669  1.00  0.00     0.013 C 
ATOM     53  C   UNL     1       6.646  -4.851   8.302  1.00  0.00    -0.035 C 
ATOM     54  C   UNL     1       6.901  -6.387   8.524  1.00  0.00     0.007 C 
ATOM     55  C   UNL     1       5.176  -4.555   8.671  1.00  0.00     0.011 C 
ATOM     56  C   UNL     1       6.836  -4.521   6.804  1.00  0.00     0.011 C 
BRANCH  29  57
ATOM     57  C   UNL     1      13.523  -0.615  16.566  1.00  0.00     0.165 C 
BRANCH  57  58
ATOM     58  O   UNL     1      14.403  -0.038  15.631  1.00  0.00    -0.396 OA
ATOM     59  H   UNL     1      14.216   0.940  15.625  1.00  0.00     0.210 HD
ENDBRANCH  57  58
ENDBRANCH  29  57
BRANCH  48  60
ATOM     60  O   UNL     1      10.166  -4.612   7.744  1.00  0.00    -0.392 OA
ATOM     61  H   UNL     1       9.221  -4.317   7.820  1.00  0.00     0.210 HD
ENDBRANCH  48  60
ENDBRANCH  26  27
ENDBRANCH   6  26
BRANCH   5  62
ATOM     62  O   UNL     1      10.750  -7.042  18.677  1.00  0.00    -0.385 OA
ATOM     63  H   UNL     1      10.318  -6.507  19.394  1.00  0.00     0.211 HD
ENDBRANCH   5  62
TORSDOF 14
ENDMDL
MODEL 9
REMARK VINA RESULT:   -10.398      4.152     11.027
REMARK INTER + INTRA:         -18.099
REMARK INTER:                 -15.296
REMARK INTRA:                  -2.804
REMARK UNBOUND:                -1.623
REMARK SMILES C[C@H]1O[C@@H](O[C@@H]2CC[C@@]3(C)[C@H](CC[C@]4(C)[C@H]3C=C[C@@]35OC[C@]6(CCC(C)(C)C[C@@H]63)[C@@H](O)C[C@]45C)[C@@]2(C)CO)[C@H](O)[C@@H](O[C@@H]2O[C@@H](CO)[C@@H](O)[C@@H](O)[C@H]2O)[C@H]1O
REMARK SMILES IDX 1 1 2 2 54 3 41 4 39 5 4 6 3 7 55 8 42 10 43 11 52 12 44 13
REMARK SMILES IDX 50 14 45 15 48 16 53 17 51 19 46 21 47 22 49 24 5 26 6 27
REMARK SMILES IDX 7 28 35 29 8 30 11 31 36 32 9 33 12 34 10 35 16 36 13 37
REMARK SMILES IDX 14 38 17 39 15 40 33 41 18 42 19 43 32 44 34 45 29 46 20 47
REMARK SMILES IDX 30 48 22 49 28 50 21 51 23 52 25 53 24 54 26 55 27 56 37 57
REMARK SMILES IDX 38 58 31 60 40 62
REMARK H PARENT 55 9 53 18 51 20 47 23 49 25 38 59 31 61 40 63
REMARK Flexibility Score: inf
ROOT
ATOM      1  C   UNL     1       9.161   1.447  12.071  1.00  0.00     0.041 C 
ATOM      2  C   UNL     1       8.162   0.374  11.628  1.00  0.00     0.150 C 
ATOM      3  C   UNL     1       8.141  -0.848  12.585  1.00  0.00     0.175 C 
ATOM      4  C   UNL     1       7.492  -2.097  11.919  1.00  0.00     0.186 C 
ATOM      5  C   UNL     1       6.627  -1.686  10.710  1.00  0.00     0.202 C 
ATOM      6  C   UNL     1       7.447  -0.802   9.715  1.00  0.00     0.282 C 
ATOM      7  O   UNL     1       8.493  -0.054  10.326  1.00  0.00    -0.344 OA
ENDROOT
BRANCH   3   8
ATOM      8  O   UNL     1       9.422  -1.154  13.086  1.00  0.00    -0.388 OA
ATOM      9  H   UNL     1      10.023  -0.399  12.855  1.00  0.00     0.211 HD
ENDBRANCH   3   8
BRANCH   4  10
ATOM     10  O   UNL     1       8.489  -3.007  11.464  1.00  0.00    -0.341 OA
BRANCH  10  11
ATOM     11  C   UNL     1       8.377  -4.277  12.096  1.00  0.00     0.282 C 
ATOM     12  C   UNL     1       8.455  -5.409  11.047  1.00  0.00     0.202 C 
ATOM     13  O   UNL     1       9.369  -4.428  13.104  1.00  0.00    -0.341 OA
ATOM     14  C   UNL     1       9.877  -5.529  10.470  1.00  0.00     0.179 C 
ATOM     15  C   UNL     1      10.680  -4.404  12.558  1.00  0.00     0.178 C 
ATOM     16  C   UNL     1      10.912  -5.597  11.602  1.00  0.00     0.177 C 
BRANCH  12  17
ATOM     17  O   UNL     1       8.078  -6.632  11.632  1.00  0.00    -0.385 OA
ATOM     18  H   UNL     1       7.119  -6.548  11.887  1.00  0.00     0.211 HD
ENDBRANCH  12  17
BRANCH  14  19
ATOM     19  O   UNL     1       9.984  -6.669   9.658  1.00  0.00    -0.387 OA
ATOM     20  H   UNL     1       9.143  -7.183   9.776  1.00  0.00     0.211 HD
ENDBRANCH  14  19
BRANCH  15  21
ATOM     21  C   UNL     1      11.714  -4.364  13.694  1.00  0.00     0.191 C 
BRANCH  21  22
ATOM     22  O   UNL     1      12.877  -5.074  13.349  1.00  0.00    -0.394 OA
ATOM     23  H   UNL     1      13.335  -4.550  12.643  1.00  0.00     0.210 HD
ENDBRANCH  21  22
ENDBRANCH  15  21
BRANCH  16  24
ATOM     24  O   UNL     1      10.788  -6.818  12.290  1.00  0.00    -0.387 OA
ATOM     25  H   UNL     1      10.708  -7.533  11.606  1.00  0.00     0.211 HD
ENDBRANCH  16  24
ENDBRANCH  10  11
ENDBRANCH   4  10
BRANCH   6  26
ATOM     26  O   UNL     1       8.068  -1.642   8.756  1.00  0.00    -0.346 OA
BRANCH  26  27
ATOM     27  C   UNL     1       8.313  -1.011   7.509  1.00  0.00     0.130 C 
ATOM     28  C   UNL     1       6.960  -0.884   6.802  1.00  0.00     0.033 C 
ATOM     29  C   UNL     1       9.335  -1.830   6.641  1.00  0.00     0.020 C 
ATOM     30  C   UNL     1       6.352  -2.251   6.421  1.00  0.00     0.010 C 
ATOM     31  C   UNL     1       8.693  -3.214   6.147  1.00  0.00     0.006 C 
ATOM     32  C   UNL     1      10.635  -2.101   7.470  1.00  0.00     0.017 C 
ATOM     33  C   UNL     1       7.247  -3.127   5.476  1.00  0.00    -0.022 C 
ATOM     34  C   UNL     1       8.753  -4.285   7.290  1.00  0.00     0.005 C 
ATOM     35  C   UNL     1       7.297  -2.433   4.074  1.00  0.00     0.012 C 
ATOM     36  C   UNL     1       6.602  -4.592   5.183  1.00  0.00     0.024 C 
ATOM     37  C   UNL     1       7.735  -5.422   7.219  1.00  0.00     0.008 C 
ATOM     38  C   UNL     1       7.365  -5.845   5.771  1.00  0.00    -0.017 C 
ATOM     39  C   UNL     1       5.097  -4.617   5.464  1.00  0.00    -0.024 C 
ATOM     40  C   UNL     1       8.693  -6.130   4.966  1.00  0.00     0.013 C 
ATOM     41  C   UNL     1       6.413  -7.154   5.687  1.00  0.00     0.009 C 
ATOM     42  C   UNL     1       4.430  -5.621   6.058  1.00  0.00     0.005 C 
ATOM     43  C   UNL     1       5.088  -6.903   6.513  1.00  0.00     0.096 C 
ATOM     44  C   UNL     1       7.116  -8.440   6.261  1.00  0.00     0.043 C 
ATOM     45  C   UNL     1       6.062  -7.425   4.173  1.00  0.00     0.015 C 
ATOM     46  C   UNL     1       4.084  -8.066   6.501  1.00  0.00     0.037 C 
ATOM     47  O   UNL     1       5.409  -6.808   7.898  1.00  0.00    -0.369 OA
ATOM     48  C   UNL     1       6.146  -9.581   6.692  1.00  0.00     0.124 C 
ATOM     49  C   UNL     1       4.821  -9.060   7.361  1.00  0.00     0.026 C 
ATOM     50  C   UNL     1       3.408  -8.699   5.275  1.00  0.00     0.014 C 
ATOM     51  C   UNL     1       5.198  -8.088   8.489  1.00  0.00     0.171 C 
ATOM     52  C   UNL     1       3.902 -10.245   7.797  1.00  0.00     0.013 C 
ATOM     53  C   UNL     1       2.358  -9.787   5.722  1.00  0.00    -0.035 C 
ATOM     54  C   UNL     1       2.457 -10.151   7.249  1.00  0.00     0.007 C 
ATOM     55  C   UNL     1       0.934  -9.250   5.454  1.00  0.00     0.011 C 
ATOM     56  C   UNL     1       2.547 -11.072   4.885  1.00  0.00     0.011 C 
BRANCH  29  57
ATOM     57  C   UNL     1       9.821  -0.969   5.424  1.00  0.00     0.165 C 
BRANCH  57  58
ATOM     58  O   UNL     1      10.758  -1.670   4.643  1.00  0.00    -0.396 OA
ATOM     59  H   UNL     1      10.947  -2.525   5.118  1.00  0.00     0.210 HD
ENDBRANCH  57  58
ENDBRANCH  29  57
BRANCH  48  60
ATOM     60  O   UNL     1       5.869 -10.426   5.606  1.00  0.00    -0.392 OA
ATOM     61  H   UNL     1       5.104 -11.000   5.868  1.00  0.00     0.210 HD
ENDBRANCH  48  60
ENDBRANCH  26  27
ENDBRANCH   6  26
BRANCH   5  62
ATOM     62  O   UNL     1       5.491  -0.979  11.143  1.00  0.00    -0.385 OA
ATOM     63  H   UNL     1       5.667  -0.016  10.970  1.00  0.00     0.211 HD
ENDBRANCH   5  62
TORSDOF 14
ENDMDL
