MODEL 1
REMARK VINA RESULT:    -1.111      0.000      0.000
REMARK INTER + INTRA:          -2.304
REMARK INTER:                  -1.696
REMARK INTRA:                  -0.608
REMARK UNBOUND:                -0.608
REMARK SMILES O=C([O-])CCCCCCCCC(=O)[O-]
REMARK SMILES IDX 7 1 6 2 5 3 4 4 2 5 1 6 3 7 8 8 9 9 10 10 11 11 12 12 13 13
REMARK SMILES IDX 14 14
REMARK H PARENT
REMARK Flexibility Score: inf
ROOT
ATOM      1  C   UNL     1      31.762  23.854  33.166  1.00  0.00     0.000 C 
ENDROOT
BRANCH   1   2
ATOM      2  C   UNL     1      32.336  25.102  33.852  1.00  0.00     0.000 C 
BRANCH   2   3
ATOM      3  C   UNL     1      33.873  25.125  33.851  1.00  0.00     0.006 C 
BRANCH   3   4
ATOM      4  C   UNL     1      34.462  25.125  32.434  1.00  0.00     0.053 C 
BRANCH   4   5
ATOM      5  C   UNL     1      35.952  25.005  32.489  1.00  0.00     0.041 C 
ATOM      6  O   UNL     1      36.545  24.969  33.599  1.00  0.00    -0.550 OA
ATOM      7  O   UNL     1      36.684  24.883  31.315  1.00  0.00    -0.550 OA
ENDBRANCH   4   5
ENDBRANCH   3   4
ENDBRANCH   2   3
ENDBRANCH   1   2
BRANCH   1   8
ATOM      8  C   UNL     1      30.341  24.113  32.653  1.00  0.00     0.000 C 
BRANCH   8   9
ATOM      9  C   UNL     1      30.346  25.125  31.501  1.00  0.00     0.000 C 
BRANCH   9  10
ATOM     10  C   UNL     1      31.319  24.695  30.394  1.00  0.00     0.006 C 
BRANCH  10  11
ATOM     11  C   UNL     1      30.706  23.644  29.459  1.00  0.00     0.053 C 
BRANCH  11  12
ATOM     12  C   UNL     1      31.731  23.054  28.539  1.00  0.00     0.041 C 
ATOM     13  O   UNL     1      32.808  23.666  28.315  1.00  0.00    -0.550 OA
ATOM     14  O   UNL     1      31.481  21.845  27.903  1.00  0.00    -0.550 OA
ENDBRANCH  11  12
ENDBRANCH  10  11
ENDBRANCH   9  10
ENDBRANCH   8   9
ENDBRANCH   1   8
TORSDOF 9
ENDMDL
MODEL 2
REMARK VINA RESULT:    -0.809      2.122      4.909
REMARK INTER + INTRA:          -1.844
REMARK INTER:                  -1.207
REMARK INTRA:                  -0.637
REMARK UNBOUND:                -0.608
REMARK SMILES O=C([O-])CCCCCCCCC(=O)[O-]
REMARK SMILES IDX 7 1 6 2 5 3 4 4 2 5 1 6 3 7 8 8 9 9 10 10 11 11 12 12 13 13
REMARK SMILES IDX 14 14
REMARK H PARENT
REMARK Flexibility Score: inf
ROOT
ATOM      1  C   UNL     1      31.549  23.759  32.007  1.00  0.00     0.000 C 
ENDROOT
BRANCH   1   2
ATOM      2  C   UNL     1      30.092  23.917  31.549  1.00  0.00     0.000 C 
BRANCH   2   3
ATOM      3  C   UNL     1      29.891  25.124  30.619  1.00  0.00     0.006 C 
BRANCH   3   4
ATOM      4  C   UNL     1      29.371  24.721  29.233  1.00  0.00     0.053 C 
BRANCH   4   5
ATOM      5  C   UNL     1      30.437  24.006  28.464  1.00  0.00     0.041 C 
ATOM      6  O   UNL     1      30.212  22.867  27.977  1.00  0.00    -0.550 OA
ATOM      7  O   UNL     1      31.664  24.617  28.244  1.00  0.00    -0.550 OA
ENDBRANCH   4   5
ENDBRANCH   3   4
ENDBRANCH   2   3
ENDBRANCH   1   2
BRANCH   1   8
ATOM      8  C   UNL     1      32.235  25.124  32.135  1.00  0.00     0.000 C 
BRANCH   8   9
ATOM      9  C   UNL     1      33.761  24.982  32.079  1.00  0.00     0.000 C 
BRANCH   9  10
ATOM     10  C   UNL     1      34.275  25.125  30.639  1.00  0.00     0.006 C 
BRANCH  10  11
ATOM     11  C   UNL     1      35.282  24.027  30.270  1.00  0.00     0.053 C 
BRANCH  11  12
ATOM     12  C   UNL     1      35.605  24.039  28.807  1.00  0.00     0.041 C 
ATOM     13  O   UNL     1      34.721  23.748  27.960  1.00  0.00    -0.550 OA
ATOM     14  O   UNL     1      36.893  24.340  28.383  1.00  0.00    -0.550 OA
ENDBRANCH  11  12
ENDBRANCH  10  11
ENDBRANCH   9  10
ENDBRANCH   8   9
ENDBRANCH   1   8
TORSDOF 9
ENDMDL
MODEL 3
REMARK VINA RESULT:    -0.656      2.419      4.135
REMARK INTER + INTRA:          -1.610
REMARK INTER:                  -2.836
REMARK INTRA:                   1.226
REMARK UNBOUND:                -0.608
REMARK SMILES O=C([O-])CCCCCCCCC(=O)[O-]
REMARK SMILES IDX 7 1 6 2 5 3 4 4 2 5 1 6 3 7 8 8 9 9 10 10 11 11 12 12 13 13
REMARK SMILES IDX 14 14
REMARK H PARENT
REMARK Flexibility Score: inf
ROOT
ATOM      1  C   UNL     1      33.876  24.720  34.147  1.00  0.00     0.000 C 
ENDROOT
BRANCH   1   2
ATOM      2  C   UNL     1      32.582  25.125  34.869  1.00  0.00     0.000 C 
BRANCH   2   3
ATOM      3  C   UNL     1      31.319  24.679  34.116  1.00  0.00     0.006 C 
BRANCH   3   4
ATOM      4  C   UNL     1      31.594  24.358  32.641  1.00  0.00     0.053 C 
BRANCH   4   5
ATOM      5  C   UNL     1      30.373  24.612  31.816  1.00  0.00     0.041 C 
ATOM      6  O   UNL     1      30.371  24.344  30.585  1.00  0.00    -0.550 OA
ATOM      7  O   UNL     1      29.219  25.102  32.414  1.00  0.00    -0.550 OA
ENDBRANCH   4   5
ENDBRANCH   3   4
ENDBRANCH   2   3
ENDBRANCH   1   2
BRANCH   1   8
ATOM      8  C   UNL     1      33.829  25.125  32.669  1.00  0.00     0.000 C 
BRANCH   8   9
ATOM      9  C   UNL     1      35.218  25.029  32.026  1.00  0.00     0.000 C 
BRANCH   9  10
ATOM     10  C   UNL     1      35.109  24.822  30.508  1.00  0.00     0.006 C 
BRANCH  10  11
ATOM     11  C   UNL     1      33.657  24.884  30.016  1.00  0.00     0.053 C 
BRANCH  11  12
ATOM     12  C   UNL     1      33.518  24.340  28.627  1.00  0.00     0.041 C 
ATOM     13  O   UNL     1      32.490  24.596  27.946  1.00  0.00    -0.550 OA
ATOM     14  O   UNL     1      34.509  23.523  28.099  1.00  0.00    -0.550 OA
ENDBRANCH  11  12
ENDBRANCH  10  11
ENDBRANCH   9  10
ENDBRANCH   8   9
ENDBRANCH   1   8
TORSDOF 9
ENDMDL
MODEL 4
REMARK VINA RESULT:    -0.512      1.648      4.837
REMARK INTER + INTRA:          -1.390
REMARK INTER:                  -2.005
REMARK INTRA:                   0.615
REMARK UNBOUND:                -0.608
REMARK SMILES O=C([O-])CCCCCCCCC(=O)[O-]
REMARK SMILES IDX 7 1 6 2 5 3 4 4 2 5 1 6 3 7 8 8 9 9 10 10 11 11 12 12 13 13
REMARK SMILES IDX 14 14
REMARK H PARENT
REMARK Flexibility Score: inf
ROOT
ATOM      1  C   UNL     1      30.629  23.736  30.972  1.00  0.00     0.000 C 
ENDROOT
BRANCH   1   2
ATOM      2  C   UNL     1      30.192  23.392  29.541  1.00  0.00     0.000 C 
BRANCH   2   3
ATOM      3  C   UNL     1      30.647  24.441  28.514  1.00  0.00     0.006 C 
BRANCH   3   4
ATOM      4  C   UNL     1      32.102  24.880  28.724  1.00  0.00     0.053 C 
BRANCH   4   5
ATOM      5  C   UNL     1      33.008  23.690  28.737  1.00  0.00     0.041 C 
ATOM      6  O   UNL     1      33.962  23.627  29.557  1.00  0.00    -0.550 OA
ATOM      7  O   UNL     1      32.771  22.626  27.875  1.00  0.00    -0.550 OA
ENDBRANCH   4   5
ENDBRANCH   3   4
ENDBRANCH   2   3
ENDBRANCH   1   2
BRANCH   1   8
ATOM      8  C   UNL     1      29.920  24.999  31.474  1.00  0.00     0.000 C 
BRANCH   8   9
ATOM      9  C   UNL     1      29.579  24.886  32.965  1.00  0.00     0.000 C 
BRANCH   9  10
ATOM     10  C   UNL     1      30.837  25.037  33.831  1.00  0.00     0.006 C 
BRANCH  10  11
ATOM     11  C   UNL     1      32.122  25.057  32.992  1.00  0.00     0.053 C 
BRANCH  11  12
ATOM     12  C   UNL     1      33.327  24.712  33.812  1.00  0.00     0.041 C 
ATOM     13  O   UNL     1      34.469  25.107  33.458  1.00  0.00    -0.550 OA
ATOM     14  O   UNL     1      33.192  23.926  34.949  1.00  0.00    -0.550 OA
ENDBRANCH  11  12
ENDBRANCH  10  11
ENDBRANCH   9  10
ENDBRANCH   8   9
ENDBRANCH   1   8
TORSDOF 9
ENDMDL
MODEL 5
REMARK VINA RESULT:     0.057     17.895     19.757
REMARK INTER + INTRA:          -0.522
REMARK INTER:                   0.123
REMARK INTRA:                  -0.645
REMARK UNBOUND:                -0.608
REMARK SMILES O=C([O-])CCCCCCCCC(=O)[O-]
REMARK SMILES IDX 7 1 6 2 5 3 4 4 2 5 1 6 3 7 8 8 9 9 10 10 11 11 12 12 13 13
REMARK SMILES IDX 14 14
REMARK H PARENT
REMARK Flexibility Score: inf
ROOT
ATOM      1  C   UNL     1      19.237  22.717  47.393  1.00  0.00     0.000 C 
ENDROOT
BRANCH   1   2
ATOM      2  C   UNL     1      18.816  24.036  48.059  1.00  0.00     0.000 C 
BRANCH   2   3
ATOM      3  C   UNL     1      18.328  25.082  47.045  1.00  0.00     0.006 C 
BRANCH   3   4
ATOM      4  C   UNL     1      17.469  24.469  45.931  1.00  0.00     0.053 C 
BRANCH   4   5
ATOM      5  C   UNL     1      18.053  24.782  44.590  1.00  0.00     0.041 C 
ATOM      6  O   UNL     1      17.321  24.790  43.566  1.00  0.00    -0.550 OA
ATOM      7  O   UNL     1      19.397  25.114  44.478  1.00  0.00    -0.550 OA
ENDBRANCH   4   5
ENDBRANCH   3   4
ENDBRANCH   2   3
ENDBRANCH   1   2
BRANCH   1   8
ATOM      8  C   UNL     1      20.428  22.088  48.125  1.00  0.00     0.000 C 
BRANCH   8   9
ATOM      9  C   UNL     1      21.753  22.482  47.464  1.00  0.00     0.000 C 
BRANCH   9  10
ATOM     10  C   UNL     1      21.644  22.425  45.933  1.00  0.00     0.006 C 
BRANCH  10  11
ATOM     11  C   UNL     1      22.774  23.200  45.241  1.00  0.00     0.053 C 
BRANCH  11  12
ATOM     12  C   UNL     1      24.124  22.734  45.691  1.00  0.00     0.041 C 
ATOM     13  O   UNL     1      24.987  23.567  46.073  1.00  0.00    -0.550 OA
ATOM     14  O   UNL     1      24.440  21.382  45.657  1.00  0.00    -0.550 OA
ENDBRANCH  11  12
ENDBRANCH  10  11
ENDBRANCH   9  10
ENDBRANCH   8   9
ENDBRANCH   1   8
TORSDOF 9
ENDMDL
MODEL 6
REMARK VINA RESULT:     0.165     17.652     19.099
REMARK INTER + INTRA:          -0.357
REMARK INTER:                   0.118
REMARK INTRA:                  -0.475
REMARK UNBOUND:                -0.608
REMARK SMILES O=C([O-])CCCCCCCCC(=O)[O-]
REMARK SMILES IDX 7 1 6 2 5 3 4 4 2 5 1 6 3 7 8 8 9 9 10 10 11 11 12 12 13 13
REMARK SMILES IDX 14 14
REMARK H PARENT
REMARK Flexibility Score: inf
ROOT
ATOM      1  C   UNL     1      20.921  21.891  46.958  1.00  0.00     0.000 C 
ENDROOT
BRANCH   1   2
ATOM      2  C   UNL     1      21.829  22.619  45.956  1.00  0.00     0.000 C 
BRANCH   2   3
ATOM      3  C   UNL     1      23.318  22.518  46.324  1.00  0.00     0.006 C 
BRANCH   3   4
ATOM      4  C   UNL     1      24.227  23.221  45.307  1.00  0.00     0.053 C 
BRANCH   4   5
ATOM      5  C   UNL     1      25.601  23.397  45.871  1.00  0.00     0.041 C 
ATOM      6  O   UNL     1      26.103  22.507  46.607  1.00  0.00    -0.550 OA
ATOM      7  O   UNL     1      26.348  24.521  45.544  1.00  0.00    -0.550 OA
ENDBRANCH   4   5
ENDBRANCH   3   4
ENDBRANCH   2   3
ENDBRANCH   1   2
BRANCH   1   8
ATOM      8  C   UNL     1      20.515  22.821  48.107  1.00  0.00     0.000 C 
BRANCH   8   9
ATOM      9  C   UNL     1      18.999  23.050  48.122  1.00  0.00     0.000 C 
BRANCH   9  10
ATOM     10  C   UNL     1      18.655  24.492  47.724  1.00  0.00     0.006 C 
BRANCH  10  11
ATOM     11  C   UNL     1      17.503  24.558  46.713  1.00  0.00     0.053 C 
BRANCH  11  12
ATOM     12  C   UNL     1      18.003  24.540  45.300  1.00  0.00     0.041 C 
ATOM     13  O   UNL     1      17.228  24.232  44.358  1.00  0.00    -0.550 OA
ATOM     14  O   UNL     1      19.334  24.831  45.031  1.00  0.00    -0.550 OA
ENDBRANCH  11  12
ENDBRANCH  10  11
ENDBRANCH   9  10
ENDBRANCH   8   9
ENDBRANCH   1   8
TORSDOF 9
ENDMDL
MODEL 7
REMARK VINA RESULT:     0.596      2.135      4.474
REMARK INTER + INTRA:           0.302
REMARK INTER:                   0.092
REMARK INTRA:                   0.210
REMARK UNBOUND:                -0.608
REMARK SMILES O=C([O-])CCCCCCCCC(=O)[O-]
REMARK SMILES IDX 7 1 6 2 5 3 4 4 2 5 1 6 3 7 8 8 9 9 10 10 11 11 12 12 13 13
REMARK SMILES IDX 14 14
REMARK H PARENT
REMARK Flexibility Score: inf
ROOT
ATOM      1  C   UNL     1      34.180  24.379  33.914  1.00  0.00     0.000 C 
ENDROOT
BRANCH   1   2
ATOM      2  C   UNL     1      32.870  25.039  34.372  1.00  0.00     0.000 C 
BRANCH   2   3
ATOM      3  C   UNL     1      31.710  24.792  33.395  1.00  0.00     0.006 C 
BRANCH   3   4
ATOM      4  C   UNL     1      32.080  25.125  31.943  1.00  0.00     0.053 C 
BRANCH   4   5
ATOM      5  C   UNL     1      31.181  24.394  30.996  1.00  0.00     0.041 C 
ATOM      6  O   UNL     1      29.931  24.487  31.110  1.00  0.00    -0.550 OA
ATOM      7  O   UNL     1      31.724  23.649  29.958  1.00  0.00    -0.550 OA
ENDBRANCH   4   5
ENDBRANCH   3   4
ENDBRANCH   2   3
ENDBRANCH   1   2
BRANCH   1   8
ATOM      8  C   UNL     1      34.782  25.125  32.718  1.00  0.00     0.000 C 
BRANCH   8   9
ATOM      9  C   UNL     1      36.247  24.729  32.500  1.00  0.00     0.000 C 
BRANCH   9  10
ATOM     10  C   UNL     1      36.654  24.909  31.031  1.00  0.00     0.006 C 
BRANCH  10  11
ATOM     11  C   UNL     1      35.474  24.699  30.071  1.00  0.00     0.053 C 
BRANCH  11  12
ATOM     12  C   UNL     1      35.807  23.719  28.988  1.00  0.00     0.041 C 
ATOM     13  O   UNL     1      36.965  23.232  28.908  1.00  0.00    -0.550 OA
ATOM     14  O   UNL     1      34.846  23.370  28.048  1.00  0.00    -0.550 OA
ENDBRANCH  11  12
ENDBRANCH  10  11
ENDBRANCH   9  10
ENDBRANCH   8   9
ENDBRANCH   1   8
TORSDOF 9
ENDMDL
