MODEL 1
REMARK VINA RESULT:    -4.766      0.000      0.000
REMARK INTER + INTRA:          -8.743
REMARK INTER:                  -8.110
REMARK INTRA:                  -0.633
REMARK UNBOUND:                -0.633
REMARK SMILES CCCCCCCCCCCCCC(=O)[O-]
REMARK SMILES IDX 8 1 9 2 10 3 11 4 12 5 13 6 14 7 15 8 16 9 7 10 6 11 5 12
REMARK SMILES IDX 4 13 3 14 2 15 1 16
REMARK H PARENT
REMARK Flexibility Score: inf
ROOT
ATOM      1  C   UNL     1       7.620   4.770   1.251  1.00  0.00     0.000 C 
ENDROOT
BRANCH   1   2
ATOM      2  C   UNL     1       7.871   3.641   0.238  1.00  0.00     0.000 C 
BRANCH   2   3
ATOM      3  C   UNL     1       6.569   3.100  -0.378  1.00  0.00     0.000 C 
BRANCH   3   4
ATOM      4  C   UNL     1       6.104   1.792   0.283  1.00  0.00     0.000 C 
BRANCH   4   5
ATOM      5  C   UNL     1       6.087   0.608  -0.699  1.00  0.00     0.006 C 
BRANCH   5   6
ATOM      6  C   UNL     1       7.306   0.608  -1.629  1.00  0.00     0.053 C 
BRANCH   6   7
ATOM      7  C   UNL     1       6.901   0.566  -3.071  1.00  0.00     0.041 C 
ATOM      8  O   UNL     1       7.241  -0.404  -3.798  1.00  0.00    -0.550 OA
ATOM      9  O   UNL     1       6.177   1.616  -3.621  1.00  0.00    -0.550 OA
ENDBRANCH   6   7
ENDBRANCH   5   6
ENDBRANCH   4   5
ENDBRANCH   3   4
ENDBRANCH   2   3
ENDBRANCH   1   2
BRANCH   1  10
ATOM     10  C   UNL     1       7.298   6.110   0.575  1.00  0.00     0.000 C 
BRANCH  10  11
ATOM     11  C   UNL     1       7.625   7.286   1.504  1.00  0.00    -0.000 C 
BRANCH  11  12
ATOM     12  C   UNL     1       8.427   8.367   0.761  1.00  0.00    -0.000 C 
BRANCH  12  13
ATOM     13  C   UNL     1       8.584   9.657   1.583  1.00  0.00    -0.000 C 
BRANCH  13  14
ATOM     14  C   UNL     1       8.353   9.434   3.085  1.00  0.00    -0.000 C 
BRANCH  14  15
ATOM     15  C   UNL     1       7.286  10.395   3.624  1.00  0.00    -0.003 C 
ATOM     16  C   UNL     1       6.023   9.643   4.033  1.00  0.00     0.004 C 
ENDBRANCH  14  15
ENDBRANCH  13  14
ENDBRANCH  12  13
ENDBRANCH  11  12
ENDBRANCH  10  11
ENDBRANCH   1  10
TORSDOF 12
ENDMDL
MODEL 2
REMARK VINA RESULT:    -4.660      4.455      8.886
REMARK INTER + INTRA:          -8.563
REMARK INTER:                  -7.975
REMARK INTRA:                  -0.588
REMARK UNBOUND:                -0.633
REMARK SMILES CCCCCCCCCCCCCC(=O)[O-]
REMARK SMILES IDX 8 1 9 2 10 3 11 4 12 5 13 6 14 7 15 8 16 9 7 10 6 11 5 12
REMARK SMILES IDX 4 13 3 14 2 15 1 16
REMARK H PARENT
REMARK Flexibility Score: inf
ROOT
ATOM      1  C   UNL     1       7.435   6.208   0.538  1.00  0.00     0.000 C 
ENDROOT
BRANCH   1   2
ATOM      2  C   UNL     1       7.638   7.354   1.541  1.00  0.00     0.000 C 
BRANCH   2   3
ATOM      3  C   UNL     1       8.530   8.477   0.981  1.00  0.00     0.000 C 
BRANCH   3   4
ATOM      4  C   UNL     1       8.424   9.775   1.796  1.00  0.00     0.000 C 
BRANCH   4   5
ATOM      5  C   UNL     1       7.939   9.532   3.236  1.00  0.00     0.006 C 
BRANCH   5   6
ATOM      6  C   UNL     1       7.105  10.703   3.771  1.00  0.00     0.053 C 
BRANCH   6   7
ATOM      7  C   UNL     1       5.737  10.261   4.193  1.00  0.00     0.041 C 
ATOM      8  O   UNL     1       4.714  10.793   3.688  1.00  0.00    -0.550 OA
ATOM      9  O   UNL     1       5.592   9.284   5.170  1.00  0.00    -0.550 OA
ENDBRANCH   6   7
ENDBRANCH   5   6
ENDBRANCH   4   5
ENDBRANCH   3   4
ENDBRANCH   2   3
ENDBRANCH   1   2
BRANCH   1  10
ATOM     10  C   UNL     1       7.603   4.823   1.179  1.00  0.00     0.000 C 
BRANCH  10  11
ATOM     11  C   UNL     1       8.633   3.984   0.413  1.00  0.00    -0.000 C 
BRANCH  11  12
ATOM     12  C   UNL     1       7.940   2.911  -0.443  1.00  0.00    -0.000 C 
BRANCH  12  13
ATOM     13  C   UNL     1       6.547   2.537   0.091  1.00  0.00    -0.000 C 
BRANCH  13  14
ATOM     14  C   UNL     1       6.046   1.192  -0.454  1.00  0.00    -0.000 C 
BRANCH  14  15
ATOM     15  C   UNL     1       6.945   0.692  -1.591  1.00  0.00    -0.003 C 
ATOM     16  C   UNL     1       6.253   0.836  -2.944  1.00  0.00     0.004 C 
ENDBRANCH  14  15
ENDBRANCH  13  14
ENDBRANCH  12  13
ENDBRANCH  11  12
ENDBRANCH  10  11
ENDBRANCH   1  10
TORSDOF 12
ENDMDL
MODEL 3
REMARK VINA RESULT:    -4.606      4.347      8.711
REMARK INTER + INTRA:          -8.470
REMARK INTER:                  -7.755
REMARK INTRA:                  -0.714
REMARK UNBOUND:                -0.633
REMARK SMILES CCCCCCCCCCCCCC(=O)[O-]
REMARK SMILES IDX 8 1 9 2 10 3 11 4 12 5 13 6 14 7 15 8 16 9 7 10 6 11 5 12
REMARK SMILES IDX 4 13 3 14 2 15 1 16
REMARK H PARENT
REMARK Flexibility Score: inf
ROOT
ATOM      1  C   UNL     1       8.679   4.224   0.814  1.00  0.00     0.000 C 
ENDROOT
BRANCH   1   2
ATOM      2  C   UNL     1       7.662   5.191   1.441  1.00  0.00     0.000 C 
BRANCH   2   3
ATOM      3  C   UNL     1       7.619   6.551   0.722  1.00  0.00     0.000 C 
BRANCH   3   4
ATOM      4  C   UNL     1       8.370   7.648   1.492  1.00  0.00     0.000 C 
BRANCH   4   5
ATOM      5  C   UNL     1       7.824   7.853   2.915  1.00  0.00     0.006 C 
BRANCH   5   6
ATOM      6  C   UNL     1       7.421   9.310   3.177  1.00  0.00     0.053 C 
BRANCH   6   7
ATOM      7  C   UNL     1       6.309   9.405   4.177  1.00  0.00     0.041 C 
ATOM      8  O   UNL     1       6.499   9.055   5.371  1.00  0.00    -0.550 OA
ATOM      9  O   UNL     1       5.054   9.849   3.782  1.00  0.00    -0.550 OA
ENDBRANCH   6   7
ENDBRANCH   5   6
ENDBRANCH   4   5
ENDBRANCH   3   4
ENDBRANCH   2   3
ENDBRANCH   1   2
BRANCH   1  10
ATOM     10  C   UNL     1       8.029   3.234  -0.162  1.00  0.00     0.000 C 
BRANCH  10  11
ATOM     11  C   UNL     1       6.514   3.154   0.063  1.00  0.00    -0.000 C 
BRANCH  11  12
ATOM     12  C   UNL     1       6.057   1.694   0.215  1.00  0.00    -0.000 C 
BRANCH  12  13
ATOM     13  C   UNL     1       6.736   0.754  -0.795  1.00  0.00    -0.000 C 
BRANCH  13  14
ATOM     14  C   UNL     1       6.258   0.988  -2.236  1.00  0.00    -0.000 C 
BRANCH  14  15
ATOM     15  C   UNL     1       7.396   0.751  -3.236  1.00  0.00    -0.003 C 
ATOM     16  C   UNL     1       8.523  -0.063  -2.605  1.00  0.00     0.004 C 
ENDBRANCH  14  15
ENDBRANCH  13  14
ENDBRANCH  12  13
ENDBRANCH  11  12
ENDBRANCH  10  11
ENDBRANCH   1  10
TORSDOF 12
ENDMDL
MODEL 4
REMARK VINA RESULT:    -4.459      1.208      2.410
REMARK INTER + INTRA:          -8.220
REMARK INTER:                  -7.385
REMARK INTRA:                  -0.835
REMARK UNBOUND:                -0.633
REMARK SMILES CCCCCCCCCCCCCC(=O)[O-]
REMARK SMILES IDX 8 1 9 2 10 3 11 4 12 5 13 6 14 7 15 8 16 9 7 10 6 11 5 12
REMARK SMILES IDX 4 13 3 14 2 15 1 16
REMARK H PARENT
REMARK Flexibility Score: inf
ROOT
ATOM      1  C   UNL     1       6.823   3.213   0.387  1.00  0.00     0.000 C 
ENDROOT
BRANCH   1   2
ATOM      2  C   UNL     1       6.432   2.501  -0.917  1.00  0.00     0.000 C 
BRANCH   2   3
ATOM      3  C   UNL     1       6.129   1.007  -0.706  1.00  0.00     0.000 C 
BRANCH   3   4
ATOM      4  C   UNL     1       7.404   0.152  -0.632  1.00  0.00     0.000 C 
BRANCH   4   5
ATOM      5  C   UNL     1       8.450   0.559  -1.685  1.00  0.00     0.006 C 
BRANCH   5   6
ATOM      6  C   UNL     1       8.664  -0.532  -2.741  1.00  0.00     0.053 C 
BRANCH   6   7
ATOM      7  C   UNL     1       7.907  -0.239  -4.000  1.00  0.00     0.041 C 
ATOM      8  O   UNL     1       7.241   0.824  -4.108  1.00  0.00    -0.550 OA
ATOM      9  O   UNL     1       7.910  -1.157  -5.043  1.00  0.00    -0.550 OA
ENDBRANCH   6   7
ENDBRANCH   5   6
ENDBRANCH   4   5
ENDBRANCH   3   4
ENDBRANCH   2   3
ENDBRANCH   1   2
BRANCH   1  10
ATOM     10  C   UNL     1       8.092   4.065   0.238  1.00  0.00     0.000 C 
BRANCH  10  11
ATOM     11  C   UNL     1       8.776   4.275   1.595  1.00  0.00    -0.000 C 
BRANCH  11  12
ATOM     12  C   UNL     1       8.392   5.635   2.199  1.00  0.00    -0.000 C 
BRANCH  12  13
ATOM     13  C   UNL     1       7.793   6.597   1.159  1.00  0.00    -0.000 C 
BRANCH  13  14
ATOM     14  C   UNL     1       7.962   8.072   1.550  1.00  0.00    -0.000 C 
BRANCH  14  15
ATOM     15  C   UNL     1       8.109   8.222   3.069  1.00  0.00    -0.003 C 
ATOM     16  C   UNL     1       7.172   9.298   3.610  1.00  0.00     0.004 C 
ENDBRANCH  14  15
ENDBRANCH  13  14
ENDBRANCH  12  13
ENDBRANCH  11  12
ENDBRANCH  10  11
ENDBRANCH   1  10
TORSDOF 12
ENDMDL
MODEL 5
REMARK VINA RESULT:    -4.256     10.567     13.069
REMARK INTER + INTRA:          -7.875
REMARK INTER:                  -6.122
REMARK INTRA:                  -1.753
REMARK UNBOUND:                -0.633
REMARK SMILES CCCCCCCCCCCCCC(=O)[O-]
REMARK SMILES IDX 8 1 9 2 10 3 11 4 12 5 13 6 14 7 15 8 16 9 7 10 6 11 5 12
REMARK SMILES IDX 4 13 3 14 2 15 1 16
REMARK H PARENT
REMARK Flexibility Score: inf
ROOT
ATOM      1  C   UNL     1       3.677   5.996  10.799  1.00  0.00     0.000 C 
ENDROOT
BRANCH   1   2
ATOM      2  C   UNL     1       2.711   5.230   9.882  1.00  0.00     0.000 C 
BRANCH   2   3
ATOM      3  C   UNL     1       1.267   5.756   9.974  1.00  0.00     0.000 C 
BRANCH   3   4
ATOM      4  C   UNL     1       1.196   7.187  10.529  1.00  0.00     0.000 C 
BRANCH   4   5
ATOM      5  C   UNL     1       0.853   8.225   9.447  1.00  0.00     0.006 C 
BRANCH   5   6
ATOM      6  C   UNL     1       2.007   9.205   9.197  1.00  0.00     0.053 C 
BRANCH   6   7
ATOM      7  C   UNL     1       3.062   8.604   8.319  1.00  0.00     0.041 C 
ATOM      8  O   UNL     1       2.747   7.777   7.424  1.00  0.00    -0.550 OA
ATOM      9  O   UNL     1       4.398   8.932   8.513  1.00  0.00    -0.550 OA
ENDBRANCH   6   7
ENDBRANCH   5   6
ENDBRANCH   4   5
ENDBRANCH   3   4
ENDBRANCH   2   3
ENDBRANCH   1   2
BRANCH   1  10
ATOM     10  C   UNL     1       4.022   5.218  12.077  1.00  0.00     0.000 C 
BRANCH  10  11
ATOM     11  C   UNL     1       4.281   3.738  11.766  1.00  0.00    -0.000 C 
BRANCH  11  12
ATOM     12  C   UNL     1       3.875   2.849  12.952  1.00  0.00    -0.000 C 
BRANCH  12  13
ATOM     13  C   UNL     1       2.685   1.932  12.624  1.00  0.00    -0.000 C 
BRANCH  13  14
ATOM     14  C   UNL     1       1.340   2.675  12.656  1.00  0.00    -0.000 C 
BRANCH  14  15
ATOM     15  C   UNL     1       0.501   2.339  11.417  1.00  0.00    -0.003 C 
ATOM     16  C   UNL     1       1.382   1.857  10.268  1.00  0.00     0.004 C 
ENDBRANCH  14  15
ENDBRANCH  13  14
ENDBRANCH  12  13
ENDBRANCH  11  12
ENDBRANCH  10  11
ENDBRANCH   1  10
TORSDOF 12
ENDMDL
MODEL 6
REMARK VINA RESULT:    -4.250     10.352     13.115
REMARK INTER + INTRA:          -7.864
REMARK INTER:                  -6.870
REMARK INTRA:                  -0.994
REMARK UNBOUND:                -0.633
REMARK SMILES CCCCCCCCCCCCCC(=O)[O-]
REMARK SMILES IDX 8 1 9 2 10 3 11 4 12 5 13 6 14 7 15 8 16 9 7 10 6 11 5 12
REMARK SMILES IDX 4 13 3 14 2 15 1 16
REMARK H PARENT
REMARK Flexibility Score: inf
ROOT
ATOM      1  C   UNL     1       2.101   6.987   8.920  1.00  0.00     0.000 C 
ENDROOT
BRANCH   1   2
ATOM      2  C   UNL     1       1.275   8.112   8.276  1.00  0.00     0.000 C 
BRANCH   2   3
ATOM      3  C   UNL     1       0.618   9.033   9.318  1.00  0.00     0.000 C 
BRANCH   3   4
ATOM      4  C   UNL     1       1.560  10.149   9.796  1.00  0.00     0.000 C 
BRANCH   4   5
ATOM      5  C   UNL     1       2.608  10.532   8.737  1.00  0.00     0.006 C 
BRANCH   5   6
ATOM      6  C   UNL     1       4.042  10.373   9.257  1.00  0.00     0.053 C 
BRANCH   6   7
ATOM      7  C   UNL     1       4.907   9.637   8.279  1.00  0.00     0.041 C 
ATOM      8  O   UNL     1       4.429   9.237   7.185  1.00  0.00    -0.550 OA
ATOM      9  O   UNL     1       6.232   9.363   8.592  1.00  0.00    -0.550 OA
ENDBRANCH   6   7
ENDBRANCH   5   6
ENDBRANCH   4   5
ENDBRANCH   3   4
ENDBRANCH   2   3
ENDBRANCH   1   2
BRANCH   1  10
ATOM     10  C   UNL     1       1.238   6.009   9.730  1.00  0.00     0.000 C 
BRANCH  10  11
ATOM     11  C   UNL     1       1.679   5.974  11.199  1.00  0.00    -0.000 C 
BRANCH  11  12
ATOM     12  C   UNL     1       1.848   4.526  11.687  1.00  0.00    -0.000 C 
BRANCH  12  13
ATOM     13  C   UNL     1       2.003   3.525  10.530  1.00  0.00    -0.000 C 
BRANCH  13  14
ATOM     14  C   UNL     1       1.103   2.291  10.690  1.00  0.00    -0.000 C 
BRANCH  14  15
ATOM     15  C   UNL     1       0.978   1.892  12.165  1.00  0.00    -0.003 C 
ATOM     16  C   UNL     1      -0.483   1.717  12.567  1.00  0.00     0.004 C 
ENDBRANCH  14  15
ENDBRANCH  13  14
ENDBRANCH  12  13
ENDBRANCH  11  12
ENDBRANCH  10  11
ENDBRANCH   1  10
TORSDOF 12
ENDMDL
MODEL 7
REMARK VINA RESULT:    -4.242     10.730     12.822
REMARK INTER + INTRA:          -7.851
REMARK INTER:                  -6.107
REMARK INTRA:                  -1.745
REMARK UNBOUND:                -0.633
REMARK SMILES CCCCCCCCCCCCCC(=O)[O-]
REMARK SMILES IDX 8 1 9 2 10 3 11 4 12 5 13 6 14 7 15 8 16 9 7 10 6 11 5 12
REMARK SMILES IDX 4 13 3 14 2 15 1 16
REMARK H PARENT
REMARK Flexibility Score: inf
ROOT
ATOM      1  C   UNL     1       5.198   6.305  10.323  1.00  0.00     0.000 C 
ENDROOT
BRANCH   1   2
ATOM      2  C   UNL     1       4.652   6.831  11.660  1.00  0.00     0.000 C 
BRANCH   2   3
ATOM      3  C   UNL     1       3.336   7.612  11.495  1.00  0.00     0.000 C 
BRANCH   3   4
ATOM      4  C   UNL     1       2.097   6.721  11.669  1.00  0.00     0.000 C 
BRANCH   4   5
ATOM      5  C   UNL     1       1.087   6.880  10.519  1.00  0.00     0.006 C 
BRANCH   5   6
ATOM      6  C   UNL     1       1.715   6.584   9.151  1.00  0.00     0.053 C 
BRANCH   6   7
ATOM      7  C   UNL     1       1.887   7.832   8.340  1.00  0.00     0.041 C 
ATOM      8  O   UNL     1       2.896   7.975   7.601  1.00  0.00    -0.550 OA
ATOM      9  O   UNL     1       0.949   8.853   8.427  1.00  0.00    -0.550 OA
ENDBRANCH   6   7
ENDBRANCH   5   6
ENDBRANCH   4   5
ENDBRANCH   3   4
ENDBRANCH   2   3
ENDBRANCH   1   2
BRANCH   1  10
ATOM     10  C   UNL     1       4.930   4.807  10.123  1.00  0.00     0.000 C 
BRANCH  10  11
ATOM     11  C   UNL     1       4.915   4.067  11.466  1.00  0.00    -0.000 C 
BRANCH  11  12
ATOM     12  C   UNL     1       3.602   3.288  11.649  1.00  0.00    -0.000 C 
BRANCH  12  13
ATOM     13  C   UNL     1       2.743   3.268  10.374  1.00  0.00    -0.000 C 
BRANCH  13  14
ATOM     14  C   UNL     1       1.238   3.198  10.675  1.00  0.00    -0.000 C 
BRANCH  14  15
ATOM     15  C   UNL     1       0.857   1.828  11.248  1.00  0.00    -0.003 C 
ATOM     16  C   UNL     1      -0.308   1.945  12.226  1.00  0.00     0.004 C 
ENDBRANCH  14  15
ENDBRANCH  13  14
ENDBRANCH  12  13
ENDBRANCH  11  12
ENDBRANCH  10  11
ENDBRANCH   1  10
TORSDOF 12
ENDMDL
MODEL 8
REMARK VINA RESULT:    -4.217     10.840     12.739
REMARK INTER + INTRA:          -7.809
REMARK INTER:                  -6.132
REMARK INTRA:                  -1.677
REMARK UNBOUND:                -0.633
REMARK SMILES CCCCCCCCCCCCCC(=O)[O-]
REMARK SMILES IDX 8 1 9 2 10 3 11 4 12 5 13 6 14 7 15 8 16 9 7 10 6 11 5 12
REMARK SMILES IDX 4 13 3 14 2 15 1 16
REMARK H PARENT
REMARK Flexibility Score: inf
ROOT
ATOM      1  C   UNL     1       1.524   1.823  10.552  1.00  0.00     0.000 C 
ENDROOT
BRANCH   1   2
ATOM      2  C   UNL     1       1.073   3.135  11.213  1.00  0.00     0.000 C 
BRANCH   2   3
ATOM      3  C   UNL     1       1.556   4.379  10.446  1.00  0.00     0.000 C 
BRANCH   3   4
ATOM      4  C   UNL     1       1.630   5.629  11.336  1.00  0.00     0.000 C 
BRANCH   4   5
ATOM      5  C   UNL     1       1.532   6.936  10.531  1.00  0.00     0.006 C 
BRANCH   5   6
ATOM      6  C   UNL     1       1.818   6.720   9.040  1.00  0.00     0.053 C 
BRANCH   6   7
ATOM      7  C   UNL     1       1.973   8.021   8.313  1.00  0.00     0.041 C 
ATOM      8  O   UNL     1       1.032   8.857   8.298  1.00  0.00    -0.550 OA
ATOM      9  O   UNL     1       3.146   8.296   7.621  1.00  0.00    -0.550 OA
ENDBRANCH   6   7
ENDBRANCH   5   6
ENDBRANCH   4   5
ENDBRANCH   3   4
ENDBRANCH   2   3
ENDBRANCH   1   2
BRANCH   1  10
ATOM     10  C   UNL     1       2.702   1.165  11.286  1.00  0.00     0.000 C 
BRANCH  10  11
ATOM     11  C   UNL     1       2.863   1.746  12.696  1.00  0.00    -0.000 C 
BRANCH  11  12
ATOM     12  C   UNL     1       4.305   2.224  12.932  1.00  0.00    -0.000 C 
BRANCH  12  13
ATOM     13  C   UNL     1       4.468   3.738  12.719  1.00  0.00    -0.000 C 
BRANCH  13  14
ATOM     14  C   UNL     1       5.656   4.082  11.807  1.00  0.00    -0.000 C 
BRANCH  14  15
ATOM     15  C   UNL     1       5.172   4.687  10.483  1.00  0.00    -0.003 C 
ATOM     16  C   UNL     1       5.267   6.210  10.506  1.00  0.00     0.004 C 
ENDBRANCH  14  15
ENDBRANCH  13  14
ENDBRANCH  12  13
ENDBRANCH  11  12
ENDBRANCH  10  11
ENDBRANCH   1  10
TORSDOF 12
ENDMDL
MODEL 9
REMARK VINA RESULT:    -4.171     11.792     14.038
REMARK INTER + INTRA:          -7.730
REMARK INTER:                  -6.137
REMARK INTRA:                  -1.592
REMARK UNBOUND:                -0.633
REMARK SMILES CCCCCCCCCCCCCC(=O)[O-]
REMARK SMILES IDX 8 1 9 2 10 3 11 4 12 5 13 6 14 7 15 8 16 9 7 10 6 11 5 12
REMARK SMILES IDX 4 13 3 14 2 15 1 16
REMARK H PARENT
REMARK Flexibility Score: inf
ROOT
ATOM      1  C   UNL     1       1.627   5.707  11.254  1.00  0.00     0.000 C 
ENDROOT
BRANCH   1   2
ATOM      2  C   UNL     1       1.397   5.856   9.742  1.00  0.00     0.000 C 
BRANCH   2   3
ATOM      3  C   UNL     1       2.360   6.867   9.095  1.00  0.00     0.000 C 
BRANCH   3   4
ATOM      4  C   UNL     1       1.628   7.912   8.239  1.00  0.00     0.000 C 
BRANCH   4   5
ATOM      5  C   UNL     1       0.676   8.793   9.066  1.00  0.00     0.006 C 
BRANCH   5   6
ATOM      6  C   UNL     1       1.406   9.535  10.193  1.00  0.00     0.053 C 
BRANCH   6   7
ATOM      7  C   UNL     1       0.736   9.326  11.517  1.00  0.00     0.041 C 
ATOM      8  O   UNL     1       1.236   9.813  12.565  1.00  0.00    -0.550 OA
ATOM      9  O   UNL     1      -0.422   8.564  11.598  1.00  0.00    -0.550 OA
ENDBRANCH   6   7
ENDBRANCH   5   6
ENDBRANCH   4   5
ENDBRANCH   3   4
ENDBRANCH   2   3
ENDBRANCH   1   2
BRANCH   1  10
ATOM     10  C   UNL     1       3.099   5.448  11.606  1.00  0.00     0.000 C 
BRANCH  10  11
ATOM     11  C   UNL     1       3.222   4.391  12.710  1.00  0.00    -0.000 C 
BRANCH  11  12
ATOM     12  C   UNL     1       3.894   3.116  12.177  1.00  0.00    -0.000 C 
BRANCH  12  13
ATOM     13  C   UNL     1       2.903   1.954  12.000  1.00  0.00    -0.000 C 
BRANCH  13  14
ATOM     14  C   UNL     1       2.349   1.861  10.570  1.00  0.00    -0.000 C 
BRANCH  14  15
ATOM     15  C   UNL     1       0.844   2.154  10.546  1.00  0.00    -0.003 C 
ATOM     16  C   UNL     1       0.243   2.071  11.947  1.00  0.00     0.004 C 
ENDBRANCH  14  15
ENDBRANCH  13  14
ENDBRANCH  12  13
ENDBRANCH  11  12
ENDBRANCH  10  11
ENDBRANCH   1  10
TORSDOF 12
ENDMDL
