MODEL 1
REMARK VINA RESULT:    -6.494      0.000      0.000
REMARK INTER + INTRA:         -10.367
REMARK INTER:                  -9.152
REMARK INTRA:                  -1.215
REMARK UNBOUND:                -1.215
REMARK SMILES OC[C@@H]1O[C@@H](O[C@@H]2OC=C[C@@H]3[C@@H](O)[C@H]4O[C@@]4(CO)[C@@H]23)[C@H](O)[C@H](O)[C@@H]1O
REMARK SMILES IDX 6 1 7 2 10 3 9 4 11 5 8 6 19 7 12 8 16 9 14 10 15 11 13 12
REMARK SMILES IDX 17 14 18 15 5 17 20 18 4 19 22 20 3 21 24 22 21 23 23 25
REMARK SMILES IDX 2 27 1 28 25 30
REMARK H PARENT 13 13 18 16 21 24 23 26 1 29 25 31
REMARK Flexibility Score: inf
ROOT
ATOM      1  O   UNL     1     181.216 -19.296  26.590  1.00  0.00    -0.310 OA
ENDROOT
BRANCH   1   2
ATOM      2  C   UNL     1     180.589 -20.014  25.533  1.00  0.00     0.315 C 
ATOM      3  C   UNL     1     179.716 -22.541  24.401  1.00  0.00     0.018 C 
ATOM      4  C   UNL     1     179.017 -21.982  25.401  1.00  0.00     0.186 C 
ATOM      5  C   UNL     1     180.800 -21.722  23.773  1.00  0.00     0.059 C 
ATOM      6  O   UNL     1     179.401 -20.731  25.946  1.00  0.00    -0.472 OA
ATOM      7  C   UNL     1     181.565 -20.997  24.864  1.00  0.00     0.105 C 
ATOM      8  C   UNL     1     181.900 -22.415  22.978  1.00  0.00     0.154 C 
ATOM      9  C   UNL     1     182.816 -20.459  24.173  1.00  0.00     0.130 C 
ATOM     10  C   UNL     1     183.087 -21.440  23.084  1.00  0.00     0.183 C 
ATOM     11  O   UNL     1     182.735 -20.098  22.808  1.00  0.00    -0.360 OA
BRANCH   8  12
ATOM     12  O   UNL     1     181.535 -22.586  21.637  1.00  0.00    -0.390 OA
ATOM     13  H   UNL     1     182.238 -23.155  21.226  1.00  0.00     0.211 HD
ENDBRANCH   8  12
BRANCH   9  14
ATOM     14  C   UNL     1     184.061 -20.024  24.955  1.00  0.00     0.195 C 
BRANCH  14  15
ATOM     15  O   UNL     1     183.887 -20.235  26.330  1.00  0.00    -0.393 OA
ATOM     16  H   UNL     1     184.797 -20.240  26.725  1.00  0.00     0.210 HD
ENDBRANCH  14  15
ENDBRANCH   9  14
ENDBRANCH   1   2
BRANCH   1  17
ATOM     17  C   UNL     1     181.318 -17.885  26.421  1.00  0.00     0.286 C 
ATOM     18  C   UNL     1     180.178 -17.173  27.185  1.00  0.00     0.202 C 
ATOM     19  O   UNL     1     182.596 -17.388  26.793  1.00  0.00    -0.341 OA
ATOM     20  C   UNL     1     180.206 -15.664  26.903  1.00  0.00     0.179 C 
ATOM     21  C   UNL     1     182.754 -15.995  26.555  1.00  0.00     0.178 C 
ATOM     22  C   UNL     1     181.624 -15.117  27.169  1.00  0.00     0.177 C 
BRANCH  18  23
ATOM     23  O   UNL     1     178.921 -17.721  26.868  1.00  0.00    -0.385 OA
ATOM     24  H   UNL     1     178.812 -17.691  25.882  1.00  0.00     0.211 HD
ENDBRANCH  18  23
BRANCH  20  25
ATOM     25  O   UNL     1     179.798 -15.403  25.584  1.00  0.00    -0.387 OA
ATOM     26  H   UNL     1     179.600 -16.280  25.163  1.00  0.00     0.211 HD
ENDBRANCH  20  25
BRANCH  21  27
ATOM     27  C   UNL     1     183.146 -15.685  25.091  1.00  0.00     0.191 C 
BRANCH  27  28
ATOM     28  O   UNL     1     182.045 -15.734  24.225  1.00  0.00    -0.394 OA
ATOM     29  H   UNL     1     182.370 -15.502  23.316  1.00  0.00     0.210 HD
ENDBRANCH  27  28
ENDBRANCH  21  27
BRANCH  22  30
ATOM     30  O   UNL     1     181.741 -13.790  26.721  1.00  0.00    -0.387 OA
ATOM     31  H   UNL     1     182.108 -13.262  27.478  1.00  0.00     0.211 HD
ENDBRANCH  22  30
ENDBRANCH   1  17
TORSDOF 10
ENDMDL
MODEL 2
REMARK VINA RESULT:    -6.388      1.839      6.243
REMARK INTER + INTRA:         -10.217
REMARK INTER:                  -8.939
REMARK INTRA:                  -1.278
REMARK UNBOUND:                -1.215
REMARK SMILES OC[C@@H]1O[C@@H](O[C@@H]2OC=C[C@@H]3[C@@H](O)[C@H]4O[C@@]4(CO)[C@@H]23)[C@H](O)[C@H](O)[C@@H]1O
REMARK SMILES IDX 6 1 7 2 10 3 9 4 11 5 8 6 19 7 12 8 16 9 14 10 15 11 13 12
REMARK SMILES IDX 17 14 18 15 5 17 20 18 4 19 22 20 3 21 24 22 21 23 23 25
REMARK SMILES IDX 2 27 1 28 25 30
REMARK H PARENT 13 13 18 16 21 24 23 26 1 29 25 31
REMARK Flexibility Score: inf
ROOT
ATOM      1  O   UNL     1     181.061 -17.749  24.930  1.00  0.00    -0.310 OA
ENDROOT
BRANCH   1   2
ATOM      2  C   UNL     1     181.020 -16.801  25.991  1.00  0.00     0.315 C 
ATOM      3  C   UNL     1     180.461 -14.107  26.918  1.00  0.00     0.018 C 
ATOM      4  C   UNL     1     179.447 -14.950  26.667  1.00  0.00     0.186 C 
ATOM      5  C   UNL     1     181.847 -14.672  26.907  1.00  0.00     0.059 C 
ATOM      6  O   UNL     1     179.693 -16.281  26.251  1.00  0.00    -0.472 OA
ATOM      7  C   UNL     1     181.981 -15.629  25.738  1.00  0.00     0.105 C 
ATOM      8  C   UNL     1     183.038 -13.737  26.731  1.00  0.00     0.154 C 
ATOM      9  C   UNL     1     183.480 -15.898  25.623  1.00  0.00     0.130 C 
ATOM     10  C   UNL     1     184.120 -14.647  26.119  1.00  0.00     0.183 C 
ATOM     11  O   UNL     1     184.265 -15.879  26.799  1.00  0.00    -0.360 OA
BRANCH   8  12
ATOM     12  O   UNL     1     183.476 -13.227  27.960  1.00  0.00    -0.390 OA
ATOM     13  H   UNL     1     182.692 -12.777  28.371  1.00  0.00     0.211 HD
ENDBRANCH   8  12
BRANCH   9  14
ATOM     14  C   UNL     1     184.114 -16.469  24.348  1.00  0.00     0.195 C 
BRANCH  14  15
ATOM     15  O   UNL     1     183.980 -17.863  24.304  1.00  0.00    -0.393 OA
ATOM     16  H   UNL     1     183.024 -18.042  24.113  1.00  0.00     0.210 HD
ENDBRANCH  14  15
ENDBRANCH   9  14
ENDBRANCH   1   2
BRANCH   1  17
ATOM     17  C   UNL     1     180.860 -19.112  25.292  1.00  0.00     0.286 C 
ATOM     18  C   UNL     1     179.437 -19.565  24.894  1.00  0.00     0.202 C 
ATOM     19  O   UNL     1     181.858 -19.966  24.751  1.00  0.00    -0.341 OA
ATOM     20  C   UNL     1     179.170 -20.991  25.395  1.00  0.00     0.179 C 
ATOM     21  C   UNL     1     181.732 -21.321  25.167  1.00  0.00     0.178 C 
ATOM     22  C   UNL     1     180.313 -21.921  24.938  1.00  0.00     0.177 C 
BRANCH  18  23
ATOM     23  O   UNL     1     178.458 -18.673  25.369  1.00  0.00    -0.385 OA
ATOM     24  H   UNL     1     178.733 -17.753  25.119  1.00  0.00     0.211 HD
ENDBRANCH  18  23
BRANCH  20  25
ATOM     25  O   UNL     1     179.032 -21.002  26.794  1.00  0.00    -0.387 OA
ATOM     26  H   UNL     1     179.788 -20.477  27.164  1.00  0.00     0.211 HD
ENDBRANCH  20  25
BRANCH  21  27
ATOM     27  C   UNL     1     182.371 -21.578  26.551  1.00  0.00     0.191 C 
BRANCH  27  28
ATOM     28  O   UNL     1     183.581 -22.280  26.455  1.00  0.00    -0.394 OA
ATOM     29  H   UNL     1     184.301 -21.614  26.300  1.00  0.00     0.210 HD
ENDBRANCH  27  28
ENDBRANCH  21  27
BRANCH  22  30
ATOM     30  O   UNL     1     180.212 -23.180  25.553  1.00  0.00    -0.387 OA
ATOM     31  H   UNL     1     179.571 -23.713  25.014  1.00  0.00     0.211 HD
ENDBRANCH  22  30
ENDBRANCH   1  17
TORSDOF 10
ENDMDL
MODEL 3
REMARK VINA RESULT:    -6.372      1.383      6.614
REMARK INTER + INTRA:         -10.194
REMARK INTER:                  -8.846
REMARK INTRA:                  -1.348
REMARK UNBOUND:                -1.215
REMARK SMILES OC[C@@H]1O[C@@H](O[C@@H]2OC=C[C@@H]3[C@@H](O)[C@H]4O[C@@]4(CO)[C@@H]23)[C@H](O)[C@H](O)[C@@H]1O
REMARK SMILES IDX 6 1 7 2 10 3 9 4 11 5 8 6 19 7 12 8 16 9 14 10 15 11 13 12
REMARK SMILES IDX 17 14 18 15 5 17 20 18 4 19 22 20 3 21 24 22 21 23 23 25
REMARK SMILES IDX 2 27 1 28 25 30
REMARK H PARENT 13 13 18 16 21 24 23 26 1 29 25 31
REMARK Flexibility Score: inf
ROOT
ATOM      1  O   UNL     1     182.506 -19.237  25.821  1.00  0.00    -0.310 OA
ENDROOT
BRANCH   1   2
ATOM      2  C   UNL     1     182.262 -17.917  25.346  1.00  0.00     0.315 C 
ATOM      3  C   UNL     1     182.672 -15.053  25.595  1.00  0.00     0.018 C 
ATOM      4  C   UNL     1     183.650 -15.827  25.098  1.00  0.00     0.186 C 
ATOM      5  C   UNL     1     181.330 -15.685  25.801  1.00  0.00     0.059 C 
ATOM      6  O   UNL     1     183.462 -17.221  24.931  1.00  0.00    -0.472 OA
ATOM      7  C   UNL     1     181.521 -17.069  26.393  1.00  0.00     0.105 C 
ATOM      8  C   UNL     1     180.332 -15.034  26.752  1.00  0.00     0.154 C 
ATOM      9  C   UNL     1     180.129 -17.492  26.855  1.00  0.00     0.130 C 
ATOM     10  C   UNL     1     179.451 -16.213  27.207  1.00  0.00     0.183 C 
ATOM     11  O   UNL     1     179.004 -17.023  26.137  1.00  0.00    -0.360 OA
BRANCH   8  12
ATOM     12  O   UNL     1     179.551 -14.073  26.098  1.00  0.00    -0.390 OA
ATOM     13  H   UNL     1     179.121 -14.537  25.332  1.00  0.00     0.211 HD
ENDBRANCH   8  12
BRANCH   9  14
ATOM     14  C   UNL     1     179.911 -18.622  27.868  1.00  0.00     0.195 C 
BRANCH  14  15
ATOM     15  O   UNL     1     181.135 -19.108  28.347  1.00  0.00    -0.393 OA
ATOM     16  H   UNL     1     181.033 -20.092  28.417  1.00  0.00     0.210 HD
ENDBRANCH  14  15
ENDBRANCH   9  14
ENDBRANCH   1   2
BRANCH   1  17
ATOM     17  C   UNL     1     181.830 -20.289  25.139  1.00  0.00     0.286 C 
ATOM     18  C   UNL     1     182.802 -21.014  24.181  1.00  0.00     0.202 C 
ATOM     19  O   UNL     1     181.196 -21.192  26.035  1.00  0.00    -0.341 OA
ATOM     20  C   UNL     1     182.051 -22.064  23.351  1.00  0.00     0.179 C 
ATOM     21  C   UNL     1     180.442 -22.205  25.379  1.00  0.00     0.178 C 
ATOM     22  C   UNL     1     181.240 -22.980  24.290  1.00  0.00     0.177 C 
BRANCH  18  23
ATOM     23  O   UNL     1     183.482 -20.106  23.349  1.00  0.00    -0.385 OA
ATOM     24  H   UNL     1     184.451 -20.161  23.560  1.00  0.00     0.211 HD
ENDBRANCH  18  23
BRANCH  20  25
ATOM     25  O   UNL     1     181.220 -21.439  22.406  1.00  0.00    -0.387 OA
ATOM     26  H   UNL     1     180.292 -21.738  22.592  1.00  0.00     0.211 HD
ENDBRANCH  20  25
BRANCH  21  27
ATOM     27  C   UNL     1     179.026 -21.726  24.983  1.00  0.00     0.191 C 
BRANCH  27  28
ATOM     28  O   UNL     1     178.078 -22.758  25.047  1.00  0.00    -0.394 OA
ATOM     29  H   UNL     1     177.931 -22.968  26.006  1.00  0.00     0.210 HD
ENDBRANCH  27  28
ENDBRANCH  21  27
BRANCH  22  30
ATOM     30  O   UNL     1     180.379 -23.814  23.557  1.00  0.00    -0.387 OA
ATOM     31  H   UNL     1     179.512 -23.335  23.479  1.00  0.00     0.211 HD
ENDBRANCH  22  30
ENDBRANCH   1  17
TORSDOF 10
ENDMDL
MODEL 4
REMARK VINA RESULT:    -6.306      1.583      6.511
REMARK INTER + INTRA:         -10.102
REMARK INTER:                  -9.071
REMARK INTRA:                  -1.032
REMARK UNBOUND:                -1.215
REMARK SMILES OC[C@@H]1O[C@@H](O[C@@H]2OC=C[C@@H]3[C@@H](O)[C@H]4O[C@@]4(CO)[C@@H]23)[C@H](O)[C@H](O)[C@@H]1O
REMARK SMILES IDX 6 1 7 2 10 3 9 4 11 5 8 6 19 7 12 8 16 9 14 10 15 11 13 12
REMARK SMILES IDX 17 14 18 15 5 17 20 18 4 19 22 20 3 21 24 22 21 23 23 25
REMARK SMILES IDX 2 27 1 28 25 30
REMARK H PARENT 13 13 18 16 21 24 23 26 1 29 25 31
REMARK Flexibility Score: inf
ROOT
ATOM      1  O   UNL     1     181.716 -18.015  25.159  1.00  0.00    -0.310 OA
ENDROOT
BRANCH   1   2
ATOM      2  C   UNL     1     181.160 -17.184  26.173  1.00  0.00     0.315 C 
ATOM      3  C   UNL     1     179.526 -14.903  26.920  1.00  0.00     0.018 C 
ATOM      4  C   UNL     1     178.938 -16.043  26.523  1.00  0.00     0.186 C 
ATOM      5  C   UNL     1     181.003 -14.935  27.160  1.00  0.00     0.059 C 
ATOM      6  O   UNL     1     179.712 -17.182  26.190  1.00  0.00    -0.472 OA
ATOM      7  C   UNL     1     181.665 -15.737  26.056  1.00  0.00     0.105 C 
ATOM      8  C   UNL     1     181.791 -13.630  27.164  1.00  0.00     0.154 C 
ATOM      9  C   UNL     1     183.157 -15.448  26.204  1.00  0.00     0.130 C 
ATOM     10  C   UNL     1     183.213 -14.070  26.768  1.00  0.00     0.183 C 
ATOM     11  O   UNL     1     183.674 -15.193  27.496  1.00  0.00    -0.360 OA
BRANCH   8  12
ATOM     12  O   UNL     1     181.804 -13.042  28.435  1.00  0.00    -0.390 OA
ATOM     13  H   UNL     1     181.037 -12.412  28.460  1.00  0.00     0.211 HD
ENDBRANCH   8  12
BRANCH   9  14
ATOM     14  C   UNL     1     184.158 -15.707  25.071  1.00  0.00     0.195 C 
BRANCH  14  15
ATOM     15  O   UNL     1     183.504 -16.167  23.920  1.00  0.00    -0.393 OA
ATOM     16  H   UNL     1     183.115 -15.364  23.486  1.00  0.00     0.210 HD
ENDBRANCH  14  15
ENDBRANCH   9  14
ENDBRANCH   1   2
BRANCH   1  17
ATOM     17  C   UNL     1     181.333 -19.386  25.187  1.00  0.00     0.286 C 
ATOM     18  C   UNL     1     181.840 -20.107  23.917  1.00  0.00     0.202 C 
ATOM     19  O   UNL     1     181.758 -20.041  26.373  1.00  0.00    -0.341 OA
ATOM     20  C   UNL     1     181.323 -21.552  23.879  1.00  0.00     0.179 C 
ATOM     21  C   UNL     1     181.316 -21.390  26.466  1.00  0.00     0.178 C 
ATOM     22  C   UNL     1     181.651 -22.252  25.214  1.00  0.00     0.177 C 
BRANCH  18  23
ATOM     23  O   UNL     1     181.480 -19.411  22.748  1.00  0.00    -0.385 OA
ATOM     24  H   UNL     1     181.051 -20.055  22.126  1.00  0.00     0.211 HD
ENDBRANCH  18  23
BRANCH  20  25
ATOM     25  O   UNL     1     179.943 -21.572  23.618  1.00  0.00    -0.387 OA
ATOM     26  H   UNL     1     179.799 -21.075  22.771  1.00  0.00     0.211 HD
ENDBRANCH  20  25
BRANCH  21  27
ATOM     27  C   UNL     1     179.874 -21.505  27.013  1.00  0.00     0.191 C 
BRANCH  27  28
ATOM     28  O   UNL     1     178.961 -21.898  26.024  1.00  0.00    -0.394 OA
ATOM     29  H   UNL     1     178.788 -22.868  26.146  1.00  0.00     0.210 HD
ENDBRANCH  27  28
ENDBRANCH  21  27
BRANCH  22  30
ATOM     30  O   UNL     1     181.010 -23.500  25.295  1.00  0.00    -0.387 OA
ATOM     31  H   UNL     1     180.441 -23.584  24.486  1.00  0.00     0.211 HD
ENDBRANCH  22  30
ENDBRANCH   1  17
TORSDOF 10
ENDMDL
MODEL 5
REMARK VINA RESULT:    -6.263      1.950      3.405
REMARK INTER + INTRA:         -10.041
REMARK INTER:                  -8.969
REMARK INTRA:                  -1.072
REMARK UNBOUND:                -1.215
REMARK SMILES OC[C@@H]1O[C@@H](O[C@@H]2OC=C[C@@H]3[C@@H](O)[C@H]4O[C@@]4(CO)[C@@H]23)[C@H](O)[C@H](O)[C@@H]1O
REMARK SMILES IDX 6 1 7 2 10 3 9 4 11 5 8 6 19 7 12 8 16 9 14 10 15 11 13 12
REMARK SMILES IDX 17 14 18 15 5 17 20 18 4 19 22 20 3 21 24 22 21 23 23 25
REMARK SMILES IDX 2 27 1 28 25 30
REMARK H PARENT 13 13 18 16 21 24 23 26 1 29 25 31
REMARK Flexibility Score: inf
ROOT
ATOM      1  O   UNL     1     181.345 -18.278  26.530  1.00  0.00    -0.310 OA
ENDROOT
BRANCH   1   2
ATOM      2  C   UNL     1     182.691 -18.429  26.092  1.00  0.00     0.315 C 
ATOM      3  C   UNL     1     184.615 -18.555  23.921  1.00  0.00     0.018 C 
ATOM      4  C   UNL     1     184.110 -17.369  24.297  1.00  0.00     0.186 C 
ATOM      5  C   UNL     1     184.317 -19.738  24.788  1.00  0.00     0.059 C 
ATOM      6  O   UNL     1     183.199 -17.276  25.377  1.00  0.00    -0.472 OA
ATOM      7  C   UNL     1     182.863 -19.681  25.217  1.00  0.00     0.105 C 
ATOM      8  C   UNL     1     184.456 -21.143  24.214  1.00  0.00     0.154 C 
ATOM      9  C   UNL     1     182.576 -21.058  25.812  1.00  0.00     0.130 C 
ATOM     10  C   UNL     1     183.485 -21.977  25.071  1.00  0.00     0.183 C 
ATOM     11  O   UNL     1     183.627 -21.749  26.460  1.00  0.00    -0.360 OA
BRANCH   8  12
ATOM     12  O   UNL     1     185.762 -21.628  24.356  1.00  0.00    -0.390 OA
ATOM     13  H   UNL     1     186.325 -20.848  24.604  1.00  0.00     0.211 HD
ENDBRANCH   8  12
BRANCH   9  14
ATOM     14  C   UNL     1     181.150 -21.591  25.994  1.00  0.00     0.195 C 
BRANCH  14  15
ATOM     15  O   UNL     1     180.218 -20.750  25.371  1.00  0.00    -0.393 OA
ATOM     16  H   UNL     1     179.767 -20.251  26.099  1.00  0.00     0.210 HD
ENDBRANCH  14  15
ENDBRANCH   9  14
ENDBRANCH   1   2
BRANCH   1  17
ATOM     17  C   UNL     1     180.897 -16.943  26.748  1.00  0.00     0.286 C 
ATOM     18  C   UNL     1     179.354 -16.907  26.836  1.00  0.00     0.202 C 
ATOM     19  O   UNL     1     181.507 -16.349  27.885  1.00  0.00    -0.341 OA
ATOM     20  C   UNL     1     178.859 -15.458  26.943  1.00  0.00     0.179 C 
ATOM     21  C   UNL     1     181.143 -14.988  28.078  1.00  0.00     0.178 C 
ATOM     22  C   UNL     1     179.605 -14.741  28.088  1.00  0.00     0.177 C 
BRANCH  18  23
ATOM     23  O   UNL     1     178.758 -17.564  25.744  1.00  0.00    -0.385 OA
ATOM     24  H   UNL     1     179.003 -18.524  25.792  1.00  0.00     0.211 HD
ENDBRANCH  18  23
BRANCH  20  25
ATOM     25  O   UNL     1     179.036 -14.787  25.721  1.00  0.00    -0.387 OA
ATOM     26  H   UNL     1     178.710 -15.394  25.007  1.00  0.00     0.211 HD
ENDBRANCH  20  25
BRANCH  21  27
ATOM     27  C   UNL     1     181.988 -14.021  27.216  1.00  0.00     0.191 C 
BRANCH  27  28
ATOM     28  O   UNL     1     181.987 -12.715  27.727  1.00  0.00    -0.394 OA
ATOM     29  H   UNL     1     182.845 -12.581  28.207  1.00  0.00     0.210 HD
ENDBRANCH  27  28
ENDBRANCH  21  27
BRANCH  22  30
ATOM     30  O   UNL     1     179.333 -13.363  28.078  1.00  0.00    -0.387 OA
ATOM     31  H   UNL     1     179.192 -13.090  29.022  1.00  0.00     0.211 HD
ENDBRANCH  22  30
ENDBRANCH   1  17
TORSDOF 10
ENDMDL
MODEL 6
REMARK VINA RESULT:    -6.227      2.109      4.084
REMARK INTER + INTRA:          -9.991
REMARK INTER:                  -8.614
REMARK INTRA:                  -1.377
REMARK UNBOUND:                -1.215
REMARK SMILES OC[C@@H]1O[C@@H](O[C@@H]2OC=C[C@@H]3[C@@H](O)[C@H]4O[C@@]4(CO)[C@@H]23)[C@H](O)[C@H](O)[C@@H]1O
REMARK SMILES IDX 6 1 7 2 10 3 9 4 11 5 8 6 19 7 12 8 16 9 14 10 15 11 13 12
REMARK SMILES IDX 17 14 18 15 5 17 20 18 4 19 22 20 3 21 24 22 21 23 23 25
REMARK SMILES IDX 2 27 1 28 25 30
REMARK H PARENT 13 13 18 16 21 24 23 26 1 29 25 31
REMARK Flexibility Score: inf
ROOT
ATOM      1  O   UNL     1     180.271 -17.669  27.426  1.00  0.00    -0.310 OA
ENDROOT
BRANCH   1   2
ATOM      2  C   UNL     1     181.484 -17.995  26.754  1.00  0.00     0.315 C 
ATOM      3  C   UNL     1     183.323 -17.542  24.554  1.00  0.00     0.018 C 
ATOM      4  C   UNL     1     183.280 -16.674  25.577  1.00  0.00     0.186 C 
ATOM      5  C   UNL     1     182.563 -18.823  24.704  1.00  0.00     0.059 C 
ATOM      6  O   UNL     1     182.418 -16.892  26.681  1.00  0.00    -0.472 OA
ATOM      7  C   UNL     1     181.217 -18.527  25.337  1.00  0.00     0.105 C 
ATOM      8  C   UNL     1     182.195 -19.627  23.462  1.00  0.00     0.154 C 
ATOM      9  C   UNL     1     180.409 -19.810  25.156  1.00  0.00     0.130 C 
ATOM     10  C   UNL     1     180.943 -20.410  23.900  1.00  0.00     0.183 C 
ATOM     11  O   UNL     1     181.094 -21.048  25.154  1.00  0.00    -0.360 OA
BRANCH   8  12
ATOM     12  O   UNL     1     183.218 -20.514  23.103  1.00  0.00    -0.390 OA
ATOM     13  H   UNL     1     184.070 -20.083  23.375  1.00  0.00     0.211 HD
ENDBRANCH   8  12
BRANCH   9  14
ATOM     14  C   UNL     1     178.880 -19.838  25.268  1.00  0.00     0.195 C 
BRANCH  14  15
ATOM     15  O   UNL     1     178.363 -18.541  25.387  1.00  0.00    -0.393 OA
ATOM     16  H   UNL     1     178.932 -18.078  26.055  1.00  0.00     0.210 HD
ENDBRANCH  14  15
ENDBRANCH   9  14
ENDBRANCH   1   2
BRANCH   1  17
ATOM     17  C   UNL     1     180.173 -16.346  27.946  1.00  0.00     0.286 C 
ATOM     18  C   UNL     1     179.123 -15.538  27.150  1.00  0.00     0.202 C 
ATOM     19  O   UNL     1     179.906 -16.333  29.341  1.00  0.00    -0.341 OA
ATOM     20  C   UNL     1     179.103 -14.077  27.620  1.00  0.00     0.179 C 
ATOM     21  C   UNL     1     179.887 -15.026  29.902  1.00  0.00     0.178 C 
ATOM     22  C   UNL     1     178.951 -14.032  29.155  1.00  0.00     0.177 C 
BRANCH  18  23
ATOM     23  O   UNL     1     179.350 -15.619  25.763  1.00  0.00    -0.385 OA
ATOM     24  H   UNL     1     179.468 -14.697  25.417  1.00  0.00     0.211 HD
ENDBRANCH  18  23
BRANCH  20  25
ATOM     25  O   UNL     1     180.269 -13.412  27.204  1.00  0.00    -0.387 OA
ATOM     26  H   UNL     1     180.127 -13.139  26.260  1.00  0.00     0.211 HD
ENDBRANCH  20  25
BRANCH  21  27
ATOM     27  C   UNL     1     181.304 -14.509  30.247  1.00  0.00     0.191 C 
BRANCH  27  28
ATOM     28  O   UNL     1     181.295 -13.622  31.333  1.00  0.00    -0.394 OA
ATOM     29  H   UNL     1     181.798 -14.052  32.074  1.00  0.00     0.210 HD
ENDBRANCH  27  28
ENDBRANCH  21  27
BRANCH  22  30
ATOM     30  O   UNL     1     179.142 -12.726  29.638  1.00  0.00    -0.387 OA
ATOM     31  H   UNL     1     180.122 -12.583  29.702  1.00  0.00     0.211 HD
ENDBRANCH  22  30
ENDBRANCH   1  17
TORSDOF 10
ENDMDL
MODEL 7
REMARK VINA RESULT:    -6.197      2.025      3.278
REMARK INTER + INTRA:          -9.948
REMARK INTER:                  -8.804
REMARK INTRA:                  -1.143
REMARK UNBOUND:                -1.215
REMARK SMILES OC[C@@H]1O[C@@H](O[C@@H]2OC=C[C@@H]3[C@@H](O)[C@H]4O[C@@]4(CO)[C@@H]23)[C@H](O)[C@H](O)[C@@H]1O
REMARK SMILES IDX 6 1 7 2 10 3 9 4 11 5 8 6 19 7 12 8 16 9 14 10 15 11 13 12
REMARK SMILES IDX 17 14 18 15 5 17 20 18 4 19 22 20 3 21 24 22 21 23 23 25
REMARK SMILES IDX 2 27 1 28 25 30
REMARK H PARENT 13 13 18 16 21 24 23 26 1 29 25 31
REMARK Flexibility Score: inf
ROOT
ATOM      1  O   UNL     1     181.073 -17.787  26.952  1.00  0.00    -0.310 OA
ENDROOT
BRANCH   1   2
ATOM      2  C   UNL     1     180.258 -18.944  26.801  1.00  0.00     0.315 C 
ATOM      3  C   UNL     1     179.825 -21.777  27.271  1.00  0.00     0.018 C 
ATOM      4  C   UNL     1     179.648 -20.899  28.272  1.00  0.00     0.186 C 
ATOM      5  C   UNL     1     180.035 -21.222  25.896  1.00  0.00     0.059 C 
ATOM      6  O   UNL     1     179.816 -19.509  28.059  1.00  0.00    -0.472 OA
ATOM      7  C   UNL     1     180.971 -20.032  25.981  1.00  0.00     0.105 C 
ATOM      8  C   UNL     1     180.676 -22.095  24.825  1.00  0.00     0.154 C 
ATOM      9  C   UNL     1     181.370 -19.744  24.536  1.00  0.00     0.130 C 
ATOM     10  C   UNL     1     181.313 -21.073  23.865  1.00  0.00     0.183 C 
ATOM     11  O   UNL     1     180.438 -20.021  23.508  1.00  0.00    -0.360 OA
BRANCH   8  12
ATOM     12  O   UNL     1     179.721 -22.863  24.147  1.00  0.00    -0.390 OA
ATOM     13  H   UNL     1     179.513 -23.635  24.737  1.00  0.00     0.211 HD
ENDBRANCH   8  12
BRANCH   9  14
ATOM     14  C   UNL     1     182.604 -18.908  24.178  1.00  0.00     0.195 C 
BRANCH  14  15
ATOM     15  O   UNL     1     182.306 -17.538  24.205  1.00  0.00    -0.393 OA
ATOM     16  H   UNL     1     182.907 -17.113  23.541  1.00  0.00     0.210 HD
ENDBRANCH  14  15
ENDBRANCH   9  14
ENDBRANCH   1   2
BRANCH   1  17
ATOM     17  C   UNL     1     180.390 -16.562  27.203  1.00  0.00     0.286 C 
ATOM     18  C   UNL     1     181.196 -15.375  26.628  1.00  0.00     0.202 C 
ATOM     19  O   UNL     1     179.055 -16.580  26.718  1.00  0.00    -0.341 OA
ATOM     20  C   UNL     1     180.531 -14.044  27.006  1.00  0.00     0.179 C 
ATOM     21  C   UNL     1     178.322 -15.401  27.029  1.00  0.00     0.178 C 
ATOM     22  C   UNL     1     179.039 -14.084  26.613  1.00  0.00     0.177 C 
BRANCH  18  23
ATOM     23  O   UNL     1     182.538 -15.407  27.053  1.00  0.00    -0.385 OA
ATOM     24  H   UNL     1     182.602 -14.903  27.906  1.00  0.00     0.211 HD
ENDBRANCH  18  23
BRANCH  20  25
ATOM     25  O   UNL     1     180.691 -13.788  28.378  1.00  0.00    -0.387 OA
ATOM     26  H   UNL     1     180.383 -14.597  28.863  1.00  0.00     0.211 HD
ENDBRANCH  20  25
BRANCH  21  27
ATOM     27  C   UNL     1     177.722 -15.436  28.454  1.00  0.00     0.191 C 
BRANCH  27  28
ATOM     28  O   UNL     1     176.394 -14.986  28.483  1.00  0.00    -0.394 OA
ATOM     29  H   UNL     1     175.864 -15.651  28.995  1.00  0.00     0.210 HD
ENDBRANCH  27  28
ENDBRANCH  21  27
BRANCH  22  30
ATOM     30  O   UNL     1     178.355 -12.972  27.132  1.00  0.00    -0.387 OA
ATOM     31  H   UNL     1     177.550 -12.839  26.566  1.00  0.00     0.211 HD
ENDBRANCH  22  30
ENDBRANCH   1  17
TORSDOF 10
ENDMDL
MODEL 8
REMARK VINA RESULT:    -6.183      2.035      3.313
REMARK INTER + INTRA:          -9.928
REMARK INTER:                  -8.910
REMARK INTRA:                  -1.018
REMARK UNBOUND:                -1.215
REMARK SMILES OC[C@@H]1O[C@@H](O[C@@H]2OC=C[C@@H]3[C@@H](O)[C@H]4O[C@@]4(CO)[C@@H]23)[C@H](O)[C@H](O)[C@@H]1O
REMARK SMILES IDX 6 1 7 2 10 3 9 4 11 5 8 6 19 7 12 8 16 9 14 10 15 11 13 12
REMARK SMILES IDX 17 14 18 15 5 17 20 18 4 19 22 20 3 21 24 22 21 23 23 25
REMARK SMILES IDX 2 27 1 28 25 30
REMARK H PARENT 13 13 18 16 21 24 23 26 1 29 25 31
REMARK Flexibility Score: inf
ROOT
ATOM      1  O   UNL     1     181.584 -18.115  26.331  1.00  0.00    -0.310 OA
ENDROOT
BRANCH   1   2
ATOM      2  C   UNL     1     181.202 -19.162  27.217  1.00  0.00     0.315 C 
ATOM      3  C   UNL     1     181.812 -21.687  28.514  1.00  0.00     0.018 C 
ATOM      4  C   UNL     1     182.395 -20.557  28.945  1.00  0.00     0.186 C 
ATOM      5  C   UNL     1     180.707 -21.555  27.513  1.00  0.00     0.059 C 
ATOM      6  O   UNL     1     182.086 -19.308  28.354  1.00  0.00    -0.472 OA
ATOM      7  C   UNL     1     181.095 -20.510  26.484  1.00  0.00     0.105 C 
ATOM      8  C   UNL     1     180.319 -22.756  26.659  1.00  0.00     0.154 C 
ATOM      9  C   UNL     1     180.078 -20.673  25.357  1.00  0.00     0.130 C 
ATOM     10  C   UNL     1     179.712 -22.117  25.396  1.00  0.00     0.183 C 
ATOM     11  O   UNL     1     178.770 -21.102  25.681  1.00  0.00    -0.360 OA
BRANCH   8  12
ATOM     12  O   UNL     1     179.365 -23.556  27.301  1.00  0.00    -0.390 OA
ATOM     13  H   UNL     1     179.868 -24.283  27.753  1.00  0.00     0.211 HD
ENDBRANCH   8  12
BRANCH   9  14
ATOM     14  C   UNL     1     180.323 -20.122  23.947  1.00  0.00     0.195 C 
BRANCH  14  15
ATOM     15  O   UNL     1     181.620 -19.605  23.830  1.00  0.00    -0.393 OA
ATOM     16  H   UNL     1     181.514 -18.648  23.593  1.00  0.00     0.210 HD
ENDBRANCH  14  15
ENDBRANCH   9  14
ENDBRANCH   1   2
BRANCH   1  17
ATOM     17  C   UNL     1     181.094 -16.814  26.642  1.00  0.00     0.286 C 
ATOM     18  C   UNL     1     179.564 -16.858  26.859  1.00  0.00     0.202 C 
ATOM     19  O   UNL     1     181.769 -16.235  27.750  1.00  0.00    -0.341 OA
ATOM     20  C   UNL     1     179.013 -15.441  27.069  1.00  0.00     0.179 C 
ATOM     21  C   UNL     1     181.360 -14.902  28.031  1.00  0.00     0.178 C 
ATOM     22  C   UNL     1     179.819 -14.733  28.178  1.00  0.00     0.177 C 
BRANCH  18  23
ATOM     23  O   UNL     1     178.909 -17.501  25.792  1.00  0.00    -0.385 OA
ATOM     24  H   UNL     1     179.548 -18.136  25.377  1.00  0.00     0.211 HD
ENDBRANCH  18  23
BRANCH  20  25
ATOM     25  O   UNL     1     179.055 -14.715  25.866  1.00  0.00    -0.387 OA
ATOM     26  H   UNL     1     179.953 -14.297  25.810  1.00  0.00     0.211 HD
ENDBRANCH  20  25
BRANCH  21  27
ATOM     27  C   UNL     1     182.083 -13.861  27.145  1.00  0.00     0.191 C 
BRANCH  27  28
ATOM     28  O   UNL     1     182.114 -12.590  27.737  1.00  0.00    -0.394 OA
ATOM     29  H   UNL     1     182.311 -11.932  27.021  1.00  0.00     0.210 HD
ENDBRANCH  27  28
ENDBRANCH  21  27
BRANCH  22  30
ATOM     30  O   UNL     1     179.483 -13.371  28.250  1.00  0.00    -0.387 OA
ATOM     31  H   UNL     1     180.325 -12.860  28.123  1.00  0.00     0.211 HD
ENDBRANCH  22  30
ENDBRANCH   1  17
TORSDOF 10
ENDMDL
MODEL 9
REMARK VINA RESULT:    -6.150      1.640      6.513
REMARK INTER + INTRA:          -9.882
REMARK INTER:                  -8.476
REMARK INTRA:                  -1.405
REMARK UNBOUND:                -1.215
REMARK SMILES OC[C@@H]1O[C@@H](O[C@@H]2OC=C[C@@H]3[C@@H](O)[C@H]4O[C@@]4(CO)[C@@H]23)[C@H](O)[C@H](O)[C@@H]1O
REMARK SMILES IDX 6 1 7 2 10 3 9 4 11 5 8 6 19 7 12 8 16 9 14 10 15 11 13 12
REMARK SMILES IDX 17 14 18 15 5 17 20 18 4 19 22 20 3 21 24 22 21 23 23 25
REMARK SMILES IDX 2 27 1 28 25 30
REMARK H PARENT 13 13 18 16 21 24 23 26 1 29 25 31
REMARK Flexibility Score: inf
ROOT
ATOM      1  O   UNL     1     180.737 -18.494  25.543  1.00  0.00    -0.310 OA
ENDROOT
BRANCH   1   2
ATOM      2  C   UNL     1     181.652 -17.522  25.048  1.00  0.00     0.315 C 
ATOM      3  C   UNL     1     184.341 -16.431  24.968  1.00  0.00     0.018 C 
ATOM      4  C   UNL     1     184.059 -17.560  24.299  1.00  0.00     0.186 C 
ATOM      5  C   UNL     1     183.192 -15.672  25.556  1.00  0.00     0.059 C 
ATOM      6  O   UNL     1     182.746 -18.092  24.290  1.00  0.00    -0.472 OA
ATOM      7  C   UNL     1     182.220 -16.653  26.181  1.00  0.00     0.105 C 
ATOM      8  C   UNL     1     183.448 -14.672  26.677  1.00  0.00     0.154 C 
ATOM      9  C   UNL     1     181.274 -15.791  27.013  1.00  0.00     0.130 C 
ATOM     10  C   UNL     1     182.104 -14.626  27.429  1.00  0.00     0.183 C 
ATOM     11  O   UNL     1     180.989 -14.477  26.572  1.00  0.00    -0.360 OA
BRANCH   8  12
ATOM     12  O   UNL     1     183.762 -13.403  26.172  1.00  0.00    -0.390 OA
ATOM     13  H   UNL     1     184.553 -13.525  25.583  1.00  0.00     0.211 HD
ENDBRANCH   8  12
BRANCH   9  14
ATOM     14  C   UNL     1     180.401 -16.375  28.131  1.00  0.00     0.195 C 
BRANCH  14  15
ATOM     15  O   UNL     1     180.751 -17.706  28.394  1.00  0.00    -0.393 OA
ATOM     16  H   UNL     1     180.615 -17.839  29.368  1.00  0.00     0.210 HD
ENDBRANCH  14  15
ENDBRANCH   9  14
ENDBRANCH   1   2
BRANCH   1  17
ATOM     17  C   UNL     1     180.992 -19.847  25.176  1.00  0.00     0.286 C 
ATOM     18  C   UNL     1     180.772 -20.779  26.389  1.00  0.00     0.202 C 
ATOM     19  O   UNL     1     180.227 -20.253  24.050  1.00  0.00    -0.341 OA
ATOM     20  C   UNL     1     181.167 -22.220  26.035  1.00  0.00     0.179 C 
ATOM     21  C   UNL     1     180.523 -21.572  23.608  1.00  0.00     0.178 C 
ATOM     22  C   UNL     1     180.455 -22.645  24.734  1.00  0.00     0.177 C 
BRANCH  18  23
ATOM     23  O   UNL     1     181.473 -20.328  27.522  1.00  0.00    -0.385 OA
ATOM     24  H   UNL     1     181.974 -21.096  27.900  1.00  0.00     0.211 HD
ENDBRANCH  18  23
BRANCH  20  25
ATOM     25  O   UNL     1     182.563 -22.329  25.911  1.00  0.00    -0.387 OA
ATOM     26  H   UNL     1     182.752 -23.226  25.532  1.00  0.00     0.211 HD
ENDBRANCH  20  25
BRANCH  21  27
ATOM     27  C   UNL     1     181.764 -21.623  22.686  1.00  0.00     0.191 C 
BRANCH  27  28
ATOM     28  O   UNL     1     181.589 -22.502  21.607  1.00  0.00    -0.394 OA
ATOM     29  H   UNL     1     180.613 -22.645  21.495  1.00  0.00     0.210 HD
ENDBRANCH  27  28
ENDBRANCH  21  27
BRANCH  22  30
ATOM     30  O   UNL     1     180.954 -23.873  24.268  1.00  0.00    -0.387 OA
ATOM     31  H   UNL     1     181.935 -23.863  24.425  1.00  0.00     0.211 HD
ENDBRANCH  22  30
ENDBRANCH   1  17
TORSDOF 10
ENDMDL
