MODEL 1
REMARK VINA RESULT:    18.255      0.000      0.000
REMARK INTER + INTRA:          45.508
REMARK INTER:                  46.001
REMARK INTRA:                  -0.494
REMARK UNBOUND:                -0.494
REMARK SMILES CCCCCCCCCCCCCCCCCCCCCCCCCCCC(=O)[O-]
REMARK SMILES IDX 15 1 16 2 17 3 18 4 19 5 20 6 21 7 22 8 23 9 24 10 25 11
REMARK SMILES IDX 26 12 27 13 28 14 29 15 30 16 14 17 13 18 12 19 11 20 10 21
REMARK SMILES IDX 9 22 8 23 7 24 6 25 5 26 4 27 3 28 2 29 1 30
REMARK H PARENT
REMARK Flexibility Score: inf
ROOT
ATOM      1  C   UNL     1     -10.884  56.994  -3.935  1.00  0.00     0.000 C 
ENDROOT
BRANCH   1   2
ATOM      2  C   UNL     1     -11.200  55.487  -3.892  1.00  0.00     0.000 C 
BRANCH   2   3
ATOM      3  C   UNL     1     -10.146  54.575  -4.546  1.00  0.00     0.000 C 
BRANCH   3   4
ATOM      4  C   UNL     1      -8.885  54.400  -3.683  1.00  0.00     0.000 C 
BRANCH   4   5
ATOM      5  C   UNL     1      -8.261  52.997  -3.809  1.00  0.00     0.000 C 
BRANCH   5   6
ATOM      6  C   UNL     1      -8.320  52.135  -2.531  1.00  0.00     0.000 C 
BRANCH   6   7
ATOM      7  C   UNL     1      -8.480  50.619  -2.767  1.00  0.00     0.000 C 
BRANCH   7   8
ATOM      8  C   UNL     1      -9.857  50.186  -3.307  1.00  0.00     0.000 C 
BRANCH   8   9
ATOM      9  C   UNL     1     -10.217  48.742  -2.923  1.00  0.00     0.000 C 
BRANCH   9  10
ATOM     10  C   UNL     1      -9.490  48.269  -1.654  1.00  0.00     0.000 C 
BRANCH  10  11
ATOM     11  C   UNL     1      -8.084  47.714  -1.948  1.00  0.00     0.000 C 
BRANCH  11  12
ATOM     12  C   UNL     1      -7.625  46.677  -0.908  1.00  0.00     0.006 C 
BRANCH  12  13
ATOM     13  C   UNL     1      -6.204  46.139  -1.139  1.00  0.00     0.053 C 
BRANCH  13  14
ATOM     14  C   UNL     1      -6.139  45.208  -2.311  1.00  0.00     0.041 C 
ATOM     15  O   UNL     1      -6.813  45.444  -3.347  1.00  0.00    -0.550 OA
ATOM     16  O   UNL     1      -5.319  44.088  -2.265  1.00  0.00    -0.550 OA
ENDBRANCH  13  14
ENDBRANCH  12  13
ENDBRANCH  11  12
ENDBRANCH  10  11
ENDBRANCH   9  10
ENDBRANCH   8   9
ENDBRANCH   7   8
ENDBRANCH   6   7
ENDBRANCH   5   6
ENDBRANCH   4   5
ENDBRANCH   3   4
ENDBRANCH   2   3
ENDBRANCH   1   2
BRANCH   1  17
ATOM     17  C   UNL     1     -12.011  57.860  -3.347  1.00  0.00     0.000 C 
BRANCH  17  18
ATOM     18  C   UNL     1     -12.981  58.370  -4.426  1.00  0.00     0.000 C 
BRANCH  18  19
ATOM     19  C   UNL     1     -14.424  58.507  -3.905  1.00  0.00     0.000 C 
BRANCH  19  20
ATOM     20  C   UNL     1     -14.924  59.960  -3.925  1.00  0.00     0.000 C 
BRANCH  20  21
ATOM     21  C   UNL     1     -16.128  60.189  -2.998  1.00  0.00     0.000 C 
BRANCH  21  22
ATOM     22  C   UNL     1     -17.267  60.895  -3.747  1.00  0.00    -0.000 C 
BRANCH  22  23
ATOM     23  C   UNL     1     -18.658  60.411  -3.305  1.00  0.00    -0.000 C 
BRANCH  23  24
ATOM     24  C   UNL     1     -18.744  58.878  -3.212  1.00  0.00    -0.000 C 
BRANCH  24  25
ATOM     25  C   UNL     1     -18.494  58.354  -1.789  1.00  0.00    -0.000 C 
BRANCH  25  26
ATOM     26  C   UNL     1     -17.785  56.987  -1.712  1.00  0.00    -0.000 C 
BRANCH  26  27
ATOM     27  C   UNL     1     -16.673  56.803  -2.767  1.00  0.00    -0.000 C 
BRANCH  27  28
ATOM     28  C   UNL     1     -16.298  55.327  -2.964  1.00  0.00    -0.000 C 
BRANCH  28  29
ATOM     29  C   UNL     1     -17.067  54.714  -4.141  1.00  0.00    -0.003 C 
ATOM     30  C   UNL     1     -17.247  55.727  -5.267  1.00  0.00     0.004 C 
ENDBRANCH  28  29
ENDBRANCH  27  28
ENDBRANCH  26  27
ENDBRANCH  25  26
ENDBRANCH  24  25
ENDBRANCH  23  24
ENDBRANCH  22  23
ENDBRANCH  21  22
ENDBRANCH  20  21
ENDBRANCH  19  20
ENDBRANCH  18  19
ENDBRANCH  17  18
ENDBRANCH   1  17
TORSDOF 26
ENDMDL
MODEL 2
REMARK VINA RESULT:    18.689      4.138     11.102
REMARK INTER + INTRA:          46.601
REMARK INTER:                  48.115
REMARK INTRA:                  -1.515
REMARK UNBOUND:                -0.494
REMARK SMILES CCCCCCCCCCCCCCCCCCCCCCCCCCCC(=O)[O-]
REMARK SMILES IDX 15 1 16 2 17 3 18 4 19 5 20 6 21 7 22 8 23 9 24 10 25 11
REMARK SMILES IDX 26 12 27 13 28 14 29 15 30 16 14 17 13 18 12 19 11 20 10 21
REMARK SMILES IDX 9 22 8 23 7 24 6 25 5 26 4 27 3 28 2 29 1 30
REMARK H PARENT
REMARK Flexibility Score: inf
ROOT
ATOM      1  C   UNL     1     -11.246  58.243  -3.096  1.00  0.00     0.000 C 
ENDROOT
BRANCH   1   2
ATOM      2  C   UNL     1     -12.487  59.076  -3.467  1.00  0.00     0.000 C 
BRANCH   2   3
ATOM      3  C   UNL     1     -13.512  58.365  -4.368  1.00  0.00     0.000 C 
BRANCH   3   4
ATOM      4  C   UNL     1     -14.754  59.224  -4.661  1.00  0.00     0.000 C 
BRANCH   4   5
ATOM      5  C   UNL     1     -14.986  60.323  -3.608  1.00  0.00     0.000 C 
BRANCH   5   6
ATOM      6  C   UNL     1     -16.379  60.315  -2.945  1.00  0.00     0.000 C 
BRANCH   6   7
ATOM      7  C   UNL     1     -17.416  61.263  -3.582  1.00  0.00     0.000 C 
BRANCH   7   8
ATOM      8  C   UNL     1     -18.885  60.835  -3.401  1.00  0.00     0.000 C 
BRANCH   8   9
ATOM      9  C   UNL     1     -19.061  59.308  -3.393  1.00  0.00     0.000 C 
BRANCH   9  10
ATOM     10  C   UNL     1     -18.632  58.671  -2.062  1.00  0.00     0.000 C 
BRANCH  10  11
ATOM     11  C   UNL     1     -18.425  57.149  -2.172  1.00  0.00     0.000 C 
BRANCH  11  12
ATOM     12  C   UNL     1     -16.965  56.728  -1.931  1.00  0.00     0.006 C 
BRANCH  12  13
ATOM     13  C   UNL     1     -16.217  56.289  -3.199  1.00  0.00     0.053 C 
BRANCH  13  14
ATOM     14  C   UNL     1     -17.028  55.344  -4.030  1.00  0.00     0.041 C 
ATOM     15  O   UNL     1     -17.473  54.278  -3.529  1.00  0.00    -0.550 OA
ATOM     16  O   UNL     1     -17.307  55.647  -5.357  1.00  0.00    -0.550 OA
ENDBRANCH  13  14
ENDBRANCH  12  13
ENDBRANCH  11  12
ENDBRANCH  10  11
ENDBRANCH   9  10
ENDBRANCH   8   9
ENDBRANCH   7   8
ENDBRANCH   6   7
ENDBRANCH   5   6
ENDBRANCH   4   5
ENDBRANCH   3   4
ENDBRANCH   2   3
ENDBRANCH   1   2
BRANCH   1  17
ATOM     17  C   UNL     1     -11.450  56.734  -3.315  1.00  0.00     0.000 C 
BRANCH  17  18
ATOM     18  C   UNL     1     -10.824  56.244  -4.631  1.00  0.00     0.000 C 
BRANCH  18  19
ATOM     19  C   UNL     1     -10.587  54.723  -4.641  1.00  0.00     0.000 C 
BRANCH  19  20
ATOM     20  C   UNL     1      -9.095  54.357  -4.586  1.00  0.00     0.000 C 
BRANCH  20  21
ATOM     21  C   UNL     1      -8.663  53.822  -3.212  1.00  0.00     0.000 C 
BRANCH  21  22
ATOM     22  C   UNL     1      -8.127  52.387  -3.329  1.00  0.00    -0.000 C 
BRANCH  22  23
ATOM     23  C   UNL     1      -8.556  51.495  -2.153  1.00  0.00    -0.000 C 
BRANCH  23  24
ATOM     24  C   UNL     1      -8.032  50.056  -2.286  1.00  0.00    -0.000 C 
BRANCH  24  25
ATOM     25  C   UNL     1      -9.146  49.003  -2.174  1.00  0.00    -0.000 C 
BRANCH  25  26
ATOM     26  C   UNL     1     -10.269  49.126  -3.223  1.00  0.00    -0.000 C 
BRANCH  26  27
ATOM     27  C   UNL     1     -11.683  48.879  -2.653  1.00  0.00    -0.000 C 
BRANCH  27  28
ATOM     28  C   UNL     1     -11.792  49.285  -1.176  1.00  0.00    -0.000 C 
BRANCH  28  29
ATOM     29  C   UNL     1     -13.231  49.137  -0.668  1.00  0.00    -0.003 C 
ATOM     30  C   UNL     1     -13.853  50.499  -0.375  1.00  0.00     0.004 C 
ENDBRANCH  28  29
ENDBRANCH  27  28
ENDBRANCH  26  27
ENDBRANCH  25  26
ENDBRANCH  24  25
ENDBRANCH  23  24
ENDBRANCH  22  23
ENDBRANCH  21  22
ENDBRANCH  20  21
ENDBRANCH  19  20
ENDBRANCH  18  19
ENDBRANCH  17  18
ENDBRANCH   1  17
TORSDOF 26
ENDMDL
MODEL 3
REMARK VINA RESULT:    19.022      0.861      1.906
REMARK INTER + INTRA:          47.440
REMARK INTER:                  48.900
REMARK INTRA:                  -1.461
REMARK UNBOUND:                -0.494
REMARK SMILES CCCCCCCCCCCCCCCCCCCCCCCCCCCC(=O)[O-]
REMARK SMILES IDX 15 1 16 2 17 3 18 4 19 5 20 6 21 7 22 8 23 9 24 10 25 11
REMARK SMILES IDX 26 12 27 13 28 14 29 15 30 16 14 17 13 18 12 19 11 20 10 21
REMARK SMILES IDX 9 22 8 23 7 24 6 25 5 26 4 27 3 28 2 29 1 30
REMARK H PARENT
REMARK Flexibility Score: inf
ROOT
ATOM      1  C   UNL     1     -10.471  54.920  -4.597  1.00  0.00     0.000 C 
ENDROOT
BRANCH   1   2
ATOM      2  C   UNL     1      -9.597  54.408  -3.437  1.00  0.00     0.000 C 
BRANCH   2   3
ATOM      3  C   UNL     1      -8.184  53.943  -3.833  1.00  0.00     0.000 C 
BRANCH   3   4
ATOM      4  C   UNL     1      -7.911  52.474  -3.470  1.00  0.00     0.000 C 
BRANCH   4   5
ATOM      5  C   UNL     1      -9.176  51.721  -3.020  1.00  0.00     0.000 C 
BRANCH   5   6
ATOM      6  C   UNL     1      -8.922  50.441  -2.199  1.00  0.00     0.000 C 
BRANCH   6   7
ATOM      7  C   UNL     1     -10.189  49.722  -1.690  1.00  0.00     0.000 C 
BRANCH   7   8
ATOM      8  C   UNL     1     -10.832  48.748  -2.696  1.00  0.00     0.000 C 
BRANCH   8   9
ATOM      9  C   UNL     1      -9.923  48.454  -3.900  1.00  0.00     0.000 C 
BRANCH   9  10
ATOM     10  C   UNL     1      -9.035  47.218  -3.684  1.00  0.00     0.000 C 
BRANCH  10  11
ATOM     11  C   UNL     1      -8.067  47.383  -2.498  1.00  0.00     0.000 C 
BRANCH  11  12
ATOM     12  C   UNL     1      -7.926  46.098  -1.662  1.00  0.00     0.006 C 
BRANCH  12  13
ATOM     13  C   UNL     1      -6.523  45.877  -1.077  1.00  0.00     0.053 C 
BRANCH  13  14
ATOM     14  C   UNL     1      -5.718  44.916  -1.895  1.00  0.00     0.041 C 
ATOM     15  O   UNL     1      -4.882  44.155  -1.341  1.00  0.00    -0.550 OA
ATOM     16  O   UNL     1      -5.903  44.847  -3.270  1.00  0.00    -0.550 OA
ENDBRANCH  13  14
ENDBRANCH  12  13
ENDBRANCH  11  12
ENDBRANCH  10  11
ENDBRANCH   9  10
ENDBRANCH   8   9
ENDBRANCH   7   8
ENDBRANCH   6   7
ENDBRANCH   5   6
ENDBRANCH   4   5
ENDBRANCH   3   4
ENDBRANCH   2   3
ENDBRANCH   1   2
BRANCH   1  17
ATOM     17  C   UNL     1     -11.491  55.983  -4.156  1.00  0.00     0.000 C 
BRANCH  17  18
ATOM     18  C   UNL     1     -10.821  57.202  -3.500  1.00  0.00     0.000 C 
BRANCH  18  19
ATOM     19  C   UNL     1     -11.804  58.365  -3.275  1.00  0.00     0.000 C 
BRANCH  19  20
ATOM     20  C   UNL     1     -13.096  58.214  -4.094  1.00  0.00     0.000 C 
BRANCH  20  21
ATOM     21  C   UNL     1     -13.917  59.511  -4.158  1.00  0.00     0.000 C 
BRANCH  21  22
ATOM     22  C   UNL     1     -15.417  59.217  -4.009  1.00  0.00    -0.000 C 
BRANCH  22  23
ATOM     23  C   UNL     1     -16.116  60.172  -3.029  1.00  0.00    -0.000 C 
BRANCH  23  24
ATOM     24  C   UNL     1     -17.615  60.332  -3.333  1.00  0.00    -0.000 C 
BRANCH  24  25
ATOM     25  C   UNL     1     -18.437  59.091  -2.945  1.00  0.00    -0.000 C 
BRANCH  25  26
ATOM     26  C   UNL     1     -17.834  58.238  -1.812  1.00  0.00    -0.000 C 
BRANCH  26  27
ATOM     27  C   UNL     1     -17.810  56.725  -2.118  1.00  0.00    -0.000 C 
BRANCH  27  28
ATOM     28  C   UNL     1     -16.384  56.198  -2.334  1.00  0.00    -0.000 C 
BRANCH  28  29
ATOM     29  C   UNL     1     -16.309  55.297  -3.571  1.00  0.00    -0.003 C 
ATOM     30  C   UNL     1     -17.289  55.756  -4.646  1.00  0.00     0.004 C 
ENDBRANCH  28  29
ENDBRANCH  27  28
ENDBRANCH  26  27
ENDBRANCH  25  26
ENDBRANCH  24  25
ENDBRANCH  23  24
ENDBRANCH  22  23
ENDBRANCH  21  22
ENDBRANCH  20  21
ENDBRANCH  19  20
ENDBRANCH  18  19
ENDBRANCH  17  18
ENDBRANCH   1  17
TORSDOF 26
ENDMDL
MODEL 4
REMARK VINA RESULT:    19.091      2.676      3.691
REMARK INTER + INTRA:          47.614
REMARK INTER:                  49.373
REMARK INTRA:                  -1.760
REMARK UNBOUND:                -0.494
REMARK SMILES CCCCCCCCCCCCCCCCCCCCCCCCCCCC(=O)[O-]
REMARK SMILES IDX 15 1 16 2 17 3 18 4 19 5 20 6 21 7 22 8 23 9 24 10 25 11
REMARK SMILES IDX 26 12 27 13 28 14 29 15 30 16 14 17 13 18 12 19 11 20 10 21
REMARK SMILES IDX 9 22 8 23 7 24 6 25 5 26 4 27 3 28 2 29 1 30
REMARK H PARENT
REMARK Flexibility Score: inf
ROOT
ATOM      1  C   UNL     1     -12.947  57.686  -3.715  1.00  0.00     0.000 C 
ENDROOT
BRANCH   1   2
ATOM      2  C   UNL     1     -11.445  57.827  -3.405  1.00  0.00     0.000 C 
BRANCH   2   3
ATOM      3  C   UNL     1     -10.544  56.729  -4.000  1.00  0.00     0.000 C 
BRANCH   3   4
ATOM      4  C   UNL     1     -11.275  55.389  -4.187  1.00  0.00     0.000 C 
BRANCH   4   5
ATOM      5  C   UNL     1     -10.334  54.244  -4.605  1.00  0.00     0.000 C 
BRANCH   5   6
ATOM      6  C   UNL     1      -8.879  54.376  -4.110  1.00  0.00     0.000 C 
BRANCH   6   7
ATOM      7  C   UNL     1      -8.516  53.500  -2.893  1.00  0.00     0.000 C 
BRANCH   7   8
ATOM      8  C   UNL     1      -7.922  52.121  -3.238  1.00  0.00     0.000 C 
BRANCH   8   9
ATOM      9  C   UNL     1      -8.708  50.962  -2.605  1.00  0.00     0.000 C 
BRANCH   9  10
ATOM     10  C   UNL     1      -9.455  50.115  -3.648  1.00  0.00     0.000 C 
BRANCH  10  11
ATOM     11  C   UNL     1      -9.866  48.734  -3.106  1.00  0.00     0.000 C 
BRANCH  11  12
ATOM     12  C   UNL     1     -10.687  48.824  -1.808  1.00  0.00     0.006 C 
BRANCH  12  13
ATOM     13  C   UNL     1     -12.043  49.529  -1.967  1.00  0.00     0.053 C 
BRANCH  13  14
ATOM     14  C   UNL     1     -12.933  49.309  -0.783  1.00  0.00     0.041 C 
ATOM     15  O   UNL     1     -12.817  48.267  -0.086  1.00  0.00    -0.550 OA
ATOM     16  O   UNL     1     -13.882  50.264  -0.438  1.00  0.00    -0.550 OA
ENDBRANCH  13  14
ENDBRANCH  12  13
ENDBRANCH  11  12
ENDBRANCH  10  11
ENDBRANCH   9  10
ENDBRANCH   8   9
ENDBRANCH   7   8
ENDBRANCH   6   7
ENDBRANCH   5   6
ENDBRANCH   4   5
ENDBRANCH   3   4
ENDBRANCH   2   3
ENDBRANCH   1   2
BRANCH   1  17
ATOM     17  C   UNL     1     -13.511  58.877  -4.509  1.00  0.00     0.000 C 
BRANCH  17  18
ATOM     18  C   UNL     1     -14.981  59.167  -4.166  1.00  0.00     0.000 C 
BRANCH  18  19
ATOM     19  C   UNL     1     -15.162  60.508  -3.432  1.00  0.00     0.000 C 
BRANCH  19  20
ATOM     20  C   UNL     1     -16.505  60.598  -2.690  1.00  0.00     0.000 C 
BRANCH  20  21
ATOM     21  C   UNL     1     -17.709  60.673  -3.643  1.00  0.00     0.000 C 
BRANCH  21  22
ATOM     22  C   UNL     1     -18.867  59.805  -3.129  1.00  0.00    -0.000 C 
BRANCH  22  23
ATOM     23  C   UNL     1     -18.497  58.316  -3.036  1.00  0.00    -0.000 C 
BRANCH  23  24
ATOM     24  C   UNL     1     -18.688  57.750  -1.618  1.00  0.00    -0.000 C 
BRANCH  24  25
ATOM     25  C   UNL     1     -17.412  57.839  -0.765  1.00  0.00    -0.000 C 
BRANCH  25  26
ATOM     26  C   UNL     1     -16.246  56.951  -1.240  1.00  0.00    -0.000 C 
BRANCH  26  27
ATOM     27  C   UNL     1     -16.296  56.612  -2.746  1.00  0.00    -0.000 C 
BRANCH  27  28
ATOM     28  C   UNL     1     -16.569  55.122  -2.996  1.00  0.00    -0.000 C 
BRANCH  28  29
ATOM     29  C   UNL     1     -17.529  54.927  -4.176  1.00  0.00    -0.003 C 
ATOM     30  C   UNL     1     -16.991  55.595  -5.438  1.00  0.00     0.004 C 
ENDBRANCH  28  29
ENDBRANCH  27  28
ENDBRANCH  26  27
ENDBRANCH  25  26
ENDBRANCH  24  25
ENDBRANCH  23  24
ENDBRANCH  22  23
ENDBRANCH  21  22
ENDBRANCH  20  21
ENDBRANCH  19  20
ENDBRANCH  18  19
ENDBRANCH  17  18
ENDBRANCH   1  17
TORSDOF 26
ENDMDL
MODEL 5
REMARK VINA RESULT:    19.128      2.700      3.324
REMARK INTER + INTRA:          47.708
REMARK INTER:                  48.966
REMARK INTRA:                  -1.258
REMARK UNBOUND:                -0.494
REMARK SMILES CCCCCCCCCCCCCCCCCCCCCCCCCCCC(=O)[O-]
REMARK SMILES IDX 15 1 16 2 17 3 18 4 19 5 20 6 21 7 22 8 23 9 24 10 25 11
REMARK SMILES IDX 26 12 27 13 28 14 29 15 30 16 14 17 13 18 12 19 11 20 10 21
REMARK SMILES IDX 9 22 8 23 7 24 6 25 5 26 4 27 3 28 2 29 1 30
REMARK H PARENT
REMARK Flexibility Score: inf
ROOT
ATOM      1  C   UNL     1     -11.053  57.388  -3.413  1.00  0.00     0.000 C 
ENDROOT
BRANCH   1   2
ATOM      2  C   UNL     1     -11.330  56.366  -4.531  1.00  0.00     0.000 C 
BRANCH   2   3
ATOM      3  C   UNL     1     -10.319  55.209  -4.632  1.00  0.00     0.000 C 
BRANCH   3   4
ATOM      4  C   UNL     1      -9.326  55.176  -3.458  1.00  0.00     0.000 C 
BRANCH   4   5
ATOM      5  C   UNL     1      -8.309  54.024  -3.564  1.00  0.00     0.000 C 
BRANCH   5   6
ATOM      6  C   UNL     1      -8.908  52.607  -3.455  1.00  0.00     0.000 C 
BRANCH   6   7
ATOM      7  C   UNL     1      -7.892  51.452  -3.576  1.00  0.00     0.000 C 
BRANCH   7   8
ATOM      8  C   UNL     1      -7.684  50.632  -2.289  1.00  0.00     0.000 C 
BRANCH   8   9
ATOM      9  C   UNL     1      -8.874  49.711  -1.975  1.00  0.00     0.000 C 
BRANCH   9  10
ATOM     10  C   UNL     1      -9.273  48.831  -3.170  1.00  0.00     0.000 C 
BRANCH  10  11
ATOM     11  C   UNL     1     -10.755  48.991  -3.555  1.00  0.00     0.000 C 
BRANCH  11  12
ATOM     12  C   UNL     1     -11.584  49.682  -2.458  1.00  0.00     0.006 C 
BRANCH  12  13
ATOM     13  C   UNL     1     -11.565  48.958  -1.103  1.00  0.00     0.053 C 
BRANCH  13  14
ATOM     14  C   UNL     1     -12.924  48.902  -0.477  1.00  0.00     0.041 C 
ATOM     15  O   UNL     1     -13.270  47.901   0.202  1.00  0.00    -0.550 OA
ATOM     16  O   UNL     1     -13.805  49.967  -0.629  1.00  0.00    -0.550 OA
ENDBRANCH  13  14
ENDBRANCH  12  13
ENDBRANCH  11  12
ENDBRANCH  10  11
ENDBRANCH   9  10
ENDBRANCH   8   9
ENDBRANCH   7   8
ENDBRANCH   6   7
ENDBRANCH   5   6
ENDBRANCH   4   5
ENDBRANCH   3   4
ENDBRANCH   2   3
ENDBRANCH   1   2
BRANCH   1  17
ATOM     17  C   UNL     1     -12.108  58.505  -3.347  1.00  0.00     0.000 C 
BRANCH  17  18
ATOM     18  C   UNL     1     -13.095  58.450  -4.524  1.00  0.00     0.000 C 
BRANCH  18  19
ATOM     19  C   UNL     1     -14.560  58.589  -4.073  1.00  0.00     0.000 C 
BRANCH  19  20
ATOM     20  C   UNL     1     -14.963  60.051  -3.818  1.00  0.00     0.000 C 
BRANCH  20  21
ATOM     21  C   UNL     1     -16.221  60.178  -2.944  1.00  0.00     0.000 C 
BRANCH  21  22
ATOM     22  C   UNL     1     -17.310  60.982  -3.670  1.00  0.00    -0.000 C 
BRANCH  22  23
ATOM     23  C   UNL     1     -18.729  60.493  -3.338  1.00  0.00    -0.000 C 
BRANCH  23  24
ATOM     24  C   UNL     1     -18.847  58.959  -3.380  1.00  0.00    -0.000 C 
BRANCH  24  25
ATOM     25  C   UNL     1     -18.978  58.333  -1.983  1.00  0.00    -0.000 C 
BRANCH  25  26
ATOM     26  C   UNL     1     -17.673  57.753  -1.402  1.00  0.00    -0.000 C 
BRANCH  26  27
ATOM     27  C   UNL     1     -17.394  56.296  -1.831  1.00  0.00    -0.000 C 
BRANCH  27  28
ATOM     28  C   UNL     1     -16.450  56.218  -3.039  1.00  0.00    -0.000 C 
BRANCH  28  29
ATOM     29  C   UNL     1     -16.809  55.033  -3.944  1.00  0.00    -0.003 C 
ATOM     30  C   UNL     1     -17.235  55.509  -5.330  1.00  0.00     0.004 C 
ENDBRANCH  28  29
ENDBRANCH  27  28
ENDBRANCH  26  27
ENDBRANCH  25  26
ENDBRANCH  24  25
ENDBRANCH  23  24
ENDBRANCH  22  23
ENDBRANCH  21  22
ENDBRANCH  20  21
ENDBRANCH  19  20
ENDBRANCH  18  19
ENDBRANCH  17  18
ENDBRANCH   1  17
TORSDOF 26
ENDMDL
MODEL 6
REMARK VINA RESULT:    19.158      4.011     12.067
REMARK INTER + INTRA:          47.782
REMARK INTER:                  48.649
REMARK INTRA:                  -0.867
REMARK UNBOUND:                -0.494
REMARK SMILES CCCCCCCCCCCCCCCCCCCCCCCCCCCC(=O)[O-]
REMARK SMILES IDX 15 1 16 2 17 3 18 4 19 5 20 6 21 7 22 8 23 9 24 10 25 11
REMARK SMILES IDX 26 12 27 13 28 14 29 15 30 16 14 17 13 18 12 19 11 20 10 21
REMARK SMILES IDX 9 22 8 23 7 24 6 25 5 26 4 27 3 28 2 29 1 30
REMARK H PARENT
REMARK Flexibility Score: inf
ROOT
ATOM      1  C   UNL     1     -10.522  55.466  -4.699  1.00  0.00     0.000 C 
ENDROOT
BRANCH   1   2
ATOM      2  C   UNL     1     -11.500  56.189  -3.754  1.00  0.00     0.000 C 
BRANCH   2   3
ATOM      3  C   UNL     1     -11.025  57.562  -3.241  1.00  0.00     0.000 C 
BRANCH   3   4
ATOM      4  C   UNL     1     -12.041  58.686  -3.506  1.00  0.00     0.000 C 
BRANCH   4   5
ATOM      5  C   UNL     1     -13.480  58.166  -3.680  1.00  0.00     0.000 C 
BRANCH   5   6
ATOM      6  C   UNL     1     -14.305  58.872  -4.776  1.00  0.00     0.000 C 
BRANCH   6   7
ATOM      7  C   UNL     1     -14.997  60.181  -4.338  1.00  0.00     0.000 C 
BRANCH   7   8
ATOM      8  C   UNL     1     -15.859  60.067  -3.068  1.00  0.00     0.000 C 
BRANCH   8   9
ATOM      9  C   UNL     1     -17.360  60.242  -3.352  1.00  0.00     0.000 C 
BRANCH   9  10
ATOM     10  C   UNL     1     -18.243  59.452  -2.372  1.00  0.00     0.000 C 
BRANCH  10  11
ATOM     11  C   UNL     1     -18.479  58.000  -2.824  1.00  0.00     0.000 C 
BRANCH  11  12
ATOM     12  C   UNL     1     -17.547  56.998  -2.120  1.00  0.00     0.006 C 
BRANCH  12  13
ATOM     13  C   UNL     1     -16.508  56.346  -3.044  1.00  0.00     0.053 C 
BRANCH  13  14
ATOM     14  C   UNL     1     -17.120  55.312  -3.938  1.00  0.00     0.041 C 
ATOM     15  O   UNL     1     -17.042  55.427  -5.189  1.00  0.00    -0.550 OA
ATOM     16  O   UNL     1     -17.765  54.211  -3.388  1.00  0.00    -0.550 OA
ENDBRANCH  13  14
ENDBRANCH  12  13
ENDBRANCH  11  12
ENDBRANCH  10  11
ENDBRANCH   9  10
ENDBRANCH   8   9
ENDBRANCH   7   8
ENDBRANCH   6   7
ENDBRANCH   5   6
ENDBRANCH   4   5
ENDBRANCH   3   4
ENDBRANCH   2   3
ENDBRANCH   1   2
BRANCH   1  17
ATOM     17  C   UNL     1     -10.083  54.090  -4.169  1.00  0.00     0.000 C 
BRANCH  17  18
ATOM     18  C   UNL     1      -8.639  54.098  -3.643  1.00  0.00     0.000 C 
BRANCH  18  19
ATOM     19  C   UNL     1      -7.891  52.788  -3.952  1.00  0.00     0.000 C 
BRANCH  19  20
ATOM     20  C   UNL     1      -7.950  51.786  -2.788  1.00  0.00     0.000 C 
BRANCH  20  21
ATOM     21  C   UNL     1      -8.967  50.659  -3.023  1.00  0.00     0.000 C 
BRANCH  21  22
ATOM     22  C   UNL     1      -9.514  50.130  -1.689  1.00  0.00    -0.000 C 
BRANCH  22  23
ATOM     23  C   UNL     1     -10.626  49.085  -1.875  1.00  0.00    -0.000 C 
BRANCH  23  24
ATOM     24  C   UNL     1     -10.779  48.646  -3.342  1.00  0.00    -0.000 C 
BRANCH  24  25
ATOM     25  C   UNL     1      -9.514  47.970  -3.896  1.00  0.00    -0.000 C 
BRANCH  25  26
ATOM     26  C   UNL     1      -8.644  47.252  -2.845  1.00  0.00    -0.000 C 
BRANCH  26  27
ATOM     27  C   UNL     1      -7.619  46.269  -3.452  1.00  0.00    -0.000 C 
BRANCH  27  28
ATOM     28  C   UNL     1      -7.217  45.166  -2.463  1.00  0.00    -0.000 C 
BRANCH  28  29
ATOM     29  C   UNL     1      -5.692  45.039  -2.368  1.00  0.00    -0.003 C 
ATOM     30  C   UNL     1      -5.278  44.337  -1.078  1.00  0.00     0.004 C 
ENDBRANCH  28  29
ENDBRANCH  27  28
ENDBRANCH  26  27
ENDBRANCH  25  26
ENDBRANCH  24  25
ENDBRANCH  23  24
ENDBRANCH  22  23
ENDBRANCH  21  22
ENDBRANCH  20  21
ENDBRANCH  19  20
ENDBRANCH  18  19
ENDBRANCH  17  18
ENDBRANCH   1  17
TORSDOF 26
ENDMDL
MODEL 7
REMARK VINA RESULT:    19.759      4.134     10.995
REMARK INTER + INTRA:          49.299
REMARK INTER:                  49.637
REMARK INTRA:                  -0.338
REMARK UNBOUND:                -0.494
REMARK SMILES CCCCCCCCCCCCCCCCCCCCCCCCCCCC(=O)[O-]
REMARK SMILES IDX 15 1 16 2 17 3 18 4 19 5 20 6 21 7 22 8 23 9 24 10 25 11
REMARK SMILES IDX 26 12 27 13 28 14 29 15 30 16 14 17 13 18 12 19 11 20 10 21
REMARK SMILES IDX 9 22 8 23 7 24 6 25 5 26 4 27 3 28 2 29 1 30
REMARK H PARENT
REMARK Flexibility Score: inf
ROOT
ATOM      1  C   UNL     1     -12.201  58.690  -3.365  1.00  0.00     0.000 C 
ENDROOT
BRANCH   1   2
ATOM      2  C   UNL     1     -13.228  58.646  -4.512  1.00  0.00     0.000 C 
BRANCH   2   3
ATOM      3  C   UNL     1     -14.702  58.762  -4.080  1.00  0.00     0.000 C 
BRANCH   3   4
ATOM      4  C   UNL     1     -15.179  60.219  -3.955  1.00  0.00     0.000 C 
BRANCH   4   5
ATOM      5  C   UNL     1     -16.385  60.377  -3.011  1.00  0.00     0.000 C 
BRANCH   5   6
ATOM      6  C   UNL     1     -17.723  60.707  -3.705  1.00  0.00     0.000 C 
BRANCH   6   7
ATOM      7  C   UNL     1     -18.974  60.083  -3.053  1.00  0.00     0.000 C 
BRANCH   7   8
ATOM      8  C   UNL     1     -18.728  58.756  -2.312  1.00  0.00     0.000 C 
BRANCH   8   9
ATOM      9  C   UNL     1     -17.706  58.894  -1.171  1.00  0.00     0.000 C 
BRANCH   9  10
ATOM     10  C   UNL     1     -17.549  57.600  -0.358  1.00  0.00     0.000 C 
BRANCH  10  11
ATOM     11  C   UNL     1     -17.614  56.336  -1.235  1.00  0.00     0.000 C 
BRANCH  11  12
ATOM     12  C   UNL     1     -17.050  56.564  -2.649  1.00  0.00     0.006 C 
BRANCH  12  13
ATOM     13  C   UNL     1     -16.488  55.299  -3.315  1.00  0.00     0.053 C 
BRANCH  13  14
ATOM     14  C   UNL     1     -17.093  55.058  -4.664  1.00  0.00     0.041 C 
ATOM     15  O   UNL     1     -17.178  53.889  -5.122  1.00  0.00    -0.550 OA
ATOM     16  O   UNL     1     -17.580  56.126  -5.408  1.00  0.00    -0.550 OA
ENDBRANCH  13  14
ENDBRANCH  12  13
ENDBRANCH  11  12
ENDBRANCH  10  11
ENDBRANCH   9  10
ENDBRANCH   8   9
ENDBRANCH   7   8
ENDBRANCH   6   7
ENDBRANCH   5   6
ENDBRANCH   4   5
ENDBRANCH   3   4
ENDBRANCH   2   3
ENDBRANCH   1   2
BRANCH   1  17
ATOM     17  C   UNL     1     -11.654  57.300  -2.997  1.00  0.00     0.000 C 
BRANCH  17  18
ATOM     18  C   UNL     1     -10.763  56.710  -4.102  1.00  0.00     0.000 C 
BRANCH  18  19
ATOM     19  C   UNL     1     -10.812  55.172  -4.142  1.00  0.00     0.000 C 
BRANCH  19  20
ATOM     20  C   UNL     1      -9.578  54.558  -4.824  1.00  0.00     0.000 C 
BRANCH  20  21
ATOM     21  C   UNL     1      -8.525  54.067  -3.818  1.00  0.00     0.000 C 
BRANCH  21  22
ATOM     22  C   UNL     1      -8.897  52.680  -3.273  1.00  0.00    -0.000 C 
BRANCH  22  23
ATOM     23  C   UNL     1      -7.716  51.696  -3.299  1.00  0.00    -0.000 C 
BRANCH  23  24
ATOM     24  C   UNL     1      -7.777  50.675  -2.150  1.00  0.00    -0.000 C 
BRANCH  24  25
ATOM     25  C   UNL     1      -9.169  50.043  -1.988  1.00  0.00    -0.000 C 
BRANCH  25  26
ATOM     26  C   UNL     1      -9.593  49.096  -3.128  1.00  0.00    -0.000 C 
BRANCH  26  27
ATOM     27  C   UNL     1     -11.024  48.538  -2.973  1.00  0.00    -0.000 C 
BRANCH  27  28
ATOM     28  C   UNL     1     -11.974  49.549  -2.315  1.00  0.00    -0.000 C 
BRANCH  28  29
ATOM     29  C   UNL     1     -12.557  48.992  -1.012  1.00  0.00    -0.003 C 
ATOM     30  C   UNL     1     -13.548  49.971  -0.390  1.00  0.00     0.004 C 
ENDBRANCH  28  29
ENDBRANCH  27  28
ENDBRANCH  26  27
ENDBRANCH  25  26
ENDBRANCH  24  25
ENDBRANCH  23  24
ENDBRANCH  22  23
ENDBRANCH  21  22
ENDBRANCH  20  21
ENDBRANCH  19  20
ENDBRANCH  18  19
ENDBRANCH  17  18
ENDBRANCH   1  17
TORSDOF 26
ENDMDL
MODEL 8
REMARK VINA RESULT:    20.003      2.226      2.652
REMARK INTER + INTRA:          49.912
REMARK INTER:                  48.756
REMARK INTRA:                   1.156
REMARK UNBOUND:                -0.494
REMARK SMILES CCCCCCCCCCCCCCCCCCCCCCCCCCCC(=O)[O-]
REMARK SMILES IDX 15 1 16 2 17 3 18 4 19 5 20 6 21 7 22 8 23 9 24 10 25 11
REMARK SMILES IDX 26 12 27 13 28 14 29 15 30 16 14 17 13 18 12 19 11 20 10 21
REMARK SMILES IDX 9 22 8 23 7 24 6 25 5 26 4 27 3 28 2 29 1 30
REMARK H PARENT
REMARK Flexibility Score: inf
ROOT
ATOM      1  C   UNL     1     -11.290  58.094  -3.312  1.00  0.00     0.000 C 
ENDROOT
BRANCH   1   2
ATOM      2  C   UNL     1     -10.478  56.818  -3.603  1.00  0.00     0.000 C 
BRANCH   2   3
ATOM      3  C   UNL     1     -11.246  55.701  -4.333  1.00  0.00     0.000 C 
BRANCH   3   4
ATOM      4  C   UNL     1     -10.450  54.389  -4.430  1.00  0.00     0.000 C 
BRANCH   4   5
ATOM      5  C   UNL     1      -8.945  54.578  -4.161  1.00  0.00     0.000 C 
BRANCH   5   6
ATOM      6  C   UNL     1      -8.338  53.614  -3.121  1.00  0.00     0.000 C 
BRANCH   6   7
ATOM      7  C   UNL     1      -7.909  52.238  -3.671  1.00  0.00     0.000 C 
BRANCH   7   8
ATOM      8  C   UNL     1      -7.789  51.124  -2.613  1.00  0.00     0.000 C 
BRANCH   8   9
ATOM      9  C   UNL     1      -9.060  50.267  -2.508  1.00  0.00     0.000 C 
BRANCH   9  10
ATOM     10  C   UNL     1      -9.547  50.107  -1.059  1.00  0.00     0.000 C 
BRANCH  10  11
ATOM     11  C   UNL     1     -10.604  48.997  -0.908  1.00  0.00     0.000 C 
BRANCH  11  12
ATOM     12  C   UNL     1     -11.625  48.987  -2.059  1.00  0.00     0.006 C 
BRANCH  12  13
ATOM     13  C   UNL     1     -11.109  49.609  -3.366  1.00  0.00     0.053 C 
BRANCH  13  14
ATOM     14  C   UNL     1     -10.297  48.639  -4.167  1.00  0.00     0.041 C 
ATOM     15  O   UNL     1     -10.230  47.430  -3.823  1.00  0.00    -0.550 OA
ATOM     16  O   UNL     1      -9.626  49.067  -5.306  1.00  0.00    -0.550 OA
ENDBRANCH  13  14
ENDBRANCH  12  13
ENDBRANCH  11  12
ENDBRANCH  10  11
ENDBRANCH   9  10
ENDBRANCH   8   9
ENDBRANCH   7   8
ENDBRANCH   6   7
ENDBRANCH   5   6
ENDBRANCH   4   5
ENDBRANCH   3   4
ENDBRANCH   2   3
ENDBRANCH   1   2
BRANCH   1  17
ATOM     17  C   UNL     1     -12.808  57.880  -3.440  1.00  0.00     0.000 C 
BRANCH  17  18
ATOM     18  C   UNL     1     -13.429  58.741  -4.552  1.00  0.00     0.000 C 
BRANCH  18  19
ATOM     19  C   UNL     1     -14.926  59.014  -4.321  1.00  0.00     0.000 C 
BRANCH  19  20
ATOM     20  C   UNL     1     -15.180  60.364  -3.630  1.00  0.00     0.000 C 
BRANCH  20  21
ATOM     21  C   UNL     1     -16.442  60.356  -2.753  1.00  0.00     0.000 C 
BRANCH  21  22
ATOM     22  C   UNL     1     -17.602  61.073  -3.459  1.00  0.00    -0.000 C 
BRANCH  22  23
ATOM     23  C   UNL     1     -18.923  60.292  -3.372  1.00  0.00    -0.000 C 
BRANCH  23  24
ATOM     24  C   UNL     1     -18.706  58.770  -3.368  1.00  0.00    -0.000 C 
BRANCH  24  25
ATOM     25  C   UNL     1     -18.919  58.141  -1.981  1.00  0.00    -0.000 C 
BRANCH  25  26
ATOM     26  C   UNL     1     -17.646  57.581  -1.316  1.00  0.00    -0.000 C 
BRANCH  26  27
ATOM     27  C   UNL     1     -16.677  56.897  -2.305  1.00  0.00    -0.000 C 
BRANCH  27  28
ATOM     28  C   UNL     1     -17.231  55.565  -2.832  1.00  0.00    -0.000 C 
BRANCH  28  29
ATOM     29  C   UNL     1     -16.507  55.135  -4.114  1.00  0.00    -0.003 C 
ATOM     30  C   UNL     1     -17.291  55.552  -5.354  1.00  0.00     0.004 C 
ENDBRANCH  28  29
ENDBRANCH  27  28
ENDBRANCH  26  27
ENDBRANCH  25  26
ENDBRANCH  24  25
ENDBRANCH  23  24
ENDBRANCH  22  23
ENDBRANCH  21  22
ENDBRANCH  20  21
ENDBRANCH  19  20
ENDBRANCH  18  19
ENDBRANCH  17  18
ENDBRANCH   1  17
TORSDOF 26
ENDMDL
MODEL 9
REMARK VINA RESULT:    20.016      3.949     11.893
REMARK INTER + INTRA:          49.944
REMARK INTER:                  51.864
REMARK INTRA:                  -1.920
REMARK UNBOUND:                -0.494
REMARK SMILES CCCCCCCCCCCCCCCCCCCCCCCCCCCC(=O)[O-]
REMARK SMILES IDX 15 1 16 2 17 3 18 4 19 5 20 6 21 7 22 8 23 9 24 10 25 11
REMARK SMILES IDX 26 12 27 13 28 14 29 15 30 16 14 17 13 18 12 19 11 20 10 21
REMARK SMILES IDX 9 22 8 23 7 24 6 25 5 26 4 27 3 28 2 29 1 30
REMARK H PARENT
REMARK Flexibility Score: inf
ROOT
ATOM      1  C   UNL     1     -10.869  57.392  -3.323  1.00  0.00     0.000 C 
ENDROOT
BRANCH   1   2
ATOM      2  C   UNL     1     -11.943  58.434  -3.687  1.00  0.00     0.000 C 
BRANCH   2   3
ATOM      3  C   UNL     1     -13.254  57.858  -4.251  1.00  0.00     0.000 C 
BRANCH   3   4
ATOM      4  C   UNL     1     -14.245  58.946  -4.700  1.00  0.00     0.000 C 
BRANCH   4   5
ATOM      5  C   UNL     1     -14.794  59.779  -3.527  1.00  0.00     0.000 C 
BRANCH   5   6
ATOM      6  C   UNL     1     -15.887  60.801  -3.903  1.00  0.00     0.000 C 
BRANCH   6   7
ATOM      7  C   UNL     1     -17.110  60.832  -2.964  1.00  0.00     0.000 C 
BRANCH   7   8
ATOM      8  C   UNL     1     -18.466  60.593  -3.655  1.00  0.00     0.000 C 
BRANCH   8   9
ATOM      9  C   UNL     1     -19.058  59.210  -3.337  1.00  0.00     0.000 C 
BRANCH   9  10
ATOM     10  C   UNL     1     -18.497  58.611  -2.037  1.00  0.00     0.000 C 
BRANCH  10  11
ATOM     11  C   UNL     1     -18.348  57.081  -2.104  1.00  0.00     0.000 C 
BRANCH  11  12
ATOM     12  C   UNL     1     -16.884  56.620  -1.985  1.00  0.00     0.006 C 
BRANCH  12  13
ATOM     13  C   UNL     1     -16.226  56.255  -3.324  1.00  0.00     0.053 C 
BRANCH  13  14
ATOM     14  C   UNL     1     -17.039  55.262  -4.098  1.00  0.00     0.041 C 
ATOM     15  O   UNL     1     -17.557  54.274  -3.515  1.00  0.00    -0.550 OA
ATOM     16  O   UNL     1     -17.238  55.438  -5.461  1.00  0.00    -0.550 OA
ENDBRANCH  13  14
ENDBRANCH  12  13
ENDBRANCH  11  12
ENDBRANCH  10  11
ENDBRANCH   9  10
ENDBRANCH   8   9
ENDBRANCH   7   8
ENDBRANCH   6   7
ENDBRANCH   5   6
ENDBRANCH   4   5
ENDBRANCH   3   4
ENDBRANCH   2   3
ENDBRANCH   1   2
BRANCH   1  17
ATOM     17  C   UNL     1     -11.336  55.944  -3.553  1.00  0.00     0.000 C 
BRANCH  17  18
ATOM     18  C   UNL     1     -10.411  55.175  -4.510  1.00  0.00     0.000 C 
BRANCH  18  19
ATOM     19  C   UNL     1     -10.098  53.753  -4.013  1.00  0.00     0.000 C 
BRANCH  19  20
ATOM     20  C   UNL     1      -8.601  53.539  -3.737  1.00  0.00     0.000 C 
BRANCH  20  21
ATOM     21  C   UNL     1      -8.338  52.430  -2.707  1.00  0.00     0.000 C 
BRANCH  21  22
ATOM     22  C   UNL     1      -9.012  51.117  -3.134  1.00  0.00    -0.000 C 
BRANCH  22  23
ATOM     23  C   UNL     1      -9.762  50.432  -1.981  1.00  0.00    -0.000 C 
BRANCH  23  24
ATOM     24  C   UNL     1     -10.471  49.142  -2.426  1.00  0.00    -0.000 C 
BRANCH  24  25
ATOM     25  C   UNL     1      -9.796  48.479  -3.639  1.00  0.00    -0.000 C 
BRANCH  25  26
ATOM     26  C   UNL     1      -8.862  47.301  -3.302  1.00  0.00    -0.000 C 
BRANCH  26  27
ATOM     27  C   UNL     1      -8.310  47.336  -1.860  1.00  0.00    -0.000 C 
BRANCH  27  28
ATOM     28  C   UNL     1      -6.849  46.869  -1.786  1.00  0.00    -0.000 C 
BRANCH  28  29
ATOM     29  C   UNL     1      -6.746  45.475  -1.157  1.00  0.00    -0.003 C 
ATOM     30  C   UNL     1      -5.652  44.649  -1.826  1.00  0.00     0.004 C 
ENDBRANCH  28  29
ENDBRANCH  27  28
ENDBRANCH  26  27
ENDBRANCH  25  26
ENDBRANCH  24  25
ENDBRANCH  23  24
ENDBRANCH  22  23
ENDBRANCH  21  22
ENDBRANCH  20  21
ENDBRANCH  19  20
ENDBRANCH  18  19
ENDBRANCH  17  18
ENDBRANCH   1  17
TORSDOF 26
ENDMDL
