MODEL 1
REMARK VINA RESULT:    -7.994      0.000      0.000
REMARK INTER + INTRA:          -7.994
REMARK INTER:                  -7.994
REMARK INTRA:                   0.000
REMARK UNBOUND:                 0.000
REMARK SMILES C=C1CCC[C@]2(C)CC(=O)C(=C(C)C)C[C@@H]12
REMARK SMILES IDX 13 1 12 2 11 3 15 4 16 5 2 6 1 7 3 8 4 9 5 10 6 11 8 12 9 13
REMARK SMILES IDX 10 14 7 15 14 16
REMARK H PARENT
REMARK Flexibility Score: inf
ROOT
ATOM      1  C   UNL     1      31.698  19.504  21.804  1.00  0.00     0.039 C 
ATOM      2  C   UNL     1      32.670  20.558  21.322  1.00  0.00    -0.070 C 
ATOM      3  C   UNL     1      33.045  20.630  20.011  1.00  0.00    -0.006 C 
ATOM      4  C   UNL     1      32.516  19.637  18.984  1.00  0.00     0.047 C 
ATOM      5  C   UNL     1      33.520  19.371  17.834  1.00  0.00     0.025 C 
ATOM      6  C   UNL     1      33.027  18.413  16.751  1.00  0.00    -0.073 C 
ATOM      7  C   UNL     1      31.812  17.830  16.754  1.00  0.00     0.008 C 
ATOM      8  C   UNL     1      34.008  18.089  15.649  1.00  0.00     0.031 C 
ATOM      9  C   UNL     1      34.546  19.377  15.020  1.00  0.00     0.005 C 
ATOM     10  C   UNL     1      35.091  20.345  16.085  1.00  0.00     0.008 C 
ATOM     11  C   UNL     1      34.044  20.692  17.188  1.00  0.00    -0.018 C 
ATOM     12  C   UNL     1      34.755  21.529  18.278  1.00  0.00     0.088 C 
ATOM     13  C   UNL     1      33.884  21.745  19.483  1.00  0.00     0.159 C 
ATOM     14  O   UNL     1      33.873  22.884  20.022  1.00  0.00    -0.295 OA
ATOM     15  C   UNL     1      32.892  21.529  16.566  1.00  0.00     0.012 C 
ATOM     16  C   UNL     1      33.231  21.497  22.365  1.00  0.00     0.039 C 
ENDROOT
TORSDOF 0
ENDMDL
MODEL 2
REMARK VINA RESULT:    -7.225      7.371     11.600
REMARK INTER + INTRA:          -7.225
REMARK INTER:                  -7.225
REMARK INTRA:                   0.000
REMARK UNBOUND:                 0.000
REMARK SMILES C=C1CCC[C@]2(C)CC(=O)C(=C(C)C)C[C@@H]12
REMARK SMILES IDX 13 1 12 2 11 3 15 4 16 5 2 6 1 7 3 8 4 9 5 10 6 11 8 12 9 13
REMARK SMILES IDX 10 14 7 15 14 16
REMARK H PARENT
REMARK Flexibility Score: inf
ROOT
ATOM      1  C   UNL     1      30.083  19.925  24.029  1.00  0.00     0.039 C 
ATOM      2  C   UNL     1      30.531  18.975  25.118  1.00  0.00    -0.070 C 
ATOM      3  C   UNL     1      29.851  18.878  26.298  1.00  0.00    -0.006 C 
ATOM      4  C   UNL     1      28.625  19.740  26.574  1.00  0.00     0.047 C 
ATOM      5  C   UNL     1      28.448  20.066  28.078  1.00  0.00     0.025 C 
ATOM      6  C   UNL     1      27.210  20.895  28.421  1.00  0.00    -0.073 C 
ATOM      7  C   UNL     1      26.312  21.322  27.513  1.00  0.00     0.008 C 
ATOM      8  C   UNL     1      27.044  21.277  29.873  1.00  0.00     0.031 C 
ATOM      9  C   UNL     1      27.119  20.034  30.763  1.00  0.00     0.005 C 
ATOM     10  C   UNL     1      28.379  19.201  30.471  1.00  0.00     0.008 C 
ATOM     11  C   UNL     1      28.504  18.787  28.972  1.00  0.00    -0.018 C 
ATOM     12  C   UNL     1      29.880  18.106  28.775  1.00  0.00     0.088 C 
ATOM     13  C   UNL     1      30.182  17.850  27.326  1.00  0.00     0.159 C 
ATOM     14  O   UNL     1      30.705  16.749  27.006  1.00  0.00    -0.295 OA
ATOM     15  C   UNL     1      27.376  17.781  28.616  1.00  0.00     0.012 C 
ATOM     16  C   UNL     1      31.783  18.171  24.851  1.00  0.00     0.039 C 
ENDROOT
TORSDOF 0
ENDMDL
MODEL 3
REMARK VINA RESULT:    -6.610      2.805      6.796
REMARK INTER + INTRA:          -6.610
REMARK INTER:                  -6.610
REMARK INTRA:                   0.000
REMARK UNBOUND:                 0.000
REMARK SMILES C=C1CCC[C@]2(C)CC(=O)C(=C(C)C)C[C@@H]12
REMARK SMILES IDX 13 1 12 2 11 3 15 4 16 5 2 6 1 7 3 8 4 9 5 10 6 11 8 12 9 13
REMARK SMILES IDX 10 14 7 15 14 16
REMARK H PARENT
REMARK Flexibility Score: inf
ROOT
ATOM      1  C   UNL     1      33.826  21.135  19.257  1.00  0.00     0.039 C 
ATOM      2  C   UNL     1      32.567  20.608  19.908  1.00  0.00    -0.070 C 
ATOM      3  C   UNL     1      32.515  20.356  21.249  1.00  0.00    -0.006 C 
ATOM      4  C   UNL     1      33.732  20.575  22.140  1.00  0.00     0.047 C 
ATOM      5  C   UNL     1      33.771  19.608  23.350  1.00  0.00     0.025 C 
ATOM      6  C   UNL     1      34.949  19.808  24.303  1.00  0.00    -0.073 C 
ATOM      7  C   UNL     1      35.899  20.750  24.142  1.00  0.00     0.008 C 
ATOM      8  C   UNL     1      35.044  18.840  25.459  1.00  0.00     0.031 C 
ATOM      9  C   UNL     1      33.726  18.809  26.237  1.00  0.00     0.005 C 
ATOM     10  C   UNL     1      32.524  18.565  25.308  1.00  0.00     0.008 C 
ATOM     11  C   UNL     1      32.428  19.602  24.147  1.00  0.00    -0.018 C 
ATOM     12  C   UNL     1      31.291  19.156  23.197  1.00  0.00     0.088 C 
ATOM     13  C   UNL     1      31.249  19.977  21.940  1.00  0.00     0.159 C 
ATOM     14  O   UNL     1      30.127  20.343  21.497  1.00  0.00    -0.295 OA
ATOM     15  C   UNL     1      32.094  21.003  24.729  1.00  0.00     0.012 C 
ATOM     16  C   UNL     1      31.388  20.340  19.000  1.00  0.00     0.039 C 
ENDROOT
TORSDOF 0
ENDMDL
MODEL 4
REMARK VINA RESULT:    -6.383      2.028      3.439
REMARK INTER + INTRA:          -6.383
REMARK INTER:                  -6.383
REMARK INTRA:                   0.000
REMARK UNBOUND:                 0.000
REMARK SMILES C=C1CCC[C@]2(C)CC(=O)C(=C(C)C)C[C@@H]12
REMARK SMILES IDX 13 1 12 2 11 3 15 4 16 5 2 6 1 7 3 8 4 9 5 10 6 11 8 12 9 13
REMARK SMILES IDX 10 14 7 15 14 16
REMARK H PARENT
REMARK Flexibility Score: inf
ROOT
ATOM      1  C   UNL     1      33.941  21.132  23.450  1.00  0.00     0.039 C 
ATOM      2  C   UNL     1      32.652  20.630  22.840  1.00  0.00    -0.070 C 
ATOM      3  C   UNL     1      32.519  20.475  21.490  1.00  0.00    -0.006 C 
ATOM      4  C   UNL     1      33.658  20.825  20.541  1.00  0.00     0.047 C 
ATOM      5  C   UNL     1      33.159  21.303  19.155  1.00  0.00     0.025 C 
ATOM      6  C   UNL     1      34.260  21.629  18.146  1.00  0.00    -0.073 C 
ATOM      7  C   UNL     1      35.577  21.513  18.401  1.00  0.00     0.008 C 
ATOM      8  C   UNL     1      33.802  22.155  16.805  1.00  0.00     0.031 C 
ATOM      9  C   UNL     1      32.772  21.207  16.186  1.00  0.00     0.005 C 
ATOM     10  C   UNL     1      31.626  20.895  17.164  1.00  0.00     0.008 C 
ATOM     11  C   UNL     1      32.125  20.317  18.524  1.00  0.00    -0.018 C 
ATOM     12  C   UNL     1      30.908  20.203  19.474  1.00  0.00     0.088 C 
ATOM     13  C   UNL     1      31.315  19.846  20.875  1.00  0.00     0.159 C 
ATOM     14  O   UNL     1      30.625  18.999  21.504  1.00  0.00    -0.295 OA
ATOM     15  C   UNL     1      32.734  18.906  18.297  1.00  0.00     0.012 C 
ATOM     16  C   UNL     1      31.511  20.345  23.791  1.00  0.00     0.039 C 
ENDROOT
TORSDOF 0
ENDMDL
MODEL 5
REMARK VINA RESULT:    -6.121      5.431      7.419
REMARK INTER + INTRA:          -6.121
REMARK INTER:                  -6.121
REMARK INTRA:                   0.000
REMARK UNBOUND:                 0.000
REMARK SMILES C=C1CCC[C@]2(C)CC(=O)C(=C(C)C)C[C@@H]12
REMARK SMILES IDX 13 1 12 2 11 3 15 4 16 5 2 6 1 7 3 8 4 9 5 10 6 11 8 12 9 13
REMARK SMILES IDX 10 14 7 15 14 16
REMARK H PARENT
REMARK Flexibility Score: inf
ROOT
ATOM      1  C   UNL     1      29.877  18.140  27.780  1.00  0.00     0.039 C 
ATOM      2  C   UNL     1      29.568  18.741  26.428  1.00  0.00    -0.070 C 
ATOM      3  C   UNL     1      30.560  19.022  25.533  1.00  0.00    -0.006 C 
ATOM      4  C   UNL     1      32.023  18.761  25.870  1.00  0.00     0.047 C 
ATOM      5  C   UNL     1      32.986  19.748  25.165  1.00  0.00     0.025 C 
ATOM      6  C   UNL     1      34.472  19.508  25.435  1.00  0.00    -0.073 C 
ATOM      7  C   UNL     1      34.948  18.518  26.213  1.00  0.00     0.008 C 
ATOM      8  C   UNL     1      35.431  20.493  24.808  1.00  0.00     0.031 C 
ATOM      9  C   UNL     1      35.171  20.605  23.304  1.00  0.00     0.005 C 
ATOM     10  C   UNL     1      33.690  20.891  23.003  1.00  0.00     0.008 C 
ATOM     11  C   UNL     1      32.725  19.837  23.629  1.00  0.00    -0.018 C 
ATOM     12  C   UNL     1      31.272  20.320  23.401  1.00  0.00     0.088 C 
ATOM     13  C   UNL     1      30.273  19.477  24.142  1.00  0.00     0.159 C 
ATOM     14  O   UNL     1      29.203  19.159  23.557  1.00  0.00    -0.295 OA
ATOM     15  C   UNL     1      32.927  18.466  22.927  1.00  0.00     0.012 C 
ATOM     16  C   UNL     1      28.117  19.049  26.132  1.00  0.00     0.039 C 
ENDROOT
TORSDOF 0
ENDMDL
MODEL 6
REMARK VINA RESULT:    -5.948      5.431      9.074
REMARK INTER + INTRA:          -5.948
REMARK INTER:                  -5.948
REMARK INTRA:                   0.000
REMARK UNBOUND:                 0.000
REMARK SMILES C=C1CCC[C@]2(C)CC(=O)C(=C(C)C)C[C@@H]12
REMARK SMILES IDX 13 1 12 2 11 3 15 4 16 5 2 6 1 7 3 8 4 9 5 10 6 11 8 12 9 13
REMARK SMILES IDX 10 14 7 15 14 16
REMARK H PARENT
REMARK Flexibility Score: inf
ROOT
ATOM      1  C   UNL     1      32.527  21.508  24.419  1.00  0.00     0.039 C 
ATOM      2  C   UNL     1      33.456  20.379  24.034  1.00  0.00    -0.070 C 
ATOM      3  C   UNL     1      34.614  20.148  24.721  1.00  0.00    -0.006 C 
ATOM      4  C   UNL     1      35.027  21.034  25.890  1.00  0.00     0.047 C 
ATOM      5  C   UNL     1      36.564  21.139  26.049  1.00  0.00     0.025 C 
ATOM      6  C   UNL     1      37.038  21.983  27.231  1.00  0.00    -0.073 C 
ATOM      7  C   UNL     1      36.212  22.598  28.100  1.00  0.00     0.008 C 
ATOM      8  C   UNL     1      38.533  22.152  27.375  1.00  0.00     0.031 C 
ATOM      9  C   UNL     1      39.224  20.786  27.381  1.00  0.00     0.005 C 
ATOM     10  C   UNL     1      38.800  19.929  26.176  1.00  0.00     0.008 C 
ATOM     11  C   UNL     1      37.255  19.739  26.075  1.00  0.00    -0.018 C 
ATOM     12  C   UNL     1      36.946  19.010  24.745  1.00  0.00     0.088 C 
ATOM     13  C   UNL     1      35.473  18.957  24.458  1.00  0.00     0.159 C 
ATOM     14  O   UNL     1      34.986  17.887  24.005  1.00  0.00    -0.295 OA
ATOM     15  C   UNL     1      36.760  18.871  27.265  1.00  0.00     0.012 C 
ATOM     16  C   UNL     1      33.062  19.546  22.835  1.00  0.00     0.039 C 
ENDROOT
TORSDOF 0
ENDMDL
MODEL 7
REMARK VINA RESULT:    -5.938      7.492      9.319
REMARK INTER + INTRA:          -5.938
REMARK INTER:                  -5.938
REMARK INTRA:                   0.000
REMARK UNBOUND:                 0.000
REMARK SMILES C=C1CCC[C@]2(C)CC(=O)C(=C(C)C)C[C@@H]12
REMARK SMILES IDX 13 1 12 2 11 3 15 4 16 5 2 6 1 7 3 8 4 9 5 10 6 11 8 12 9 13
REMARK SMILES IDX 10 14 7 15 14 16
REMARK H PARENT
REMARK Flexibility Score: inf
ROOT
ATOM      1  C   UNL     1      35.863  22.367  26.991  1.00  0.00     0.039 C 
ATOM      2  C   UNL     1      35.393  21.191  26.165  1.00  0.00    -0.070 C 
ATOM      3  C   UNL     1      36.200  20.112  25.944  1.00  0.00    -0.006 C 
ATOM      4  C   UNL     1      37.616  20.060  26.503  1.00  0.00     0.047 C 
ATOM      5  C   UNL     1      38.582  19.236  25.614  1.00  0.00     0.025 C 
ATOM      6  C   UNL     1      40.010  19.115  26.147  1.00  0.00    -0.073 C 
ATOM      7  C   UNL     1      40.433  19.660  27.303  1.00  0.00     0.008 C 
ATOM      8  C   UNL     1      40.988  18.367  25.271  1.00  0.00     0.031 C 
ATOM      9  C   UNL     1      40.431  16.988  24.909  1.00  0.00     0.005 C 
ATOM     10  C   UNL     1      39.010  17.082  24.328  1.00  0.00     0.008 C 
ATOM     11  C   UNL     1      38.013  17.824  25.271  1.00  0.00    -0.018 C 
ATOM     12  C   UNL     1      36.675  18.000  24.513  1.00  0.00     0.088 C 
ATOM     13  C   UNL     1      35.713  18.880  25.259  1.00  0.00     0.159 C 
ATOM     14  O   UNL     1      34.499  18.545  25.300  1.00  0.00    -0.295 OA
ATOM     15  C   UNL     1      37.772  16.971  26.547  1.00  0.00     0.012 C 
ATOM     16  C   UNL     1      34.007  21.285  25.568  1.00  0.00     0.039 C 
ENDROOT
TORSDOF 0
ENDMDL
MODEL 8
REMARK VINA RESULT:    -5.892      7.030      8.528
REMARK INTER + INTRA:          -5.892
REMARK INTER:                  -5.892
REMARK INTRA:                   0.000
REMARK UNBOUND:                 0.000
REMARK SMILES C=C1CCC[C@]2(C)CC(=O)C(=C(C)C)C[C@@H]12
REMARK SMILES IDX 13 1 12 2 11 3 15 4 16 5 2 6 1 7 3 8 4 9 5 10 6 11 8 12 9 13
REMARK SMILES IDX 10 14 7 15 14 16
REMARK H PARENT
REMARK Flexibility Score: inf
ROOT
ATOM      1  C   UNL     1      31.772  17.339  25.488  1.00  0.00     0.039 C 
ATOM      2  C   UNL     1      31.904  18.837  25.333  1.00  0.00    -0.070 C 
ATOM      3  C   UNL     1      33.113  19.459  25.454  1.00  0.00    -0.006 C 
ATOM      4  C   UNL     1      34.377  18.670  25.773  1.00  0.00     0.047 C 
ATOM      5  C   UNL     1      35.413  19.495  26.575  1.00  0.00     0.025 C 
ATOM      6  C   UNL     1      36.720  18.767  26.890  1.00  0.00    -0.073 C 
ATOM      7  C   UNL     1      36.992  17.505  26.506  1.00  0.00     0.008 C 
ATOM      8  C   UNL     1      37.725  19.528  27.723  1.00  0.00     0.031 C 
ATOM      9  C   UNL     1      38.010  20.894  27.095  1.00  0.00     0.005 C 
ATOM     10  C   UNL     1      36.714  21.671  26.807  1.00  0.00     0.008 C 
ATOM     11  C   UNL     1      35.712  20.877  25.913  1.00  0.00    -0.018 C 
ATOM     12  C   UNL     1      34.394  21.684  25.835  1.00  0.00     0.088 C 
ATOM     13  C   UNL     1      33.296  20.910  25.162  1.00  0.00     0.159 C 
ATOM     14  O   UNL     1      32.549  21.512  24.344  1.00  0.00    -0.295 OA
ATOM     15  C   UNL     1      36.304  20.719  24.485  1.00  0.00     0.012 C 
ATOM     16  C   UNL     1      30.631  19.612  25.076  1.00  0.00     0.039 C 
ENDROOT
TORSDOF 0
ENDMDL
MODEL 9
REMARK VINA RESULT:    -5.822      7.322      9.939
REMARK INTER + INTRA:          -5.822
REMARK INTER:                  -5.822
REMARK INTRA:                   0.000
REMARK UNBOUND:                 0.000
REMARK SMILES C=C1CCC[C@]2(C)CC(=O)C(=C(C)C)C[C@@H]12
REMARK SMILES IDX 13 1 12 2 11 3 15 4 16 5 2 6 1 7 3 8 4 9 5 10 6 11 8 12 9 13
REMARK SMILES IDX 10 14 7 15 14 16
REMARK H PARENT
REMARK Flexibility Score: inf
ROOT
ATOM      1  C   UNL     1      38.397  21.811  30.094  1.00  0.00     0.039 C 
ATOM      2  C   UNL     1      39.124  20.706  29.362  1.00  0.00    -0.070 C 
ATOM      3  C   UNL     1      38.666  20.224  28.170  1.00  0.00    -0.006 C 
ATOM      4  C   UNL     1      37.390  20.766  27.539  1.00  0.00     0.047 C 
ATOM      5  C   UNL     1      36.643  19.706  26.690  1.00  0.00     0.025 C 
ATOM      6  C   UNL     1      35.374  20.205  25.999  1.00  0.00    -0.073 C 
ATOM      7  C   UNL     1      34.912  21.467  26.087  1.00  0.00     0.008 C 
ATOM      8  C   UNL     1      34.594  19.177  25.213  1.00  0.00     0.031 C 
ATOM      9  C   UNL     1      35.508  18.468  24.211  1.00  0.00     0.005 C 
ATOM     10  C   UNL     1      36.774  17.915  24.887  1.00  0.00     0.008 C 
ATOM     11  C   UNL     1      37.581  19.006  25.657  1.00  0.00    -0.018 C 
ATOM     12  C   UNL     1      38.726  18.304  26.425  1.00  0.00     0.088 C 
ATOM     13  C   UNL     1      39.440  19.241  27.357  1.00  0.00     0.159 C 
ATOM     14  O   UNL     1      40.697  19.182  27.425  1.00  0.00    -0.295 OA
ATOM     15  C   UNL     1      38.184  20.017  24.644  1.00  0.00     0.012 C 
ATOM     16  C   UNL     1      40.356  20.138  30.031  1.00  0.00     0.039 C 
ENDROOT
TORSDOF 0
ENDMDL
