MODEL 1
REMARK VINA RESULT:    -6.455      0.000      0.000
REMARK INTER + INTRA:          -7.958
REMARK INTER:                  -7.964
REMARK INTRA:                   0.006
REMARK UNBOUND:                 0.006
REMARK SMILES C=CC[C@@H](C)C(=O)CC
REMARK SMILES IDX 4 1 5 2 6 3 7 4 8 5 9 6 3 7 2 8 1 9
REMARK H PARENT
REMARK Flexibility Score: inf
ROOT
ATOM      1  C   UNL     1      10.236  20.423  24.576  1.00  0.00     0.057 C 
ATOM      2  C   UNL     1      10.416  19.451  23.405  1.00  0.00     0.016 C 
ENDROOT
BRANCH   1   3
ATOM      3  C   UNL     1      11.130  21.631  24.383  1.00  0.00     0.135 C 
ATOM      4  O   UNL     1      10.638  22.706  24.071  1.00  0.00    -0.299 OA
BRANCH   3   5
ATOM      5  C   UNL     1      12.620  21.536  24.582  1.00  0.00     0.072 C 
ATOM      6  C   UNL     1      13.246  22.924  24.652  1.00  0.00     0.012 C 
ENDBRANCH   3   5
ENDBRANCH   1   3
BRANCH   1   7
ATOM      7  C   UNL     1       8.755  20.834  24.716  1.00  0.00     0.038 C 
BRANCH   7   8
ATOM      8  C   UNL     1       7.833  19.846  24.049  1.00  0.00    -0.034 C 
ATOM      9  C   UNL     1       7.363  18.771  24.690  1.00  0.00     0.004 C 
ENDBRANCH   7   8
ENDBRANCH   1   7
TORSDOF 4
ENDMDL
MODEL 2
REMARK VINA RESULT:    -6.341      1.450      4.641
REMARK INTER + INTRA:          -7.818
REMARK INTER:                  -7.955
REMARK INTRA:                   0.137
REMARK UNBOUND:                 0.006
REMARK SMILES C=CC[C@@H](C)C(=O)CC
REMARK SMILES IDX 4 1 5 2 6 3 7 4 8 5 9 6 3 7 2 8 1 9
REMARK H PARENT
REMARK Flexibility Score: inf
ROOT
ATOM      1  C   UNL     1      10.618  21.082  24.683  1.00  0.00     0.057 C 
ATOM      2  C   UNL     1      10.360  22.355  23.869  1.00  0.00     0.016 C 
ENDROOT
BRANCH   1   3
ATOM      3  C   UNL     1       9.700  19.975  24.209  1.00  0.00     0.135 C 
ATOM      4  O   UNL     1      10.175  18.964  23.710  1.00  0.00    -0.299 OA
BRANCH   3   5
ATOM      5  C   UNL     1       8.205  20.089  24.352  1.00  0.00     0.072 C 
ATOM      6  C   UNL     1       7.568  18.710  24.491  1.00  0.00     0.012 C 
ENDBRANCH   3   5
ENDBRANCH   1   3
BRANCH   1   7
ATOM      7  C   UNL     1      12.101  20.668  24.583  1.00  0.00     0.038 C 
BRANCH   7   8
ATOM      8  C   UNL     1      12.971  21.801  24.103  1.00  0.00    -0.034 C 
ATOM      9  C   UNL     1      13.381  22.775  24.920  1.00  0.00     0.004 C 
ENDBRANCH   7   8
ENDBRANCH   1   7
TORSDOF 4
ENDMDL
MODEL 3
REMARK VINA RESULT:    -3.676     11.962     13.346
REMARK INTER + INTRA:          -4.530
REMARK INTER:                  -4.302
REMARK INTRA:                  -0.228
REMARK UNBOUND:                 0.006
REMARK SMILES C=CC[C@@H](C)C(=O)CC
REMARK SMILES IDX 4 1 5 2 6 3 7 4 8 5 9 6 3 7 2 8 1 9
REMARK H PARENT
REMARK Flexibility Score: inf
ROOT
ATOM      1  C   UNL     1      15.378  12.670  16.078  1.00  0.00     0.057 C 
ATOM      2  C   UNL     1      14.049  12.150  16.638  1.00  0.00     0.016 C 
ENDROOT
BRANCH   1   3
ATOM      3  C   UNL     1      15.726  11.924  14.807  1.00  0.00     0.135 C 
ATOM      4  O   UNL     1      15.095  12.144  13.783  1.00  0.00    -0.299 OA
BRANCH   3   5
ATOM      5  C   UNL     1      16.847  10.919  14.776  1.00  0.00     0.072 C 
ATOM      6  C   UNL     1      18.202  11.619  14.782  1.00  0.00     0.012 C 
ENDBRANCH   3   5
ENDBRANCH   1   3
BRANCH   1   7
ATOM      7  C   UNL     1      15.306  14.192  15.839  1.00  0.00     0.038 C 
BRANCH   7   8
ATOM      8  C   UNL     1      13.950  14.752  16.181  1.00  0.00    -0.034 C 
ATOM      9  C   UNL     1      13.701  16.065  16.167  1.00  0.00     0.004 C 
ENDBRANCH   7   8
ENDBRANCH   1   7
TORSDOF 4
ENDMDL
MODEL 4
REMARK VINA RESULT:    -3.629     11.714     13.263
REMARK INTER + INTRA:          -4.471
REMARK INTER:                  -3.994
REMARK INTRA:                  -0.477
REMARK UNBOUND:                 0.006
REMARK SMILES C=CC[C@@H](C)C(=O)CC
REMARK SMILES IDX 4 1 5 2 6 3 7 4 8 5 9 6 3 7 2 8 1 9
REMARK H PARENT
REMARK Flexibility Score: inf
ROOT
ATOM      1  C   UNL     1      15.640  12.973  16.218  1.00  0.00     0.057 C 
ATOM      2  C   UNL     1      16.650  14.025  15.746  1.00  0.00     0.016 C 
ENDROOT
BRANCH   1   3
ATOM      3  C   UNL     1      14.253  13.580  16.268  1.00  0.00     0.135 C 
ATOM      4  O   UNL     1      14.124  14.792  16.363  1.00  0.00    -0.299 OA
BRANCH   3   5
ATOM      5  C   UNL     1      13.022  12.716  16.191  1.00  0.00     0.072 C 
ATOM      6  C   UNL     1      12.071  13.224  15.113  1.00  0.00     0.012 C 
ENDBRANCH   3   5
ENDBRANCH   1   3
BRANCH   1   7
ATOM      7  C   UNL     1      15.681  11.733  15.302  1.00  0.00     0.038 C 
BRANCH   7   8
ATOM      8  C   UNL     1      16.000  12.098  13.875  1.00  0.00    -0.034 C 
ATOM      9  C   UNL     1      15.069  12.092  12.917  1.00  0.00     0.004 C 
ENDBRANCH   7   8
ENDBRANCH   1   7
TORSDOF 4
ENDMDL
MODEL 5
REMARK VINA RESULT:    -3.612     11.488     11.867
REMARK INTER + INTRA:          -4.450
REMARK INTER:                  -4.022
REMARK INTRA:                  -0.429
REMARK UNBOUND:                 0.006
REMARK SMILES C=CC[C@@H](C)C(=O)CC
REMARK SMILES IDX 4 1 5 2 6 3 7 4 8 5 9 6 3 7 2 8 1 9
REMARK H PARENT
REMARK Flexibility Score: inf
ROOT
ATOM      1  C   UNL     1       7.067  28.098  17.072  1.00  0.00     0.057 C 
ATOM      2  C   UNL     1       7.084  26.586  17.324  1.00  0.00     0.016 C 
ENDROOT
BRANCH   1   3
ATOM      3  C   UNL     1       7.724  28.405  15.742  1.00  0.00     0.135 C 
ATOM      4  O   UNL     1       7.110  28.209  14.703  1.00  0.00    -0.299 OA
BRANCH   3   5
ATOM      5  C   UNL     1       9.122  28.960  15.674  1.00  0.00     0.072 C 
ATOM      6  C   UNL     1       9.174  30.368  16.256  1.00  0.00     0.012 C 
ENDBRANCH   3   5
ENDBRANCH   1   3
BRANCH   1   7
ATOM      7  C   UNL     1       5.624  28.641  17.128  1.00  0.00     0.038 C 
BRANCH   7   8
ATOM      8  C   UNL     1       5.562  30.010  17.754  1.00  0.00    -0.034 C 
ATOM      9  C   UNL     1       5.528  31.125  17.017  1.00  0.00     0.004 C 
ENDBRANCH   7   8
ENDBRANCH   1   7
TORSDOF 4
ENDMDL
MODEL 6
REMARK VINA RESULT:    -3.570     11.596     12.248
REMARK INTER + INTRA:          -4.399
REMARK INTER:                  -4.008
REMARK INTRA:                  -0.391
REMARK UNBOUND:                 0.006
REMARK SMILES C=CC[C@@H](C)C(=O)CC
REMARK SMILES IDX 4 1 5 2 6 3 7 4 8 5 9 6 3 7 2 8 1 9
REMARK H PARENT
REMARK Flexibility Score: inf
ROOT
ATOM      1  C   UNL     1       7.855  30.000  16.264  1.00  0.00     0.057 C 
ATOM      2  C   UNL     1       9.326  30.432  16.268  1.00  0.00     0.016 C 
ENDROOT
BRANCH   1   3
ATOM      3  C   UNL     1       7.763  28.491  16.165  1.00  0.00     0.135 C 
ATOM      4  O   UNL     1       8.101  27.929  15.133  1.00  0.00    -0.299 OA
BRANCH   3   5
ATOM      5  C   UNL     1       7.273  27.664  17.324  1.00  0.00     0.072 C 
ATOM      6  C   UNL     1       6.134  26.747  16.891  1.00  0.00     0.012 C 
ENDBRANCH   3   5
ENDBRANCH   1   3
BRANCH   1   7
ATOM      7  C   UNL     1       7.132  30.529  17.520  1.00  0.00     0.038 C 
BRANCH   7   8
ATOM      8  C   UNL     1       5.788  31.125  17.186  1.00  0.00    -0.034 C 
ATOM      9  C   UNL     1       4.695  30.370  17.039  1.00  0.00     0.004 C 
ENDBRANCH   7   8
ENDBRANCH   1   7
TORSDOF 4
ENDMDL
MODEL 7
REMARK VINA RESULT:    -3.568     12.274     12.721
REMARK INTER + INTRA:          -4.397
REMARK INTER:                  -3.935
REMARK INTRA:                  -0.462
REMARK UNBOUND:                 0.006
REMARK SMILES C=CC[C@@H](C)C(=O)CC
REMARK SMILES IDX 4 1 5 2 6 3 7 4 8 5 9 6 3 7 2 8 1 9
REMARK H PARENT
REMARK Flexibility Score: inf
ROOT
ATOM      1  C   UNL     1       5.502  29.716  17.639  1.00  0.00     0.057 C 
ATOM      2  C   UNL     1       4.423  28.775  17.090  1.00  0.00     0.016 C 
ENDROOT
BRANCH   1   3
ATOM      3  C   UNL     1       6.874  29.122  17.393  1.00  0.00     0.135 C 
ATOM      4  O   UNL     1       6.989  27.919  17.203  1.00  0.00    -0.299 OA
BRANCH   3   5
ATOM      5  C   UNL     1       8.104  29.989  17.366  1.00  0.00     0.072 C 
ATOM      6  C   UNL     1       8.859  29.818  16.052  1.00  0.00     0.012 C 
ENDBRANCH   3   5
ENDBRANCH   1   3
BRANCH   1   7
ATOM      7  C   UNL     1       5.372  31.117  17.006  1.00  0.00     0.038 C 
BRANCH   7   8
ATOM      8  C   UNL     1       4.836  31.050  15.599  1.00  0.00    -0.034 C 
ATOM      9  C   UNL     1       5.636  31.124  14.532  1.00  0.00     0.004 C 
ENDBRANCH   7   8
ENDBRANCH   1   7
TORSDOF 4
ENDMDL
MODEL 8
REMARK VINA RESULT:    -3.542     11.589     12.201
REMARK INTER + INTRA:          -4.364
REMARK INTER:                  -3.967
REMARK INTRA:                  -0.398
REMARK UNBOUND:                 0.006
REMARK SMILES C=CC[C@@H](C)C(=O)CC
REMARK SMILES IDX 4 1 5 2 6 3 7 4 8 5 9 6 3 7 2 8 1 9
REMARK H PARENT
REMARK Flexibility Score: inf
ROOT
ATOM      1  C   UNL     1       8.483  29.537  16.521  1.00  0.00     0.057 C 
ATOM      2  C   UNL     1       9.665  30.406  16.077  1.00  0.00     0.016 C 
ENDROOT
BRANCH   1   3
ATOM      3  C   UNL     1       7.197  30.333  16.429  1.00  0.00     0.135 C 
ATOM      4  O   UNL     1       6.785  30.693  15.335  1.00  0.00    -0.299 OA
BRANCH   3   5
ATOM      5  C   UNL     1       6.407  30.682  17.662  1.00  0.00     0.072 C 
ATOM      6  C   UNL     1       5.168  29.801  17.778  1.00  0.00     0.012 C 
ENDBRANCH   3   5
ENDBRANCH   1   3
BRANCH   1   7
ATOM      7  C   UNL     1       8.411  28.248  15.677  1.00  0.00     0.038 C 
BRANCH   7   8
ATOM      8  C   UNL     1       7.267  27.363  16.098  1.00  0.00    -0.034 C 
ATOM      9  C   UNL     1       7.262  26.720  17.270  1.00  0.00     0.004 C 
ENDBRANCH   7   8
ENDBRANCH   1   7
TORSDOF 4
ENDMDL
