MODEL 1
REMARK VINA RESULT:    -4.555      0.000      0.000
REMARK INTER + INTRA:          -7.728
REMARK INTER:                  -6.286
REMARK INTRA:                  -1.442
REMARK UNBOUND:                -1.442
REMARK SMILES CCCCc1cccc(O)c1CCCC
REMARK SMILES IDX 5 1 11 2 9 3 8 4 7 5 6 6 4 7 3 8 2 9 1 10 12 11 13 12 14 13
REMARK SMILES IDX 15 14 10 15
REMARK H PARENT 10 16
REMARK Flexibility Score: inf
ROOT
ATOM      1  C   UNL     1      30.694  -7.040 -23.849  1.00  0.00    -0.041 A 
ATOM      2  C   UNL     1      30.522  -5.696 -23.399  1.00  0.00    -0.003 A 
ATOM      3  C   UNL     1      29.370  -4.982 -23.803  1.00  0.00     0.119 A 
ATOM      4  C   UNL     1      28.417  -5.583 -24.633  1.00  0.00     0.046 A 
ATOM      5  C   UNL     1      28.591  -6.892 -25.070  1.00  0.00     0.004 A 
ATOM      6  C   UNL     1      29.718  -7.613 -24.685  1.00  0.00     0.004 A 
ENDROOT
BRANCH   1   7
ATOM      7  C   UNL     1      31.901  -7.895 -23.509  1.00  0.00     0.036 C 
BRANCH   7   8
ATOM      8  C   UNL     1      32.738  -8.235 -24.752  1.00  0.00     0.004 C 
BRANCH   8   9
ATOM      9  C   UNL     1      34.057  -7.453 -24.806  1.00  0.00    -0.003 C 
ATOM     10  C   UNL     1      34.028  -6.401 -25.910  1.00  0.00     0.004 C 
ENDBRANCH   8   9
ENDBRANCH   7   8
ENDBRANCH   1   7
BRANCH   2  11
ATOM     11  C   UNL     1      31.509  -5.002 -22.473  1.00  0.00     0.040 C 
BRANCH  11  12
ATOM     12  C   UNL     1      32.566  -4.197 -23.248  1.00  0.00     0.005 C 
BRANCH  12  13
ATOM     13  C   UNL     1      33.986  -4.417 -22.711  1.00  0.00    -0.003 C 
ATOM     14  C   UNL     1      33.988  -5.404 -21.548  1.00  0.00     0.004 C 
ENDBRANCH  12  13
ENDBRANCH  11  12
ENDBRANCH   2  11
BRANCH   3  15
ATOM     15  O   UNL     1      29.174  -3.666 -23.379  1.00  0.00    -0.508 OA
ATOM     16  H   UNL     1      28.270  -3.213 -23.449  1.00  0.00     0.293 HD
ENDBRANCH   3  15
TORSDOF 7
ENDMDL
MODEL 2
REMARK VINA RESULT:    -4.190      1.990      4.201
REMARK INTER + INTRA:          -7.224
REMARK INTER:                  -5.799
REMARK INTRA:                  -1.425
REMARK UNBOUND:                -1.442
REMARK SMILES CCCCc1cccc(O)c1CCCC
REMARK SMILES IDX 5 1 11 2 9 3 8 4 7 5 6 6 4 7 3 8 2 9 1 10 12 11 13 12 14 13
REMARK SMILES IDX 15 14 10 15
REMARK H PARENT 10 16
REMARK Flexibility Score: inf
ROOT
ATOM      1  C   UNL     1      31.797  -6.354 -23.306  1.00  0.00    -0.041 A 
ATOM      2  C   UNL     1      30.908  -6.659 -24.379  1.00  0.00    -0.003 A 
ATOM      3  C   UNL     1      31.130  -7.831 -25.140  1.00  0.00     0.119 A 
ATOM      4  C   UNL     1      32.206  -8.675 -24.844  1.00  0.00     0.046 A 
ATOM      5  C   UNL     1      33.071  -8.371 -23.798  1.00  0.00     0.004 A 
ATOM      6  C   UNL     1      32.872  -7.222 -23.038  1.00  0.00     0.004 A 
ENDROOT
BRANCH   1   7
ATOM      7  C   UNL     1      31.682  -5.112 -22.441  1.00  0.00     0.036 C 
BRANCH   7   8
ATOM      8  C   UNL     1      32.943  -4.237 -22.512  1.00  0.00     0.004 C 
BRANCH   8   9
ATOM      9  C   UNL     1      33.173  -3.646 -23.909  1.00  0.00    -0.003 C 
ATOM     10  C   UNL     1      32.545  -2.261 -24.030  1.00  0.00     0.004 C 
ENDBRANCH   8   9
ENDBRANCH   7   8
ENDBRANCH   1   7
BRANCH   2  11
ATOM     11  C   UNL     1      29.706  -5.795 -24.727  1.00  0.00     0.040 C 
BRANCH  11  12
ATOM     12  C   UNL     1      30.057  -4.689 -25.737  1.00  0.00     0.005 C 
BRANCH  12  13
ATOM     13  C   UNL     1      29.300  -3.382 -25.467  1.00  0.00    -0.003 C 
ATOM     14  C   UNL     1      28.890  -3.276 -24.002  1.00  0.00     0.004 C 
ENDBRANCH  12  13
ENDBRANCH  11  12
ENDBRANCH   2  11
BRANCH   3  15
ATOM     15  O   UNL     1      30.276  -8.157 -26.195  1.00  0.00    -0.508 OA
ATOM     16  H   UNL     1      30.524  -8.856 -26.886  1.00  0.00     0.293 HD
ENDBRANCH   3  15
TORSDOF 7
ENDMDL
MODEL 3
REMARK VINA RESULT:    -4.151      2.050      3.765
REMARK INTER + INTRA:          -7.171
REMARK INTER:                  -5.966
REMARK INTRA:                  -1.204
REMARK UNBOUND:                -1.442
REMARK SMILES CCCCc1cccc(O)c1CCCC
REMARK SMILES IDX 5 1 11 2 9 3 8 4 7 5 6 6 4 7 3 8 2 9 1 10 12 11 13 12 14 13
REMARK SMILES IDX 15 14 10 15
REMARK H PARENT 10 16
REMARK Flexibility Score: inf
ROOT
ATOM      1  C   UNL     1      31.133  -5.219 -24.410  1.00  0.00    -0.041 A 
ATOM      2  C   UNL     1      30.887  -6.600 -24.668  1.00  0.00    -0.003 A 
ATOM      3  C   UNL     1      30.438  -6.988 -25.952  1.00  0.00     0.119 A 
ATOM      4  C   UNL     1      30.237  -6.029 -26.952  1.00  0.00     0.046 A 
ATOM      5  C   UNL     1      30.477  -4.684 -26.695  1.00  0.00     0.004 A 
ATOM      6  C   UNL     1      30.918  -4.281 -25.437  1.00  0.00     0.004 A 
ENDROOT
BRANCH   1   7
ATOM      7  C   UNL     1      31.586  -4.678 -23.066  1.00  0.00     0.036 C 
BRANCH   7   8
ATOM      8  C   UNL     1      33.010  -4.106 -23.122  1.00  0.00     0.004 C 
BRANCH   8   9
ATOM      9  C   UNL     1      33.833  -4.448 -21.873  1.00  0.00    -0.003 C 
ATOM     10  C   UNL     1      33.103  -5.459 -20.994  1.00  0.00     0.004 C 
ENDBRANCH   8   9
ENDBRANCH   7   8
ENDBRANCH   1   7
BRANCH   2  11
ATOM     11  C   UNL     1      31.116  -7.688 -23.630  1.00  0.00     0.040 C 
BRANCH  11  12
ATOM     12  C   UNL     1      32.375  -8.520 -23.927  1.00  0.00     0.005 C 
BRANCH  12  13
ATOM     13  C   UNL     1      33.655  -7.676 -23.922  1.00  0.00    -0.003 C 
ATOM     14  C   UNL     1      34.123  -7.377 -25.343  1.00  0.00     0.004 C 
ENDBRANCH  12  13
ENDBRANCH  11  12
ENDBRANCH   2  11
BRANCH   3  15
ATOM     15  O   UNL     1      30.188  -8.332 -26.234  1.00  0.00    -0.508 OA
ATOM     16  H   UNL     1      29.265  -8.661 -26.491  1.00  0.00     0.293 HD
ENDBRANCH   3  15
TORSDOF 7
ENDMDL
MODEL 4
REMARK VINA RESULT:    -4.147      2.170      5.069
REMARK INTER + INTRA:          -7.165
REMARK INTER:                  -5.883
REMARK INTRA:                  -1.282
REMARK UNBOUND:                -1.442
REMARK SMILES CCCCc1cccc(O)c1CCCC
REMARK SMILES IDX 5 1 11 2 9 3 8 4 7 5 6 6 4 7 3 8 2 9 1 10 12 11 13 12 14 13
REMARK SMILES IDX 15 14 10 15
REMARK H PARENT 10 16
REMARK Flexibility Score: inf
ROOT
ATOM      1  C   UNL     1      33.057  -4.647 -22.796  1.00  0.00    -0.041 A 
ATOM      2  C   UNL     1      32.659  -5.783 -22.032  1.00  0.00    -0.003 A 
ATOM      3  C   UNL     1      33.009  -5.844 -20.662  1.00  0.00     0.119 A 
ATOM      4  C   UNL     1      33.737  -4.806 -20.070  1.00  0.00     0.046 A 
ATOM      5  C   UNL     1      34.125  -3.702 -20.821  1.00  0.00     0.004 A 
ATOM      6  C   UNL     1      33.792  -3.623 -22.170  1.00  0.00     0.004 A 
ENDROOT
BRANCH   1   7
ATOM      7  C   UNL     1      32.769  -4.483 -24.278  1.00  0.00     0.036 C 
BRANCH   7   8
ATOM      8  C   UNL     1      31.592  -3.530 -24.536  1.00  0.00     0.004 C 
BRANCH   8   9
ATOM      9  C   UNL     1      30.284  -4.275 -24.833  1.00  0.00    -0.003 C 
ATOM     10  C   UNL     1      29.350  -4.248 -23.626  1.00  0.00     0.004 C 
ENDBRANCH   8   9
ENDBRANCH   7   8
ENDBRANCH   1   7
BRANCH   2  11
ATOM     11  C   UNL     1      31.841  -6.926 -22.614  1.00  0.00     0.040 C 
BRANCH  11  12
ATOM     12  C   UNL     1      32.727  -7.999 -23.270  1.00  0.00     0.005 C 
BRANCH  12  13
ATOM     13  C   UNL     1      32.268  -8.356 -24.690  1.00  0.00    -0.003 C 
ATOM     14  C   UNL     1      30.883  -7.786 -24.980  1.00  0.00     0.004 C 
ENDBRANCH  12  13
ENDBRANCH  11  12
ENDBRANCH   2  11
BRANCH   3  15
ATOM     15  O   UNL     1      32.632  -6.943 -19.888  1.00  0.00    -0.508 OA
ATOM     16  H   UNL     1      31.666  -7.109 -19.632  1.00  0.00     0.293 HD
ENDBRANCH   3  15
TORSDOF 7
ENDMDL
MODEL 5
REMARK VINA RESULT:    -4.139      2.155      4.936
REMARK INTER + INTRA:          -7.154
REMARK INTER:                  -6.265
REMARK INTRA:                  -0.890
REMARK UNBOUND:                -1.442
REMARK SMILES CCCCc1cccc(O)c1CCCC
REMARK SMILES IDX 5 1 11 2 9 3 8 4 7 5 6 6 4 7 3 8 2 9 1 10 12 11 13 12 14 13
REMARK SMILES IDX 15 14 10 15
REMARK H PARENT 10 16
REMARK Flexibility Score: inf
ROOT
ATOM      1  C   UNL     1      33.701  -5.131 -22.989  1.00  0.00    -0.041 A 
ATOM      2  C   UNL     1      33.632  -6.063 -24.068  1.00  0.00    -0.003 A 
ATOM      3  C   UNL     1      33.246  -5.600 -25.348  1.00  0.00     0.119 A 
ATOM      4  C   UNL     1      32.935  -4.251 -25.550  1.00  0.00     0.046 A 
ATOM      5  C   UNL     1      33.002  -3.348 -24.495  1.00  0.00     0.004 A 
ATOM      6  C   UNL     1      33.379  -3.783 -23.227  1.00  0.00     0.004 A 
ENDROOT
BRANCH   1   7
ATOM      7  C   UNL     1      34.071  -5.513 -21.567  1.00  0.00     0.036 C 
BRANCH   7   8
ATOM      8  C   UNL     1      32.940  -5.207 -20.574  1.00  0.00     0.004 C 
BRANCH   8   9
ATOM      9  C   UNL     1      33.444  -4.511 -19.302  1.00  0.00    -0.003 C 
ATOM     10  C   UNL     1      34.125  -3.187 -19.634  1.00  0.00     0.004 C 
ENDBRANCH   8   9
ENDBRANCH   7   8
ENDBRANCH   1   7
BRANCH   2  11
ATOM     11  C   UNL     1      33.986  -7.534 -23.914  1.00  0.00     0.040 C 
BRANCH  11  12
ATOM     12  C   UNL     1      32.745  -8.441 -23.974  1.00  0.00     0.005 C 
BRANCH  12  13
ATOM     13  C   UNL     1      31.582  -7.907 -23.128  1.00  0.00    -0.003 C 
ATOM     14  C   UNL     1      30.358  -7.623 -23.992  1.00  0.00     0.004 C 
ENDBRANCH  12  13
ENDBRANCH  11  12
ENDBRANCH   2  11
BRANCH   3  15
ATOM     15  O   UNL     1      33.169  -6.488 -26.423  1.00  0.00    -0.508 OA
ATOM     16  H   UNL     1      33.249  -7.490 -26.294  1.00  0.00     0.293 HD
ENDBRANCH   3  15
TORSDOF 7
ENDMDL
MODEL 6
REMARK VINA RESULT:    -4.133      2.229      3.571
REMARK INTER + INTRA:          -7.145
REMARK INTER:                  -5.998
REMARK INTRA:                  -1.147
REMARK UNBOUND:                -1.442
REMARK SMILES CCCCc1cccc(O)c1CCCC
REMARK SMILES IDX 5 1 11 2 9 3 8 4 7 5 6 6 4 7 3 8 2 9 1 10 12 11 13 12 14 13
REMARK SMILES IDX 15 14 10 15
REMARK H PARENT 10 16
REMARK Flexibility Score: inf
ROOT
ATOM      1  C   UNL     1      30.786  -5.938 -23.674  1.00  0.00    -0.041 A 
ATOM      2  C   UNL     1      31.904  -6.610 -23.095  1.00  0.00    -0.003 A 
ATOM      3  C   UNL     1      32.362  -7.811 -23.686  1.00  0.00     0.119 A 
ATOM      4  C   UNL     1      31.725  -8.330 -24.819  1.00  0.00     0.046 A 
ATOM      5  C   UNL     1      30.635  -7.672 -25.377  1.00  0.00     0.004 A 
ATOM      6  C   UNL     1      30.168  -6.490 -24.810  1.00  0.00     0.004 A 
ENDROOT
BRANCH   1   7
ATOM      7  C   UNL     1      30.185  -4.662 -23.112  1.00  0.00     0.036 C 
BRANCH   7   8
ATOM      8  C   UNL     1      30.311  -3.483 -24.089  1.00  0.00     0.004 C 
BRANCH   8   9
ATOM      9  C   UNL     1      31.751  -3.271 -24.575  1.00  0.00    -0.003 C 
ATOM     10  C   UNL     1      32.322  -1.959 -24.047  1.00  0.00     0.004 C 
ENDBRANCH   8   9
ENDBRANCH   7   8
ENDBRANCH   1   7
BRANCH   2  11
ATOM     11  C   UNL     1      32.652  -6.076 -21.883  1.00  0.00     0.040 C 
BRANCH  11  12
ATOM     12  C   UNL     1      33.851  -5.198 -22.280  1.00  0.00     0.005 C 
BRANCH  12  13
ATOM     13  C   UNL     1      34.013  -3.974 -21.370  1.00  0.00    -0.003 C 
ATOM     14  C   UNL     1      33.715  -4.326 -19.916  1.00  0.00     0.004 C 
ENDBRANCH  12  13
ENDBRANCH  11  12
ENDBRANCH   2  11
BRANCH   3  15
ATOM     15  O   UNL     1      33.453  -8.491 -23.143  1.00  0.00    -0.508 OA
ATOM     16  H   UNL     1      34.390  -8.105 -23.173  1.00  0.00     0.293 HD
ENDBRANCH   3  15
TORSDOF 7
ENDMDL
MODEL 7
REMARK VINA RESULT:    -4.112      1.891      3.436
REMARK INTER + INTRA:          -7.116
REMARK INTER:                  -5.734
REMARK INTRA:                  -1.382
REMARK UNBOUND:                -1.442
REMARK SMILES CCCCc1cccc(O)c1CCCC
REMARK SMILES IDX 5 1 11 2 9 3 8 4 7 5 6 6 4 7 3 8 2 9 1 10 12 11 13 12 14 13
REMARK SMILES IDX 15 14 10 15
REMARK H PARENT 10 16
REMARK Flexibility Score: inf
ROOT
ATOM      1  C   UNL     1      30.379  -5.393 -25.705  1.00  0.00    -0.041 A 
ATOM      2  C   UNL     1      30.124  -6.703 -25.201  1.00  0.00    -0.003 A 
ATOM      3  C   UNL     1      28.791  -7.078 -24.911  1.00  0.00     0.119 A 
ATOM      4  C   UNL     1      27.741  -6.175 -25.114  1.00  0.00     0.046 A 
ATOM      5  C   UNL     1      27.996  -4.899 -25.603  1.00  0.00     0.004 A 
ATOM      6  C   UNL     1      29.301  -4.509 -25.893  1.00  0.00     0.004 A 
ENDROOT
BRANCH   1   7
ATOM      7  C   UNL     1      31.767  -4.866 -26.021  1.00  0.00     0.036 C 
BRANCH   7   8
ATOM      8  C   UNL     1      32.176  -3.715 -25.089  1.00  0.00     0.004 C 
BRANCH   8   9
ATOM      9  C   UNL     1      33.458  -4.020 -24.303  1.00  0.00    -0.003 C 
ATOM     10  C   UNL     1      33.168  -4.158 -22.812  1.00  0.00     0.004 C 
ENDBRANCH   8   9
ENDBRANCH   7   8
ENDBRANCH   1   7
BRANCH   2  11
ATOM     11  C   UNL     1      31.221  -7.735 -24.989  1.00  0.00     0.040 C 
BRANCH  11  12
ATOM     12  C   UNL     1      31.849  -7.638 -23.588  1.00  0.00     0.005 C 
BRANCH  12  13
ATOM     13  C   UNL     1      33.371  -7.830 -23.608  1.00  0.00    -0.003 C 
ATOM     14  C   UNL     1      33.936  -7.595 -25.005  1.00  0.00     0.004 C 
ENDBRANCH  12  13
ENDBRANCH  11  12
ENDBRANCH   2  11
BRANCH   3  15
ATOM     15  O   UNL     1      28.510  -8.353 -24.418  1.00  0.00    -0.508 OA
ATOM     16  H   UNL     1      28.189  -9.100 -25.023  1.00  0.00     0.293 HD
ENDBRANCH   3  15
TORSDOF 7
ENDMDL
MODEL 8
REMARK VINA RESULT:    -4.046      2.133      4.014
REMARK INTER + INTRA:          -7.026
REMARK INTER:                  -5.846
REMARK INTRA:                  -1.180
REMARK UNBOUND:                -1.442
REMARK SMILES CCCCc1cccc(O)c1CCCC
REMARK SMILES IDX 5 1 11 2 9 3 8 4 7 5 6 6 4 7 3 8 2 9 1 10 12 11 13 12 14 13
REMARK SMILES IDX 15 14 10 15
REMARK H PARENT 10 16
REMARK Flexibility Score: inf
ROOT
ATOM      1  C   UNL     1      30.751  -5.958 -23.653  1.00  0.00    -0.041 A 
ATOM      2  C   UNL     1      32.071  -6.158 -23.148  1.00  0.00    -0.003 A 
ATOM      3  C   UNL     1      32.814  -7.273 -23.600  1.00  0.00     0.119 A 
ATOM      4  C   UNL     1      32.261  -8.167 -24.524  1.00  0.00     0.046 A 
ATOM      5  C   UNL     1      30.974  -7.968 -25.010  1.00  0.00     0.004 A 
ATOM      6  C   UNL     1      30.224  -6.877 -24.578  1.00  0.00     0.004 A 
ENDROOT
BRANCH   1   7
ATOM      7  C   UNL     1      29.846  -4.818 -23.220  1.00  0.00     0.036 C 
BRANCH   7   8
ATOM      8  C   UNL     1      28.799  -4.473 -24.290  1.00  0.00     0.004 C 
BRANCH   8   9
ATOM      9  C   UNL     1      29.208  -3.269 -25.149  1.00  0.00    -0.003 C 
ATOM     10  C   UNL     1      29.430  -2.029 -24.288  1.00  0.00     0.004 C 
ENDBRANCH   8   9
ENDBRANCH   7   8
ENDBRANCH   1   7
BRANCH   2  11
ATOM     11  C   UNL     1      32.733  -5.204 -22.166  1.00  0.00     0.040 C 
BRANCH  11  12
ATOM     12  C   UNL     1      33.684  -4.218 -22.864  1.00  0.00     0.005 C 
BRANCH  12  13
ATOM     13  C   UNL     1      32.940  -3.069 -23.556  1.00  0.00    -0.003 C 
ATOM     14  C   UNL     1      32.917  -3.260 -25.069  1.00  0.00     0.004 C 
ENDBRANCH  12  13
ENDBRANCH  11  12
ENDBRANCH   2  11
BRANCH   3  15
ATOM     15  O   UNL     1      34.108  -7.495 -23.125  1.00  0.00    -0.508 OA
ATOM     16  H   UNL     1      34.923  -7.146 -23.616  1.00  0.00     0.293 HD
ENDBRANCH   3  15
TORSDOF 7
ENDMDL
MODEL 9
REMARK VINA RESULT:    -4.044      2.804      4.516
REMARK INTER + INTRA:          -7.023
REMARK INTER:                  -6.314
REMARK INTRA:                  -0.709
REMARK UNBOUND:                -1.442
REMARK SMILES CCCCc1cccc(O)c1CCCC
REMARK SMILES IDX 5 1 11 2 9 3 8 4 7 5 6 6 4 7 3 8 2 9 1 10 12 11 13 12 14 13
REMARK SMILES IDX 15 14 10 15
REMARK H PARENT 10 16
REMARK Flexibility Score: inf
ROOT
ATOM      1  C   UNL     1      32.701  -6.148 -22.716  1.00  0.00    -0.041 A 
ATOM      2  C   UNL     1      33.274  -5.880 -23.995  1.00  0.00    -0.003 A 
ATOM      3  C   UNL     1      33.199  -6.873 -25.000  1.00  0.00     0.119 A 
ATOM      4  C   UNL     1      32.574  -8.098 -24.741  1.00  0.00     0.046 A 
ATOM      5  C   UNL     1      32.020  -8.354 -23.492  1.00  0.00     0.004 A 
ATOM      6  C   UNL     1      32.084  -7.392 -22.488  1.00  0.00     0.004 A 
ENDROOT
BRANCH   1   7
ATOM      7  C   UNL     1      32.748  -5.177 -21.550  1.00  0.00     0.036 C 
BRANCH   7   8
ATOM      8  C   UNL     1      33.997  -5.377 -20.679  1.00  0.00     0.004 C 
BRANCH   8   9
ATOM      9  C   UNL     1      33.728  -5.113 -19.191  1.00  0.00    -0.003 C 
ATOM     10  C   UNL     1      34.102  -6.323 -18.341  1.00  0.00     0.004 C 
ENDBRANCH   8   9
ENDBRANCH   7   8
ENDBRANCH   1   7
BRANCH   2  11
ATOM     11  C   UNL     1      33.938  -4.557 -24.342  1.00  0.00     0.040 C 
BRANCH  11  12
ATOM     12  C   UNL     1      32.935  -3.529 -24.891  1.00  0.00     0.005 C 
BRANCH  12  13
ATOM     13  C   UNL     1      32.642  -2.399 -23.896  1.00  0.00    -0.003 C 
ATOM     14  C   UNL     1      32.259  -1.113 -24.621  1.00  0.00     0.004 C 
ENDBRANCH  12  13
ENDBRANCH  11  12
ENDBRANCH   2  11
BRANCH   3  15
ATOM     15  O   UNL     1      33.749  -6.639 -26.261  1.00  0.00    -0.508 OA
ATOM     16  H   UNL     1      34.133  -5.737 -26.517  1.00  0.00     0.293 HD
ENDBRANCH   3  15
TORSDOF 7
ENDMDL
