MODEL 1
REMARK VINA RESULT:    -5.340      0.000      0.000
REMARK INTER + INTRA:          -5.840
REMARK INTER:                  -5.808
REMARK INTRA:                  -0.032
REMARK UNBOUND:                -0.032
REMARK SMILES O=C([O-])c1ccc(O)cc1
REMARK SMILES IDX 4 1 5 2 10 3 6 4 9 5 7 6 2 7 1 8 3 9 8 10
REMARK H PARENT 8 11
REMARK Flexibility Score: inf
ROOT
ATOM      1  C   UNL     1     -12.875   1.482  -9.615  1.00  0.00    -0.003 A 
ATOM      2  C   UNL     1     -11.624   0.839  -9.650  1.00  0.00     0.014 A 
ATOM      3  C   UNL     1     -14.016   0.777 -10.040  1.00  0.00     0.014 A 
ATOM      4  C   UNL     1     -11.518  -0.479 -10.101  1.00  0.00     0.047 A 
ATOM      5  C   UNL     1     -13.906  -0.542 -10.491  1.00  0.00     0.047 A 
ATOM      6  C   UNL     1     -12.657  -1.174 -10.522  1.00  0.00     0.115 A 
ENDROOT
BRANCH   1   7
ATOM      7  C   UNL     1     -12.984   2.878  -9.137  1.00  0.00     0.071 C 
ATOM      8  O   UNL     1     -13.950   3.232  -8.408  1.00  0.00    -0.545 OA
ATOM      9  O   UNL     1     -12.022   3.819  -9.485  1.00  0.00    -0.545 OA
ENDBRANCH   1   7
BRANCH   6  10
ATOM     10  O   UNL     1     -12.536  -2.487 -10.970  1.00  0.00    -0.508 OA
ATOM     11  H   UNL     1     -12.157  -2.702 -11.885  1.00  0.00     0.293 HD
ENDBRANCH   6  10
TORSDOF 2
ENDMDL
MODEL 2
REMARK VINA RESULT:    -5.255      1.088      2.131
REMARK INTER + INTRA:          -5.748
REMARK INTER:                  -5.712
REMARK INTRA:                  -0.036
REMARK UNBOUND:                -0.032
REMARK SMILES O=C([O-])c1ccc(O)cc1
REMARK SMILES IDX 4 1 5 2 10 3 6 4 9 5 7 6 2 7 1 8 3 9 8 10
REMARK H PARENT 8 11
REMARK Flexibility Score: inf
ROOT
ATOM      1  C   UNL     1     -12.615   2.368  -9.226  1.00  0.00    -0.003 A 
ATOM      2  C   UNL     1     -13.949   2.046  -9.536  1.00  0.00     0.014 A 
ATOM      3  C   UNL     1     -11.612   1.404  -9.442  1.00  0.00     0.014 A 
ATOM      4  C   UNL     1     -14.272   0.787 -10.049  1.00  0.00     0.047 A 
ATOM      5  C   UNL     1     -11.940   0.146  -9.956  1.00  0.00     0.047 A 
ATOM      6  C   UNL     1     -13.271  -0.166 -10.261  1.00  0.00     0.115 A 
ENDROOT
BRANCH   1   7
ATOM      7  C   UNL     1     -12.275   3.702  -8.683  1.00  0.00     0.071 C 
ATOM      8  O   UNL     1     -11.084   3.989  -8.387  1.00  0.00    -0.545 OA
ATOM      9  O   UNL     1     -13.266   4.658  -8.491  1.00  0.00    -0.545 OA
ENDBRANCH   1   7
BRANCH   6  10
ATOM     10  O   UNL     1     -13.608  -1.417 -10.772  1.00  0.00    -0.508 OA
ATOM     11  H   UNL     1     -12.932  -1.988 -11.266  1.00  0.00     0.293 HD
ENDBRANCH   6  10
TORSDOF 2
ENDMDL
MODEL 3
REMARK VINA RESULT:    -5.140      1.352      4.281
REMARK INTER + INTRA:          -5.622
REMARK INTER:                  -5.587
REMARK INTRA:                  -0.036
REMARK UNBOUND:                -0.032
REMARK SMILES O=C([O-])c1ccc(O)cc1
REMARK SMILES IDX 4 1 5 2 10 3 6 4 9 5 7 6 2 7 1 8 3 9 8 10
REMARK H PARENT 8 11
REMARK Flexibility Score: inf
ROOT
ATOM      1  C   UNL     1     -12.447   1.051  -9.759  1.00  0.00    -0.003 A 
ATOM      2  C   UNL     1     -11.539   2.027  -9.313  1.00  0.00     0.014 A 
ATOM      3  C   UNL     1     -13.828   1.300  -9.645  1.00  0.00     0.014 A 
ATOM      4  C   UNL     1     -12.002   3.227  -8.765  1.00  0.00     0.047 A 
ATOM      5  C   UNL     1     -14.286   2.501  -9.095  1.00  0.00     0.047 A 
ATOM      6  C   UNL     1     -13.374   3.468  -8.654  1.00  0.00     0.115 A 
ENDROOT
BRANCH   1   7
ATOM      7  C   UNL     1     -11.955  -0.218 -10.340  1.00  0.00     0.071 C 
ATOM      8  O   UNL     1     -10.727  -0.500 -10.318  1.00  0.00    -0.545 OA
ATOM      9  O   UNL     1     -12.843  -1.119 -10.919  1.00  0.00    -0.545 OA
ENDBRANCH   1   7
BRANCH   6  10
ATOM     10  O   UNL     1     -13.821   4.667  -8.104  1.00  0.00    -0.508 OA
ATOM     11  H   UNL     1     -14.079   4.739  -7.127  1.00  0.00     0.293 HD
ENDBRANCH   6  10
TORSDOF 2
ENDMDL
MODEL 4
REMARK VINA RESULT:    -5.132      1.122      2.189
REMARK INTER + INTRA:          -5.614
REMARK INTER:                  -5.578
REMARK INTRA:                  -0.036
REMARK UNBOUND:                -0.032
REMARK SMILES O=C([O-])c1ccc(O)cc1
REMARK SMILES IDX 4 1 5 2 10 3 6 4 9 5 7 6 2 7 1 8 3 9 8 10
REMARK H PARENT 8 11
REMARK Flexibility Score: inf
ROOT
ATOM      1  C   UNL     1     -12.759   0.569  -9.822  1.00  0.00    -0.003 A 
ATOM      2  C   UNL     1     -13.548  -0.519 -10.239  1.00  0.00     0.014 A 
ATOM      3  C   UNL     1     -11.383   0.371  -9.607  1.00  0.00     0.014 A 
ATOM      4  C   UNL     1     -12.971  -1.776 -10.436  1.00  0.00     0.047 A 
ATOM      5  C   UNL     1     -10.809  -0.888  -9.806  1.00  0.00     0.047 A 
ATOM      6  C   UNL     1     -11.602  -1.966 -10.221  1.00  0.00     0.115 A 
ENDROOT
BRANCH   1   7
ATOM      7  C   UNL     1     -13.372   1.899  -9.613  1.00  0.00     0.071 C 
ATOM      8  O   UNL     1     -12.651   2.919  -9.451  1.00  0.00    -0.545 OA
ATOM      9  O   UNL     1     -14.755   2.043  -9.594  1.00  0.00    -0.545 OA
ENDBRANCH   1   7
BRANCH   6  10
ATOM     10  O   UNL     1     -11.041  -3.225 -10.421  1.00  0.00    -0.508 OA
ATOM     11  H   UNL     1     -11.440  -4.056  -9.999  1.00  0.00     0.293 HD
ENDBRANCH   6  10
TORSDOF 2
ENDMDL
MODEL 5
REMARK VINA RESULT:    -4.972      0.990      4.415
REMARK INTER + INTRA:          -5.440
REMARK INTER:                  -5.405
REMARK INTRA:                  -0.035
REMARK UNBOUND:                -0.032
REMARK SMILES O=C([O-])c1ccc(O)cc1
REMARK SMILES IDX 4 1 5 2 10 3 6 4 9 5 7 6 2 7 1 8 3 9 8 10
REMARK H PARENT 8 11
REMARK Flexibility Score: inf
ROOT
ATOM      1  C   UNL     1     -12.826   0.002 -10.006  1.00  0.00    -0.003 A 
ATOM      2  C   UNL     1     -14.143   0.495 -10.001  1.00  0.00     0.014 A 
ATOM      3  C   UNL     1     -11.775   0.856  -9.622  1.00  0.00     0.014 A 
ATOM      4  C   UNL     1     -14.403   1.814  -9.621  1.00  0.00     0.047 A 
ATOM      5  C   UNL     1     -12.040   2.176  -9.243  1.00  0.00     0.047 A 
ATOM      6  C   UNL     1     -13.355   2.658  -9.241  1.00  0.00     0.115 A 
ENDROOT
BRANCH   1   7
ATOM      7  C   UNL     1     -12.552  -1.396 -10.408  1.00  0.00     0.071 C 
ATOM      8  O   UNL     1     -13.373  -2.029 -11.125  1.00  0.00    -0.545 OA
ATOM      9  O   UNL     1     -11.384  -2.031 -10.000  1.00  0.00    -0.545 OA
ENDBRANCH   1   7
BRANCH   6  10
ATOM     10  O   UNL     1     -13.629   3.972  -8.866  1.00  0.00    -0.508 OA
ATOM     11  H   UNL     1     -12.941   4.708  -8.972  1.00  0.00     0.293 HD
ENDBRANCH   6  10
TORSDOF 2
ENDMDL
MODEL 6
REMARK VINA RESULT:    -4.716      4.990      7.046
REMARK INTER + INTRA:          -5.161
REMARK INTER:                  -5.133
REMARK INTRA:                  -0.029
REMARK UNBOUND:                -0.032
REMARK SMILES O=C([O-])c1ccc(O)cc1
REMARK SMILES IDX 4 1 5 2 10 3 6 4 9 5 7 6 2 7 1 8 3 9 8 10
REMARK H PARENT 8 11
REMARK Flexibility Score: inf
ROOT
ATOM      1  C   UNL     1     -10.339  -4.715  -7.302  1.00  0.00    -0.003 A 
ATOM      2  C   UNL     1      -9.824  -3.460  -6.932  1.00  0.00     0.014 A 
ATOM      3  C   UNL     1     -10.639  -4.957  -8.656  1.00  0.00     0.014 A 
ATOM      4  C   UNL     1      -9.614  -2.469  -7.895  1.00  0.00     0.047 A 
ATOM      5  C   UNL     1     -10.429  -3.963  -9.616  1.00  0.00     0.047 A 
ATOM      6  C   UNL     1      -9.915  -2.716  -9.238  1.00  0.00     0.115 A 
ENDROOT
BRANCH   1   7
ATOM      7  C   UNL     1     -10.560  -5.763  -6.281  1.00  0.00     0.071 C 
ATOM      8  O   UNL     1     -11.380  -5.581  -5.343  1.00  0.00    -0.545 OA
ATOM      9  O   UNL     1      -9.863  -6.965  -6.343  1.00  0.00    -0.545 OA
ENDBRANCH   1   7
BRANCH   6  10
ATOM     10  O   UNL     1      -9.702  -1.718 -10.186  1.00  0.00    -0.508 OA
ATOM     11  H   UNL     1      -8.935  -1.770 -10.847  1.00  0.00     0.293 HD
ENDBRANCH   6  10
TORSDOF 2
ENDMDL
MODEL 7
REMARK VINA RESULT:    -4.593     15.754     17.340
REMARK INTER + INTRA:          -5.028
REMARK INTER:                  -5.001
REMARK INTRA:                  -0.027
REMARK UNBOUND:                -0.032
REMARK SMILES O=C([O-])c1ccc(O)cc1
REMARK SMILES IDX 4 1 5 2 10 3 6 4 9 5 7 6 2 7 1 8 3 9 8 10
REMARK H PARENT 8 11
REMARK Flexibility Score: inf
ROOT
ATOM      1  C   UNL     1     -12.499   6.097   5.800  1.00  0.00    -0.003 A 
ATOM      2  C   UNL     1     -11.527   7.113   5.746  1.00  0.00     0.014 A 
ATOM      3  C   UNL     1     -12.484   5.196   6.881  1.00  0.00     0.014 A 
ATOM      4  C   UNL     1     -10.562   7.223   6.750  1.00  0.00     0.047 A 
ATOM      5  C   UNL     1     -11.516   5.310   7.884  1.00  0.00     0.047 A 
ATOM      6  C   UNL     1     -10.553   6.325   7.821  1.00  0.00     0.115 A 
ENDROOT
BRANCH   1   7
ATOM      7  C   UNL     1     -13.520   5.982   4.736  1.00  0.00     0.071 C 
ATOM      8  O   UNL     1     -14.655   6.512   4.876  1.00  0.00    -0.545 OA
ATOM      9  O   UNL     1     -13.241   5.287   3.564  1.00  0.00    -0.545 OA
ENDBRANCH   1   7
BRANCH   6  10
ATOM     10  O   UNL     1      -9.584   6.447   8.815  1.00  0.00    -0.508 OA
ATOM     11  H   UNL     1      -9.833   6.480   9.796  1.00  0.00     0.293 HD
ENDBRANCH   6  10
TORSDOF 2
ENDMDL
MODEL 8
REMARK VINA RESULT:    -4.583     15.747     17.355
REMARK INTER + INTRA:          -5.016
REMARK INTER:                  -4.989
REMARK INTRA:                  -0.027
REMARK UNBOUND:                -0.032
REMARK SMILES O=C([O-])c1ccc(O)cc1
REMARK SMILES IDX 4 1 5 2 10 3 6 4 9 5 7 6 2 7 1 8 3 9 8 10
REMARK H PARENT 8 11
REMARK Flexibility Score: inf
ROOT
ATOM      1  C   UNL     1     -12.517   6.102   5.789  1.00  0.00    -0.003 A 
ATOM      2  C   UNL     1     -12.507   5.186   6.856  1.00  0.00     0.014 A 
ATOM      3  C   UNL     1     -11.549   7.123   5.756  1.00  0.00     0.014 A 
ATOM      4  C   UNL     1     -11.550   5.290   7.869  1.00  0.00     0.047 A 
ATOM      5  C   UNL     1     -10.593   7.223   6.772  1.00  0.00     0.047 A 
ATOM      6  C   UNL     1     -10.590   6.306   7.830  1.00  0.00     0.115 A 
ENDROOT
BRANCH   1   7
ATOM      7  C   UNL     1     -13.532   5.991   4.718  1.00  0.00     0.071 C 
ATOM      8  O   UNL     1     -14.663   6.531   4.847  1.00  0.00    -0.545 OA
ATOM      9  O   UNL     1     -13.251   5.287   3.551  1.00  0.00    -0.545 OA
ENDBRANCH   1   7
BRANCH   6  10
ATOM     10  O   UNL     1      -9.642   6.397   8.847  1.00  0.00    -0.508 OA
ATOM     11  H   UNL     1      -9.228   5.570   9.261  1.00  0.00     0.293 HD
ENDBRANCH   6  10
TORSDOF 2
ENDMDL
MODEL 9
REMARK VINA RESULT:    -4.544     16.663     17.798
REMARK INTER + INTRA:          -4.974
REMARK INTER:                  -4.938
REMARK INTRA:                  -0.036
REMARK UNBOUND:                -0.032
REMARK SMILES O=C([O-])c1ccc(O)cc1
REMARK SMILES IDX 4 1 5 2 10 3 6 4 9 5 7 6 2 7 1 8 3 9 8 10
REMARK H PARENT 8 11
REMARK Flexibility Score: inf
ROOT
ATOM      1  C   UNL     1      -9.672   6.509   6.618  1.00  0.00    -0.003 A 
ATOM      2  C   UNL     1     -10.388   5.779   5.653  1.00  0.00     0.014 A 
ATOM      3  C   UNL     1      -9.872   6.219   7.980  1.00  0.00     0.014 A 
ATOM      4  C   UNL     1     -11.285   4.780   6.043  1.00  0.00     0.047 A 
ATOM      5  C   UNL     1     -10.770   5.219   8.366  1.00  0.00     0.047 A 
ATOM      6  C   UNL     1     -11.479   4.497   7.398  1.00  0.00     0.115 A 
ENDROOT
BRANCH   1   7
ATOM      7  C   UNL     1      -8.723   7.566   6.203  1.00  0.00     0.071 C 
ATOM      8  O   UNL     1      -8.081   8.225   7.064  1.00  0.00    -0.545 OA
ATOM      9  O   UNL     1      -8.526   7.846   4.855  1.00  0.00    -0.545 OA
ENDBRANCH   1   7
BRANCH   6  10
ATOM     10  O   UNL     1     -12.377   3.499   7.772  1.00  0.00    -0.508 OA
ATOM     11  H   UNL     1     -13.178   3.700   8.359  1.00  0.00     0.293 HD
ENDBRANCH   6  10
TORSDOF 2
ENDMDL
