MODEL 1
REMARK VINA RESULT:    -5.660      0.000      0.000
REMARK INTER + INTRA:          -9.317
REMARK INTER:                  -8.639
REMARK INTRA:                  -0.679
REMARK UNBOUND:                -0.679
REMARK SMILES C=CCCCCCCCCCC
REMARK SMILES IDX 7 1 8 2 9 3 10 4 11 5 12 6 6 7 5 8 4 9 3 10 2 11 1 12
REMARK H PARENT
REMARK Flexibility Score: inf
ROOT
ATOM      1  C   UNL     1       3.978   8.658  13.488  1.00  0.00     0.000 C 
ENDROOT
BRANCH   1   2
ATOM      2  C   UNL     1       3.371  10.041  13.180  1.00  0.00    -0.000 C 
BRANCH   2   3
ATOM      3  C   UNL     1       3.706  10.605  11.784  1.00  0.00    -0.000 C 
BRANCH   3   4
ATOM      4  C   UNL     1       2.487  10.859  10.875  1.00  0.00    -0.000 C 
BRANCH   4   5
ATOM      5  C   UNL     1       1.124  10.776  11.583  1.00  0.00    -0.003 C 
ATOM      6  C   UNL     1       0.056  11.645  10.922  1.00  0.00     0.004 C 
ENDBRANCH   4   5
ENDBRANCH   3   4
ENDBRANCH   2   3
ENDBRANCH   1   2
BRANCH   1   7
ATOM      7  C   UNL     1       4.596   7.935  12.277  1.00  0.00     0.000 C 
BRANCH   7   8
ATOM      8  C   UNL     1       4.467   6.408  12.364  1.00  0.00     0.000 C 
BRANCH   8   9
ATOM      9  C   UNL     1       5.726   5.785  12.985  1.00  0.00     0.004 C 
BRANCH   9  10
ATOM     10  C   UNL     1       7.010   6.271  12.303  1.00  0.00     0.027 C 
BRANCH  10  11
ATOM     11  C   UNL     1       7.927   6.961  13.279  1.00  0.00    -0.035 C 
ATOM     12  C   UNL     1       7.459   7.614  14.345  1.00  0.00     0.004 C 
ENDBRANCH  10  11
ENDBRANCH   9  10
ENDBRANCH   8   9
ENDBRANCH   7   8
ENDBRANCH   1   7
TORSDOF 9
ENDMDL
MODEL 2
REMARK VINA RESULT:    -5.628      1.115      1.805
REMARK INTER + INTRA:          -9.268
REMARK INTER:                  -8.592
REMARK INTRA:                  -0.677
REMARK UNBOUND:                -0.679
REMARK SMILES C=CCCCCCCCCCC
REMARK SMILES IDX 7 1 8 2 9 3 10 4 11 5 12 6 6 7 5 8 4 9 3 10 2 11 1 12
REMARK H PARENT
REMARK Flexibility Score: inf
ROOT
ATOM      1  C   UNL     1       3.374  10.150  13.813  1.00  0.00     0.000 C 
ENDROOT
BRANCH   1   2
ATOM      2  C   UNL     1       3.622  10.817  12.446  1.00  0.00    -0.000 C 
BRANCH   2   3
ATOM      3  C   UNL     1       2.667  10.372  11.320  1.00  0.00    -0.000 C 
BRANCH   3   4
ATOM      4  C   UNL     1       1.644  11.436  10.875  1.00  0.00    -0.000 C 
BRANCH   4   5
ATOM      5  C   UNL     1       0.171  11.043  11.078  1.00  0.00    -0.003 C 
ATOM      6  C   UNL     1      -0.123  10.539  12.490  1.00  0.00     0.004 C 
ENDBRANCH   4   5
ENDBRANCH   3   4
ENDBRANCH   2   3
ENDBRANCH   1   2
BRANCH   1   7
ATOM      7  C   UNL     1       3.452   8.613  13.811  1.00  0.00     0.000 C 
BRANCH   7   8
ATOM      8  C   UNL     1       4.896   8.089  13.801  1.00  0.00     0.000 C 
BRANCH   8   9
ATOM      9  C   UNL     1       5.184   7.297  12.518  1.00  0.00     0.004 C 
BRANCH   9  10
ATOM     10  C   UNL     1       5.197   5.783  12.762  1.00  0.00     0.027 C 
BRANCH  10  11
ATOM     11  C   UNL     1       6.588   5.216  12.643  1.00  0.00    -0.035 C 
ATOM     12  C   UNL     1       7.633   5.976  12.306  1.00  0.00     0.004 C 
ENDBRANCH  10  11
ENDBRANCH   9  10
ENDBRANCH   8   9
ENDBRANCH   7   8
ENDBRANCH   1   7
TORSDOF 9
ENDMDL
MODEL 3
REMARK VINA RESULT:    -5.580      0.209      6.270
REMARK INTER + INTRA:          -9.195
REMARK INTER:                  -8.458
REMARK INTRA:                  -0.737
REMARK UNBOUND:                -0.679
REMARK SMILES C=CCCCCCCCCCC
REMARK SMILES IDX 7 1 8 2 9 3 10 4 11 5 12 6 6 7 5 8 4 9 3 10 2 11 1 12
REMARK H PARENT
REMARK Flexibility Score: inf
ROOT
ATOM      1  C   UNL     1       4.480   8.007  12.179  1.00  0.00     0.000 C 
ENDROOT
BRANCH   1   2
ATOM      2  C   UNL     1       4.448   6.470  12.295  1.00  0.00    -0.000 C 
BRANCH   2   3
ATOM      3  C   UNL     1       5.623   5.849  13.076  1.00  0.00    -0.000 C 
BRANCH   3   4
ATOM      4  C   UNL     1       6.998   5.971  12.390  1.00  0.00    -0.000 C 
BRANCH   4   5
ATOM      5  C   UNL     1       7.999   6.895  13.105  1.00  0.00    -0.003 C 
ATOM      6  C   UNL     1       7.407   7.571  14.341  1.00  0.00     0.004 C 
ENDBRANCH   4   5
ENDBRANCH   3   4
ENDBRANCH   2   3
ENDBRANCH   1   2
BRANCH   1   7
ATOM      7  C   UNL     1       4.086   8.764  13.461  1.00  0.00     0.000 C 
BRANCH   7   8
ATOM      8  C   UNL     1       3.209   9.993  13.182  1.00  0.00     0.000 C 
BRANCH   8   9
ATOM      9  C   UNL     1       3.678  10.727  11.917  1.00  0.00     0.004 C 
BRANCH   9  10
ATOM     10  C   UNL     1       2.548  10.898  10.894  1.00  0.00     0.027 C 
BRANCH  10  11
ATOM     11  C   UNL     1       1.195  10.871  11.556  1.00  0.00    -0.035 C 
ATOM     12  C   UNL     1       0.079  11.179  10.890  1.00  0.00     0.004 C 
ENDBRANCH  10  11
ENDBRANCH   9  10
ENDBRANCH   8   9
ENDBRANCH   7   8
ENDBRANCH   1   7
TORSDOF 9
ENDMDL
MODEL 4
REMARK VINA RESULT:    -5.375      1.090      6.313
REMARK INTER + INTRA:          -8.881
REMARK INTER:                  -8.238
REMARK INTRA:                  -0.644
REMARK UNBOUND:                -0.679
REMARK SMILES C=CCCCCCCCCCC
REMARK SMILES IDX 7 1 8 2 9 3 10 4 11 5 12 6 6 7 5 8 4 9 3 10 2 11 1 12
REMARK H PARENT
REMARK Flexibility Score: inf
ROOT
ATOM      1  C   UNL     1       4.015   8.975  12.870  1.00  0.00     0.000 C 
ENDROOT
BRANCH   1   2
ATOM      2  C   UNL     1       4.545   7.633  13.411  1.00  0.00    -0.000 C 
BRANCH   2   3
ATOM      3  C   UNL     1       4.691   6.516  12.358  1.00  0.00    -0.000 C 
BRANCH   3   4
ATOM      4  C   UNL     1       5.416   5.248  12.850  1.00  0.00    -0.000 C 
BRANCH   4   5
ATOM      5  C   UNL     1       6.839   5.482  13.383  1.00  0.00    -0.003 C 
ATOM      6  C   UNL     1       7.684   6.359  12.462  1.00  0.00     0.004 C 
ENDBRANCH   4   5
ENDBRANCH   3   4
ENDBRANCH   2   3
ENDBRANCH   1   2
BRANCH   1   7
ATOM      7  C   UNL     1       4.064   9.124  11.339  1.00  0.00     0.000 C 
BRANCH   7   8
ATOM      8  C   UNL     1       3.907  10.579  10.875  1.00  0.00     0.000 C 
BRANCH   8   9
ATOM      9  C   UNL     1       2.705  11.247  11.558  1.00  0.00     0.004 C 
BRANCH   9  10
ATOM     10  C   UNL     1       1.379  10.890  10.875  1.00  0.00     0.027 C 
BRANCH  10  11
ATOM     11  C   UNL     1       0.232  10.910  11.851  1.00  0.00    -0.035 C 
ATOM     12  C   UNL     1       0.227  10.148  12.948  1.00  0.00     0.004 C 
ENDBRANCH  10  11
ENDBRANCH   9  10
ENDBRANCH   8   9
ENDBRANCH   7   8
ENDBRANCH   1   7
TORSDOF 9
ENDMDL
MODEL 5
REMARK VINA RESULT:    -5.179      0.954      5.910
REMARK INTER + INTRA:          -8.583
REMARK INTER:                  -8.035
REMARK INTRA:                  -0.548
REMARK UNBOUND:                -0.679
REMARK SMILES C=CCCCCCCCCCC
REMARK SMILES IDX 7 1 8 2 9 3 10 4 11 5 12 6 6 7 5 8 4 9 3 10 2 11 1 12
REMARK H PARENT
REMARK Flexibility Score: inf
ROOT
ATOM      1  C   UNL     1       4.417   5.667  12.350  1.00  0.00     0.000 C 
ENDROOT
BRANCH   1   2
ATOM      2  C   UNL     1       5.683   4.876  12.736  1.00  0.00    -0.000 C 
BRANCH   2   3
ATOM      3  C   UNL     1       6.685   5.640  13.625  1.00  0.00    -0.000 C 
BRANCH   3   4
ATOM      4  C   UNL     1       7.824   6.347  12.862  1.00  0.00    -0.000 C 
BRANCH   4   5
ATOM      5  C   UNL     1       8.415   7.575  13.576  1.00  0.00    -0.003 C 
ATOM      6  C   UNL     1       7.469   8.172  14.616  1.00  0.00     0.004 C 
ENDBRANCH   4   5
ENDBRANCH   3   4
ENDBRANCH   2   3
ENDBRANCH   1   2
BRANCH   1   7
ATOM      7  C   UNL     1       4.615   7.189  12.228  1.00  0.00     0.000 C 
BRANCH   7   8
ATOM      8  C   UNL     1       4.180   7.951  13.488  1.00  0.00     0.000 C 
BRANCH   8   9
ATOM      9  C   UNL     1       3.833   9.409  13.156  1.00  0.00     0.004 C 
BRANCH   9  10
ATOM     10  C   UNL     1       3.885   9.689  11.649  1.00  0.00     0.027 C 
BRANCH  10  11
ATOM     11  C   UNL     1       3.235  11.004  11.308  1.00  0.00    -0.035 C 
ATOM     12  C   UNL     1       1.926  11.101  11.061  1.00  0.00     0.004 C 
ENDBRANCH  10  11
ENDBRANCH   9  10
ENDBRANCH   8   9
ENDBRANCH   7   8
ENDBRANCH   1   7
TORSDOF 9
ENDMDL
MODEL 6
REMARK VINA RESULT:    -5.098      1.496      2.418
REMARK INTER + INTRA:          -8.459
REMARK INTER:                  -7.642
REMARK INTRA:                  -0.816
REMARK UNBOUND:                -0.679
REMARK SMILES C=CCCCCCCCCCC
REMARK SMILES IDX 7 1 8 2 9 3 10 4 11 5 12 6 6 7 5 8 4 9 3 10 2 11 1 12
REMARK H PARENT
REMARK Flexibility Score: inf
ROOT
ATOM      1  C   UNL     1       4.341   6.447  12.518  1.00  0.00     0.000 C 
ENDROOT
BRANCH   1   2
ATOM      2  C   UNL     1       4.870   7.294  11.344  1.00  0.00    -0.000 C 
BRANCH   2   3
ATOM      3  C   UNL     1       4.265   8.708  11.235  1.00  0.00    -0.000 C 
BRANCH   3   4
ATOM      4  C   UNL     1       3.907   9.369  12.581  1.00  0.00    -0.000 C 
BRANCH   4   5
ATOM      5  C   UNL     1       3.199  10.730  12.465  1.00  0.00    -0.003 C 
ATOM      6  C   UNL     1       3.612  11.513  11.220  1.00  0.00     0.004 C 
ENDBRANCH   4   5
ENDBRANCH   3   4
ENDBRANCH   2   3
ENDBRANCH   1   2
BRANCH   1   7
ATOM      7  C   UNL     1       4.873   5.003  12.568  1.00  0.00     0.000 C 
BRANCH   7   8
ATOM      8  C   UNL     1       6.178   4.875  13.368  1.00  0.00     0.000 C 
BRANCH   8   9
ATOM      9  C   UNL     1       7.383   5.325  12.530  1.00  0.00     0.004 C 
BRANCH   9  10
ATOM     10  C   UNL     1       7.904   6.703  12.958  1.00  0.00     0.027 C 
BRANCH  10  11
ATOM     11  C   UNL     1       7.378   7.096  14.313  1.00  0.00    -0.035 C 
ATOM     12  C   UNL     1       6.910   8.322  14.559  1.00  0.00     0.004 C 
ENDBRANCH  10  11
ENDBRANCH   9  10
ENDBRANCH   8   9
ENDBRANCH   7   8
ENDBRANCH   1   7
TORSDOF 9
ENDMDL
MODEL 7
REMARK VINA RESULT:    -4.910      0.870      6.033
REMARK INTER + INTRA:          -8.172
REMARK INTER:                  -7.494
REMARK INTRA:                  -0.678
REMARK UNBOUND:                -0.679
REMARK SMILES C=CCCCCCCCCCC
REMARK SMILES IDX 7 1 8 2 9 3 10 4 11 5 12 6 6 7 5 8 4 9 3 10 2 11 1 12
REMARK H PARENT
REMARK Flexibility Score: inf
ROOT
ATOM      1  C   UNL     1       5.697   8.692  14.082  1.00  0.00     0.000 C 
ENDROOT
BRANCH   1   2
ATOM      2  C   UNL     1       6.361   7.387  14.563  1.00  0.00    -0.000 C 
BRANCH   2   3
ATOM      3  C   UNL     1       7.391   6.780  13.589  1.00  0.00    -0.000 C 
BRANCH   3   4
ATOM      4  C   UNL     1       6.794   5.885  12.485  1.00  0.00    -0.000 C 
BRANCH   4   5
ATOM      5  C   UNL     1       5.740   4.875  12.970  1.00  0.00    -0.003 C 
ATOM      6  C   UNL     1       4.353   5.134  12.384  1.00  0.00     0.004 C 
ENDBRANCH   4   5
ENDBRANCH   3   4
ENDBRANCH   2   3
ENDBRANCH   1   2
BRANCH   1   7
ATOM      7  C   UNL     1       4.209   8.564  13.708  1.00  0.00     0.000 C 
BRANCH   7   8
ATOM      8  C   UNL     1       3.610   9.877  13.183  1.00  0.00     0.000 C 
BRANCH   8   9
ATOM      9  C   UNL     1       3.700   9.948  11.652  1.00  0.00     0.004 C 
BRANCH   9  10
ATOM     10  C   UNL     1       2.727  10.977  11.062  1.00  0.00     0.027 C 
BRANCH  10  11
ATOM     11  C   UNL     1       1.348  10.833  11.648  1.00  0.00    -0.035 C 
ATOM     12  C   UNL     1       0.248  10.925  10.896  1.00  0.00     0.004 C 
ENDBRANCH  10  11
ENDBRANCH   9  10
ENDBRANCH   8   9
ENDBRANCH   7   8
ENDBRANCH   1   7
TORSDOF 9
ENDMDL
MODEL 8
REMARK VINA RESULT:    -4.536      1.442      2.143
REMARK INTER + INTRA:          -7.601
REMARK INTER:                  -6.902
REMARK INTRA:                  -0.699
REMARK UNBOUND:                -0.679
REMARK SMILES C=CCCCCCCCCCC
REMARK SMILES IDX 7 1 8 2 9 3 10 4 11 5 12 6 6 7 5 8 4 9 3 10 2 11 1 12
REMARK H PARENT
REMARK Flexibility Score: inf
ROOT
ATOM      1  C   UNL     1       4.316   7.402  12.444  1.00  0.00     0.000 C 
ENDROOT
BRANCH   1   2
ATOM      2  C   UNL     1       4.750   8.233  11.221  1.00  0.00    -0.000 C 
BRANCH   2   3
ATOM      3  C   UNL     1       3.831   9.423  10.880  1.00  0.00    -0.000 C 
BRANCH   3   4
ATOM      4  C   UNL     1       3.738  10.508  11.970  1.00  0.00    -0.000 C 
BRANCH   4   5
ATOM      5  C   UNL     1       2.519  10.388  12.901  1.00  0.00    -0.003 C 
ATOM      6  C   UNL     1       2.891   9.961  14.319  1.00  0.00     0.004 C 
ENDBRANCH   4   5
ENDBRANCH   3   4
ENDBRANCH   2   3
ENDBRANCH   1   2
BRANCH   1   7
ATOM      7  C   UNL     1       4.417   5.876  12.261  1.00  0.00     0.000 C 
BRANCH   7   8
ATOM      8  C   UNL     1       5.510   5.242  13.134  1.00  0.00     0.000 C 
BRANCH   8   9
ATOM      9  C   UNL     1       6.869   5.270  12.418  1.00  0.00     0.004 C 
BRANCH   9  10
ATOM     10  C   UNL     1       7.753   6.427  12.900  1.00  0.00     0.027 C 
BRANCH  10  11
ATOM     11  C   UNL     1       7.374   6.872  14.287  1.00  0.00    -0.035 C 
ATOM     12  C   UNL     1       7.043   8.138  14.556  1.00  0.00     0.004 C 
ENDBRANCH  10  11
ENDBRANCH   9  10
ENDBRANCH   8   9
ENDBRANCH   7   8
ENDBRANCH   1   7
TORSDOF 9
ENDMDL
MODEL 9
REMARK VINA RESULT:    -3.849      1.558      5.496
REMARK INTER + INTRA:          -6.553
REMARK INTER:                  -7.096
REMARK INTRA:                   0.543
REMARK UNBOUND:                -0.679
REMARK SMILES C=CCCCCCCCCCC
REMARK SMILES IDX 7 1 8 2 9 3 10 4 11 5 12 6 6 7 5 8 4 9 3 10 2 11 1 12
REMARK H PARENT
REMARK Flexibility Score: inf
ROOT
ATOM      1  C   UNL     1       4.624   8.023  12.013  1.00  0.00     0.000 C 
ENDROOT
BRANCH   1   2
ATOM      2  C   UNL     1       4.750   6.547  11.588  1.00  0.00    -0.000 C 
BRANCH   2   3
ATOM      3  C   UNL     1       4.780   5.533  12.749  1.00  0.00    -0.000 C 
BRANCH   3   4
ATOM      4  C   UNL     1       6.188   5.185  13.273  1.00  0.00    -0.000 C 
BRANCH   4   5
ATOM      5  C   UNL     1       7.343   5.896  12.547  1.00  0.00    -0.003 C 
ATOM      6  C   UNL     1       7.901   7.080  13.333  1.00  0.00     0.004 C 
ENDBRANCH   4   5
ENDBRANCH   3   4
ENDBRANCH   2   3
ENDBRANCH   1   2
BRANCH   1   7
ATOM      7  C   UNL     1       4.274   8.999  10.875  1.00  0.00     0.000 C 
BRANCH   7   8
ATOM      8  C   UNL     1       3.617  10.292  11.379  1.00  0.00     0.000 C 
BRANCH   8   9
ATOM      9  C   UNL     1       3.826  10.462  12.890  1.00  0.00     0.004 C 
BRANCH   9  10
ATOM     10  C   UNL     1       2.786   9.689  13.710  1.00  0.00     0.027 C 
BRANCH  10  11
ATOM     11  C   UNL     1       3.434   8.869  14.794  1.00  0.00    -0.035 C 
ATOM     12  C   UNL     1       4.747   8.623  14.802  1.00  0.00     0.004 C 
ENDBRANCH  10  11
ENDBRANCH   9  10
ENDBRANCH   8   9
ENDBRANCH   7   8
ENDBRANCH   1   7
TORSDOF 9
ENDMDL
