MODEL 1
REMARK VINA RESULT:    -2.973      0.000      0.000
REMARK INTER + INTRA:          -2.973
REMARK INTER:                  -2.973
REMARK INTRA:                   0.000
REMARK UNBOUND:                 0.000
REMARK SMILES CC(=O)[O-]
REMARK SMILES IDX 1 1 2 2 3 3 4 4
REMARK H PARENT
REMARK Flexibility Score: inf
ROOT
ATOM      1  C   UNL     1      -2.844 -21.426 -13.828  1.00  0.00     0.063 C 
ATOM      2  C   UNL     1      -1.796 -20.444 -13.423  1.00  0.00     0.038 C 
ATOM      3  O   UNL     1      -2.034 -19.604 -12.516  1.00  0.00    -0.550 OA
ATOM      4  O   UNL     1      -0.574 -20.419 -14.083  1.00  0.00    -0.550 OA
ENDROOT
TORSDOF 0
ENDMDL
MODEL 2
REMARK VINA RESULT:    -2.970      0.093      1.621
REMARK INTER + INTRA:          -2.970
REMARK INTER:                  -2.970
REMARK INTRA:                   0.000
REMARK UNBOUND:                 0.000
REMARK SMILES CC(=O)[O-]
REMARK SMILES IDX 1 1 2 2 3 3 4 4
REMARK H PARENT
REMARK Flexibility Score: inf
ROOT
ATOM      1  C   UNL     1      -2.850 -21.427 -13.837  1.00  0.00     0.063 C 
ATOM      2  C   UNL     1      -1.801 -20.441 -13.448  1.00  0.00     0.038 C 
ATOM      3  O   UNL     1      -0.695 -20.426 -14.049  1.00  0.00    -0.550 OA
ATOM      4  O   UNL     1      -2.021 -19.572 -12.387  1.00  0.00    -0.550 OA
ENDROOT
TORSDOF 0
ENDMDL
MODEL 3
REMARK VINA RESULT:    -2.704      1.387      1.780
REMARK INTER + INTRA:          -2.704
REMARK INTER:                  -2.704
REMARK INTRA:                   0.000
REMARK UNBOUND:                 0.000
REMARK SMILES CC(=O)[O-]
REMARK SMILES IDX 1 1 2 2 3 3 4 4
REMARK H PARENT
REMARK Flexibility Score: inf
ROOT
ATOM      1  C   UNL     1      -0.305 -20.255 -13.768  1.00  0.00     0.063 C 
ATOM      2  C   UNL     1      -1.729 -20.269 -13.323  1.00  0.00     0.038 C 
ATOM      3  O   UNL     1      -2.087 -19.582 -12.330  1.00  0.00    -0.550 OA
ATOM      4  O   UNL     1      -2.652 -21.081 -13.969  1.00  0.00    -0.550 OA
ENDROOT
TORSDOF 0
ENDMDL
MODEL 4
REMARK VINA RESULT:    -2.699      1.339      2.172
REMARK INTER + INTRA:          -2.699
REMARK INTER:                  -2.699
REMARK INTRA:                   0.000
REMARK UNBOUND:                 0.000
REMARK SMILES CC(=O)[O-]
REMARK SMILES IDX 1 1 2 2 3 3 4 4
REMARK H PARENT
REMARK Flexibility Score: inf
ROOT
ATOM      1  C   UNL     1      -0.271 -20.250 -13.749  1.00  0.00     0.063 C 
ATOM      2  C   UNL     1      -1.699 -20.287 -13.319  1.00  0.00     0.038 C 
ATOM      3  O   UNL     1      -2.529 -20.995 -13.946  1.00  0.00    -0.550 OA
ATOM      4  O   UNL     1      -2.127 -19.498 -12.258  1.00  0.00    -0.550 OA
ENDROOT
TORSDOF 0
ENDMDL
MODEL 5
REMARK VINA RESULT:    -2.640      1.737      2.146
REMARK INTER + INTRA:          -2.640
REMARK INTER:                  -2.640
REMARK INTRA:                   0.000
REMARK UNBOUND:                 0.000
REMARK SMILES CC(=O)[O-]
REMARK SMILES IDX 1 1 2 2 3 3 4 4
REMARK H PARENT
REMARK Flexibility Score: inf
ROOT
ATOM      1  C   UNL     1       0.124 -21.023 -14.830  1.00  0.00     0.063 C 
ATOM      2  C   UNL     1      -0.580 -20.249 -13.767  1.00  0.00     0.038 C 
ATOM      3  O   UNL     1       0.075 -19.514 -12.982  1.00  0.00    -0.550 OA
ATOM      4  O   UNL     1      -1.954 -20.377 -13.607  1.00  0.00    -0.550 OA
ENDROOT
TORSDOF 0
ENDMDL
MODEL 6
REMARK VINA RESULT:    -2.553      1.374      1.824
REMARK INTER + INTRA:          -2.553
REMARK INTER:                  -2.553
REMARK INTRA:                   0.000
REMARK UNBOUND:                 0.000
REMARK SMILES CC(=O)[O-]
REMARK SMILES IDX 1 1 2 2 3 3 4 4
REMARK H PARENT
REMARK Flexibility Score: inf
ROOT
ATOM      1  C   UNL     1      -0.431 -20.307 -11.846  1.00  0.00     0.063 C 
ATOM      2  C   UNL     1      -0.940 -20.296 -13.248  1.00  0.00     0.038 C 
ATOM      3  O   UNL     1      -2.168 -20.133 -13.472  1.00  0.00    -0.550 OA
ATOM      4  O   UNL     1      -0.069 -20.519 -14.307  1.00  0.00    -0.550 OA
ENDROOT
TORSDOF 0
ENDMDL
MODEL 7
REMARK VINA RESULT:    -2.237      3.833      4.616
REMARK INTER + INTRA:          -2.237
REMARK INTER:                  -2.237
REMARK INTRA:                   0.000
REMARK UNBOUND:                 0.000
REMARK SMILES CC(=O)[O-]
REMARK SMILES IDX 1 1 2 2 3 3 4 4
REMARK H PARENT
REMARK Flexibility Score: inf
ROOT
ATOM      1  C   UNL     1       2.521 -21.384 -16.311  1.00  0.00     0.063 C 
ATOM      2  C   UNL     1       1.296 -21.890 -15.626  1.00  0.00     0.038 C 
ATOM      3  O   UNL     1       0.852 -23.037 -15.893  1.00  0.00    -0.550 OA
ATOM      4  O   UNL     1       0.612 -21.076 -14.733  1.00  0.00    -0.550 OA
ENDROOT
TORSDOF 0
ENDMDL
MODEL 8
REMARK VINA RESULT:    -2.156      3.942      4.233
REMARK INTER + INTRA:          -2.156
REMARK INTER:                  -2.156
REMARK INTRA:                   0.000
REMARK UNBOUND:                 0.000
REMARK SMILES CC(=O)[O-]
REMARK SMILES IDX 1 1 2 2 3 3 4 4
REMARK H PARENT
REMARK Flexibility Score: inf
ROOT
ATOM      1  C   UNL     1       0.128 -21.087 -14.901  1.00  0.00     0.063 C 
ATOM      2  C   UNL     1       1.103 -21.893 -15.692  1.00  0.00     0.038 C 
ATOM      3  O   UNL     1       0.731 -22.954 -16.259  1.00  0.00    -0.550 OA
ATOM      4  O   UNL     1       2.435 -21.505 -15.758  1.00  0.00    -0.550 OA
ENDROOT
TORSDOF 0
ENDMDL
MODEL 9
REMARK VINA RESULT:    -2.108     15.784     16.042
REMARK INTER + INTRA:          -2.108
REMARK INTER:                  -2.108
REMARK INTRA:                   0.000
REMARK UNBOUND:                 0.000
REMARK SMILES CC(=O)[O-]
REMARK SMILES IDX 1 1 2 2 3 3 4 4
REMARK H PARENT
REMARK Flexibility Score: inf
ROOT
ATOM      1  C   UNL     1       3.858  -5.233  -9.091  1.00  0.00     0.063 C 
ATOM      2  C   UNL     1       4.154  -6.040 -10.310  1.00  0.00     0.038 C 
ATOM      3  O   UNL     1       3.362  -6.019 -11.288  1.00  0.00    -0.550 OA
ATOM      4  O   UNL     1       5.277  -6.857 -10.348  1.00  0.00    -0.550 OA
ENDROOT
TORSDOF 0
ENDMDL
