MODEL 1
REMARK VINA RESULT:    -5.172      0.000      0.000
REMARK INTER + INTRA:          -8.824
REMARK INTER:                  -8.195
REMARK INTRA:                  -0.629
REMARK UNBOUND:                -0.629
REMARK SMILES CCCCCCCCCCCC(=O)[O-]
REMARK SMILES IDX 7 1 8 2 9 3 10 4 11 5 12 6 13 7 14 8 6 9 5 10 4 11 3 12 2 13
REMARK SMILES IDX 1 14
REMARK H PARENT
REMARK Flexibility Score: inf
ROOT
ATOM      1  C   UNL     1     -17.034  -6.578  38.624  1.00  0.00     0.000 C 
ENDROOT
BRANCH   1   2
ATOM      2  C   UNL     1     -17.809  -7.318  39.728  1.00  0.00     0.000 C 
BRANCH   2   3
ATOM      3  C   UNL     1     -17.744  -6.576  41.080  1.00  0.00     0.000 C 
BRANCH   3   4
ATOM      4  C   UNL     1     -17.842  -7.509  42.300  1.00  0.00     0.006 C 
BRANCH   4   5
ATOM      5  C   UNL     1     -16.814  -7.177  43.388  1.00  0.00     0.053 C 
BRANCH   5   6
ATOM      6  C   UNL     1     -17.115  -7.940  44.640  1.00  0.00     0.041 C 
ATOM      7  O   UNL     1     -17.737  -7.387  45.584  1.00  0.00    -0.550 OA
ATOM      8  O   UNL     1     -16.663  -9.245  44.784  1.00  0.00    -0.550 OA
ENDBRANCH   5   6
ENDBRANCH   4   5
ENDBRANCH   3   4
ENDBRANCH   2   3
ENDBRANCH   1   2
BRANCH   1   9
ATOM      9  C   UNL     1     -16.171  -5.429  39.170  1.00  0.00     0.000 C 
BRANCH   9  10
ATOM     10  C   UNL     1     -14.760  -5.407  38.566  1.00  0.00    -0.000 C 
BRANCH  10  11
ATOM     11  C   UNL     1     -14.761  -6.003  37.150  1.00  0.00    -0.000 C 
BRANCH  11  12
ATOM     12  C   UNL     1     -13.574  -6.946  36.903  1.00  0.00    -0.000 C 
BRANCH  12  13
ATOM     13  C   UNL     1     -12.817  -7.295  38.193  1.00  0.00    -0.003 C 
ATOM     14  C   UNL     1     -11.749  -8.355  37.934  1.00  0.00     0.004 C 
ENDBRANCH  12  13
ENDBRANCH  11  12
ENDBRANCH  10  11
ENDBRANCH   9  10
ENDBRANCH   1   9
TORSDOF 10
ENDMDL
MODEL 2
REMARK VINA RESULT:    -5.147      1.378      2.083
REMARK INTER + INTRA:          -8.785
REMARK INTER:                  -8.174
REMARK INTRA:                  -0.611
REMARK UNBOUND:                -0.629
REMARK SMILES CCCCCCCCCCCC(=O)[O-]
REMARK SMILES IDX 7 1 8 2 9 3 10 4 11 5 12 6 13 7 14 8 6 9 5 10 4 11 3 12 2 13
REMARK SMILES IDX 1 14
REMARK H PARENT
REMARK Flexibility Score: inf
ROOT
ATOM      1  C   UNL     1     -15.741  -5.863  38.991  1.00  0.00     0.000 C 
ENDROOT
BRANCH   1   2
ATOM      2  C   UNL     1     -16.954  -6.667  38.490  1.00  0.00     0.000 C 
BRANCH   2   3
ATOM      3  C   UNL     1     -17.811  -7.212  39.651  1.00  0.00     0.000 C 
BRANCH   3   4
ATOM      4  C   UNL     1     -17.712  -6.372  40.936  1.00  0.00     0.006 C 
BRANCH   4   5
ATOM      5  C   UNL     1     -17.357  -7.210  42.170  1.00  0.00     0.053 C 
BRANCH   5   6
ATOM      6  C   UNL     1     -16.489  -6.425  43.102  1.00  0.00     0.041 C 
ATOM      7  O   UNL     1     -16.904  -6.122  44.251  1.00  0.00    -0.550 OA
ATOM      8  O   UNL     1     -15.240  -5.984  42.684  1.00  0.00    -0.550 OA
ENDBRANCH   5   6
ENDBRANCH   4   5
ENDBRANCH   3   4
ENDBRANCH   2   3
ENDBRANCH   1   2
BRANCH   1   9
ATOM      9  C   UNL     1     -14.731  -5.556  37.875  1.00  0.00     0.000 C 
BRANCH   9  10
ATOM     10  C   UNL     1     -14.401  -6.786  37.018  1.00  0.00    -0.000 C 
BRANCH  10  11
ATOM     11  C   UNL     1     -12.933  -7.202  37.197  1.00  0.00    -0.000 C 
BRANCH  11  12
ATOM     12  C   UNL     1     -12.539  -7.365  38.673  1.00  0.00    -0.000 C 
BRANCH  12  13
ATOM     13  C   UNL     1     -11.487  -8.463  38.886  1.00  0.00    -0.003 C 
ATOM     14  C   UNL     1     -11.308  -9.305  37.626  1.00  0.00     0.004 C 
ENDBRANCH  12  13
ENDBRANCH  11  12
ENDBRANCH  10  11
ENDBRANCH   9  10
ENDBRANCH   1   9
TORSDOF 10
ENDMDL
MODEL 3
REMARK VINA RESULT:    -4.973      4.453      7.130
REMARK INTER + INTRA:          -8.510
REMARK INTER:                  -7.903
REMARK INTRA:                  -0.607
REMARK UNBOUND:                -0.629
REMARK SMILES CCCCCCCCCCCC(=O)[O-]
REMARK SMILES IDX 7 1 8 2 9 3 10 4 11 5 12 6 13 7 14 8 6 9 5 10 4 11 3 12 2 13
REMARK SMILES IDX 1 14
REMARK H PARENT
REMARK Flexibility Score: inf
ROOT
ATOM      1  C   UNL     1     -13.594  -6.790  37.672  1.00  0.00     0.000 C 
ENDROOT
BRANCH   1   2
ATOM      2  C   UNL     1     -13.218  -6.773  39.164  1.00  0.00     0.000 C 
BRANCH   2   3
ATOM      3  C   UNL     1     -11.960  -7.618  39.456  1.00  0.00     0.000 C 
BRANCH   3   4
ATOM      4  C   UNL     1     -11.142  -7.960  38.199  1.00  0.00     0.006 C 
BRANCH   4   5
ATOM      5  C   UNL     1     -10.999  -9.470  37.974  1.00  0.00     0.053 C 
BRANCH   5   6
ATOM      6  C   UNL     1      -9.777  -9.764  37.162  1.00  0.00     0.041 C 
ATOM      7  O   UNL     1      -8.781 -10.319  37.695  1.00  0.00    -0.550 OA
ATOM      8  O   UNL     1      -9.719  -9.379  35.829  1.00  0.00    -0.550 OA
ENDBRANCH   5   6
ENDBRANCH   4   5
ENDBRANCH   3   4
ENDBRANCH   2   3
ENDBRANCH   1   2
BRANCH   1   9
ATOM      9  C   UNL     1     -14.896  -6.027  37.379  1.00  0.00     0.000 C 
BRANCH   9  10
ATOM     10  C   UNL     1     -15.769  -5.843  38.629  1.00  0.00    -0.000 C 
BRANCH  10  11
ATOM     11  C   UNL     1     -17.138  -6.515  38.445  1.00  0.00    -0.000 C 
BRANCH  11  12
ATOM     12  C   UNL     1     -17.706  -7.072  39.759  1.00  0.00    -0.000 C 
BRANCH  12  13
ATOM     13  C   UNL     1     -17.047  -6.450  40.999  1.00  0.00    -0.003 C 
ATOM     14  C   UNL     1     -17.367  -7.257  42.255  1.00  0.00     0.004 C 
ENDBRANCH  12  13
ENDBRANCH  11  12
ENDBRANCH  10  11
ENDBRANCH   9  10
ENDBRANCH   1   9
TORSDOF 10
ENDMDL
MODEL 4
REMARK VINA RESULT:    -4.968      4.863      7.496
REMARK INTER + INTRA:          -8.501
REMARK INTER:                  -7.880
REMARK INTRA:                  -0.620
REMARK UNBOUND:                -0.629
REMARK SMILES CCCCCCCCCCCC(=O)[O-]
REMARK SMILES IDX 7 1 8 2 9 3 10 4 11 5 12 6 13 7 14 8 6 9 5 10 4 11 3 12 2 13
REMARK SMILES IDX 1 14
REMARK H PARENT
REMARK Flexibility Score: inf
ROOT
ATOM      1  C   UNL     1     -12.907  -7.157  38.306  1.00  0.00     0.000 C 
ENDROOT
BRANCH   1   2
ATOM      2  C   UNL     1     -11.728  -8.133  38.147  1.00  0.00     0.000 C 
BRANCH   2   3
ATOM      3  C   UNL     1     -11.172  -8.600  39.508  1.00  0.00     0.000 C 
BRANCH   3   4
ATOM      4  C   UNL     1     -10.204  -9.791  39.403  1.00  0.00     0.006 C 
BRANCH   4   5
ATOM      5  C   UNL     1      -9.837 -10.134  37.954  1.00  0.00     0.053 C 
BRANCH   5   6
ATOM      6  C   UNL     1      -8.383  -9.877  37.709  1.00  0.00     0.041 C 
ATOM      7  O   UNL     1      -7.629  -9.548  38.661  1.00  0.00    -0.550 OA
ATOM      8  O   UNL     1      -7.872  -9.953  36.420  1.00  0.00    -0.550 OA
ENDBRANCH   5   6
ENDBRANCH   4   5
ENDBRANCH   3   4
ENDBRANCH   2   3
ENDBRANCH   1   2
BRANCH   1   9
ATOM      9  C   UNL     1     -13.695  -6.959  37.001  1.00  0.00     0.000 C 
BRANCH   9  10
ATOM     10  C   UNL     1     -14.745  -5.844  37.105  1.00  0.00    -0.000 C 
BRANCH  10  11
ATOM     11  C   UNL     1     -14.721  -5.197  38.498  1.00  0.00    -0.000 C 
BRANCH  11  12
ATOM     12  C   UNL     1     -16.055  -5.351  39.245  1.00  0.00    -0.000 C 
BRANCH  12  13
ATOM     13  C   UNL     1     -17.061  -6.228  38.485  1.00  0.00    -0.003 C 
ATOM     14  C   UNL     1     -17.674  -7.283  39.402  1.00  0.00     0.004 C 
ENDBRANCH  12  13
ENDBRANCH  11  12
ENDBRANCH  10  11
ENDBRANCH   9  10
ENDBRANCH   1   9
TORSDOF 10
ENDMDL
MODEL 5
REMARK VINA RESULT:    -4.924      3.716      6.396
REMARK INTER + INTRA:          -8.431
REMARK INTER:                  -7.951
REMARK INTRA:                  -0.480
REMARK UNBOUND:                -0.629
REMARK SMILES CCCCCCCCCCCC(=O)[O-]
REMARK SMILES IDX 7 1 8 2 9 3 10 4 11 5 12 6 13 7 14 8 6 9 5 10 4 11 3 12 2 13
REMARK SMILES IDX 1 14
REMARK H PARENT
REMARK Flexibility Score: inf
ROOT
ATOM      1  C   UNL     1     -11.880  -8.309  37.750  1.00  0.00     0.000 C 
ENDROOT
BRANCH   1   2
ATOM      2  C   UNL     1     -11.176  -8.770  39.039  1.00  0.00     0.000 C 
BRANCH   2   3
ATOM      3  C   UNL     1     -10.214  -9.949  38.787  1.00  0.00     0.000 C 
BRANCH   3   4
ATOM      4  C   UNL     1      -9.622 -10.547  40.074  1.00  0.00     0.006 C 
BRANCH   4   5
ATOM      5  C   UNL     1      -9.951  -9.720  41.322  1.00  0.00     0.053 C 
BRANCH   5   6
ATOM      6  C   UNL     1      -9.660 -10.506  42.562  1.00  0.00     0.041 C 
ATOM      7  O   UNL     1     -10.132 -10.139  43.670  1.00  0.00    -0.550 OA
ATOM      8  O   UNL     1      -8.826 -11.614  42.502  1.00  0.00    -0.550 OA
ENDBRANCH   5   6
ENDBRANCH   4   5
ENDBRANCH   3   4
ENDBRANCH   2   3
ENDBRANCH   1   2
BRANCH   1   9
ATOM      9  C   UNL     1     -12.948  -7.234  38.008  1.00  0.00     0.000 C 
BRANCH   9  10
ATOM     10  C   UNL     1     -13.743  -6.873  36.745  1.00  0.00    -0.000 C 
BRANCH  10  11
ATOM     11  C   UNL     1     -14.907  -5.930  37.082  1.00  0.00    -0.000 C 
BRANCH  11  12
ATOM     12  C   UNL     1     -14.769  -5.291  38.472  1.00  0.00    -0.000 C 
BRANCH  12  13
ATOM     13  C   UNL     1     -16.011  -5.509  39.350  1.00  0.00    -0.003 C 
ATOM     14  C   UNL     1     -17.035  -6.393  38.642  1.00  0.00     0.004 C 
ENDBRANCH  12  13
ENDBRANCH  11  12
ENDBRANCH  10  11
ENDBRANCH   9  10
ENDBRANCH   1   9
TORSDOF 10
ENDMDL
MODEL 6
REMARK VINA RESULT:    -4.923      2.067      3.541
REMARK INTER + INTRA:          -8.431
REMARK INTER:                  -7.950
REMARK INTRA:                  -0.481
REMARK UNBOUND:                -0.629
REMARK SMILES CCCCCCCCCCCC(=O)[O-]
REMARK SMILES IDX 7 1 8 2 9 3 10 4 11 5 12 6 13 7 14 8 6 9 5 10 4 11 3 12 2 13
REMARK SMILES IDX 1 14
REMARK H PARENT
REMARK Flexibility Score: inf
ROOT
ATOM      1  C   UNL     1     -17.003  -7.269  42.950  1.00  0.00     0.000 C 
ENDROOT
BRANCH   1   2
ATOM      2  C   UNL     1     -17.954  -8.450  42.685  1.00  0.00     0.000 C 
BRANCH   2   3
ATOM      3  C   UNL     1     -17.436  -9.765  43.304  1.00  0.00     0.000 C 
BRANCH   3   4
ATOM      4  C   UNL     1     -16.561  -9.555  44.552  1.00  0.00     0.006 C 
BRANCH   4   5
ATOM      5  C   UNL     1     -15.765 -10.807  44.939  1.00  0.00     0.053 C 
BRANCH   5   6
ATOM      6  C   UNL     1     -15.598 -10.882  46.424  1.00  0.00     0.041 C 
ATOM      7  O   UNL     1     -16.528 -10.508  47.185  1.00  0.00    -0.550 OA
ATOM      8  O   UNL     1     -14.396 -11.317  46.967  1.00  0.00    -0.550 OA
ENDBRANCH   5   6
ENDBRANCH   4   5
ENDBRANCH   3   4
ENDBRANCH   2   3
ENDBRANCH   1   2
BRANCH   1   9
ATOM      9  C   UNL     1     -16.604  -6.528  41.664  1.00  0.00     0.000 C 
BRANCH   9  10
ATOM     10  C   UNL     1     -17.702  -6.567  40.592  1.00  0.00    -0.000 C 
BRANCH  10  11
ATOM     11  C   UNL     1     -17.306  -5.724  39.371  1.00  0.00    -0.000 C 
BRANCH  11  12
ATOM     12  C   UNL     1     -16.386  -6.482  38.401  1.00  0.00    -0.000 C 
BRANCH  12  13
ATOM     13  C   UNL     1     -15.040  -5.774  38.186  1.00  0.00    -0.003 C 
ATOM     14  C   UNL     1     -14.238  -6.444  37.073  1.00  0.00     0.004 C 
ENDBRANCH  12  13
ENDBRANCH  11  12
ENDBRANCH  10  11
ENDBRANCH   9  10
ENDBRANCH   1   9
TORSDOF 10
ENDMDL
MODEL 7
REMARK VINA RESULT:    -4.843      3.400      6.489
REMARK INTER + INTRA:          -8.303
REMARK INTER:                  -7.845
REMARK INTRA:                  -0.458
REMARK UNBOUND:                -0.629
REMARK SMILES CCCCCCCCCCCC(=O)[O-]
REMARK SMILES IDX 7 1 8 2 9 3 10 4 11 5 12 6 13 7 14 8 6 9 5 10 4 11 3 12 2 13
REMARK SMILES IDX 1 14
REMARK H PARENT
REMARK Flexibility Score: inf
ROOT
ATOM      1  C   UNL     1     -17.232  -6.547  41.287  1.00  0.00     0.000 C 
ENDROOT
BRANCH   1   2
ATOM      2  C   UNL     1     -17.787  -7.276  40.050  1.00  0.00     0.000 C 
BRANCH   2   3
ATOM      3  C   UNL     1     -17.312  -6.630  38.732  1.00  0.00     0.000 C 
BRANCH   3   4
ATOM      4  C   UNL     1     -15.948  -5.927  38.847  1.00  0.00     0.006 C 
BRANCH   4   5
ATOM      5  C   UNL     1     -15.093  -6.075  37.583  1.00  0.00     0.053 C 
BRANCH   5   6
ATOM      6  C   UNL     1     -13.766  -6.682  37.918  1.00  0.00     0.041 C 
ATOM      7  O   UNL     1     -13.311  -6.602  39.089  1.00  0.00    -0.550 OA
ATOM      8  O   UNL     1     -13.011  -7.292  36.926  1.00  0.00    -0.550 OA
ENDBRANCH   5   6
ENDBRANCH   4   5
ENDBRANCH   3   4
ENDBRANCH   2   3
ENDBRANCH   1   2
BRANCH   1   9
ATOM      9  C   UNL     1     -17.912  -6.991  42.592  1.00  0.00     0.000 C 
BRANCH   9  10
ATOM     10  C   UNL     1     -17.932  -8.517  42.761  1.00  0.00    -0.000 C 
BRANCH  10  11
ATOM     11  C   UNL     1     -17.115  -8.943  43.990  1.00  0.00    -0.000 C 
BRANCH  11  12
ATOM     12  C   UNL     1     -16.807 -10.448  44.004  1.00  0.00    -0.000 C 
BRANCH  12  13
ATOM     13  C   UNL     1     -15.808 -10.837  45.104  1.00  0.00    -0.003 C 
ATOM     14  C   UNL     1     -14.679  -9.815  45.207  1.00  0.00     0.004 C 
ENDBRANCH  12  13
ENDBRANCH  11  12
ENDBRANCH  10  11
ENDBRANCH   9  10
ENDBRANCH   1   9
TORSDOF 10
ENDMDL
MODEL 8
REMARK VINA RESULT:    -4.796      3.080      5.375
REMARK INTER + INTRA:          -8.228
REMARK INTER:                  -7.797
REMARK INTRA:                  -0.431
REMARK UNBOUND:                -0.629
REMARK SMILES CCCCCCCCCCCC(=O)[O-]
REMARK SMILES IDX 7 1 8 2 9 3 10 4 11 5 12 6 13 7 14 8 6 9 5 10 4 11 3 12 2 13
REMARK SMILES IDX 1 14
REMARK H PARENT
REMARK Flexibility Score: inf
ROOT
ATOM      1  C   UNL     1     -12.723  -7.412  38.102  1.00  0.00     0.000 C 
ENDROOT
BRANCH   1   2
ATOM      2  C   UNL     1     -13.539  -6.982  36.870  1.00  0.00     0.000 C 
BRANCH   2   3
ATOM      3  C   UNL     1     -14.740  -6.091  37.250  1.00  0.00     0.000 C 
BRANCH   3   4
ATOM      4  C   UNL     1     -14.960  -5.968  38.768  1.00  0.00     0.006 C 
BRANCH   4   5
ATOM      5  C   UNL     1     -16.354  -5.440  39.127  1.00  0.00     0.053 C 
BRANCH   5   6
ATOM      6  C   UNL     1     -17.236  -6.562  39.578  1.00  0.00     0.041 C 
ATOM      7  O   UNL     1     -17.747  -7.344  38.735  1.00  0.00    -0.550 OA
ATOM      8  O   UNL     1     -17.535  -6.712  40.926  1.00  0.00    -0.550 OA
ENDBRANCH   5   6
ENDBRANCH   4   5
ENDBRANCH   3   4
ENDBRANCH   2   3
ENDBRANCH   1   2
BRANCH   1   9
ATOM      9  C   UNL     1     -11.343  -7.977  37.732  1.00  0.00     0.000 C 
BRANCH   9  10
ATOM     10  C   UNL     1     -11.064  -9.337  38.388  1.00  0.00    -0.000 C 
BRANCH  10  11
ATOM     11  C   UNL     1     -10.465  -9.157  39.791  1.00  0.00    -0.000 C 
BRANCH  11  12
ATOM     12  C   UNL     1      -9.915 -10.468  40.374  1.00  0.00    -0.000 C 
BRANCH  12  13
ATOM     13  C   UNL     1      -8.381 -10.495  40.423  1.00  0.00    -0.003 C 
ATOM     14  C   UNL     1      -7.800 -11.063  39.131  1.00  0.00     0.004 C 
ENDBRANCH  12  13
ENDBRANCH  11  12
ENDBRANCH  10  11
ENDBRANCH   9  10
ENDBRANCH   1   9
TORSDOF 10
ENDMDL
MODEL 9
REMARK VINA RESULT:    -4.795      2.689      5.007
REMARK INTER + INTRA:          -8.228
REMARK INTER:                  -7.498
REMARK INTRA:                  -0.729
REMARK UNBOUND:                -0.629
REMARK SMILES CCCCCCCCCCCC(=O)[O-]
REMARK SMILES IDX 7 1 8 2 9 3 10 4 11 5 12 6 13 7 14 8 6 9 5 10 4 11 3 12 2 13
REMARK SMILES IDX 1 14
REMARK H PARENT
REMARK Flexibility Score: inf
ROOT
ATOM      1  C   UNL     1     -12.799  -7.489  37.643  1.00  0.00     0.000 C 
ENDROOT
BRANCH   1   2
ATOM      2  C   UNL     1     -13.647  -6.790  36.566  1.00  0.00     0.000 C 
BRANCH   2   3
ATOM      3  C   UNL     1     -14.853  -6.042  37.171  1.00  0.00     0.000 C 
BRANCH   3   4
ATOM      4  C   UNL     1     -14.870  -6.042  38.709  1.00  0.00     0.006 C 
BRANCH   4   5
ATOM      5  C   UNL     1     -16.093  -5.325  39.292  1.00  0.00     0.053 C 
BRANCH   5   6
ATOM      6  C   UNL     1     -17.100  -6.320  39.777  1.00  0.00     0.041 C 
ATOM      7  O   UNL     1     -17.447  -6.332  40.987  1.00  0.00    -0.550 OA
ATOM      8  O   UNL     1     -17.618  -7.267  38.903  1.00  0.00    -0.550 OA
ENDBRANCH   5   6
ENDBRANCH   4   5
ENDBRANCH   3   4
ENDBRANCH   2   3
ENDBRANCH   1   2
BRANCH   1   9
ATOM      9  C   UNL     1     -11.958  -8.646  37.078  1.00  0.00     0.000 C 
BRANCH   9  10
ATOM     10  C   UNL     1     -10.562  -8.728  37.711  1.00  0.00    -0.000 C 
BRANCH  10  11
ATOM     11  C   UNL     1     -10.610  -9.481  39.049  1.00  0.00    -0.000 C 
BRANCH  11  12
ATOM     12  C   UNL     1      -9.977  -8.684  40.201  1.00  0.00    -0.000 C 
BRANCH  12  13
ATOM     13  C   UNL     1     -10.973  -8.386  41.331  1.00  0.00    -0.003 C 
ATOM     14  C   UNL     1     -11.796  -7.138  41.025  1.00  0.00     0.004 C 
ENDBRANCH  12  13
ENDBRANCH  11  12
ENDBRANCH  10  11
ENDBRANCH   9  10
ENDBRANCH   1   9
TORSDOF 10
ENDMDL
