MODEL 1
REMARK VINA RESULT:     0.000      0.000      0.000
REMARK INTER + INTRA:          -3.037
REMARK INTER:                   0.000
REMARK INTRA:                  -3.037
REMARK UNBOUND:                -3.037
REMARK SMILES CC(=O)CCC=C(C)CCC=C(C)CCC=C(C)C
REMARK SMILES IDX 10 1 11 2 12 3 13 4 14 5 15 6 16 7 18 8 17 9 19 10 9 11 7 12
REMARK SMILES IDX 6 13 8 14 5 15 4 16 2 17 3 18 1 19
REMARK H PARENT
REMARK Flexibility Score: inf
ROOT
ATOM      1  C   UNL     1     127.746 130.384 130.327  1.00  0.00     0.032 C 
ENDROOT
BRANCH   1   2
ATOM      2  C   UNL     1     126.651 131.325 129.893  1.00  0.00    -0.028 C 
ATOM      3  C   UNL     1     125.679 131.794 130.709  1.00  0.00    -0.077 C 
ATOM      4  C   UNL     1     125.561 131.344 132.147  1.00  0.00     0.039 C 
BRANCH   3   5
ATOM      5  C   UNL     1     124.669 132.778 130.159  1.00  0.00     0.034 C 
BRANCH   5   6
ATOM      6  C   UNL     1     125.243 133.529 128.952  1.00  0.00     0.032 C 
BRANCH   6   7
ATOM      7  C   UNL     1     125.903 134.819 129.375  1.00  0.00    -0.028 C 
ATOM      8  C   UNL     1     128.027 134.217 128.208  1.00  0.00     0.039 C 
ATOM      9  C   UNL     1     127.171 135.142 129.040  1.00  0.00    -0.080 C 
ATOM     10  C   UNL     1     127.734 136.457 129.513  1.00  0.00     0.039 C 
ENDBRANCH   6   7
ENDBRANCH   5   6
ENDBRANCH   3   5
ENDBRANCH   1   2
BRANCH   1  11
ATOM     11  C   UNL     1     129.090 131.116 130.400  1.00  0.00     0.034 C 
BRANCH  11  12
ATOM     12  C   UNL     1     129.196 131.918 131.678  1.00  0.00    -0.077 C 
ATOM     13  C   UNL     1     129.267 133.268 131.600  1.00  0.00    -0.028 C 
ATOM     14  C   UNL     1     129.245 131.193 133.002  1.00  0.00     0.039 C 
BRANCH  13  15
ATOM     15  C   UNL     1     129.329 134.188 132.794  1.00  0.00     0.035 C 
BRANCH  15  16
ATOM     16  C   UNL     1     128.150 135.166 132.783  1.00  0.00     0.079 C 
BRANCH  16  17
ATOM     17  C   UNL     1     126.950 134.559 133.460  1.00  0.00     0.130 C 
ATOM     18  O   UNL     1     127.113 133.734 134.346  1.00  0.00    -0.300 OA
ATOM     19  C   UNL     1     125.554 134.951 133.075  1.00  0.00     0.087 C 
ENDBRANCH  16  17
ENDBRANCH  15  16
ENDBRANCH  13  15
ENDBRANCH  11  12
ENDBRANCH   1  11
TORSDOF 9
ENDMDL
MODEL 2
REMARK VINA RESULT:     0.000      6.174      8.222
REMARK INTER + INTRA:          -3.037
REMARK INTER:                   0.000
REMARK INTRA:                  -3.037
REMARK UNBOUND:                -3.037
REMARK SMILES CC(=O)CCC=C(C)CCC=C(C)CCC=C(C)C
REMARK SMILES IDX 10 1 11 2 12 3 13 4 14 5 15 6 16 7 18 8 17 9 19 10 9 11 7 12
REMARK SMILES IDX 6 13 8 14 5 15 4 16 2 17 3 18 1 19
REMARK H PARENT
REMARK Flexibility Score: inf
ROOT
ATOM      1  C   UNL     1     131.871 132.492 130.159  1.00  0.00     0.032 C 
ENDROOT
BRANCH   1   2
ATOM      2  C   UNL     1     132.816 133.667 130.131  1.00  0.00    -0.028 C 
ATOM      3  C   UNL     1     133.315 134.274 131.233  1.00  0.00    -0.077 C 
ATOM      4  C   UNL     1     132.897 133.861 132.626  1.00  0.00     0.039 C 
BRANCH   3   5
ATOM      5  C   UNL     1     134.298 135.411 131.063  1.00  0.00     0.034 C 
BRANCH   5   6
ATOM      6  C   UNL     1     135.017 135.313 129.712  1.00  0.00     0.032 C 
BRANCH   6   7
ATOM      7  C   UNL     1     136.307 134.539 129.834  1.00  0.00    -0.028 C 
ATOM      8  C   UNL     1     135.653 132.988 127.989  1.00  0.00     0.039 C 
ATOM      9  C   UNL     1     136.606 133.479 129.053  1.00  0.00    -0.080 C 
ATOM     10  C   UNL     1     137.924 132.778 129.256  1.00  0.00     0.039 C 
ENDBRANCH   6   7
ENDBRANCH   5   6
ENDBRANCH   3   5
ENDBRANCH   1   2
BRANCH   1  11
ATOM     11  C   UNL     1     132.587 131.212 129.720  1.00  0.00     0.034 C 
BRANCH  11  12
ATOM     12  C   UNL     1     133.416 130.644 130.851  1.00  0.00    -0.077 C 
ATOM     13  C   UNL     1     134.762 130.602 130.720  1.00  0.00    -0.028 C 
ATOM     14  C   UNL     1     132.718 130.119 132.085  1.00  0.00     0.039 C 
BRANCH  13  15
ATOM     15  C   UNL     1     135.707 130.106 131.786  1.00  0.00     0.035 C 
BRANCH  15  16
ATOM     16  C   UNL     1     136.700 131.204 132.181  1.00  0.00     0.079 C 
BRANCH  16  17
ATOM     17  C   UNL     1     136.122 132.078 133.263  1.00  0.00     0.130 C 
ATOM     18  O   UNL     1     135.314 131.607 134.049  1.00  0.00    -0.300 OA
ATOM     19  C   UNL     1     136.523 133.517 133.402  1.00  0.00     0.087 C 
ENDBRANCH  16  17
ENDBRANCH  15  16
ENDBRANCH  13  15
ENDBRANCH  11  12
ENDBRANCH   1  11
TORSDOF 9
ENDMDL
MODEL 3
REMARK VINA RESULT:     0.001      6.534      9.286
REMARK INTER + INTRA:          -3.036
REMARK INTER:                   0.000
REMARK INTRA:                  -3.036
REMARK UNBOUND:                -3.037
REMARK SMILES CC(=O)CCC=C(C)CCC=C(C)CCC=C(C)C
REMARK SMILES IDX 10 1 11 2 12 3 13 4 14 5 15 6 16 7 18 8 17 9 19 10 9 11 7 12
REMARK SMILES IDX 6 13 8 14 5 15 4 16 2 17 3 18 1 19
REMARK H PARENT
REMARK Flexibility Score: inf
ROOT
ATOM      1  C   UNL     1     133.801 126.789 130.617  1.00  0.00     0.032 C 
ENDROOT
BRANCH   1   2
ATOM      2  C   UNL     1     132.701 127.794 130.384  1.00  0.00    -0.028 C 
ATOM      3  C   UNL     1     132.864 128.966 129.726  1.00  0.00    -0.077 C 
ATOM      4  C   UNL     1     134.215 129.413 129.220  1.00  0.00     0.039 C 
BRANCH   3   5
ATOM      5  C   UNL     1     131.662 129.861 129.514  1.00  0.00     0.034 C 
BRANCH   5   6
ATOM      6  C   UNL     1     130.363 129.049 129.556  1.00  0.00     0.032 C 
BRANCH   6   7
ATOM      7  C   UNL     1     129.959 128.593 128.175  1.00  0.00    -0.028 C 
ATOM      8  C   UNL     1     129.797 126.212 128.912  1.00  0.00     0.039 C 
ATOM      9  C   UNL     1     129.698 127.303 127.872  1.00  0.00    -0.080 C 
ATOM     10  C   UNL     1     129.300 126.955 126.461  1.00  0.00     0.039 C 
ENDBRANCH   6   7
ENDBRANCH   5   6
ENDBRANCH   3   5
ENDBRANCH   1   2
BRANCH   1  11
ATOM     11  C   UNL     1     133.598 125.552 129.737  1.00  0.00     0.034 C 
BRANCH  11  12
ATOM     12  C   UNL     1     134.063 125.817 128.322  1.00  0.00    -0.077 C 
ATOM     13  C   UNL     1     133.152 125.810 127.320  1.00  0.00    -0.028 C 
ATOM     14  C   UNL     1     135.531 126.059 128.061  1.00  0.00     0.039 C 
BRANCH  13  15
ATOM     15  C   UNL     1     133.471 126.103 125.876  1.00  0.00     0.035 C 
BRANCH  15  16
ATOM     16  C   UNL     1     132.653 127.297 125.374  1.00  0.00     0.079 C 
BRANCH  16  17
ATOM     17  C   UNL     1     133.363 128.590 125.673  1.00  0.00     0.130 C 
ATOM     18  O   UNL     1     134.583 128.607 125.733  1.00  0.00    -0.300 OA
ATOM     19  C   UNL     1     132.604 129.866 125.893  1.00  0.00     0.087 C 
ENDBRANCH  16  17
ENDBRANCH  15  16
ENDBRANCH  13  15
ENDBRANCH  11  12
ENDBRANCH   1  11
TORSDOF 9
ENDMDL
MODEL 4
REMARK VINA RESULT:     0.001      1.976      4.537
REMARK INTER + INTRA:          -3.036
REMARK INTER:                   0.000
REMARK INTRA:                  -3.036
REMARK UNBOUND:                -3.037
REMARK SMILES CC(=O)CCC=C(C)CCC=C(C)CCC=C(C)C
REMARK SMILES IDX 10 1 11 2 12 3 13 4 14 5 15 6 16 7 18 8 17 9 19 10 9 11 7 12
REMARK SMILES IDX 6 13 8 14 5 15 4 16 2 17 3 18 1 19
REMARK H PARENT
REMARK Flexibility Score: inf
ROOT
ATOM      1  C   UNL     1     128.720 134.061 134.038  1.00  0.00     0.032 C 
ENDROOT
BRANCH   1   2
ATOM      2  C   UNL     1     127.551 133.152 134.321  1.00  0.00    -0.028 C 
ATOM      3  C   UNL     1     126.309 133.583 134.644  1.00  0.00    -0.077 C 
ATOM      4  C   UNL     1     125.998 135.051 134.826  1.00  0.00     0.039 C 
BRANCH   3   5
ATOM      5  C   UNL     1     125.209 132.565 134.852  1.00  0.00     0.034 C 
BRANCH   5   6
ATOM      6  C   UNL     1     125.522 131.265 134.102  1.00  0.00     0.032 C 
BRANCH   6   7
ATOM      7  C   UNL     1     124.917 131.272 132.719  1.00  0.00    -0.028 C 
ATOM      8  C   UNL     1     127.115 130.741 131.659  1.00  0.00     0.039 C 
ATOM      9  C   UNL     1     125.635 131.034 131.600  1.00  0.00    -0.080 C 
ATOM     10  C   UNL     1     124.931 131.063 130.268  1.00  0.00     0.039 C 
ENDBRANCH   6   7
ENDBRANCH   5   6
ENDBRANCH   3   5
ENDBRANCH   1   2
BRANCH   1  11
ATOM     11  C   UNL     1     129.058 134.057 132.544  1.00  0.00     0.034 C 
BRANCH  11  12
ATOM     12  C   UNL     1     128.106 134.947 131.776  1.00  0.00    -0.077 C 
ATOM     13  C   UNL     1     127.271 134.387 130.869  1.00  0.00    -0.028 C 
ATOM     14  C   UNL     1     128.129 136.438 132.022  1.00  0.00     0.039 C 
BRANCH  13  15
ATOM     15  C   UNL     1     126.244 135.149 130.071  1.00  0.00     0.035 C 
BRANCH  15  16
ATOM     16  C   UNL     1     124.838 134.602 130.337  1.00  0.00     0.079 C 
BRANCH  16  17
ATOM     17  C   UNL     1     124.228 135.270 131.540  1.00  0.00     0.130 C 
ATOM     18  O   UNL     1     124.555 136.413 131.825  1.00  0.00    -0.300 OA
ATOM     19  C   UNL     1     123.217 134.566 132.397  1.00  0.00     0.087 C 
ENDBRANCH  16  17
ENDBRANCH  15  16
ENDBRANCH  13  15
ENDBRANCH  11  12
ENDBRANCH   1  11
TORSDOF 9
ENDMDL
MODEL 5
REMARK VINA RESULT:     0.001      5.963      9.058
REMARK INTER + INTRA:          -3.036
REMARK INTER:                   0.000
REMARK INTRA:                  -3.036
REMARK UNBOUND:                -3.037
REMARK SMILES CC(=O)CCC=C(C)CCC=C(C)CCC=C(C)C
REMARK SMILES IDX 10 1 11 2 12 3 13 4 14 5 15 6 16 7 18 8 17 9 19 10 9 11 7 12
REMARK SMILES IDX 6 13 8 14 5 15 4 16 2 17 3 18 1 19
REMARK H PARENT
REMARK Flexibility Score: inf
ROOT
ATOM      1  C   UNL     1     130.699 127.235 132.986  1.00  0.00     0.032 C 
ENDROOT
BRANCH   1   2
ATOM      2  C   UNL     1     130.805 125.760 132.690  1.00  0.00    -0.028 C 
ATOM      3  C   UNL     1     129.950 124.823 133.163  1.00  0.00    -0.077 C 
ATOM      4  C   UNL     1     128.831 125.175 134.115  1.00  0.00     0.039 C 
BRANCH   3   5
ATOM      5  C   UNL     1     130.138 123.381 132.745  1.00  0.00     0.034 C 
BRANCH   5   6
ATOM      6  C   UNL     1     130.890 123.294 131.412  1.00  0.00     0.032 C 
BRANCH   6   7
ATOM      7  C   UNL     1     129.931 123.250 130.246  1.00  0.00    -0.028 C 
ATOM      8  C   UNL     1     131.066 125.174 129.129  1.00  0.00     0.039 C 
ATOM      9  C   UNL     1     130.005 124.102 129.201  1.00  0.00    -0.080 C 
ATOM     10  C   UNL     1     128.999 123.971 128.087  1.00  0.00     0.039 C 
ENDBRANCH   6   7
ENDBRANCH   5   6
ENDBRANCH   3   5
ENDBRANCH   1   2
BRANCH   1  11
ATOM     11  C   UNL     1     130.228 128.003 131.746  1.00  0.00     0.034 C 
BRANCH  11  12
ATOM     12  C   UNL     1     128.732 127.873 131.570  1.00  0.00    -0.077 C 
ATOM     13  C   UNL     1     128.253 127.224 130.482  1.00  0.00    -0.028 C 
ATOM     14  C   UNL     1     127.812 128.490 132.598  1.00  0.00     0.039 C 
BRANCH  13  15
ATOM     15  C   UNL     1     126.790 126.983 130.208  1.00  0.00     0.035 C 
BRANCH  15  16
ATOM     16  C   UNL     1     126.503 125.484 130.091  1.00  0.00     0.079 C 
BRANCH  16  17
ATOM     17  C   UNL     1     126.227 124.888 131.446  1.00  0.00     0.130 C 
ATOM     18  O   UNL     1     125.738 125.586 132.322  1.00  0.00    -0.300 OA
ATOM     19  C   UNL     1     126.533 123.450 131.745  1.00  0.00     0.087 C 
ENDBRANCH  16  17
ENDBRANCH  15  16
ENDBRANCH  13  15
ENDBRANCH  11  12
ENDBRANCH   1  11
TORSDOF 9
ENDMDL
MODEL 6
REMARK VINA RESULT:     0.001      8.352     10.592
REMARK INTER + INTRA:          -3.036
REMARK INTER:                   0.000
REMARK INTRA:                  -3.036
REMARK UNBOUND:                -3.037
REMARK SMILES CC(=O)CCC=C(C)CCC=C(C)CCC=C(C)C
REMARK SMILES IDX 10 1 11 2 12 3 13 4 14 5 15 6 16 7 18 8 17 9 19 10 9 11 7 12
REMARK SMILES IDX 6 13 8 14 5 15 4 16 2 17 3 18 1 19
REMARK H PARENT
REMARK Flexibility Score: inf
ROOT
ATOM      1  C   UNL     1     125.543 125.356 134.640  1.00  0.00     0.032 C 
ENDROOT
BRANCH   1   2
ATOM      2  C   UNL     1     126.503 126.318 135.292  1.00  0.00    -0.028 C 
ATOM      3  C   UNL     1     126.674 126.437 136.630  1.00  0.00    -0.077 C 
ATOM      4  C   UNL     1     125.841 125.647 137.612  1.00  0.00     0.039 C 
BRANCH   3   5
ATOM      5  C   UNL     1     127.712 127.406 137.153  1.00  0.00     0.034 C 
BRANCH   5   6
ATOM      6  C   UNL     1     128.797 127.664 136.101  1.00  0.00     0.032 C 
BRANCH   6   7
ATOM      7  C   UNL     1     129.957 126.712 136.267  1.00  0.00    -0.028 C 
ATOM      8  C   UNL     1     129.819 125.988 133.881  1.00  0.00     0.039 C 
ATOM      9  C   UNL     1     130.430 125.946 135.261  1.00  0.00    -0.080 C 
ATOM     10  C   UNL     1     131.596 125.031 135.533  1.00  0.00     0.039 C 
ENDBRANCH   6   7
ENDBRANCH   5   6
ENDBRANCH   3   5
ENDBRANCH   1   2
BRANCH   1  11
ATOM     11  C   UNL     1     126.301 124.207 133.969  1.00  0.00     0.034 C 
BRANCH  11  12
ATOM     12  C   UNL     1     126.728 123.176 134.991  1.00  0.00    -0.077 C 
ATOM     13  C   UNL     1     128.049 122.982 135.214  1.00  0.00    -0.028 C 
ATOM     14  C   UNL     1     125.671 122.376 135.716  1.00  0.00     0.039 C 
BRANCH  13  15
ATOM     15  C   UNL     1     128.609 122.022 136.234  1.00  0.00     0.035 C 
BRANCH  15  16
ATOM     16  C   UNL     1     129.484 122.764 137.249  1.00  0.00     0.079 C 
BRANCH  16  17
ATOM     17  C   UNL     1     128.647 123.297 138.381  1.00  0.00     0.130 C 
ATOM     18  O   UNL     1     127.622 122.714 138.698  1.00  0.00    -0.300 OA
ATOM     19  C   UNL     1     129.050 124.530 139.137  1.00  0.00     0.087 C 
ENDBRANCH  16  17
ENDBRANCH  15  16
ENDBRANCH  13  15
ENDBRANCH  11  12
ENDBRANCH   1  11
TORSDOF 9
ENDMDL
MODEL 7
REMARK VINA RESULT:     0.001      6.814      8.984
REMARK INTER + INTRA:          -3.036
REMARK INTER:                   0.000
REMARK INTRA:                  -3.036
REMARK UNBOUND:                -3.037
REMARK SMILES CC(=O)CCC=C(C)CCC=C(C)CCC=C(C)C
REMARK SMILES IDX 10 1 11 2 12 3 13 4 14 5 15 6 16 7 18 8 17 9 19 10 9 11 7 12
REMARK SMILES IDX 6 13 8 14 5 15 4 16 2 17 3 18 1 19
REMARK H PARENT
REMARK Flexibility Score: inf
ROOT
ATOM      1  C   UNL     1     131.797 126.766 132.744  1.00  0.00     0.032 C 
ENDROOT
BRANCH   1   2
ATOM      2  C   UNL     1     132.031 128.146 132.184  1.00  0.00    -0.028 C 
ATOM      3  C   UNL     1     132.217 129.255 132.938  1.00  0.00    -0.077 C 
ATOM      4  C   UNL     1     132.131 129.215 134.446  1.00  0.00     0.039 C 
BRANCH   3   5
ATOM      5  C   UNL     1     132.496 130.573 132.249  1.00  0.00     0.034 C 
BRANCH   5   6
ATOM      6  C   UNL     1     133.099 130.343 130.858  1.00  0.00     0.032 C 
BRANCH   6   7
ATOM      7  C   UNL     1     134.608 130.332 130.911  1.00  0.00    -0.028 C 
ATOM      8  C   UNL     1     134.718 128.118 129.760  1.00  0.00     0.039 C 
ATOM      9  C   UNL     1     135.354 129.322 130.413  1.00  0.00    -0.080 C 
ATOM     10  C   UNL     1     136.854 129.412 130.515  1.00  0.00     0.039 C 
ENDBRANCH   6   7
ENDBRANCH   5   6
ENDBRANCH   3   5
ENDBRANCH   1   2
BRANCH   1  11
ATOM     11  C   UNL     1     133.032 125.883 132.538  1.00  0.00     0.034 C 
BRANCH  11  12
ATOM     12  C   UNL     1     134.088 126.186 133.577  1.00  0.00    -0.077 C 
ATOM     13  C   UNL     1     135.269 126.712 133.176  1.00  0.00    -0.028 C 
ATOM     14  C   UNL     1     133.807 125.872 135.028  1.00  0.00     0.039 C 
BRANCH  13  15
ATOM     15  C   UNL     1     136.388 127.104 134.109  1.00  0.00     0.035 C 
BRANCH  15  16
ATOM     16  C   UNL     1     136.722 128.591 133.957  1.00  0.00     0.079 C 
BRANCH  16  17
ATOM     17  C   UNL     1     135.842 129.427 134.849  1.00  0.00     0.130 C 
ATOM     18  O   UNL     1     135.416 128.951 135.890  1.00  0.00    -0.300 OA
ATOM     19  C   UNL     1     135.482 130.838 134.490  1.00  0.00     0.087 C 
ENDBRANCH  16  17
ENDBRANCH  15  16
ENDBRANCH  13  15
ENDBRANCH  11  12
ENDBRANCH   1  11
TORSDOF 9
ENDMDL
MODEL 8
REMARK VINA RESULT:     0.001      4.127      6.712
REMARK INTER + INTRA:          -3.036
REMARK INTER:                   0.000
REMARK INTRA:                  -3.036
REMARK UNBOUND:                -3.037
REMARK SMILES CC(=O)CCC=C(C)CCC=C(C)CCC=C(C)C
REMARK SMILES IDX 10 1 11 2 12 3 13 4 14 5 15 6 16 7 18 8 17 9 19 10 9 11 7 12
REMARK SMILES IDX 6 13 8 14 5 15 4 16 2 17 3 18 1 19
REMARK H PARENT
REMARK Flexibility Score: inf
ROOT
ATOM      1  C   UNL     1     127.774 127.839 130.111  1.00  0.00     0.032 C 
ENDROOT
BRANCH   1   2
ATOM      2  C   UNL     1     128.565 128.963 130.732  1.00  0.00    -0.028 C 
ATOM      3  C   UNL     1     128.077 129.816 131.663  1.00  0.00    -0.077 C 
ATOM      4  C   UNL     1     126.637 129.760 132.117  1.00  0.00     0.039 C 
BRANCH   3   5
ATOM      5  C   UNL     1     128.994 130.869 132.246  1.00  0.00     0.034 C 
BRANCH   5   6
ATOM      6  C   UNL     1     130.461 130.438 132.130  1.00  0.00     0.032 C 
BRANCH   6   7
ATOM      7  C   UNL     1     130.916 129.707 133.370  1.00  0.00    -0.028 C 
ATOM      8  C   UNL     1     131.720 127.758 132.031  1.00  0.00     0.039 C 
ATOM      9  C   UNL     1     131.491 128.486 133.335  1.00  0.00    -0.080 C 
ATOM     10  C   UNL     1     131.911 127.845 134.632  1.00  0.00     0.039 C 
ENDBRANCH   6   7
ENDBRANCH   5   6
ENDBRANCH   3   5
ENDBRANCH   1   2
BRANCH   1  11
ATOM     11  C   UNL     1     128.258 126.483 130.636  1.00  0.00     0.034 C 
BRANCH  11  12
ATOM     12  C   UNL     1     127.686 126.203 132.008  1.00  0.00    -0.077 C 
ATOM     13  C   UNL     1     128.527 126.119 133.065  1.00  0.00    -0.028 C 
ATOM     14  C   UNL     1     126.196 126.001 132.158  1.00  0.00     0.039 C 
BRANCH  13  15
ATOM     15  C   UNL     1     128.087 125.892 134.489  1.00  0.00     0.035 C 
BRANCH  15  16
ATOM     16  C   UNL     1     128.545 127.045 135.387  1.00  0.00     0.079 C 
BRANCH  16  17
ATOM     17  C   UNL     1     127.534 128.161 135.376  1.00  0.00     0.130 C 
ATOM     18  O   UNL     1     126.355 127.902 135.186  1.00  0.00    -0.300 OA
ATOM     19  C   UNL     1     127.942 129.587 135.601  1.00  0.00     0.087 C 
ENDBRANCH  16  17
ENDBRANCH  15  16
ENDBRANCH  13  15
ENDBRANCH  11  12
ENDBRANCH   1  11
TORSDOF 9
ENDMDL
MODEL 9
REMARK VINA RESULT:     0.001      4.764      6.999
REMARK INTER + INTRA:          -3.036
REMARK INTER:                   0.000
REMARK INTRA:                  -3.036
REMARK UNBOUND:                -3.037
REMARK SMILES CC(=O)CCC=C(C)CCC=C(C)CCC=C(C)C
REMARK SMILES IDX 10 1 11 2 12 3 13 4 14 5 15 6 16 7 18 8 17 9 19 10 9 11 7 12
REMARK SMILES IDX 6 13 8 14 5 15 4 16 2 17 3 18 1 19
REMARK H PARENT
REMARK Flexibility Score: inf
ROOT
ATOM      1  C   UNL     1     124.467 125.283 134.479  1.00  0.00     0.032 C 
ENDROOT
BRANCH   1   2
ATOM      2  C   UNL     1     123.577 126.341 133.878  1.00  0.00    -0.028 C 
ATOM      3  C   UNL     1     123.730 127.671 134.076  1.00  0.00    -0.077 C 
ATOM      4  C   UNL     1     124.790 128.221 135.002  1.00  0.00     0.039 C 
BRANCH   3   5
ATOM      5  C   UNL     1     122.799 128.631 133.369  1.00  0.00     0.034 C 
BRANCH   5   6
ATOM      6  C   UNL     1     122.216 127.991 132.103  1.00  0.00     0.032 C 
BRANCH   6   7
ATOM      7  C   UNL     1     123.061 128.306 130.892  1.00  0.00    -0.028 C 
ATOM      8  C   UNL     1     123.269 125.888 130.301  1.00  0.00     0.039 C 
ATOM      9  C   UNL     1     123.545 127.354 130.065  1.00  0.00    -0.080 C 
ATOM     10  C   UNL     1     124.377 127.777 128.882  1.00  0.00     0.039 C 
ENDBRANCH   6   7
ENDBRANCH   5   6
ENDBRANCH   3   5
ENDBRANCH   1   2
BRANCH   1  11
ATOM     11  C   UNL     1     125.366 124.659 133.407  1.00  0.00     0.034 C 
BRANCH  11  12
ATOM     12  C   UNL     1     126.544 125.559 133.104  1.00  0.00    -0.077 C 
ATOM     13  C   UNL     1     126.650 126.107 131.871  1.00  0.00    -0.028 C 
ATOM     14  C   UNL     1     127.581 125.801 134.176  1.00  0.00     0.039 C 
BRANCH  13  15
ATOM     15  C   UNL     1     127.745 127.055 131.451  1.00  0.00     0.035 C 
BRANCH  15  16
ATOM     16  C   UNL     1     127.156 128.391 130.991  1.00  0.00     0.079 C 
BRANCH  16  17
ATOM     17  C   UNL     1     126.962 129.318 132.162  1.00  0.00     0.130 C 
ATOM     18  O   UNL     1     127.698 129.223 133.132  1.00  0.00    -0.300 OA
ATOM     19  C   UNL     1     125.887 130.365 132.160  1.00  0.00     0.087 C 
ENDBRANCH  16  17
ENDBRANCH  15  16
ENDBRANCH  13  15
ENDBRANCH  11  12
ENDBRANCH   1  11
TORSDOF 9
ENDMDL
