MODEL 1
REMARK VINA RESULT:    -3.964      0.000      0.000
REMARK INTER + INTRA:          -5.692
REMARK INTER:                  -5.354
REMARK INTRA:                  -0.338
REMARK UNBOUND:                -0.338
REMARK SMILES CCCCCCC=CC(=O)[O-]
REMARK SMILES IDX 5 1 6 2 7 3 8 4 9 5 10 6 11 7 4 8 3 9 2 10 1 11
REMARK H PARENT
REMARK Flexibility Score: inf
ROOT
ATOM      1  C   UNL     1      38.059  -6.717  -6.344  1.00  0.00     0.004 C 
ENDROOT
BRANCH   1   2
ATOM      2  C   UNL     1      36.839  -6.042  -6.991  1.00  0.00     0.027 C 
BRANCH   2   3
ATOM      3  C   UNL     1      37.210  -4.797  -7.754  1.00  0.00    -0.025 C 
ATOM      4  C   UNL     1      36.365  -4.012  -8.443  1.00  0.00     0.020 C 
BRANCH   4   5
ATOM      5  C   UNL     1      34.901  -4.177  -8.556  1.00  0.00     0.064 C 
ATOM      6  O   UNL     1      34.097  -3.538  -7.830  1.00  0.00    -0.545 OA
ATOM      7  O   UNL     1      34.397  -5.047  -9.514  1.00  0.00    -0.545 OA
ENDBRANCH   4   5
ENDBRANCH   2   3
ENDBRANCH   1   2
BRANCH   1   8
ATOM      8  C   UNL     1      39.364  -5.971  -6.656  1.00  0.00     0.000 C 
BRANCH   8   9
ATOM      9  C   UNL     1      40.386  -6.155  -5.527  1.00  0.00    -0.000 C 
BRANCH   9  10
ATOM     10  C   UNL     1      40.988  -4.810  -5.107  1.00  0.00    -0.003 C 
ATOM     11  C   UNL     1      41.357  -4.808  -3.626  1.00  0.00     0.004 C 
ENDBRANCH   9  10
ENDBRANCH   8   9
ENDBRANCH   1   8
TORSDOF 6
ENDMDL
MODEL 2
REMARK VINA RESULT:    -3.841     16.619     17.887
REMARK INTER + INTRA:          -5.527
REMARK INTER:                  -4.866
REMARK INTRA:                  -0.661
REMARK UNBOUND:                -0.338
REMARK SMILES CCCCCCC=CC(=O)[O-]
REMARK SMILES IDX 5 1 6 2 7 3 8 4 9 5 10 6 11 7 4 8 3 9 2 10 1 11
REMARK H PARENT
REMARK Flexibility Score: inf
ROOT
ATOM      1  C   UNL     1      36.635   4.808   9.083  1.00  0.00     0.004 C 
ENDROOT
BRANCH   1   2
ATOM      2  C   UNL     1      36.794   4.885   7.556  1.00  0.00     0.027 C 
BRANCH   2   3
ATOM      3  C   UNL     1      37.925   5.789   7.142  1.00  0.00    -0.025 C 
ATOM      4  C   UNL     1      39.166   5.399   6.807  1.00  0.00     0.020 C 
BRANCH   4   5
ATOM      5  C   UNL     1      39.663   4.009   6.729  1.00  0.00     0.064 C 
ATOM      6  O   UNL     1      39.728   3.381   5.641  1.00  0.00    -0.545 OA
ATOM      7  O   UNL     1      40.097   3.386   7.892  1.00  0.00    -0.545 OA
ENDBRANCH   4   5
ENDBRANCH   2   3
ENDBRANCH   1   2
BRANCH   1   8
ATOM      8  C   UNL     1      36.706   3.364   9.599  1.00  0.00     0.000 C 
BRANCH   8   9
ATOM      9  C   UNL     1      36.702   2.364   8.436  1.00  0.00    -0.000 C 
BRANCH   9  10
ATOM     10  C   UNL     1      35.487   1.433   8.516  1.00  0.00    -0.003 C 
ATOM     11  C   UNL     1      34.671   1.697   9.778  1.00  0.00     0.004 C 
ENDBRANCH   9  10
ENDBRANCH   8   9
ENDBRANCH   1   8
TORSDOF 6
ENDMDL
MODEL 3
REMARK VINA RESULT:    -3.825     17.814     19.700
REMARK INTER + INTRA:          -5.505
REMARK INTER:                  -5.170
REMARK INTRA:                  -0.335
REMARK UNBOUND:                -0.338
REMARK SMILES CCCCCCC=CC(=O)[O-]
REMARK SMILES IDX 5 1 6 2 7 3 8 4 9 5 10 6 11 7 4 8 3 9 2 10 1 11
REMARK H PARENT
REMARK Flexibility Score: inf
ROOT
ATOM      1  C   UNL     1      35.546   5.718   9.557  1.00  0.00     0.004 C 
ENDROOT
BRANCH   1   2
ATOM      2  C   UNL     1      36.105   4.366  10.030  1.00  0.00     0.027 C 
BRANCH   2   3
ATOM      3  C   UNL     1      35.045   3.298  10.095  1.00  0.00    -0.025 C 
ATOM      4  C   UNL     1      35.085   2.107   9.475  1.00  0.00     0.020 C 
BRANCH   4   5
ATOM      5  C   UNL     1      36.190   1.581   8.646  1.00  0.00     0.064 C 
ATOM      6  O   UNL     1      36.470   2.065   7.519  1.00  0.00    -0.545 OA
ATOM      7  O   UNL     1      36.958   0.534   9.139  1.00  0.00    -0.545 OA
ENDBRANCH   4   5
ENDBRANCH   2   3
ENDBRANCH   1   2
BRANCH   1   8
ATOM      8  C   UNL     1      34.061   5.884   9.912  1.00  0.00     0.000 C 
BRANCH   8   9
ATOM      9  C   UNL     1      33.611   7.338   9.725  1.00  0.00    -0.000 C 
BRANCH   9  10
ATOM     10  C   UNL     1      32.260   7.406   9.005  1.00  0.00    -0.003 C 
ATOM     11  C   UNL     1      31.376   6.218   9.374  1.00  0.00     0.004 C 
ENDBRANCH   9  10
ENDBRANCH   8   9
ENDBRANCH   1   8
TORSDOF 6
ENDMDL
MODEL 4
REMARK VINA RESULT:    -3.818     15.926     17.794
REMARK INTER + INTRA:          -5.495
REMARK INTER:                  -5.045
REMARK INTRA:                  -0.450
REMARK UNBOUND:                -0.338
REMARK SMILES CCCCCCC=CC(=O)[O-]
REMARK SMILES IDX 5 1 6 2 7 3 8 4 9 5 10 6 11 7 4 8 3 9 2 10 1 11
REMARK H PARENT
REMARK Flexibility Score: inf
ROOT
ATOM      1  C   UNL     1      36.519   4.966   8.655  1.00  0.00     0.004 C 
ENDROOT
BRANCH   1   2
ATOM      2  C   UNL     1      37.584   4.868   7.551  1.00  0.00     0.027 C 
BRANCH   2   3
ATOM      3  C   UNL     1      38.853   4.217   8.034  1.00  0.00    -0.025 C 
ATOM      4  C   UNL     1      39.888   3.837   7.266  1.00  0.00     0.020 C 
BRANCH   4   5
ATOM      5  C   UNL     1      40.017   4.021   5.806  1.00  0.00     0.064 C 
ATOM      6  O   UNL     1      40.222   5.149   5.288  1.00  0.00    -0.545 OA
ATOM      7  O   UNL     1      39.934   2.907   4.980  1.00  0.00    -0.545 OA
ENDBRANCH   4   5
ENDBRANCH   2   3
ENDBRANCH   1   2
BRANCH   1   8
ATOM      8  C   UNL     1      36.547   3.751   9.593  1.00  0.00     0.000 C 
BRANCH   8   9
ATOM      9  C   UNL     1      35.127   3.342  10.006  1.00  0.00    -0.000 C 
BRANCH   9  10
ATOM     10  C   UNL     1      34.881   1.855   9.729  1.00  0.00    -0.003 C 
ATOM     11  C   UNL     1      35.645   1.389   8.493  1.00  0.00     0.004 C 
ENDBRANCH   9  10
ENDBRANCH   8   9
ENDBRANCH   1   8
TORSDOF 6
ENDMDL
MODEL 5
REMARK VINA RESULT:    -3.743      1.286      2.039
REMARK INTER + INTRA:          -5.394
REMARK INTER:                  -5.096
REMARK INTRA:                  -0.298
REMARK UNBOUND:                -0.338
REMARK SMILES CCCCCCC=CC(=O)[O-]
REMARK SMILES IDX 5 1 6 2 7 3 8 4 9 5 10 6 11 7 4 8 3 9 2 10 1 11
REMARK H PARENT
REMARK Flexibility Score: inf
ROOT
ATOM      1  C   UNL     1      37.097  -5.023  -7.504  1.00  0.00     0.004 C 
ENDROOT
BRANCH   1   2
ATOM      2  C   UNL     1      36.498  -5.122  -8.917  1.00  0.00     0.027 C 
BRANCH   2   3
ATOM      3  C   UNL     1      36.453  -3.788  -9.615  1.00  0.00    -0.025 C 
ATOM      4  C   UNL     1      35.397  -2.959  -9.667  1.00  0.00     0.020 C 
BRANCH   4   5
ATOM      5  C   UNL     1      34.086  -3.159  -9.016  1.00  0.00     0.064 C 
ATOM      6  O   UNL     1      33.976  -3.366  -7.781  1.00  0.00    -0.545 OA
ATOM      7  O   UNL     1      32.935  -3.090  -9.792  1.00  0.00    -0.545 OA
ENDBRANCH   4   5
ENDBRANCH   2   3
ENDBRANCH   1   2
BRANCH   1   8
ATOM      8  C   UNL     1      37.261  -6.403  -6.850  1.00  0.00     0.000 C 
BRANCH   8   9
ATOM      9  C   UNL     1      38.684  -6.588  -6.308  1.00  0.00    -0.000 C 
BRANCH   9  10
ATOM     10  C   UNL     1      39.635  -5.535  -6.887  1.00  0.00    -0.003 C 
ATOM     11  C   UNL     1      40.590  -5.006  -5.821  1.00  0.00     0.004 C 
ENDBRANCH   9  10
ENDBRANCH   8   9
ENDBRANCH   1   8
TORSDOF 6
ENDMDL
MODEL 6
REMARK VINA RESULT:    -3.623      2.318      3.188
REMARK INTER + INTRA:          -5.232
REMARK INTER:                  -4.956
REMARK INTRA:                  -0.276
REMARK UNBOUND:                -0.338
REMARK SMILES CCCCCCC=CC(=O)[O-]
REMARK SMILES IDX 5 1 6 2 7 3 8 4 9 5 10 6 11 7 4 8 3 9 2 10 1 11
REMARK H PARENT
REMARK Flexibility Score: inf
ROOT
ATOM      1  C   UNL     1      37.576  -5.616  -7.321  1.00  0.00     0.004 C 
ENDROOT
BRANCH   1   2
ATOM      2  C   UNL     1      36.043  -5.643  -7.442  1.00  0.00     0.027 C 
BRANCH   2   3
ATOM      3  C   UNL     1      35.581  -5.650  -8.875  1.00  0.00    -0.025 C 
ATOM      4  C   UNL     1      34.935  -4.653  -9.501  1.00  0.00     0.020 C 
BRANCH   4   5
ATOM      5  C   UNL     1      34.588  -3.333  -8.934  1.00  0.00     0.064 C 
ATOM      6  O   UNL     1      35.464  -2.533  -8.517  1.00  0.00    -0.545 OA
ATOM      7  O   UNL     1      33.253  -2.955  -8.885  1.00  0.00    -0.545 OA
ENDBRANCH   4   5
ENDBRANCH   2   3
ENDBRANCH   1   2
BRANCH   1   8
ATOM      8  C   UNL     1      38.104  -6.746  -6.426  1.00  0.00     0.000 C 
BRANCH   8   9
ATOM      9  C   UNL     1      36.977  -7.708  -6.032  1.00  0.00    -0.000 C 
BRANCH   9  10
ATOM     10  C   UNL     1      37.539  -8.980  -5.388  1.00  0.00    -0.003 C 
ATOM     11  C   UNL     1      36.662  -9.446  -4.230  1.00  0.00     0.004 C 
ENDBRANCH   9  10
ENDBRANCH   8   9
ENDBRANCH   1   8
TORSDOF 6
ENDMDL
MODEL 7
REMARK VINA RESULT:    -3.609     20.911     21.660
REMARK INTER + INTRA:          -5.214
REMARK INTER:                  -4.884
REMARK INTRA:                  -0.329
REMARK UNBOUND:                -0.338
REMARK SMILES CCCCCCC=CC(=O)[O-]
REMARK SMILES IDX 5 1 6 2 7 3 8 4 9 5 10 6 11 7 4 8 3 9 2 10 1 11
REMARK H PARENT
REMARK Flexibility Score: inf
ROOT
ATOM      1  C   UNL     1      24.103   0.715   9.759  1.00  0.00     0.004 C 
ENDROOT
BRANCH   1   2
ATOM      2  C   UNL     1      25.009   1.957   9.798  1.00  0.00     0.027 C 
BRANCH   2   3
ATOM      3  C   UNL     1      24.425   3.116   9.033  1.00  0.00    -0.025 C 
ATOM      4  C   UNL     1      25.036   4.287   8.787  1.00  0.00     0.020 C 
BRANCH   4   5
ATOM      5  C   UNL     1      26.414   4.661   9.170  1.00  0.00     0.064 C 
ATOM      6  O   UNL     1      27.423   4.128   8.642  1.00  0.00    -0.545 OA
ATOM      7  O   UNL     1      26.598   5.653  10.125  1.00  0.00    -0.545 OA
ENDBRANCH   4   5
ENDBRANCH   2   3
ENDBRANCH   1   2
BRANCH   1   8
ATOM      8  C   UNL     1      24.908  -0.589   9.846  1.00  0.00     0.000 C 
BRANCH   8   9
ATOM      9  C   UNL     1      26.402  -0.330   9.612  1.00  0.00    -0.000 C 
BRANCH   9  10
ATOM     10  C   UNL     1      27.146  -1.636   9.315  1.00  0.00    -0.003 C 
ATOM     11  C   UNL     1      26.221  -2.666   8.673  1.00  0.00     0.004 C 
ENDBRANCH   9  10
ENDBRANCH   8   9
ENDBRANCH   1   8
TORSDOF 6
ENDMDL
MODEL 8
REMARK VINA RESULT:    -3.589      3.142      5.465
REMARK INTER + INTRA:          -5.186
REMARK INTER:                  -4.777
REMARK INTRA:                  -0.408
REMARK UNBOUND:                -0.338
REMARK SMILES CCCCCCC=CC(=O)[O-]
REMARK SMILES IDX 5 1 6 2 7 3 8 4 9 5 10 6 11 7 4 8 3 9 2 10 1 11
REMARK H PARENT
REMARK Flexibility Score: inf
ROOT
ATOM      1  C   UNL     1      36.895  -4.788  -7.725  1.00  0.00     0.004 C 
ENDROOT
BRANCH   1   2
ATOM      2  C   UNL     1      37.807  -6.019  -7.603  1.00  0.00     0.027 C 
BRANCH   2   3
ATOM      3  C   UNL     1      37.593  -6.766  -6.312  1.00  0.00    -0.025 C 
ATOM      4  C   UNL     1      37.029  -7.978  -6.186  1.00  0.00     0.020 C 
BRANCH   4   5
ATOM      5  C   UNL     1      36.550  -8.847  -7.282  1.00  0.00     0.064 C 
ATOM      6  O   UNL     1      37.339  -9.479  -8.029  1.00  0.00    -0.545 OA
ATOM      7  O   UNL     1      35.182  -8.989  -7.475  1.00  0.00    -0.545 OA
ENDBRANCH   4   5
ENDBRANCH   2   3
ENDBRANCH   1   2
BRANCH   1   8
ATOM      8  C   UNL     1      35.416  -5.177  -7.858  1.00  0.00     0.000 C 
BRANCH   8   9
ATOM      9  C   UNL     1      34.618  -4.072  -8.562  1.00  0.00    -0.000 C 
BRANCH   9  10
ATOM     10  C   UNL     1      35.510  -2.868  -8.882  1.00  0.00    -0.003 C 
ATOM     11  C   UNL     1      34.695  -1.717  -9.464  1.00  0.00     0.004 C 
ENDBRANCH   9  10
ENDBRANCH   8   9
ENDBRANCH   1   8
TORSDOF 6
ENDMDL
MODEL 9
REMARK VINA RESULT:    -3.569     16.242     18.011
REMARK INTER + INTRA:          -5.160
REMARK INTER:                  -4.684
REMARK INTRA:                  -0.476
REMARK UNBOUND:                -0.338
REMARK SMILES CCCCCCC=CC(=O)[O-]
REMARK SMILES IDX 5 1 6 2 7 3 8 4 9 5 10 6 11 7 4 8 3 9 2 10 1 11
REMARK H PARENT
REMARK Flexibility Score: inf
ROOT
ATOM      1  C   UNL     1      36.448   5.546   8.952  1.00  0.00     0.004 C 
ENDROOT
BRANCH   1   2
ATOM      2  C   UNL     1      36.697   4.319   9.846  1.00  0.00     0.027 C 
BRANCH   2   3
ATOM      3  C   UNL     1      35.434   3.547  10.124  1.00  0.00    -0.025 C 
ATOM      4  C   UNL     1      35.116   2.344   9.618  1.00  0.00     0.020 C 
BRANCH   4   5
ATOM      5  C   UNL     1      35.952   1.512   8.728  1.00  0.00     0.064 C 
ATOM      6  O   UNL     1      36.172   1.826   7.530  1.00  0.00    -0.545 OA
ATOM      7  O   UNL     1      36.535   0.360   9.239  1.00  0.00    -0.545 OA
ENDBRANCH   4   5
ENDBRANCH   2   3
ENDBRANCH   1   2
BRANCH   1   8
ATOM      8  C   UNL     1      36.945   5.324   7.517  1.00  0.00     0.000 C 
BRANCH   8   9
ATOM      9  C   UNL     1      38.295   4.596   7.509  1.00  0.00    -0.000 C 
BRANCH   9  10
ATOM     10  C   UNL     1      39.328   5.364   6.677  1.00  0.00    -0.003 C 
ATOM     11  C   UNL     1      40.032   4.444   5.684  1.00  0.00     0.004 C 
ENDBRANCH   9  10
ENDBRANCH   8   9
ENDBRANCH   1   8
TORSDOF 6
ENDMDL
