MODEL 1
REMARK VINA RESULT:    -7.125      0.000      0.000
REMARK INTER + INTRA:          -8.905
REMARK INTER:                  -8.582
REMARK INTRA:                  -0.323
REMARK UNBOUND:                -0.323
REMARK SMILES O=c1c(O)c(-c2ccc(O)c(O)c2)oc2cc(O)cc(O)c12
REMARK SMILES IDX 5 1 3 2 2 3 1 4 22 5 20 6 19 7 17 8 16 9 15 10 14 11 6 12
REMARK SMILES IDX 7 13 8 14 9 15 13 16 11 17 10 18 12 20 4 22 21 24 18 26
REMARK H PARENT 10 19 12 21 4 23 21 25 18 27
REMARK Flexibility Score: inf
ROOT
ATOM      1  C   UNL     1      -6.716  -5.231   4.325  1.00  0.00     0.180 A 
ATOM      2  C   UNL     1      -5.310  -5.225   4.309  1.00  0.00     0.208 A 
ATOM      3  C   UNL     1      -4.614  -5.323   5.524  1.00  0.00     0.238 A 
ATOM      4  O   UNL     1      -3.357  -5.263   5.506  1.00  0.00    -0.285 OA
ATOM      5  C   UNL     1      -5.331  -5.444   6.739  1.00  0.00     0.111 A 
ATOM      6  C   UNL     1      -4.728  -5.591   8.024  1.00  0.00     0.134 A 
ATOM      7  C   UNL     1      -5.533  -5.570   9.171  1.00  0.00     0.093 A 
ATOM      8  C   UNL     1      -6.923  -5.473   9.073  1.00  0.00     0.123 A 
ATOM      9  C   UNL     1      -7.525  -5.388   7.820  1.00  0.00     0.094 A 
ATOM     10  C   UNL     1      -6.746  -5.370   6.660  1.00  0.00     0.146 A 
ATOM     11  O   UNL     1      -7.359  -5.278   5.486  1.00  0.00    -0.452 OA
ENDROOT
BRANCH   1  12
ATOM     12  C   UNL     1      -7.519  -5.154   3.083  1.00  0.00     0.025 A 
ATOM     13  C   UNL     1      -7.891  -3.918   2.531  1.00  0.00     0.016 A 
ATOM     14  C   UNL     1      -8.629  -3.870   1.345  1.00  0.00     0.051 A 
ATOM     15  C   UNL     1      -8.997  -5.046   0.684  1.00  0.00     0.157 A 
ATOM     16  C   UNL     1      -7.867  -6.334   2.410  1.00  0.00     0.062 A 
ATOM     17  C   UNL     1      -8.606  -6.296   1.221  1.00  0.00     0.158 A 
BRANCH  15  18
ATOM     18  O   UNL     1      -9.737  -4.929  -0.494  1.00  0.00    -0.504 OA
ATOM     19  H   UNL     1     -10.541  -4.327  -0.598  1.00  0.00     0.293 HD
ENDBRANCH  15  18
BRANCH  17  20
ATOM     20  O   UNL     1      -8.928  -7.511   0.614  1.00  0.00    -0.504 OA
ATOM     21  H   UNL     1      -9.698  -7.635  -0.028  1.00  0.00     0.293 HD
ENDBRANCH  17  20
ENDBRANCH   1  12
BRANCH   2  22
ATOM     22  O   UNL     1      -4.622  -5.083   3.100  1.00  0.00    -0.502 OA
ATOM     23  H   UNL     1      -4.749  -5.721   2.324  1.00  0.00     0.293 HD
ENDBRANCH   2  22
BRANCH   6  24
ATOM     24  O   UNL     1      -3.359  -5.787   8.226  1.00  0.00    -0.507 OA
ATOM     25  H   UNL     1      -2.795  -6.458   7.727  1.00  0.00     0.293 HD
ENDBRANCH   6  24
BRANCH   8  26
ATOM     26  O   UNL     1      -7.717  -5.469  10.218  1.00  0.00    -0.508 OA
ATOM     27  H   UNL     1      -7.327  -5.661  11.134  1.00  0.00     0.293 HD
ENDBRANCH   8  26
TORSDOF 6
ENDMDL
MODEL 2
REMARK VINA RESULT:    -6.772     12.634     14.176
REMARK INTER + INTRA:          -8.480
REMARK INTER:                  -8.311
REMARK INTRA:                  -0.169
REMARK UNBOUND:                -0.323
REMARK SMILES O=c1c(O)c(-c2ccc(O)c(O)c2)oc2cc(O)cc(O)c12
REMARK SMILES IDX 5 1 3 2 2 3 1 4 22 5 20 6 19 7 17 8 16 9 15 10 14 11 6 12
REMARK SMILES IDX 7 13 8 14 9 15 13 16 11 17 10 18 12 20 4 22 21 24 18 26
REMARK H PARENT 10 19 12 21 4 23 21 25 18 27
REMARK Flexibility Score: inf
ROOT
ATOM      1  C   UNL     1      -6.564   5.526  -3.629  1.00  0.00     0.180 A 
ATOM      2  C   UNL     1      -5.649   6.379  -4.271  1.00  0.00     0.208 A 
ATOM      3  C   UNL     1      -5.269   7.572  -3.637  1.00  0.00     0.238 A 
ATOM      4  O   UNL     1      -4.491   8.356  -4.241  1.00  0.00    -0.285 OA
ATOM      5  C   UNL     1      -5.793   7.890  -2.361  1.00  0.00     0.111 A 
ATOM      6  C   UNL     1      -5.445   9.051  -1.608  1.00  0.00     0.134 A 
ATOM      7  C   UNL     1      -6.125   9.330  -0.415  1.00  0.00     0.093 A 
ATOM      8  C   UNL     1      -7.093   8.455   0.084  1.00  0.00     0.123 A 
ATOM      9  C   UNL     1      -7.397   7.288  -0.614  1.00  0.00     0.094 A 
ATOM     10  C   UNL     1      -6.762   7.002  -1.824  1.00  0.00     0.146 A 
ATOM     11  O   UNL     1      -7.089   5.884  -2.463  1.00  0.00    -0.452 OA
ENDROOT
BRANCH   1  12
ATOM     12  C   UNL     1      -6.995   4.241  -4.225  1.00  0.00     0.025 A 
ATOM     13  C   UNL     1      -8.317   4.043  -4.655  1.00  0.00     0.016 A 
ATOM     14  C   UNL     1      -8.695   2.830  -5.236  1.00  0.00     0.051 A 
ATOM     15  C   UNL     1      -7.765   1.800  -5.410  1.00  0.00     0.157 A 
ATOM     16  C   UNL     1      -6.055   3.218  -4.419  1.00  0.00     0.062 A 
ATOM     17  C   UNL     1      -6.425   1.999  -5.000  1.00  0.00     0.158 A 
BRANCH  15  18
ATOM     18  O   UNL     1      -8.208   0.612  -5.994  1.00  0.00    -0.504 OA
ATOM     19  H   UNL     1      -8.926   0.564  -6.702  1.00  0.00     0.293 HD
ENDBRANCH  15  18
BRANCH  17  20
ATOM     20  O   UNL     1      -5.438   1.022  -5.150  1.00  0.00    -0.504 OA
ATOM     21  H   UNL     1      -4.452   1.224  -5.232  1.00  0.00     0.293 HD
ENDBRANCH  17  20
ENDBRANCH   1  12
BRANCH   2  22
ATOM     22  O   UNL     1      -5.161   6.057  -5.541  1.00  0.00    -0.502 OA
ATOM     23  H   UNL     1      -5.745   6.065  -6.367  1.00  0.00     0.293 HD
ENDBRANCH   2  22
BRANCH   6  24
ATOM     24  O   UNL     1      -4.430   9.941  -1.970  1.00  0.00    -0.507 OA
ATOM     25  H   UNL     1      -3.745  10.320  -1.334  1.00  0.00     0.293 HD
ENDBRANCH   6  24
BRANCH   8  26
ATOM     26  O   UNL     1      -7.752   8.732   1.280  1.00  0.00    -0.508 OA
ATOM     27  H   UNL     1      -7.772   9.667   1.670  1.00  0.00     0.293 HD
ENDBRANCH   8  26
TORSDOF 6
ENDMDL
MODEL 3
REMARK VINA RESULT:    -6.630     12.623     15.073
REMARK INTER + INTRA:          -8.309
REMARK INTER:                  -7.988
REMARK INTRA:                  -0.321
REMARK UNBOUND:                -0.323
REMARK SMILES O=c1c(O)c(-c2ccc(O)c(O)c2)oc2cc(O)cc(O)c12
REMARK SMILES IDX 5 1 3 2 2 3 1 4 22 5 20 6 19 7 17 8 16 9 15 10 14 11 6 12
REMARK SMILES IDX 7 13 8 14 9 15 13 16 11 17 10 18 12 20 4 22 21 24 18 26
REMARK H PARENT 10 19 12 21 4 23 21 25 18 27
REMARK Flexibility Score: inf
ROOT
ATOM      1  C   UNL     1      -6.873   6.142  -3.070  1.00  0.00     0.180 A 
ATOM      2  C   UNL     1      -8.209   6.146  -3.507  1.00  0.00     0.208 A 
ATOM      3  C   UNL     1      -8.702   5.030  -4.201  1.00  0.00     0.238 A 
ATOM      4  O   UNL     1      -9.883   5.062  -4.637  1.00  0.00    -0.285 OA
ATOM      5  C   UNL     1      -7.859   3.916  -4.434  1.00  0.00     0.111 A 
ATOM      6  C   UNL     1      -8.266   2.715  -5.089  1.00  0.00     0.134 A 
ATOM      7  C   UNL     1      -7.313   1.730  -5.381  1.00  0.00     0.093 A 
ATOM      8  C   UNL     1      -5.982   1.876  -4.981  1.00  0.00     0.123 A 
ATOM      9  C   UNL     1      -5.588   3.019  -4.288  1.00  0.00     0.094 A 
ATOM     10  C   UNL     1      -6.508   4.033  -4.015  1.00  0.00     0.146 A 
ATOM     11  O   UNL     1      -6.089   5.110  -3.361  1.00  0.00    -0.452 OA
ENDROOT
BRANCH   1  12
ATOM     12  C   UNL     1      -6.288   7.272  -2.312  1.00  0.00     0.025 A 
ATOM     13  C   UNL     1      -5.629   8.325  -2.967  1.00  0.00     0.016 A 
ATOM     14  C   UNL     1      -5.106   9.393  -2.233  1.00  0.00     0.051 A 
ATOM     15  C   UNL     1      -5.241   9.438  -0.842  1.00  0.00     0.157 A 
ATOM     16  C   UNL     1      -6.445   7.327  -0.920  1.00  0.00     0.062 A 
ATOM     17  C   UNL     1      -5.925   8.393  -0.176  1.00  0.00     0.158 A 
BRANCH  15  18
ATOM     18  O   UNL     1      -4.693  10.532  -0.168  1.00  0.00    -0.504 OA
ATOM     19  H   UNL     1      -3.739  10.572   0.160  1.00  0.00     0.293 HD
ENDBRANCH  15  18
BRANCH  17  20
ATOM     20  O   UNL     1      -6.108   8.374   1.209  1.00  0.00    -0.504 OA
ATOM     21  H   UNL     1      -5.669   9.024   1.845  1.00  0.00     0.293 HD
ENDBRANCH  17  20
ENDBRANCH   1  12
BRANCH   2  22
ATOM     22  O   UNL     1      -9.017   7.264  -3.286  1.00  0.00    -0.502 OA
ATOM     23  H   UNL     1      -9.732   7.558  -3.941  1.00  0.00     0.293 HD
ENDBRANCH   2  22
BRANCH   6  24
ATOM     24  O   UNL     1      -9.587   2.430  -5.448  1.00  0.00    -0.507 OA
ATOM     25  H   UNL     1      -9.860   1.740  -6.131  1.00  0.00     0.293 HD
ENDBRANCH   6  24
BRANCH   8  26
ATOM     26  O   UNL     1      -5.044   0.885  -5.261  1.00  0.00    -0.508 OA
ATOM     27  H   UNL     1      -5.241  -0.095  -5.093  1.00  0.00     0.293 HD
ENDBRANCH   8  26
TORSDOF 6
ENDMDL
MODEL 4
REMARK VINA RESULT:    -6.562     13.119     13.750
REMARK INTER + INTRA:          -8.227
REMARK INTER:                  -7.994
REMARK INTRA:                  -0.233
REMARK UNBOUND:                -0.323
REMARK SMILES O=c1c(O)c(-c2ccc(O)c(O)c2)oc2cc(O)cc(O)c12
REMARK SMILES IDX 5 1 3 2 2 3 1 4 22 5 20 6 19 7 17 8 16 9 15 10 14 11 6 12
REMARK SMILES IDX 7 13 8 14 9 15 13 16 11 17 10 18 12 20 4 22 21 24 18 26
REMARK H PARENT 10 19 12 21 4 23 21 25 18 27
REMARK Flexibility Score: inf
ROOT
ATOM      1  C   UNL     1      -4.763   8.411   4.058  1.00  0.00     0.180 A 
ATOM      2  C   UNL     1      -3.539   8.787   4.637  1.00  0.00     0.208 A 
ATOM      3  C   UNL     1      -3.269   8.414   5.963  1.00  0.00     0.238 A 
ATOM      4  O   UNL     1      -2.194   8.800   6.492  1.00  0.00    -0.285 OA
ATOM      5  C   UNL     1      -4.218   7.653   6.688  1.00  0.00     0.111 A 
ATOM      6  C   UNL     1      -4.031   7.185   8.023  1.00  0.00     0.134 A 
ATOM      7  C   UNL     1      -5.091   6.553   8.688  1.00  0.00     0.093 A 
ATOM      8  C   UNL     1      -6.307   6.317   8.042  1.00  0.00     0.123 A 
ATOM      9  C   UNL     1      -6.478   6.718   6.719  1.00  0.00     0.094 A 
ATOM     10  C   UNL     1      -5.452   7.381   6.042  1.00  0.00     0.146 A 
ATOM     11  O   UNL     1      -5.660   7.756   4.785  1.00  0.00    -0.452 OA
ENDROOT
BRANCH   1  12
ATOM     12  C   UNL     1      -5.110   8.748   2.658  1.00  0.00     0.025 A 
ATOM     13  C   UNL     1      -6.054   9.744   2.360  1.00  0.00     0.016 A 
ATOM     14  C   UNL     1      -6.348  10.062   1.032  1.00  0.00     0.051 A 
ATOM     15  C   UNL     1      -5.699   9.406  -0.020  1.00  0.00     0.157 A 
ATOM     16  C   UNL     1      -4.442   8.106   1.605  1.00  0.00     0.062 A 
ATOM     17  C   UNL     1      -4.729   8.418   0.271  1.00  0.00     0.158 A 
BRANCH  15  18
ATOM     18  O   UNL     1      -6.041   9.768  -1.325  1.00  0.00    -0.504 OA
ATOM     19  H   UNL     1      -6.428   9.130  -2.005  1.00  0.00     0.293 HD
ENDBRANCH  15  18
BRANCH  17  20
ATOM     20  O   UNL     1      -4.034   7.728  -0.725  1.00  0.00    -0.504 OA
ATOM     21  H   UNL     1      -3.894   8.078  -1.662  1.00  0.00     0.293 HD
ENDBRANCH  17  20
ENDBRANCH   1  12
BRANCH   2  22
ATOM     22  O   UNL     1      -2.625   9.556   3.911  1.00  0.00    -0.502 OA
ATOM     23  H   UNL     1      -2.890  10.406   3.428  1.00  0.00     0.293 HD
ENDBRANCH   2  22
BRANCH   6  24
ATOM     24  O   UNL     1      -2.827   7.288   8.726  1.00  0.00    -0.507 OA
ATOM     25  H   UNL     1      -2.342   8.154   8.910  1.00  0.00     0.293 HD
ENDBRANCH   6  24
BRANCH   8  26
ATOM     26  O   UNL     1      -7.350   5.674   8.706  1.00  0.00    -0.508 OA
ATOM     27  H   UNL     1      -7.784   6.077   9.527  1.00  0.00     0.293 HD
ENDBRANCH   8  26
TORSDOF 6
ENDMDL
MODEL 5
REMARK VINA RESULT:    -6.554      1.434      3.108
REMARK INTER + INTRA:          -8.218
REMARK INTER:                  -7.988
REMARK INTRA:                  -0.230
REMARK UNBOUND:                -0.323
REMARK SMILES O=c1c(O)c(-c2ccc(O)c(O)c2)oc2cc(O)cc(O)c12
REMARK SMILES IDX 5 1 3 2 2 3 1 4 22 5 20 6 19 7 17 8 16 9 15 10 14 11 6 12
REMARK SMILES IDX 7 13 8 14 9 15 13 16 11 17 10 18 12 20 4 22 21 24 18 26
REMARK H PARENT 10 19 12 21 4 23 21 25 18 27
REMARK Flexibility Score: inf
ROOT
ATOM      1  C   UNL     1      -7.739  -5.479   3.352  1.00  0.00     0.180 A 
ATOM      2  C   UNL     1      -8.673  -5.553   4.399  1.00  0.00     0.208 A 
ATOM      3  C   UNL     1      -8.215  -5.510   5.725  1.00  0.00     0.238 A 
ATOM      4  O   UNL     1      -9.052  -5.631   6.658  1.00  0.00    -0.285 OA
ATOM      5  C   UNL     1      -6.830  -5.378   5.989  1.00  0.00     0.111 A 
ATOM      6  C   UNL     1      -6.259  -5.284   7.293  1.00  0.00     0.134 A 
ATOM      7  C   UNL     1      -4.865  -5.287   7.439  1.00  0.00     0.093 A 
ATOM      8  C   UNL     1      -4.025  -5.315   6.323  1.00  0.00     0.123 A 
ATOM      9  C   UNL     1      -4.574  -5.348   5.043  1.00  0.00     0.094 A 
ATOM     10  C   UNL     1      -5.960  -5.381   4.868  1.00  0.00     0.146 A 
ATOM     11  O   UNL     1      -6.442  -5.422   3.632  1.00  0.00    -0.452 OA
ENDROOT
BRANCH   1  12
ATOM     12  C   UNL     1      -8.147  -5.494   1.928  1.00  0.00     0.025 A 
ATOM     13  C   UNL     1      -8.039  -4.347   1.126  1.00  0.00     0.016 A 
ATOM     14  C   UNL     1      -8.407  -4.391  -0.220  1.00  0.00     0.051 A 
ATOM     15  C   UNL     1      -8.875  -5.578  -0.795  1.00  0.00     0.157 A 
ATOM     16  C   UNL     1      -8.594  -6.691   1.349  1.00  0.00     0.062 A 
ATOM     17  C   UNL     1      -8.965  -6.745   0.000  1.00  0.00     0.158 A 
BRANCH  15  18
ATOM     18  O   UNL     1      -9.230  -5.554  -2.145  1.00  0.00    -0.504 OA
ATOM     19  H   UNL     1      -9.236  -4.719  -2.712  1.00  0.00     0.293 HD
ENDBRANCH  15  18
BRANCH  17  20
ATOM     20  O   UNL     1      -9.414  -7.968  -0.504  1.00  0.00    -0.504 OA
ATOM     21  H   UNL     1      -9.075  -8.866  -0.190  1.00  0.00     0.293 HD
ENDBRANCH  17  20
ENDBRANCH   1  12
BRANCH   2  22
ATOM     22  O   UNL     1     -10.034  -5.705   4.118  1.00  0.00    -0.502 OA
ATOM     23  H   UNL     1     -10.758  -5.286   4.688  1.00  0.00     0.293 HD
ENDBRANCH   2  22
BRANCH   6  24
ATOM     24  O   UNL     1      -7.008  -5.157   8.467  1.00  0.00    -0.507 OA
ATOM     25  H   UNL     1      -7.244  -4.280   8.906  1.00  0.00     0.293 HD
ENDBRANCH   6  24
BRANCH   8  26
ATOM     26  O   UNL     1      -2.640  -5.302   6.477  1.00  0.00    -0.508 OA
ATOM     27  H   UNL     1      -2.174  -5.919   7.132  1.00  0.00     0.293 HD
ENDBRANCH   8  26
TORSDOF 6
ENDMDL
MODEL 6
REMARK VINA RESULT:    -6.520     12.422     14.737
REMARK INTER + INTRA:          -8.177
REMARK INTER:                  -7.843
REMARK INTRA:                  -0.333
REMARK UNBOUND:                -0.323
REMARK SMILES O=c1c(O)c(-c2ccc(O)c(O)c2)oc2cc(O)cc(O)c12
REMARK SMILES IDX 5 1 3 2 2 3 1 4 22 5 20 6 19 7 17 8 16 9 15 10 14 11 6 12
REMARK SMILES IDX 7 13 8 14 9 15 13 16 11 17 10 18 12 20 4 22 21 24 18 26
REMARK H PARENT 10 19 12 21 4 23 21 25 18 27
REMARK Flexibility Score: inf
ROOT
ATOM      1  C   UNL     1      -7.133   6.049  -3.082  1.00  0.00     0.180 A 
ATOM      2  C   UNL     1      -5.998   5.863  -3.889  1.00  0.00     0.208 A 
ATOM      3  C   UNL     1      -5.914   4.717  -4.694  1.00  0.00     0.238 A 
ATOM      4  O   UNL     1      -4.870   4.530  -5.374  1.00  0.00    -0.285 OA
ATOM      5  C   UNL     1      -6.974   3.778  -4.696  1.00  0.00     0.111 A 
ATOM      6  C   UNL     1      -7.013   2.602  -5.504  1.00  0.00     0.134 A 
ATOM      7  C   UNL     1      -8.051   1.677  -5.328  1.00  0.00     0.093 A 
ATOM      8  C   UNL     1      -9.084   1.920  -4.419  1.00  0.00     0.123 A 
ATOM      9  C   UNL     1      -9.086   3.093  -3.669  1.00  0.00     0.094 A 
ATOM     10  C   UNL     1      -8.045   4.016  -3.797  1.00  0.00     0.146 A 
ATOM     11  O   UNL     1      -8.080   5.117  -3.055  1.00  0.00    -0.452 OA
ENDROOT
BRANCH   1  12
ATOM     12  C   UNL     1      -7.304   7.243  -2.223  1.00  0.00     0.025 A 
ATOM     13  C   UNL     1      -7.887   8.420  -2.719  1.00  0.00     0.016 A 
ATOM     14  C   UNL     1      -8.060   9.527  -1.884  1.00  0.00     0.051 A 
ATOM     15  C   UNL     1      -7.670   9.477  -0.542  1.00  0.00     0.157 A 
ATOM     16  C   UNL     1      -6.933   7.183  -0.872  1.00  0.00     0.062 A 
ATOM     17  C   UNL     1      -7.103   8.287  -0.027  1.00  0.00     0.158 A 
BRANCH  15  18
ATOM     18  O   UNL     1      -7.868  10.619   0.238  1.00  0.00    -0.504 OA
ATOM     19  H   UNL     1      -8.348  11.446  -0.084  1.00  0.00     0.293 HD
ENDBRANCH  15  18
BRANCH  17  20
ATOM     20  O   UNL     1      -6.698   8.159   1.303  1.00  0.00    -0.504 OA
ATOM     21  H   UNL     1      -7.168   7.577   1.982  1.00  0.00     0.293 HD
ENDBRANCH  17  20
ENDBRANCH   1  12
BRANCH   2  22
ATOM     22  O   UNL     1      -4.953   6.791  -3.856  1.00  0.00    -0.502 OA
ATOM     23  H   UNL     1      -4.003   6.551  -4.112  1.00  0.00     0.293 HD
ENDBRANCH   2  22
BRANCH   6  24
ATOM     24  O   UNL     1      -6.081   2.310  -6.504  1.00  0.00    -0.507 OA
ATOM     25  H   UNL     1      -6.186   2.557  -7.477  1.00  0.00     0.293 HD
ENDBRANCH   6  24
BRANCH   8  26
ATOM     26  O   UNL     1     -10.121   1.002  -4.262  1.00  0.00    -0.508 OA
ATOM     27  H   UNL     1     -10.551   0.837  -3.359  1.00  0.00     0.293 HD
ENDBRANCH   8  26
TORSDOF 6
ENDMDL
MODEL 7
REMARK VINA RESULT:    -6.510      1.575      7.186
REMARK INTER + INTRA:          -8.165
REMARK INTER:                  -8.117
REMARK INTRA:                  -0.047
REMARK UNBOUND:                -0.323
REMARK SMILES O=c1c(O)c(-c2ccc(O)c(O)c2)oc2cc(O)cc(O)c12
REMARK SMILES IDX 5 1 3 2 2 3 1 4 22 5 20 6 19 7 17 8 16 9 15 10 14 11 6 12
REMARK SMILES IDX 7 13 8 14 9 15 13 16 11 17 10 18 12 20 4 22 21 24 18 26
REMARK H PARENT 10 19 12 21 4 23 21 25 18 27
REMARK Flexibility Score: inf
ROOT
ATOM      1  C   UNL     1      -7.170  -6.346   4.647  1.00  0.00     0.180 A 
ATOM      2  C   UNL     1      -7.881  -7.550   4.503  1.00  0.00     0.208 A 
ATOM      3  C   UNL     1      -8.479  -7.844   3.267  1.00  0.00     0.238 A 
ATOM      4  O   UNL     1      -9.160  -8.898   3.161  1.00  0.00    -0.285 OA
ATOM      5  C   UNL     1      -8.345  -6.940   2.186  1.00  0.00     0.111 A 
ATOM      6  C   UNL     1      -8.875  -7.156   0.878  1.00  0.00     0.134 A 
ATOM      7  C   UNL     1      -8.793  -6.135  -0.077  1.00  0.00     0.093 A 
ATOM      8  C   UNL     1      -8.143  -4.932   0.209  1.00  0.00     0.123 A 
ATOM      9  C   UNL     1      -7.572  -4.735   1.463  1.00  0.00     0.094 A 
ATOM     10  C   UNL     1      -7.668  -5.721   2.448  1.00  0.00     0.146 A 
ATOM     11  O   UNL     1      -7.118  -5.489   3.634  1.00  0.00    -0.452 OA
ENDROOT
BRANCH   1  12
ATOM     12  C   UNL     1      -6.493  -5.977   5.911  1.00  0.00     0.025 A 
ATOM     13  C   UNL     1      -7.193  -5.929   7.127  1.00  0.00     0.016 A 
ATOM     14  C   UNL     1      -6.528  -5.602   8.311  1.00  0.00     0.051 A 
ATOM     15  C   UNL     1      -5.156  -5.330   8.308  1.00  0.00     0.157 A 
ATOM     16  C   UNL     1      -5.112  -5.727   5.909  1.00  0.00     0.062 A 
ATOM     17  C   UNL     1      -4.437  -5.398   7.091  1.00  0.00     0.158 A 
BRANCH  15  18
ATOM     18  O   UNL     1      -4.552  -5.006   9.525  1.00  0.00    -0.504 OA
ATOM     19  H   UNL     1      -3.977  -4.188   9.669  1.00  0.00     0.293 HD
ENDBRANCH  15  18
BRANCH  17  20
ATOM     20  O   UNL     1      -3.065  -5.150   7.010  1.00  0.00    -0.504 OA
ATOM     21  H   UNL     1      -2.585  -4.902   6.157  1.00  0.00     0.293 HD
ENDBRANCH  17  20
ENDBRANCH   1  12
BRANCH   2  22
ATOM     22  O   UNL     1      -8.020  -8.418   5.589  1.00  0.00    -0.502 OA
ATOM     23  H   UNL     1      -8.585  -9.258   5.546  1.00  0.00     0.293 HD
ENDBRANCH   2  22
BRANCH   6  24
ATOM     24  O   UNL     1      -9.461  -8.355   0.462  1.00  0.00    -0.507 OA
ATOM     25  H   UNL     1      -9.824  -8.525  -0.464  1.00  0.00     0.293 HD
ENDBRANCH   6  24
BRANCH   8  26
ATOM     26  O   UNL     1      -8.054  -3.928  -0.753  1.00  0.00    -0.508 OA
ATOM     27  H   UNL     1      -8.505  -3.029  -0.626  1.00  0.00     0.293 HD
ENDBRANCH   8  26
TORSDOF 6
ENDMDL
MODEL 8
REMARK VINA RESULT:    -6.498     12.574     14.718
REMARK INTER + INTRA:          -8.150
REMARK INTER:                  -7.966
REMARK INTRA:                  -0.184
REMARK UNBOUND:                -0.323
REMARK SMILES O=c1c(O)c(-c2ccc(O)c(O)c2)oc2cc(O)cc(O)c12
REMARK SMILES IDX 5 1 3 2 2 3 1 4 22 5 20 6 19 7 17 8 16 9 15 10 14 11 6 12
REMARK SMILES IDX 7 13 8 14 9 15 13 16 11 17 10 18 12 20 4 22 21 24 18 26
REMARK H PARENT 10 19 12 21 4 23 21 25 18 27
REMARK Flexibility Score: inf
ROOT
ATOM      1  C   UNL     1      -6.573   5.483  -3.456  1.00  0.00     0.180 A 
ATOM      2  C   UNL     1      -7.093   5.916  -2.224  1.00  0.00     0.208 A 
ATOM      3  C   UNL     1      -6.648   7.133  -1.686  1.00  0.00     0.238 A 
ATOM      4  O   UNL     1      -7.078   7.488  -0.557  1.00  0.00    -0.285 OA
ATOM      5  C   UNL     1      -5.702   7.913  -2.394  1.00  0.00     0.111 A 
ATOM      6  C   UNL     1      -5.212   9.182  -1.963  1.00  0.00     0.134 A 
ATOM      7  C   UNL     1      -4.180   9.803  -2.678  1.00  0.00     0.093 A 
ATOM      8  C   UNL     1      -3.666   9.231  -3.845  1.00  0.00     0.123 A 
ATOM      9  C   UNL     1      -4.180   8.021  -4.306  1.00  0.00     0.094 A 
ATOM     10  C   UNL     1      -5.184   7.360  -3.595  1.00  0.00     0.146 A 
ATOM     11  O   UNL     1      -5.638   6.204  -4.063  1.00  0.00    -0.452 OA
ENDROOT
BRANCH   1  12
ATOM     12  C   UNL     1      -7.011   4.222  -4.098  1.00  0.00     0.025 A 
ATOM     13  C   UNL     1      -8.336   4.042  -4.524  1.00  0.00     0.016 A 
ATOM     14  C   UNL     1      -8.720   2.854  -5.149  1.00  0.00     0.051 A 
ATOM     15  C   UNL     1      -7.792   1.831  -5.373  1.00  0.00     0.157 A 
ATOM     16  C   UNL     1      -6.073   3.208  -4.341  1.00  0.00     0.062 A 
ATOM     17  C   UNL     1      -6.448   2.013  -4.967  1.00  0.00     0.158 A 
BRANCH  15  18
ATOM     18  O   UNL     1      -8.241   0.667  -5.999  1.00  0.00    -0.504 OA
ATOM     19  H   UNL     1      -8.611   0.638  -6.938  1.00  0.00     0.293 HD
ENDBRANCH  15  18
BRANCH  17  20
ATOM     20  O   UNL     1      -5.463   1.043  -5.164  1.00  0.00    -0.504 OA
ATOM     21  H   UNL     1      -5.043   0.839  -6.060  1.00  0.00     0.293 HD
ENDBRANCH  17  20
ENDBRANCH   1  12
BRANCH   2  22
ATOM     22  O   UNL     1      -8.011   5.121  -1.531  1.00  0.00    -0.502 OA
ATOM     23  H   UNL     1      -8.873   5.490  -1.151  1.00  0.00     0.293 HD
ENDBRANCH   2  22
BRANCH   6  24
ATOM     24  O   UNL     1      -5.719   9.882  -0.864  1.00  0.00    -0.507 OA
ATOM     25  H   UNL     1      -5.357   9.817   0.075  1.00  0.00     0.293 HD
ENDBRANCH   6  24
BRANCH   8  26
ATOM     26  O   UNL     1      -2.651   9.864  -4.558  1.00  0.00    -0.508 OA
ATOM     27  H   UNL     1      -1.775   9.396  -4.762  1.00  0.00     0.293 HD
ENDBRANCH   8  26
TORSDOF 6
ENDMDL
MODEL 9
REMARK VINA RESULT:    -6.491     12.620     13.976
REMARK INTER + INTRA:          -8.142
REMARK INTER:                  -8.161
REMARK INTRA:                   0.019
REMARK UNBOUND:                -0.323
REMARK SMILES O=c1c(O)c(-c2ccc(O)c(O)c2)oc2cc(O)cc(O)c12
REMARK SMILES IDX 5 1 3 2 2 3 1 4 22 5 20 6 19 7 17 8 16 9 15 10 14 11 6 12
REMARK SMILES IDX 7 13 8 14 9 15 13 16 11 17 10 18 12 20 4 22 21 24 18 26
REMARK H PARENT 10 19 12 21 4 23 21 25 18 27
REMARK Flexibility Score: inf
ROOT
ATOM      1  C   UNL     1      -7.299   5.653  -2.197  1.00  0.00     0.180 A 
ATOM      2  C   UNL     1      -8.617   5.756  -1.718  1.00  0.00     0.208 A 
ATOM      3  C   UNL     1      -8.908   6.700  -0.722  1.00  0.00     0.238 A 
ATOM      4  O   UNL     1     -10.078   6.750  -0.260  1.00  0.00    -0.285 OA
ATOM      5  C   UNL     1      -7.883   7.544  -0.229  1.00  0.00     0.111 A 
ATOM      6  C   UNL     1      -8.075   8.564   0.750  1.00  0.00     0.134 A 
ATOM      7  C   UNL     1      -6.964   9.250   1.259  1.00  0.00     0.093 A 
ATOM      8  C   UNL     1      -5.678   8.996   0.776  1.00  0.00     0.123 A 
ATOM      9  C   UNL     1      -5.489   8.043  -0.222  1.00  0.00     0.094 A 
ATOM     10  C   UNL     1      -6.572   7.318  -0.724  1.00  0.00     0.146 A 
ATOM     11  O   UNL     1      -6.347   6.412  -1.667  1.00  0.00    -0.452 OA
ENDROOT
BRANCH   1  12
ATOM     12  C   UNL     1      -6.919   4.697  -3.263  1.00  0.00     0.025 A 
ATOM     13  C   UNL     1      -7.275   3.341  -3.187  1.00  0.00     0.016 A 
ATOM     14  C   UNL     1      -6.926   2.463  -4.216  1.00  0.00     0.051 A 
ATOM     15  C   UNL     1      -6.232   2.919  -5.341  1.00  0.00     0.157 A 
ATOM     16  C   UNL     1      -6.243   5.162  -4.400  1.00  0.00     0.062 A 
ATOM     17  C   UNL     1      -5.889   4.289  -5.437  1.00  0.00     0.158 A 
BRANCH  15  18
ATOM     18  O   UNL     1      -5.911   1.989  -6.332  1.00  0.00    -0.504 OA
ATOM     19  H   UNL     1      -5.732   1.012  -6.152  1.00  0.00     0.293 HD
ENDBRANCH  15  18
BRANCH  17  20
ATOM     20  O   UNL     1      -5.206   4.820  -6.532  1.00  0.00    -0.504 OA
ATOM     21  H   UNL     1      -4.200   4.901  -6.585  1.00  0.00     0.293 HD
ENDBRANCH  17  20
ENDBRANCH   1  12
BRANCH   2  22
ATOM     22  O   UNL     1      -9.609   4.899  -2.203  1.00  0.00    -0.502 OA
ATOM     23  H   UNL     1      -9.737   4.718  -3.192  1.00  0.00     0.293 HD
ENDBRANCH   2  22
BRANCH   6  24
ATOM     24  O   UNL     1      -9.326   8.959   1.233  1.00  0.00    -0.507 OA
ATOM     25  H   UNL     1      -9.992   8.342   1.672  1.00  0.00     0.293 HD
ENDBRANCH   6  24
BRANCH   8  26
ATOM     26  O   UNL     1      -4.581   9.694   1.277  1.00  0.00    -0.508 OA
ATOM     27  H   UNL     1      -4.670  10.333   2.058  1.00  0.00     0.293 HD
ENDBRANCH   8  26
TORSDOF 6
ENDMDL
